data_PCOD8130688
_publ_section_title
;
Structure prediction by ZEFSAII (Michael W. Deem and Ramdas Pophale) SiO2 
 PCOD8130688
Probable space group: C 2/C
;
_chemical_formula_sum "Si O2"
_cell_formula_units_Z 56
_cell_length_a 10.133527
_cell_length_b 20.198705
_cell_length_c 13.472548
_cell_angle_alpha 90.000000
_cell_angle_beta 90.768558
_cell_angle_gamma 90.000000
_cell_volume 2757.368577
_symmetry_space_group_name_H-M "C 2/C"
_symmetry_group_IT_number 15
_symmetry_cell_setting 'monoclinic'
loop_
_space_group_symop_operation_xyz
x,y,z
-x,y,1/2-z
-x,-y,-z
x,-y,1/2+z
1/2+x,1/2+y,z
1/2-x,1/2+y,1/2-z
1/2-x,1/2-y,-z
1/2+x,1/2-y,1/2+z
loop_
_atom_site_type_symbol
_atom_site_label
_atom_site_fract_x
_atom_site_fract_y
_atom_site_fract_z
Si Si1 0.500000 0.716345 0.750000
Si Si2 0.753811 0.916251 0.811644
Si Si3 0.707399 0.329859 0.109773
Si Si4 0.315963 0.971977 0.072428
Si Si5 0.058522 0.763388 0.934718
Si Si6 0.500000 0.654067 0.250000
Si Si7 0.921114 0.452067 0.872168
Si Si8 0.568532 0.821787 0.911790
O O1 0.380193 0.671845 0.790747
O O2 0.553010 0.762400 0.836527
O O3 0.636966 0.944945 0.739227
O O4 0.706061 0.857542 0.885784
O O5 0.872280 0.892905 0.743530
O O6 0.793410 0.977104 0.884502
O O7 0.780987 0.399410 0.109057
O O8 0.817576 0.272994 0.114384
O O9 0.612070 0.316670 0.014933
O O10 0.457788 0.996111 0.117843
O O11 0.313461 0.975866 0.952424
O O12 0.984418 0.802562 0.847908
O O13 0.950987 0.711651 0.979757
O O14 0.955786 0.377141 0.904020
#
# Coordination Sequence:
#
# PCOD8130688 Si02
#       8
#     4   8   8   8   8   4   8   8
#     4  10  18  29  60  93 120 160 198 236 302 388
#     4  11  23  40  62  86 128 166 209 254 310 377
#     4  10  20  38  60  92 127 159 202 253 309 372
#     4  10  20  36  62  93 115 152 212 260 301 355
#     4  10  22  38  63  88 125 166 208 256 308 366
#     4  12  26  41  56  89 130 178 202 248 320 382
#     4  10  19  38  66  90 116 158 208 264 306 360
#     4  10  17  36  66  90 112 160 216 252 298 365
#
# _framework density 20.309218999999999
#
# number of rings (size 3 to 8) (size 9 to 14) (size 15 to 20)
#    0.000    1.714    2.857    3.000    2.000    1.143 
#    2.571    5.714    0.000    0.000    0.000    0.000 
#    0.000    0.000    0.000    0.000    0.000    0.000 
#
# Total GULP energy -346949.557967 kJ/mol
# GULP energy per Si atom -12391.055642 kJ/mol
# Density = 2.026299 g / cm^3
# Si number density = 20.309219 Si / 1000 Ang^3
#
#
#
# Elastic Constant Matrix: (Units=GPa)
#
#
# Indices 1 2 3 4 5 6 
#
# 1 70.2520 39.4576 41.7081 0.0000 -18.7895 0.0000
# 2 39.4576 118.4744 54.8429 0.0000 -12.5647 0.0000
# 3 41.7081 54.8429 100.3298 0.0000 -27.1299 0.0000
# 4 0.0000 0.0000 0.0000 33.0947 0.0000 -17.6536
# 5 -18.7895 -12.5647 -27.1299 0.0000 33.4085 0.0000
# 6 0.0000 0.0000 0.0000 -17.6536 0.0000 13.6520
#
#
#
# Elastic Compliance Matrix: (Units=1/GPa)
#
#
# Indices 1 2 3 4 5 6 
#
# 1 0.021117 -0.004140 -0.004773 0.000000 0.006443 0.000000
# 2 -0.004140 0.012137 -0.005521 0.000000 -0.002247 0.000000
# 3 -0.004773 -0.005521 0.017532 0.000000 0.009476 0.000000
# 4 0.000000 0.000000 0.000000 0.097402 0.000000 0.125952
# 5 0.006443 -0.002247 0.009476 0.000000 0.040406 0.000000
# 6 0.000000 0.000000 0.000000 0.125952 0.000000 0.236119
#
#
# Mechanical properties :
#
#
# Convention : Reuss Voigt Hill
#
# Bulk Modulus (GPa) = 45.62631 62.34148 53.98389
# Shear Modulus (GPa) = 10.84867 26.23423 18.54145
#
# Velocity S-wave (km/s) = 2.31373 3.59798 3.02480
# Velocity P-wave (km/s) = 5.44540 6.92989 6.23200
#
# Compressibility (1/GPa) = 0.02191718
#
# Stress axis : x y z
#
# Youngs Moduli (GPa) = 47.35554 82.39387 57.03996
#
# Poissons Ratio (x) = 0.34112 0.27226
# Poissons Ratio (y) = 0.19605 0.31491
# Poissons Ratio (z) = 0.22603 0.45489
#
# Static dielectric constant tensor:
#      x y z
#    x 3.432590 0.000000 -0.613620 
#    y 0.000000 3.801870 0.000000 
#    z -0.613620 0.000000 3.705190 
# 
# 
# High freq. dielectric constant tensor:
#      x y z
#    x 1.765450 0.000000 -0.037370 
#    y 0.000000 1.792750 0.000000 
#    z -0.037370 0.000000 1.798870 
# 
# From -- ./inp_files/136489.got.cif
#   From: 2010.06.25/outbox.cif.g09.slc.cpg/sg15_69_cif.got.tgz:136489.got - 2010.06.28 07:06:18.
