data_PCOD8130447
_publ_section_title
;
Structure prediction by ZEFSAII (Michael W. Deem and Ramdas Pophale) SiO2 
 PCOD8130447
Probable space group: C 2/C
;
_chemical_formula_sum "Si O2"
_cell_formula_units_Z 52
_cell_length_a 18.409864
_cell_length_b 12.883690
_cell_length_c 20.905351
_cell_angle_alpha 90.000000
_cell_angle_beta 149.883856
_cell_angle_gamma 90.000000
_cell_volume 2487.938128
_symmetry_space_group_name_H-M "C 2/C"
_symmetry_group_IT_number 15
_symmetry_cell_setting 'monoclinic'
loop_
_space_group_symop_operation_xyz
x,y,z
-x,y,1/2-z
-x,-y,-z
x,-y,1/2+z
1/2+x,1/2+y,z
1/2-x,1/2+y,1/2-z
1/2-x,1/2-y,-z
1/2+x,1/2-y,1/2+z
loop_
_atom_site_type_symbol
_atom_site_label
_atom_site_fract_x
_atom_site_fract_y
_atom_site_fract_z
Si Si1 0.253965 0.154321 0.905300
Si Si2 0.918244 0.207653 0.949557
Si Si3 0.464818 0.553809 0.085495
Si Si4 0.730411 0.426864 0.253270
Si Si5 0.930562 0.594951 0.382023
Si Si6 0.500000 0.482184 0.250000
Si Si7 0.701964 0.629553 0.095911
O O1 0.200704 0.145451 0.791351
O O2 0.141423 0.091154 0.862999
O O3 0.250449 0.278072 0.917744
O O4 0.411949 0.101740 0.030033
O O5 0.778391 0.146616 0.815380
O O6 0.904469 0.329599 0.923964
O O7 0.931669 0.171310 0.034250
O O8 0.054609 0.170317 0.013406
O O9 0.608473 0.516854 0.157068
O O10 0.497381 0.556721 0.186060
O O11 0.330377 0.476602 0.967319
O O12 0.890274 0.479690 0.378058
O O13 0.821806 0.613972 0.240742
#
# Coordination Sequence:
#
# PCOD8130447 Si02
#       7
#     8   8   8   8   8   4   8
#     4  10  22  34  51  82 115 148 185 223 274 339
#     4  10  18  31  57  82 111 144 179 231 292 334
#     4  10  19  36  57  74 109 155 191 217 270 341
#     4  10  17  33  54  82 111 139 178 242 288 327
#     4  11  19  31  56  90 113 136 178 242 295 324
#     4  10  24  40  54  74 114 166 196 212 260 346
#     4  10  18  33  55  85 110 138 179 233 292 329
#
# _framework density 20.900841
#
# number of rings (size 3 to 8) (size 9 to 14) (size 15 to 20)
#    0.000    1.846    4.615    1.385    2.154    0.615 
#    0.000    0.000    0.000    3.692    0.000    0.000 
#    0.000    0.000    0.000    0.000    0.000    0.000 
#
# Total GULP energy -322163.859250 kJ/mol
# GULP energy per Si atom -12390.917663 kJ/mol
# Density = 2.085327 g / cm^3
# Si number density = 20.900841 Si / 1000 Ang^3
#
#
#
# Elastic Constant Matrix: (Units=GPa)
#
#
# Indices 1 2 3 4 5 6 
#
# 1 48.9036 25.2767 19.0848 -0.0002 2.1295 -0.0002
# 2 25.2767 68.1561 28.2875 -0.0002 6.9920 -0.0002
# 3 19.0848 28.2875 77.9288 -0.0014 4.7472 -0.0005
# 4 -0.0002 -0.0002 -0.0014 18.5369 -0.0006 1.0485
# 5 2.1295 6.9920 4.7472 -0.0006 29.1257 -0.0001
# 6 -0.0002 -0.0002 -0.0005 1.0485 -0.0001 20.9894
#
#
#
# Elastic Compliance Matrix: (Units=1/GPa)
#
#
# Indices 1 2 3 4 5 6 
#
# 1 0.026044 -0.008314 -0.003400 0.000000 0.000646 0.000000
# 2 -0.008314 0.020221 -0.005096 0.000000 -0.003416 0.000000
# 3 -0.003400 -0.005096 0.015580 0.000001 -0.001067 0.000000
# 4 0.000000 0.000000 0.000001 0.054099 0.000001 -0.002703
# 5 0.000646 -0.003416 -0.001067 0.000001 0.035281 0.000000
# 6 0.000000 0.000000 0.000000 -0.002703 0.000000 0.047778
#
#
# Mechanical properties :
#
#
# Convention : Reuss Voigt Hill
#
# Bulk Modulus (GPa) = 35.42880 37.80961 36.61920
# Shear Modulus (GPa) = 20.65855 21.88640 21.27247
#
# Velocity S-wave (km/s) = 3.14731 3.23949 3.19373
# Velocity P-wave (km/s) = 5.49500 5.66759 5.58197
#
# Compressibility (1/GPa) = 0.02822563
#
# Stress axis : x y z
#
# Youngs Moduli (GPa) = 38.39615 49.45347 64.18666
#
# Poissons Ratio (x) = 0.41116 0.21821
# Poissons Ratio (y) = 0.31923 0.32709
# Poissons Ratio (z) = 0.13053 0.25201
#
# Static dielectric constant tensor:
#      x y z
#    x 3.308840 0.000000 0.033430 
#    y 0.000000 4.050220 0.000000 
#    z 0.033430 0.000000 4.173950 
# 
# 
# High freq. dielectric constant tensor:
#      x y z
#    x 1.760770 0.000000 -0.009590 
#    y 0.000000 1.806400 0.000000 
#    z -0.009590 0.000000 1.842120 
# 
# From -- ./inp_files/104951.got.cif
#   From: 2010.06.25/outbox.cif.g09.slc.cpg/sg15_53_cif.got.tgz:104951.got - 2010.06.28 07:06:18.
