data_PCOD8130030
_publ_section_title
;
Structure prediction by ZEFSAII (Michael W. Deem and Ramdas Pophale) SiO2 
 PCOD8130030
Probable space group: C 2/C
;
_chemical_formula_sum "Si O2"
_cell_formula_units_Z 48
_cell_length_a 11.789815
_cell_length_b 14.973959
_cell_length_c 11.766487
_cell_angle_alpha 90.000000
_cell_angle_beta 99.553088
_cell_angle_gamma 90.000000
_cell_volume 2048.451152
_symmetry_space_group_name_H-M "C 2/C"
_symmetry_group_IT_number 15
_symmetry_cell_setting 'monoclinic'
loop_
_space_group_symop_operation_xyz
x,y,z
-x,y,1/2-z
-x,-y,-z
x,-y,1/2+z
1/2+x,1/2+y,z
1/2-x,1/2+y,1/2-z
1/2-x,1/2-y,-z
1/2+x,1/2-y,1/2+z
loop_
_atom_site_type_symbol
_atom_site_label
_atom_site_fract_x
_atom_site_fract_y
_atom_site_fract_z
Si Si1 0.614494 0.516982 0.090428
Si Si2 0.725222 0.289516 0.872463
Si Si3 0.682696 0.033698 0.039654
Si Si4 0.982689 0.199389 0.402816
Si Si5 0.410881 0.666658 0.831338
Si Si6 0.534661 0.893583 0.128195
O O1 0.603438 0.617006 0.142776
O O2 0.621814 0.438670 0.187182
O O3 0.500000 0.500000 0.000000
O O4 0.728301 0.510197 0.033245
O O5 0.758410 0.393223 0.869913
O O6 0.587289 0.287415 0.827449
O O7 0.796394 0.227828 0.795927
O O8 0.750000 0.250000 0.000000
O O9 0.640477 0.956432 0.115158
O O10 0.578097 0.084652 0.962916
O O11 0.917974 0.294066 0.391531
O O12 0.035640 0.182016 0.535822
O O13 0.500000 0.696154 0.750000
O O14 0.500000 0.911184 0.250000
#
# Coordination Sequence:
#
# PCOD8130030 Si02
#       6
#     8   8   8   8   8   8
#     4  10  19  38  66  92 126 168 201 260 322 359
#     4  10  16  37  66  86 119 173 199 245 315 371
#     4  11  21  43  67  88 129 166 208 258 308 379
#     4  10  20  41  63  89 132 161 198 262 322 362
#     4  10  19  33  62  96 121 162 219 247 289 382
#     4  11  25  43  64  91 126 168 213 255 313 372
#
# _framework density 23.432338000000001
#
# number of rings (size 3 to 8) (size 9 to 14) (size 15 to 20)
#    0.000    1.667    8.333    0.000    0.000    2.000 
#   12.000    1.667    0.000    0.000    0.000    0.000 
#    0.000    0.000    0.000    0.000    0.000    0.000 
#
# Total GULP energy -297534.992104 kJ/mol
# GULP energy per Si atom -12397.291338 kJ/mol
# Density = 2.337901 g / cm^3
# Si number density = 23.432338 Si / 1000 Ang^3
#
#
#
# Elastic Constant Matrix: (Units=GPa)
#
#
# Indices 1 2 3 4 5 6 
#
# 1 130.0654 80.7784 24.0462 0.0000 -35.0997 0.0000
# 2 80.7784 231.0011 31.0152 0.0000 -29.7130 0.0000
# 3 24.0462 31.0152 34.7999 0.0000 -25.4648 0.0000
# 4 0.0000 0.0000 0.0000 18.1771 0.0000 -14.0123
# 5 -35.0997 -29.7130 -25.4648 0.0000 40.4293 0.0000
# 6 0.0000 0.0000 0.0000 -14.0123 0.0000 32.8895
#
#
#
# Elastic Compliance Matrix: (Units=1/GPa)
#
#
# Indices 1 2 3 4 5 6 
#
# 1 0.011758 -0.003141 0.000844 0.000000 0.008432 0.000000
# 2 -0.003141 0.005811 -0.003486 0.000000 -0.000651 0.000000
# 3 0.000844 -0.003486 0.055501 0.000000 0.033129 0.000000
# 4 0.000000 0.000000 0.000000 0.081918 0.000000 0.034901
# 5 0.008432 -0.000651 0.033129 0.000000 0.052443 0.000000
# 6 0.000000 0.000000 0.000000 0.034901 0.000000 0.045274
#
#
# Mechanical properties :
#
#
# Convention : Reuss Voigt Hill
#
# Bulk Modulus (GPa) = 16.25841 74.17178 45.21510
# Shear Modulus (GPa) = 17.55790 35.63429 26.59609
#
# Velocity S-wave (km/s) = 2.74031 3.90389 3.37266
# Velocity P-wave (km/s) = 4.11897 7.21407 5.87404
#
# Compressibility (1/GPa) = 0.06150663
#
# Stress axis : x y z
#
# Youngs Moduli (GPa) = 85.04664 172.07389 18.01770
#
# Poissons Ratio (x) = 0.54040 -0.01521
# Poissons Ratio (y) = 0.26709 0.06280
# Poissons Ratio (z) = -0.07179 0.59980
#
# Static dielectric constant tensor:
#      x y z
#    x 4.670000 0.000000 -0.087810 
#    y 0.000000 5.161500 0.000000 
#    z -0.087810 0.000000 3.803110 
# 
# 
# High freq. dielectric constant tensor:
#      x y z
#    x 1.929910 0.000000 -0.000270 
#    y 0.000000 1.950860 0.000000 
#    z -0.000270 0.000000 1.902840 
# 
# From -- ./inp_files/143641.got.cif
#   From: 2010.06.25/outbox.cif.g09.slc.cpg/sg15_72_cif.got.tgz:143641.got - 2010.06.28 07:06:18.
