data_PCOD8130490
_publ_section_title
;
Structure prediction by ZEFSAII (Michael W. Deem and Ramdas Pophale) SiO2 
 PCOD8130490
Probable space group: C 2/C
;
_chemical_formula_sum "Si O2"
_cell_formula_units_Z 64
_cell_length_a 19.320196
_cell_length_b 11.557291
_cell_length_c 19.455118
_cell_angle_alpha 90.000000
_cell_angle_beta 45.906102
_cell_angle_gamma 90.000000
_cell_volume 3119.946116
_symmetry_space_group_name_H-M "C 2/C"
_symmetry_group_IT_number 15
_symmetry_cell_setting 'monoclinic'
loop_
_space_group_symop_operation_xyz
x,y,z
-x,y,1/2-z
-x,-y,-z
x,-y,1/2+z
1/2+x,1/2+y,z
1/2-x,1/2+y,1/2-z
1/2-x,1/2-y,-z
1/2+x,1/2-y,1/2+z
loop_
_atom_site_type_symbol
_atom_site_label
_atom_site_fract_x
_atom_site_fract_y
_atom_site_fract_z
Si Si1 0.202678 0.842187 0.228905
Si Si2 0.082549 0.731689 0.425839
Si Si3 0.753870 0.079600 0.370193
Si Si4 0.659047 0.978092 0.069244
Si Si5 0.467803 0.032327 0.125680
Si Si6 0.409657 0.809356 0.124988
Si Si7 0.897374 0.719014 0.790263
Si Si8 0.892713 0.337630 0.797359
O O1 0.135357 0.831550 0.344276
O O2 0.303877 0.773087 0.171745
O O3 0.154726 0.781047 0.196233
O O4 0.220413 0.976939 0.200992
O O5 0.162578 0.653986 0.408004
O O6 0.014667 0.655763 0.422582
O O7 0.998126 0.774609 0.537655
O O8 0.742187 0.030810 0.455318
O O9 0.844966 0.160757 0.313979
O O10 0.661780 0.869931 0.120370
O O11 0.560686 0.975764 0.095238
O O12 0.670358 0.102351 0.099029
O O13 0.392673 0.063959 0.238421
O O14 0.428368 0.945076 0.093098
O O15 0.412317 0.831689 0.204652
O O16 0.000000 0.749286 0.750000
O O17 0.000000 0.309322 0.750000
#
# Coordination Sequence:
#
# PCOD8130490 Si02
#       8
#     8   8   8   8   8   8   8   8
#     4  11  25  41  61  93 134 162 209 256 313 386
#     4  11  22  38  63  95 123 162 211 260 313 367
#     4  12  24  38  61  91 126 171 204 255 320 377
#     4  11  20  38  65  94 117 154 218 270 312 356
#     4  10  17  33  63  92 115 144 205 271 314 337
#     4  12  20  37  66  93 121 158 208 270 313 356
#     4  12  23  40  60  90 129 162 207 259 313 372
#     4   9  20  38  63  90 123 165 203 264 312 364
#
# _framework density 20.513175
#
# number of rings (size 3 to 8) (size 9 to 14) (size 15 to 20)
#    0.000    1.000    6.250    1.875    0.000    1.000 
#    0.000    1.875    0.000    0.000    0.000    0.000 
#    0.000    0.000    0.000    0.000    0.000    0.000 
#
# Total GULP energy -396423.453933 kJ/mol
# GULP energy per Si atom -12388.232935 kJ/mol
# Density = 2.046649 g / cm^3
# Si number density = 20.513175 Si / 1000 Ang^3
#
#
#
# Elastic Constant Matrix: (Units=GPa)
#
#
# Indices 1 2 3 4 5 6 
#
# 1 85.5388 29.6211 20.3986 0.0000 -1.5005 0.0000
# 2 29.6211 54.3700 25.6893 0.0000 -5.1362 0.0000
# 3 20.3986 25.6893 100.4112 0.0000 7.7945 0.0000
# 4 0.0000 0.0000 0.0000 1.4256 0.0000 -36.1526
# 5 -1.5005 -5.1362 7.7945 0.0000 27.6907 0.0000
# 6 0.0000 0.0000 0.0000 -36.1526 0.0000 -34.2779
#
#
#
# Elastic Compliance Matrix: (Units=1/GPa)
#
#
# Indices 1 2 3 4 5 6 
#
# 1 0.014509 -0.007453 -0.001016 0.000000 -0.000310 0.000000
# 2 -0.007453 0.025606 -0.005494 0.000000 0.005892 0.000000
# 3 -0.001016 -0.005494 0.011915 0.000000 -0.004428 0.000000
# 4 0.000000 0.000000 0.000000 0.025281 0.000000 -0.026664
# 5 -0.000310 0.005892 -0.004428 0.000000 0.038436 0.000000
# 6 0.000000 0.000000 0.000000 -0.026664 0.000000 -0.001051
#
#
# Mechanical properties :
#
#
# Convention : Reuss Voigt Hill
#
# Bulk Modulus (GPa) = 41.49193 43.52645 42.50919
# Shear Modulus (GPa) = 33.18814 9.94175 21.56494
#
# Velocity S-wave (km/s) = 4.02667 2.20387 3.24585
# Velocity P-wave (km/s) = 6.47222 5.26696 5.90045
#
# Compressibility (1/GPa) = 0.02410107
#
# Stress axis : x y z
#
# Youngs Moduli (GPa) = 68.92467 39.05380 83.92845
#
# Poissons Ratio (x) = 0.29108 0.08531
# Poissons Ratio (y) = 0.51372 0.46112
# Poissons Ratio (z) = 0.07006 0.21457
#
# Static dielectric constant tensor:
#      x y z
#    x 3.790810 0.000000 0.249030 
#    y 0.000000 3.502860 0.000000 
#    z 0.249030 0.000000 3.155110 
# 
# 
# High freq. dielectric constant tensor:
#      x y z
#    x 1.803910 0.000000 0.018720 
#    y 0.000000 1.772860 0.000000 
#    z 0.018720 0.000000 1.807270 
# 
# From -- ./inp_files/252563.got.cif
#   From: 2010.06.25/outbox.cif.g09.slc.cpg/sg15_127_cif.got.tgz:252563.got - 2010.06.28 07:06:18.
