data_PCOD8130255
_publ_section_title
;
Structure prediction by ZEFSAII (Michael W. Deem and Ramdas Pophale) SiO2 
 PCOD8130255
Probable space group: C 2/C
;
_chemical_formula_sum "Si O2"
_cell_formula_units_Z 40
_cell_length_a 7.121468
_cell_length_b 23.297822
_cell_length_c 14.487092
_cell_angle_alpha 90.000000
_cell_angle_beta 66.974275
_cell_angle_gamma 90.000000
_cell_volume 2212.123299
_symmetry_space_group_name_H-M "C 2/C"
_symmetry_group_IT_number 15
_symmetry_cell_setting 'monoclinic'
loop_
_space_group_symop_operation_xyz
x,y,z
-x,y,1/2-z
-x,-y,-z
x,-y,1/2+z
1/2+x,1/2+y,z
1/2-x,1/2+y,1/2-z
1/2-x,1/2-y,-z
1/2+x,1/2-y,1/2+z
loop_
_atom_site_type_symbol
_atom_site_label
_atom_site_fract_x
_atom_site_fract_y
_atom_site_fract_z
Si Si1 0.218064 0.058356 0.796288
Si Si2 0.142861 0.297256 0.081954
Si Si3 0.875601 0.425382 0.459751
Si Si4 0.785883 0.979430 0.393829
Si Si5 0.278725 0.686171 0.757721
O O1 0.375317 0.053310 0.851425
O O2 0.233260 0.009390 0.713917
O O3 0.250959 0.117543 0.733505
O O4 0.989590 0.055441 0.882092
O O5 0.179425 0.358511 0.025431
O O6 0.257145 0.293501 0.157236
O O7 0.899702 0.286933 0.143476
O O8 0.250000 0.250000 0.000000
O O9 0.710660 0.460127 0.552397
O O10 0.094784 0.440061 0.462225
O O11 0.500000 0.706270 0.750000
#
# Coordination Sequence:
#
# PCOD8130255 Si02
#       5
#     8   8   8   8   8
#     4  10  17  31  50  75 102 135 174 212 260 326
#     4  10  21  35  54  81 107 143 188 230 271 322
#     4  10  19  31  50  76 107 136 169 220 267 318
#     4  10  18  29  51  78 101 131 173 214 266 314
#     4  10  18  35  58  75 102 143 187 227 271 328
#
# _framework density 18.082173000000001
#
# number of rings (size 3 to 8) (size 9 to 14) (size 15 to 20)
#    0.000    2.000    4.000    1.200    0.000    0.800 
#    0.000    4.000    0.000    4.800    0.000    0.000 
#    0.000    0.000    0.000    0.000    0.000    0.000 
#
# Total GULP energy -247886.056122 kJ/mol
# GULP energy per Si atom -12394.302806 kJ/mol
# Density = 1.804102 g / cm^3
# Si number density = 18.082173 Si / 1000 Ang^3
#
#
#
# Elastic Constant Matrix: (Units=GPa)
#
#
# Indices 1 2 3 4 5 6 
#
# 1 99.6079 27.5622 18.9626 0.0000 -8.7937 0.0000
# 2 27.5622 92.8650 63.7669 0.0000 -2.2759 0.0000
# 3 18.9626 63.7669 91.9333 0.0000 -2.9995 0.0000
# 4 0.0000 0.0000 0.0000 41.4400 0.0000 -5.4894
# 5 -8.7937 -2.2759 -2.9995 0.0000 25.9769 0.0000
# 6 0.0000 0.0000 0.0000 -5.4894 0.0000 19.1609
#
#
#
# Elastic Compliance Matrix: (Units=1/GPa)
#
#
# Indices 1 2 3 4 5 6 
#
# 1 0.011251 -0.003319 0.000097 0.000000 0.003529 0.000000
# 2 -0.003319 0.021541 -0.014286 0.000000 -0.000886 0.000000
# 3 0.000097 -0.014286 0.020805 0.000000 0.001183 0.000000
# 4 0.000000 0.000000 0.000000 0.025083 0.000000 0.007186
# 5 0.003529 -0.000886 0.001183 0.000000 0.039749 0.000000
# 6 0.000000 0.000000 0.000000 0.007186 0.000000 0.054248
#
#
# Mechanical properties :
#
#
# Convention : Reuss Voigt Hill
#
# Bulk Modulus (GPa) = 53.81903 56.10995 54.96449
# Shear Modulus (GPa) = 23.37671 28.92318 26.14995
#
# Velocity S-wave (km/s) = 3.59946 4.00377 3.80698
# Velocity P-wave (km/s) = 6.86316 7.24372 7.05601
#
# Compressibility (1/GPa) = 0.01858079
#
# Stress axis : x y z
#
# Youngs Moduli (GPa) = 88.88135 46.42271 48.06542
#
# Poissons Ratio (x) = 0.15409 -0.00465
# Poissons Ratio (y) = 0.29502 0.68665
# Poissons Ratio (z) = -0.00860 0.66318
#
# Static dielectric constant tensor:
#      x y z
#    x 3.602860 0.000000 -0.066460 
#    y 0.000000 3.000180 0.000000 
#    z -0.066460 0.000000 3.345400 
# 
# 
# High freq. dielectric constant tensor:
#      x y z
#    x 1.720420 0.000000 -0.009780 
#    y 0.000000 1.650540 0.000000 
#    z -0.009780 0.000000 1.696140 
# 
# From -- ./inp_files/80072.got.cif
#   From: 2010.06.25/outbox.cif.g09.slc.cpg/sg15_41_cif.got.tgz:80072.got - 2010.06.28 07:06:18.
