data_PCOD8130444
_publ_section_title
;
Structure prediction by ZEFSAII (Michael W. Deem and Ramdas Pophale) SiO2 
 PCOD8130444
Probable space group: C 2/C
;
_chemical_formula_sum "Si O2"
_cell_formula_units_Z 56
_cell_length_a 30.410089
_cell_length_b 14.120107
_cell_length_c 14.908653
_cell_angle_alpha 90.000000
_cell_angle_beta 153.727171
_cell_angle_gamma 90.000000
_cell_volume 2833.678895
_symmetry_space_group_name_H-M "C 2/C"
_symmetry_group_IT_number 15
_symmetry_cell_setting 'monoclinic'
loop_
_space_group_symop_operation_xyz
x,y,z
-x,y,1/2-z
-x,-y,-z
x,-y,1/2+z
1/2+x,1/2+y,z
1/2-x,1/2+y,1/2-z
1/2-x,1/2-y,-z
1/2+x,1/2-y,1/2+z
loop_
_atom_site_type_symbol
_atom_site_label
_atom_site_fract_x
_atom_site_fract_y
_atom_site_fract_z
Si Si1 0.063118 0.503338 0.026698
Si Si2 0.068000 0.161786 0.946321
Si Si3 0.731128 0.862220 0.363055
Si Si4 0.435752 0.843337 0.742849
Si Si5 0.765555 0.719556 0.817082
Si Si6 0.894102 0.813653 0.794478
Si Si7 0.917335 0.707735 0.411303
O O1 0.173298 0.461405 0.247800
O O2 0.067551 0.612257 0.000996
O O3 0.000000 0.500000 0.000000
O O4 0.001292 0.437574 0.845265
O O5 0.000000 0.100699 0.750000
O O6 0.008671 0.259415 0.849587
O O7 0.176383 0.182672 0.101920
O O8 0.079646 0.120605 0.069344
O O9 0.774392 0.830921 0.345822
O O10 0.822842 0.874314 0.599557
O O11 0.656111 0.782727 0.262165
O O12 0.340187 0.851182 0.504674
O O13 0.396760 0.827032 0.772650
O O14 0.675980 0.737743 0.720077
O O15 0.990584 0.780704 0.915374
#
# Coordination Sequence:
#
# PCOD8130444 Si02
#       7
#     8   8   8   8   8   8   8
#     4  10  17  33  54  80 108 137 174 228 278 313
#     4   8  14  28  51  72  96 132 183 215 253 309
#     4  10  18  32  52  70 108 155 175 205 274 336
#     4   9  16  31  51  75 100 142 175 216 269 321
#     4  10  18  29  48  77 106 138 182 221 259 311
#     4   9  17  31  50  74 104 144 181 207 260 333
#     4  10  19  31  52  84 108 129 178 238 263 309
#
# _framework density 19.762295999999999
#
# number of rings (size 3 to 8) (size 9 to 14) (size 15 to 20)
#    0.000    2.571    5.714    0.429    0.000    0.571 
#    0.000    2.857    3.143    0.000   11.143    9.000 
#    0.000    0.000    0.000    0.000    0.000    0.000 
#
# Total GULP energy -346871.713430 kJ/mol
# GULP energy per Si atom -12388.275480 kJ/mol
# Density = 1.971732 g / cm^3
# Si number density = 19.762296 Si / 1000 Ang^3
#
#
#
# Elastic Constant Matrix: (Units=GPa)
#
#
# Indices 1 2 3 4 5 6 
#
# 1 103.2913 15.2300 60.0663 0.0000 5.8397 0.0000
# 2 15.2300 31.1186 26.6504 0.0000 3.5288 0.0000
# 3 60.0663 26.6504 148.0384 0.0000 -13.2530 0.0000
# 4 0.0000 0.0000 0.0000 14.8234 0.0000 0.7988
# 5 5.8397 3.5288 -13.2530 0.0000 37.6163 0.0000
# 6 0.0000 0.0000 0.0000 0.7988 0.0000 8.6863
#
#
#
# Elastic Compliance Matrix: (Units=1/GPa)
#
#
# Indices 1 2 3 4 5 6 
#
# 1 0.013298 -0.001361 -0.005497 0.000000 -0.003874 0.000000
# 2 -0.001361 0.039570 -0.007109 0.000000 -0.006006 0.000000
# 3 -0.005497 -0.007109 0.010740 0.000000 0.005304 0.000000
# 4 0.000000 0.000000 0.000000 0.067797 0.000000 -0.006234
# 5 -0.003874 -0.006006 0.005304 0.000000 0.029618 0.000000
# 6 0.000000 0.000000 0.000000 -0.006234 0.000000 0.115697
#
#
# Mechanical properties :
#
#
# Convention : Reuss Voigt Hill
#
# Bulk Modulus (GPa) = 28.03175 54.03797 41.03486
# Shear Modulus (GPa) = 15.79547 24.25864 20.02706
#
# Velocity S-wave (km/s) = 2.83021 3.50740 3.18684
# Velocity P-wave (km/s) = 4.98953 6.61860 5.86094
#
# Compressibility (1/GPa) = 0.03567383
#
# Stress axis : x y z
#
# Youngs Moduli (GPa) = 75.20009 25.27138 93.10801
#
# Poissons Ratio (x) = 0.03439 0.51185
# Poissons Ratio (y) = 0.10234 0.66191
# Poissons Ratio (z) = 0.41340 0.17966
#
# Static dielectric constant tensor:
#      x y z
#    x 4.095330 0.000000 -0.820390 
#    y 0.000000 3.082210 0.000000 
#    z -0.820390 0.000000 4.533930 
# 
# 
# High freq. dielectric constant tensor:
#      x y z
#    x 1.777550 0.000000 -0.007000 
#    y 0.000000 1.703650 0.000000 
#    z -0.007000 0.000000 1.773080 
# 
# From -- ./inp_files/182170.got.cif
#   From: 2010.06.25/outbox.cif.g09.slc.cpg/sg15_92_cif.got.tgz:182170.got - 2010.06.28 07:06:18.
