data_PCOD8130935
_publ_section_title
;
Structure prediction by ZEFSAII (Michael W. Deem and Ramdas Pophale) SiO2 
 PCOD8130935
Probable space group: C 2/C
;
_chemical_formula_sum "Si O2"
_cell_formula_units_Z 40
_cell_length_a 5.046555
_cell_length_b 19.849518
_cell_length_c 19.365384
_cell_angle_alpha 90.000000
_cell_angle_beta 101.103176
_cell_angle_gamma 90.000000
_cell_volume 1903.552756
_symmetry_space_group_name_H-M "C 2/C"
_symmetry_group_IT_number 15
_symmetry_cell_setting 'monoclinic'
loop_
_space_group_symop_operation_xyz
x,y,z
-x,y,1/2-z
-x,-y,-z
x,-y,1/2+z
1/2+x,1/2+y,z
1/2-x,1/2+y,1/2-z
1/2-x,1/2-y,-z
1/2+x,1/2-y,1/2+z
loop_
_atom_site_type_symbol
_atom_site_label
_atom_site_fract_x
_atom_site_fract_y
_atom_site_fract_z
Si Si1 0.683501 0.514332 0.910405
Si Si2 0.704542 0.193651 0.893683
Si Si3 0.783317 0.270949 0.579844
Si Si4 0.636539 0.945373 0.328540
Si Si5 0.494464 0.390546 0.519074
O O1 0.427365 0.519011 0.846435
O O2 0.689112 0.440438 0.944639
O O3 0.959849 0.526977 0.883560
O O4 0.663563 0.570230 0.969289
O O5 0.414009 0.227301 0.882508
O O6 0.682502 0.134777 0.835819
O O7 0.915225 0.251892 0.879955
O O8 0.792368 0.162586 0.972377
O O9 0.750000 0.250000 0.500000
O O10 0.705460 0.350366 0.579474
O O11 0.500000 0.964872 0.250000
#
# Coordination Sequence:
#
# PCOD8130935 Si02
#       5
#     8   8   8   8   8
#     4  10  22  34  55  82 108 144 176 220 280 320
#     4  10  20  32  52  80 106 138 174 217 275 320
#     4  10  18  30  51  79 108 135 163 207 270 331
#     4  11  22  38  55  75 105 145 192 227 256 317
#     4   9  19  34  54  84 116 133 169 224 279 336
#
# _framework density 21.013339999999999
#
# number of rings (size 3 to 8) (size 9 to 14) (size 15 to 20)
#    0.000    2.000    0.000    6.600    0.000   13.600 
#    0.000    0.000    0.000    4.800    0.000    2.800 
#    0.000    0.000    0.000    0.000    0.000    0.000 
#
# Total GULP energy -247972.971911 kJ/mol
# GULP energy per Si atom -12398.648596 kJ/mol
# Density = 2.096551 g / cm^3
# Si number density = 21.013340 Si / 1000 Ang^3
#
#
#
# Elastic Constant Matrix: (Units=GPa)
#
#
# Indices 1 2 3 4 5 6 
#
# 1 82.0619 10.2684 -0.5730 0.0000 -0.2803 0.0000
# 2 10.2684 87.7507 16.4633 0.0000 -0.4508 0.0000
# 3 -0.5730 16.4633 43.5771 0.0000 5.8009 0.0000
# 4 0.0000 0.0000 0.0000 13.8751 0.0000 3.6478
# 5 -0.2803 -0.4508 5.8009 0.0000 25.3676 0.0000
# 6 0.0000 0.0000 0.0000 3.6478 0.0000 30.8269
#
#
#
# Elastic Compliance Matrix: (Units=1/GPa)
#
#
# Indices 1 2 3 4 5 6 
#
# 1 0.012391 -0.001596 0.000775 0.000000 -0.000069 0.000000
# 2 -0.001596 0.012514 -0.004926 0.000000 0.001331 0.000000
# 3 0.000775 -0.004926 0.025609 0.000000 -0.005935 0.000000
# 4 0.000000 0.000000 0.000000 0.074386 0.000000 -0.008802
# 5 -0.000069 0.001331 -0.005935 0.000000 0.040800 0.000000
# 6 0.000000 0.000000 0.000000 -0.008802 0.000000 0.033481
#
#
# Mechanical properties :
#
#
# Convention : Reuss Voigt Hill
#
# Bulk Modulus (GPa) = 25.62767 29.52300 27.57533
# Shear Modulus (GPa) = 22.35334 26.49599 24.42466
#
# Velocity S-wave (km/s) = 3.26509 3.55479 3.41301
# Velocity P-wave (km/s) = 5.14167 5.56137 5.35563
#
# Compressibility (1/GPa) = 0.03902033
#
# Stress axis : x y z
#
# Youngs Moduli (GPa) = 80.70524 79.91292 39.04870
#
# Poissons Ratio (x) = 0.12751 -0.03026
# Poissons Ratio (y) = 0.12878 0.19235
# Poissons Ratio (z) = -0.06254 0.39363
#
# Static dielectric constant tensor:
#      x y z
#    x 4.054250 0.000000 0.164380 
#    y 0.000000 4.322740 0.000000 
#    z 0.164380 0.000000 3.378770 
# 
# 
# High freq. dielectric constant tensor:
#      x y z
#    x 1.837320 0.000000 0.001600 
#    y 0.000000 1.825520 0.000000 
#    z 0.001600 0.000000 1.761920 
# 
# From -- ./inp_files/184631.got.cif
#   From: 2010.06.25/outbox.cif.g09.slc.cpg/sg15_93_cif.got.tgz:184631.got - 2010.06.28 07:06:18.
