data_PCOD8130422
_publ_section_title
;
Structure prediction by ZEFSAII (Michael W. Deem and Ramdas Pophale) SiO2 
 PCOD8130422
Probable space group: C 2/C
;
_chemical_formula_sum "Si O2"
_cell_formula_units_Z 64
_cell_length_a 23.224922
_cell_length_b 11.462456
_cell_length_c 13.240445
_cell_angle_alpha 90.000000
_cell_angle_beta 100.135061
_cell_angle_gamma 90.000000
_cell_volume 3469.798285
_symmetry_space_group_name_H-M "C 2/C"
_symmetry_group_IT_number 15
_symmetry_cell_setting 'monoclinic'
loop_
_space_group_symop_operation_xyz
x,y,z
-x,y,1/2-z
-x,-y,-z
x,-y,1/2+z
1/2+x,1/2+y,z
1/2-x,1/2+y,1/2-z
1/2-x,1/2-y,-z
1/2+x,1/2-y,1/2+z
loop_
_atom_site_type_symbol
_atom_site_label
_atom_site_fract_x
_atom_site_fract_y
_atom_site_fract_z
Si Si1 0.883604 0.682559 0.431891
Si Si2 0.613528 0.017127 0.413495
Si Si3 0.787032 0.898197 0.922310
Si Si4 0.705225 0.132435 0.572281
Si Si5 0.512096 0.431491 0.370316
Si Si6 0.098128 0.049642 0.531025
Si Si7 0.494130 0.170098 0.129739
Si Si8 0.183211 0.458913 0.742771
O O1 0.874757 0.607583 0.530797
O O2 0.880070 0.817026 0.462450
O O3 0.945014 0.643772 0.404731
O O4 0.834182 0.653439 0.331797
O O5 0.653698 0.114997 0.476407
O O6 0.548324 0.064010 0.412443
O O7 0.628827 0.008169 0.299313
O O8 0.796754 0.765404 0.895434
O O9 0.740528 0.943913 0.827174
O O10 0.846177 0.970407 0.928753
O O11 0.764694 0.905897 0.031910
O O12 0.696434 0.064265 0.672450
O O13 0.500000 0.442339 0.250000
O O14 0.567109 0.514170 0.415716
O O15 0.451408 0.473860 0.400945
O O16 0.528007 0.299233 0.410174
O O17 0.500000 0.173223 0.250000
#
# Coordination Sequence:
#
# PCOD8130422 Si02
#       8
#     8   8   8   8   8   8   8   8
#     4  10  21  36  55  85 118 148 185 244 283 344
#     4  10  19  36  56  80 117 147 185 237 286 333
#     4  10  21  38  61  81 108 155 193 235 287 343
#     4   9  21  39  55  81 110 147 195 238 274 336
#     4   9  20  37  58  87 119 146 189 239 278 351
#     4  10  21  38  58  87 116 150 190 233 300 341
#     4  10  17  32  61  84 106 155 192 225 282 344
#     4  10  21  37  55  82 115 145 195 238 278 339
#
# _framework density 18.444876000000001
#
# number of rings (size 3 to 8) (size 9 to 14) (size 15 to 20)
#    0.000    2.250    1.250    1.125    1.750    1.000 
#    4.500    2.500    0.000    0.000    0.000    0.000 
#    0.000    0.000    0.000    0.000    0.000    0.000 
#
# Total GULP energy -396674.779804 kJ/mol
# GULP energy per Si atom -12396.086869 kJ/mol
# Density = 1.840289 g / cm^3
# Si number density = 18.444876 Si / 1000 Ang^3
#
#
#
# Elastic Constant Matrix: (Units=GPa)
#
#
# Indices 1 2 3 4 5 6 
#
# 1 89.3624 52.4775 36.1488 0.0000 12.8715 0.0000
# 2 52.4775 75.1974 53.5994 0.0000 -0.4110 0.0000
# 3 36.1488 53.5994 96.1338 0.0000 -0.4293 0.0000
# 4 0.0000 0.0000 0.0000 20.4595 0.0000 1.7359
# 5 12.8715 -0.4110 -0.4293 0.0000 24.2734 0.0000
# 6 0.0000 0.0000 0.0000 1.7359 0.0000 34.0368
#
#
#
# Elastic Compliance Matrix: (Units=1/GPa)
#
#
# Indices 1 2 3 4 5 6 
#
# 1 0.021938 -0.015694 0.000448 0.000000 -0.011891 0.000000
# 2 -0.015694 0.033296 -0.012624 0.000000 0.008663 0.000000
# 3 0.000448 -0.012624 0.017272 0.000000 -0.000146 0.000000
# 4 0.000000 0.000000 0.000000 0.049089 0.000000 -0.002504
# 5 -0.011891 0.008663 -0.000146 0.000000 0.047647 0.000000
# 6 0.000000 0.000000 0.000000 -0.002504 0.000000 0.029508
#
#
# Mechanical properties :
#
#
# Convention : Reuss Voigt Hill
#
# Bulk Modulus (GPa) = 59.64725 60.57165 60.10945
# Shear Modulus (GPa) = 19.22483 23.65181 21.43832
#
# Velocity S-wave (km/s) = 3.23195 3.58480 3.41294
# Velocity P-wave (km/s) = 6.80703 7.07425 6.94192
#
# Compressibility (1/GPa) = 0.01676523
#
# Stress axis : x y z
#
# Youngs Moduli (GPa) = 45.58242 30.03328 57.89772
#
# Poissons Ratio (x) = 0.47134 -0.02592
# Poissons Ratio (y) = 0.71537 0.73092
# Poissons Ratio (z) = -0.02041 0.37915
#
# Static dielectric constant tensor:
#      x y z
#    x 2.784620 0.000000 0.048950 
#    y 0.000000 3.383640 0.000000 
#    z 0.048950 0.000000 3.394990 
# 
# 
# High freq. dielectric constant tensor:
#      x y z
#    x 1.718210 0.000000 -0.000650 
#    y 0.000000 1.712040 0.000000 
#    z -0.000650 0.000000 1.716640 
# 
# From -- ./inp_files/167664.got.cif
#   From: 2010.06.25/outbox.cif.g09.slc.cpg/sg15_84_cif.got.tgz:167664.got - 2010.06.28 07:06:18.
