data_PCOD8130877
_publ_section_title
;
Structure prediction by ZEFSAII (Michael W. Deem and Ramdas Pophale) SiO2 
 PCOD8130877
Probable space group: C 2/C
;
_chemical_formula_sum "Si O2"
_cell_formula_units_Z 52
_cell_length_a 10.665314
_cell_length_b 25.545186
_cell_length_c 8.761831
_cell_angle_alpha 90.000000
_cell_angle_beta 61.768458
_cell_angle_gamma 90.000000
_cell_volume 2103.171937
_symmetry_space_group_name_H-M "C 2/C"
_symmetry_group_IT_number 15
_symmetry_cell_setting 'monoclinic'
loop_
_space_group_symop_operation_xyz
x,y,z
-x,y,1/2-z
-x,-y,-z
x,-y,1/2+z
1/2+x,1/2+y,z
1/2-x,1/2+y,1/2-z
1/2-x,1/2-y,-z
1/2+x,1/2-y,1/2+z
loop_
_atom_site_type_symbol
_atom_site_label
_atom_site_fract_x
_atom_site_fract_y
_atom_site_fract_z
Si Si1 0.294600 0.338377 0.493747
Si Si2 0.294281 0.487876 0.867429
Si Si3 0.240913 0.427029 0.167761
Si Si4 0.497090 0.737597 0.038084
Si Si5 0.567118 0.562011 0.493050
Si Si6 0.725271 0.191332 0.706203
Si Si7 0.500000 0.190563 0.250000
O O1 0.387877 0.308257 0.563547
O O2 0.355162 0.396320 0.441668
O O3 0.297963 0.306359 0.332818
O O4 0.135436 0.345935 0.646446
O O5 0.210507 0.535743 0.832628
O O6 0.352285 0.445798 0.713369
O O7 0.187523 0.456576 0.043501
O O8 0.422577 0.508813 0.909838
O O9 0.172836 0.368998 0.212555
O O10 0.409564 0.417914 0.056896
O O11 0.416224 0.771620 0.218095
O O12 0.653209 0.711369 0.985348
O O13 0.529640 0.775074 0.880114
#
# Coordination Sequence:
#
# PCOD8130877 Si02
#       7
#     8   8   8   8   8   8   4
#     4  11  19  29  50  77 108 144 175 232 279 327
#     4  10  21  33  49  82 116 144 178 233 276 346
#     4  11  19  32  52  81 117 145 179 224 289 330
#     4  11  18  32  47  78 116 142 183 233 277 322
#     4  11  19  31  52  76 112 142 182 222 289 328
#     4  11  20  30  53  82 113 150 183 233 276 330
#     4  10  18  30  46  74 108 136 182 228 274 316
#
# _framework density 24.72456
#
# number of rings (size 3 to 8) (size 9 to 14) (size 15 to 20)
#    0.000    1.231    6.154    4.615    0.000    0.000 
#    0.000    0.000    0.000    1.846    4.000    0.000 
#    0.000    0.000    0.000    0.000    0.000    0.000 
#
# Total GULP energy -322159.877896 kJ/mol
# GULP energy per Si atom -12390.764534 kJ/mol
# Density = 2.466829 g / cm^3
# Si number density = 24.724560 Si / 1000 Ang^3
#
#
#
# Elastic Constant Matrix: (Units=GPa)
#
#
# Indices 1 2 3 4 5 6 
#
# 1 52.6346 27.8591 30.4604 0.0000 -3.0393 0.0000
# 2 27.8591 120.5829 47.0243 0.0000 -17.4338 0.0000
# 3 30.4604 47.0243 102.4318 0.0000 -5.1539 0.0000
# 4 0.0000 0.0000 0.0000 38.1091 0.0000 -12.2680
# 5 -3.0393 -17.4338 -5.1539 0.0000 27.3967 0.0000
# 6 0.0000 0.0000 0.0000 -12.2680 0.0000 -13.6094
#
#
#
# Elastic Compliance Matrix: (Units=1/GPa)
#
#
# Indices 1 2 3 4 5 6 
#
# 1 0.024029 -0.003457 -0.005588 0.000000 -0.000585 0.000000
# 2 -0.003457 0.011531 -0.003953 0.000000 0.006211 0.000000
# 3 -0.005588 -0.003953 0.013206 0.000000 -0.000651 0.000000
# 4 0.000000 0.000000 0.000000 0.020338 0.000000 -0.018334
# 5 -0.000585 0.006211 -0.000651 0.000000 0.040265 0.000000
# 6 0.000000 0.000000 0.000000 -0.018334 0.000000 -0.056952
#
#
# Mechanical properties :
#
#
# Convention : Reuss Voigt Hill
#
# Bulk Modulus (GPa) = 43.91735 54.03743 48.97739
# Shear Modulus (GPa) = 58.13623 21.73298 39.93461
#
# Velocity S-wave (km/s) = 4.85434 2.96802 4.02329
# Velocity P-wave (km/s) = 7.01574 5.80075 6.43698
#
# Compressibility (1/GPa) = 0.02277005
#
# Stress axis : x y z
#
# Youngs Moduli (GPa) = 41.61701 86.71999 75.72099
#
# Poissons Ratio (x) = 0.29979 0.42312
# Poissons Ratio (y) = 0.14387 0.29935
# Poissons Ratio (z) = 0.23255 0.34283
#
# Static dielectric constant tensor:
#      x y z
#    x 4.003470 0.000000 0.087950 
#    y 0.000000 4.579060 0.000000 
#    z 0.087950 0.000000 4.679790 
# 
# 
# High freq. dielectric constant tensor:
#      x y z
#    x 1.945130 0.000000 0.012290 
#    y 0.000000 1.989670 0.000000 
#    z 0.012290 0.000000 1.982390 
# 
# From -- ./inp_files/34110.got.cif
#   From: 2010.06.25/outbox.cif.g09.slc.cpg/sg15_18_cif.got.tgz:34110.got - 2010.06.28 07:06:18.
