data_PCOD8130241
_publ_section_title
;
Structure prediction by ZEFSAII (Michael W. Deem and Ramdas Pophale) SiO2 
 PCOD8130241
Probable space group: C 2/C
;
_chemical_formula_sum "Si O2"
_cell_formula_units_Z 52
_cell_length_a 11.109705
_cell_length_b 24.655998
_cell_length_c 15.282559
_cell_angle_alpha 90.000000
_cell_angle_beta 45.630480
_cell_angle_gamma 90.000000
_cell_volume 2992.491643
_symmetry_space_group_name_H-M "C 2/C"
_symmetry_group_IT_number 15
_symmetry_cell_setting 'monoclinic'
loop_
_space_group_symop_operation_xyz
x,y,z
-x,y,1/2-z
-x,-y,-z
x,-y,1/2+z
1/2+x,1/2+y,z
1/2-x,1/2+y,1/2-z
1/2-x,1/2-y,-z
1/2+x,1/2-y,1/2+z
loop_
_atom_site_type_symbol
_atom_site_label
_atom_site_fract_x
_atom_site_fract_y
_atom_site_fract_z
Si Si1 0.662871 0.183471 0.228667
Si Si2 0.553649 0.134788 0.026010
Si Si3 0.267184 0.588154 0.068980
Si Si4 0.086374 0.913410 0.300410
Si Si5 0.821869 0.197941 0.797231
Si Si6 0.561458 0.042780 0.897633
Si Si7 0.500000 0.993563 0.750000
O O1 0.500000 0.184666 0.250000
O O2 0.616334 0.158625 0.346680
O O3 0.792362 0.143188 0.113248
O O4 0.736799 0.243512 0.210957
O O5 0.648073 0.094734 0.044956
O O6 0.682262 0.183538 0.940632
O O7 0.505939 0.101727 0.962393
O O8 0.169942 0.542664 0.175656
O O9 0.453131 0.569784 0.943110
O O10 0.160013 0.852132 0.281013
O O11 0.235731 0.957376 0.220521
O O12 0.000000 0.910433 0.250000
O O13 0.000000 0.209163 0.750000
O O14 0.476386 0.031269 0.847340
O O15 0.500000 0.000000 0.000000
#
# Coordination Sequence:
#
# PCOD8130241 Si02
#       7
#     8   8   8   8   8   8   4
#     4   9  18  24  43  71 103 132 154 190 243 318
#     4  10  17  31  45  67  99 134 158 196 248 298
#     4  11  17  31  45  70 103 127 162 205 245 301
#     4  10  18  31  48  71 100 131 161 206 251 300
#     4   9  16  24  41  69  98 133 156 182 241 318
#     4  11  20  35  53  67  96 137 173 212 251 291
#     4  12  22  34  50  72  94 140 184 206 246 294
#
# _framework density 17.376825
#
# number of rings (size 3 to 8) (size 9 to 14) (size 15 to 20)
#    0.000    1.846    8.462    0.000    2.154    2.462 
#    0.000    0.000    0.000    0.000    0.000    4.308 
#    0.000    0.000    0.000    0.000    0.000    0.000 
#
# Total GULP energy -322128.371328 kJ/mol
# GULP energy per Si atom -12389.552743 kJ/mol
# Density = 1.733727 g / cm^3
# Si number density = 17.376825 Si / 1000 Ang^3
#
#
#
# Elastic Constant Matrix: (Units=GPa)
#
#
# Indices 1 2 3 4 5 6 
#
# 1 26.2341 28.8630 22.0131 0.0000 5.0893 0.0000
# 2 28.8630 89.4134 49.3420 0.0000 1.7498 0.0000
# 3 22.0131 49.3420 133.0915 0.0000 -7.8957 0.0000
# 4 0.0000 0.0000 0.0000 11.1587 0.0000 18.5386
# 5 5.0893 1.7498 -7.8957 0.0000 25.9227 0.0000
# 6 0.0000 0.0000 0.0000 18.5386 0.0000 -6.1004
#
#
#
# Elastic Compliance Matrix: (Units=1/GPa)
#
#
# Indices 1 2 3 4 5 6 
#
# 1 0.064269 -0.017862 -0.004771 0.000000 -0.012865 0.000000
# 2 -0.017862 0.019197 -0.004106 0.000000 0.000960 0.000000
# 3 -0.004771 -0.004106 0.010079 0.000000 0.004284 0.000000
# 4 0.000000 0.000000 0.000000 0.014816 0.000000 0.045024
# 5 -0.012865 0.000960 0.004284 0.000000 0.042342 0.000000
# 6 0.000000 0.000000 0.000000 0.045024 0.000000 -0.027101
#
#
# Mechanical properties :
#
#
# Convention : Reuss Voigt Hill
#
# Bulk Modulus (GPa) = 24.95770 49.90838 37.43304
# Shear Modulus (GPa) = 26.25566 16.09760 21.17663
#
# Velocity S-wave (km/s) = 3.89132 3.04696 3.49473
# Velocity P-wave (km/s) = 5.88079 6.41578 6.15410
#
# Compressibility (1/GPa) = 0.04006780
#
# Stress axis : x y z
#
# Youngs Moduli (GPa) = 15.55955 52.09226 99.21556
#
# Poissons Ratio (x) = 0.93045 0.47339
# Poissons Ratio (y) = 0.27792 0.40735
# Poissons Ratio (z) = 0.07424 0.21387
#
# Static dielectric constant tensor:
#      x y z
#    x 2.591450 0.000000 -0.082280 
#    y 0.000000 3.539380 0.000000 
#    z -0.082280 0.000000 3.585200 
# 
# 
# High freq. dielectric constant tensor:
#      x y z
#    x 1.579250 0.000000 -0.006920 
#    y 0.000000 1.673890 0.000000 
#    z -0.006920 0.000000 1.695440 
# 
# From -- ./inp_files/147818.got.cif
#   From: 2010.06.25/outbox.cif.g09.slc.cpg/sg15_74_cif.got.tgz:147818.got - 2010.06.28 07:06:18.
