data_PCOD8130543
_publ_section_title
;
Structure prediction by ZEFSAII (Michael W. Deem and Ramdas Pophale) SiO2 
 PCOD8130543
Probable space group: C 2/C
;
_chemical_formula_sum "Si O2"
_cell_formula_units_Z 60
_cell_length_a 13.517885
_cell_length_b 11.985221
_cell_length_c 23.819627
_cell_angle_alpha 90.000000
_cell_angle_beta 64.390393
_cell_angle_gamma 90.000000
_cell_volume 3480.012056
_symmetry_space_group_name_H-M "C 2/C"
_symmetry_group_IT_number 15
_symmetry_cell_setting 'monoclinic'
loop_
_space_group_symop_operation_xyz
x,y,z
-x,y,1/2-z
-x,-y,-z
x,-y,1/2+z
1/2+x,1/2+y,z
1/2-x,1/2+y,1/2-z
1/2-x,1/2-y,-z
1/2+x,1/2-y,1/2+z
loop_
_atom_site_type_symbol
_atom_site_label
_atom_site_fract_x
_atom_site_fract_y
_atom_site_fract_z
Si Si1 0.959240 0.285574 0.990727
Si Si2 0.289661 0.302739 0.615926
Si Si3 0.092435 0.092493 0.570735
Si Si4 0.000000 0.049735 0.250000
Si Si5 0.899573 0.838526 0.307166
Si Si6 0.008096 0.865605 0.869073
Si Si7 0.816254 0.436897 0.955384
Si Si8 0.135636 0.311616 0.036621
O O1 0.974347 0.162294 0.959834
O O2 0.925153 0.374815 0.951606
O O3 0.861438 0.279501 0.059898
O O4 0.073265 0.321216 0.991892
O O5 0.212526 0.227620 0.675080
O O6 0.368070 0.368250 0.639056
O O7 0.217388 0.389404 0.597271
O O8 0.077265 0.159029 0.632121
O O9 0.219941 0.086969 0.523370
O O10 0.048788 0.967968 0.585428
O O11 0.986114 0.127102 0.199430
O O12 0.105598 0.966770 0.215219
O O13 0.000000 0.776334 0.250000
O O14 0.941017 0.754632 0.900890
O O15 0.842517 0.567113 0.942892
O O16 0.250000 0.250000 0.000000
#
# Coordination Sequence:
#
# PCOD8130543 Si02
#       8
#     8   8   8   4   8   8   8   8
#     4  10  20  33  56  80 112 146 175 223 269 323
#     4  10  19  33  59  82 105 134 184 230 275 308
#     4  10  17  34  58  82 103 140 190 222 261 316
#     4   8  20  38  60  70 100 148 190 222 260 318
#     4   9  17  33  60  78  97 132 185 238 260 301
#     4  10  21  37  56  80 108 147 182 221 265 331
#     4  11  19  34  55  82 115 145 170 225 278 321
#     4  11  23  33  50  83 122 148 172 212 275 343
#
# _framework density 17.241320000000002
#
# number of rings (size 3 to 8) (size 9 to 14) (size 15 to 20)
#    0.400    1.600    4.000    1.200    1.867    1.600 
#    0.000    2.667    7.333    0.000    0.000    0.000 
#    0.000    0.000    0.000    0.000    0.000    0.000 
#
# Total GULP energy -371853.258874 kJ/mol
# GULP energy per Si atom -12395.108629 kJ/mol
# Density = 1.720208 g / cm^3
# Si number density = 17.241320 Si / 1000 Ang^3
#
#
#
# Elastic Constant Matrix: (Units=GPa)
#
#
# Indices 1 2 3 4 5 6 
#
# 1 118.4038 47.4294 39.4975 0.0000 10.3293 0.0000
# 2 47.4294 92.7987 31.9044 0.0000 7.8232 0.0000
# 3 39.4975 31.9044 94.1083 0.0000 3.2545 0.0000
# 4 0.0000 0.0000 0.0000 22.8403 0.0000 -0.6606
# 5 10.3293 7.8232 3.2545 0.0000 21.0282 0.0000
# 6 0.0000 0.0000 0.0000 -0.6606 0.0000 23.9666
#
#
#
# Elastic Compliance Matrix: (Units=1/GPa)
#
#
# Indices 1 2 3 4 5 6 
#
# 1 0.011652 -0.004548 -0.003226 0.000000 -0.003532 0.000000
# 2 -0.004548 0.014303 -0.002849 0.000000 -0.002646 0.000000
# 3 -0.003226 -0.002849 0.012924 0.000000 0.000644 0.000000
# 4 0.000000 0.000000 0.000000 0.043817 0.000000 0.001208
# 5 -0.003532 -0.002646 0.000644 0.000000 0.050175 0.000000
# 6 0.000000 0.000000 0.000000 0.001208 0.000000 0.041758
#
#
# Mechanical properties :
#
#
# Convention : Reuss Voigt Hill
#
# Bulk Modulus (GPa) = 56.71397 60.33036 58.52217
# Shear Modulus (GPa) = 24.78283 25.99899 25.39091
#
# Velocity S-wave (km/s) = 3.79543 3.88744 3.84171
# Velocity P-wave (km/s) = 7.22307 7.43083 7.32769
#
# Compressibility (1/GPa) = 0.01763234
#
# Stress axis : x y z
#
# Youngs Moduli (GPa) = 85.82230 69.91491 77.37823
#
# Poissons Ratio (x) = 0.31800 0.24964
# Poissons Ratio (y) = 0.39035 0.22041
# Poissons Ratio (z) = 0.27688 0.19915
#
# Static dielectric constant tensor:
#      x y z
#    x 3.233180 0.000000 -0.013150 
#    y 0.000000 3.248610 0.000000 
#    z -0.013150 0.000000 3.137620 
# 
# 
# High freq. dielectric constant tensor:
#      x y z
#    x 1.658050 0.000000 0.004000 
#    y 0.000000 1.663470 0.000000 
#    z 0.004000 0.000000 1.650210 
# 
# From -- ./inp_files/268791.got.cif
#   From: 2010.06.25/outbox.cif.g09.slc.cpg/sg15_135_cif.got.tgz:268791.got - 2010.06.28 07:06:18.
