data_PCOD8130502
_publ_section_title
;
Structure prediction by ZEFSAII (Michael W. Deem and Ramdas Pophale) SiO2 
 PCOD8130502
Probable space group: C 2/C
;
_chemical_formula_sum "Si O2"
_cell_formula_units_Z 40
_cell_length_a 11.542647
_cell_length_b 20.687363
_cell_length_c 14.543727
_cell_angle_alpha 90.000000
_cell_angle_beta 137.415732
_cell_angle_gamma 90.000000
_cell_volume 2349.987996
_symmetry_space_group_name_H-M "C 2/C"
_symmetry_group_IT_number 15
_symmetry_cell_setting 'monoclinic'
loop_
_space_group_symop_operation_xyz
x,y,z
-x,y,1/2-z
-x,-y,-z
x,-y,1/2+z
1/2+x,1/2+y,z
1/2-x,1/2+y,1/2-z
1/2-x,1/2-y,-z
1/2+x,1/2-y,1/2+z
loop_
_atom_site_type_symbol
_atom_site_label
_atom_site_fract_x
_atom_site_fract_y
_atom_site_fract_z
Si Si1 0.058268 0.607229 0.019060
Si Si2 0.444053 0.774419 0.115025
Si Si3 0.505198 0.489699 0.610476
Si Si4 0.724956 0.977263 0.083972
Si Si5 0.089562 0.851866 0.705898
O O1 0.110893 0.540910 0.998507
O O2 0.209059 0.632559 0.173700
O O3 0.018275 0.662180 0.922314
O O4 0.888735 0.588252 0.979064
O O5 0.500000 0.793717 0.250000
O O6 0.442127 0.716091 0.364976
O O7 0.250000 0.750000 0.000000
O O8 0.500000 0.500000 0.500000
O O9 0.678591 0.513456 0.761559
O O10 0.352447 0.527862 0.572047
O O11 0.483691 0.412484 0.606104
O O12 0.000000 0.835891 0.750000
#
# Coordination Sequence:
#
# PCOD8130502 Si02
#       5
#     8   8   8   8   8
#     4  10  18  33  51  76 111 144 170 228 287 328
#     4  11  19  30  52  81 109 148 187 228 279 335
#     4  10  18  34  56  78 103 146 185 229 281 336
#     4   9  19  34  52  78 113 141 176 233 285 325
#     4  10  17  34  51  72 117 143 172 235 285 313
#
# _framework density 17.021363000000001
#
# number of rings (size 3 to 8) (size 9 to 14) (size 15 to 20)
#    0.000    2.000    8.000    0.000    0.000    3.200 
#    0.000    8.000    0.000    1.200    0.000    0.000 
#    0.000    0.000    0.000    0.000    0.000    0.000 
#
# Total GULP energy -247789.465669 kJ/mol
# GULP energy per Si atom -12389.473283 kJ/mol
# Density = 1.698262 g / cm^3
# Si number density = 17.021363 Si / 1000 Ang^3
#
#
#
# Elastic Constant Matrix: (Units=GPa)
#
#
# Indices 1 2 3 4 5 6 
#
# 1 95.1204 57.5616 58.0145 0.0000 5.7514 0.0000
# 2 57.5616 130.4030 46.8598 0.0000 12.9363 0.0000
# 3 58.0145 46.8598 84.5155 -0.0001 1.3577 0.0000
# 4 0.0000 0.0000 -0.0001 28.6502 -0.0001 5.6030
# 5 5.7514 12.9363 1.3577 -0.0001 25.9713 0.0000
# 6 0.0000 0.0000 0.0000 5.6030 0.0000 30.1553
#
#
#
# Elastic Compliance Matrix: (Units=1/GPa)
#
#
# Indices 1 2 3 4 5 6 
#
# 1 0.020416 -0.004785 -0.011337 0.000000 -0.001545 0.000000
# 2 -0.004785 0.011253 -0.002884 0.000000 -0.004395 0.000000
# 3 -0.011337 -0.002884 0.021167 0.000000 0.002841 0.000000
# 4 0.000000 0.000000 0.000000 0.036220 0.000000 -0.006730
# 5 -0.001545 -0.004395 0.002841 0.000000 0.040887 0.000000
# 6 0.000000 0.000000 0.000000 -0.006730 0.000000 0.034412
#
#
# Mechanical properties :
#
#
# Convention : Reuss Voigt Hill
#
# Bulk Modulus (GPa) = 67.45166 70.54565 68.99866
# Shear Modulus (GPa) = 24.11861 26.79556 25.45709
#
# Velocity S-wave (km/s) = 3.76834 3.97196 3.87149
# Velocity P-wave (km/s) = 7.65817 7.91016 7.78518
#
# Compressibility (1/GPa) = 0.01482543
#
# Stress axis : x y z
#
# Youngs Moduli (GPa) = 48.98050 88.86495 47.24226
#
# Poissons Ratio (x) = 0.42521 0.53557
# Poissons Ratio (y) = 0.23437 0.13625
# Poissons Ratio (z) = 0.55527 0.25630
#
# Static dielectric constant tensor:
#      x y z
#    x 3.081710 0.000000 0.131190 
#    y 0.000000 4.126590 0.000000 
#    z 0.131190 0.000000 3.823030 
# 
# 
# High freq. dielectric constant tensor:
#      x y z
#    x 1.622780 0.000000 0.025420 
#    y 0.000000 1.663250 0.000000 
#    z 0.025420 0.000000 1.650650 
# 
# From -- ./inp_files/146518.got.cif
#   From: 2010.06.25/outbox.cif.g09.slc.cpg/sg15_74_cif.got.tgz:146518.got - 2010.06.28 07:06:18.
