data_PCOD8130043
_publ_section_title
;
Structure prediction by ZEFSAII (Michael W. Deem and Ramdas Pophale) SiO2 
 PCOD8130043
Probable space group: C 2/C
;
_chemical_formula_sum "Si O2"
_cell_formula_units_Z 48
_cell_length_a 11.476132
_cell_length_b 28.060276
_cell_length_c 8.812608
_cell_angle_alpha 90.000000
_cell_angle_beta 122.568376
_cell_angle_gamma 90.000000
_cell_volume 2391.610773
_symmetry_space_group_name_H-M "C 2/C"
_symmetry_group_IT_number 15
_symmetry_cell_setting 'monoclinic'
loop_
_space_group_symop_operation_xyz
x,y,z
-x,y,1/2-z
-x,-y,-z
x,-y,1/2+z
1/2+x,1/2+y,z
1/2-x,1/2+y,1/2-z
1/2-x,1/2-y,-z
1/2+x,1/2-y,1/2+z
loop_
_atom_site_type_symbol
_atom_site_label
_atom_site_fract_x
_atom_site_fract_y
_atom_site_fract_z
Si Si1 0.279865 0.004647 0.573967
Si Si2 0.603188 0.165048 0.538850
Si Si3 0.149163 0.249537 0.288209
Si Si4 0.253290 0.563519 0.207891
Si Si5 0.927733 0.558250 0.930729
Si Si6 0.791794 0.332790 0.720612
O O1 0.188467 0.043768 0.413478
O O2 0.393107 0.034306 0.746946
O O3 0.185941 0.971832 0.619515
O O4 0.350068 0.966066 0.514694
O O5 0.658810 0.200703 0.705557
O O6 0.619707 0.112673 0.617117
O O7 0.695932 0.168001 0.452344
O O8 0.442561 0.176249 0.396075
O O9 0.250000 0.250000 0.500000
O O10 0.188490 0.208656 0.196601
O O11 0.000000 0.238695 0.250000
O O12 0.278535 0.618522 0.265093
O O13 0.088957 0.553331 0.080256
#
# Coordination Sequence:
#
# PCOD8130043 Si02
#       6
#     8   8   8   8   8   8
#     4  10  17  25  42  74 117 155 187 229 283 352
#     4  10  21  37  58  84 121 159 193 241 301 357
#     4  12  25  43  63  89 116 152 200 252 301 351
#     4  10  17  27  45  75 112 153 190 231 286 344
#     4  10  17  26  44  73 115 154 186 225 292 347
#     4  10  21  38  58  84 120 158 196 239 300 358
#
# _framework density 20.070156999999998
#
# number of rings (size 3 to 8) (size 9 to 14) (size 15 to 20)
#    0.000    1.667    3.333    4.500    2.333    0.000 
#    0.000    0.000    0.000    0.000    0.000    1.167 
#    0.000    0.000    0.000    0.000    0.000    0.000 
#
# Total GULP energy -297421.110480 kJ/mol
# GULP energy per Si atom -12392.546270 kJ/mol
# Density = 2.002448 g / cm^3
# Si number density = 20.070157 Si / 1000 Ang^3
#
#
#
# Elastic Constant Matrix: (Units=GPa)
#
#
# Indices 1 2 3 4 5 6 
#
# 1 46.4441 41.6330 26.3050 0.0000 -9.0836 0.0000
# 2 41.6330 172.6119 56.7499 0.0000 -18.7927 0.0000
# 3 26.3050 56.7499 93.5776 0.0000 -22.3283 0.0000
# 4 0.0000 0.0000 0.0000 41.7938 0.0000 -8.4049
# 5 -9.0836 -18.7927 -22.3283 0.0000 22.3064 0.0000
# 6 0.0000 0.0000 0.0000 -8.4049 0.0000 21.0508
#
#
#
# Elastic Compliance Matrix: (Units=1/GPa)
#
#
# Indices 1 2 3 4 5 6 
#
# 1 0.029345 -0.005331 -0.004252 0.000000 0.003202 0.000000
# 2 -0.005331 0.008291 -0.003128 0.000000 0.001683 0.000000
# 3 -0.004252 -0.003128 0.016733 0.000000 0.012383 0.000000
# 4 0.000000 0.000000 0.000000 0.026016 0.000000 0.010387
# 5 0.003202 0.001683 0.012383 0.000000 0.059947 0.000000
# 6 0.000000 0.000000 0.000000 0.010387 0.000000 0.051652
#
#
# Mechanical properties :
#
#
# Convention : Reuss Voigt Hill
#
# Bulk Modulus (GPa) = 34.54573 62.44547 48.49560
# Shear Modulus (GPa) = 22.02126 29.55991 25.79058
#
# Velocity S-wave (km/s) = 3.31602 3.84191 3.58861
# Velocity P-wave (km/s) = 5.64899 7.13172 6.43322
#
# Compressibility (1/GPa) = 0.02894714
#
# Stress axis : x y z
#
# Youngs Moduli (GPa) = 34.07775 120.61640 59.76253
#
# Poissons Ratio (x) = 0.64304 0.25409
# Poissons Ratio (y) = 0.18168 0.18692
# Poissons Ratio (z) = 0.14489 0.37725
#
# Static dielectric constant tensor:
#      x y z
#    x 3.318910 0.000000 -0.581050 
#    y 0.000000 4.141340 0.000000 
#    z -0.581050 0.000000 3.800110 
# 
# 
# High freq. dielectric constant tensor:
#      x y z
#    x 1.741840 0.000000 -0.047160 
#    y 0.000000 1.804770 0.000000 
#    z -0.047160 0.000000 1.778170 
# 
# From -- ./inp_files/33369.got.cif
#   From: 2010.06.25/outbox.cif.g09.slc.cpg/sg15_17_cif.got.tgz:33369.got - 2010.06.28 07:06:18.
