data_PCOD8130605
_publ_section_title
;
Structure prediction by ZEFSAII (Michael W. Deem and Ramdas Pophale) SiO2 
 PCOD8130605
Probable space group: C 2/C
;
_chemical_formula_sum "Si O2"
_cell_formula_units_Z 40
_cell_length_a 10.063277
_cell_length_b 11.426242
_cell_length_c 24.898480
_cell_angle_alpha 90.000000
_cell_angle_beta 135.069643
_cell_angle_gamma 90.000000
_cell_volume 2021.958117
_symmetry_space_group_name_H-M "C 2/C"
_symmetry_group_IT_number 15
_symmetry_cell_setting 'monoclinic'
loop_
_space_group_symop_operation_xyz
x,y,z
-x,y,1/2-z
-x,-y,-z
x,-y,1/2+z
1/2+x,1/2+y,z
1/2-x,1/2+y,1/2-z
1/2-x,1/2-y,-z
1/2+x,1/2-y,1/2+z
loop_
_atom_site_type_symbol
_atom_site_label
_atom_site_fract_x
_atom_site_fract_y
_atom_site_fract_z
Si Si1 0.827842 0.351707 0.803024
Si Si2 0.000000 0.536550 0.250000
Si Si3 0.656761 0.374838 0.136712
Si Si4 0.054550 0.341713 0.550169
Si Si5 0.302724 0.546727 0.591691
Si Si6 0.000000 0.002591 0.250000
O O1 0.930413 0.380331 0.777375
O O2 0.799666 0.210841 0.799694
O O3 0.951873 0.392572 0.890347
O O4 0.626405 0.415402 0.747558
O O5 0.166509 0.457970 0.322022
O O6 0.620779 0.294546 0.072899
O O7 0.470135 0.449652 0.096223
O O8 0.205902 0.418535 0.560039
O O9 0.848849 0.351911 0.465000
O O10 0.376975 0.574168 0.673438
#
# Coordination Sequence:
#
# PCOD8130605 Si02
#       6
#     8   4   8   8   8   4
#     4   9  21  36  54  86 113 147 195 230 277 344
#     4  12  21  37  56  88 120 148 193 243 278 330
#     4  10  21  34  61  78 116 154 187 231 292 334
#     4   8  20  36  58  83 113 149 196 225 288 344
#     4  10  17  35  63  82 110 155 185 239 282 336
#     4  10  17  35  58  80 112 150 187 233 284 322
#
# _framework density 19.782802
#
# number of rings (size 3 to 8) (size 9 to 14) (size 15 to 20)
#    1.200    1.200    2.000    1.200    0.000    0.800 
#    0.000    1.000    0.000    6.000    0.000    0.000 
#    0.000    0.000    0.000    0.000    0.000    0.000 
#
# Total GULP energy -247796.224704 kJ/mol
# GULP energy per Si atom -12389.811235 kJ/mol
# Density = 1.973778 g / cm^3
# Si number density = 19.782802 Si / 1000 Ang^3
#
#
#
# Elastic Constant Matrix: (Units=GPa)
#
#
# Indices 1 2 3 4 5 6 
#
# 1 94.1758 24.9577 13.0095 0.0000 5.7218 0.0000
# 2 24.9577 35.8171 -2.3067 0.0000 -4.0795 0.0000
# 3 13.0095 -2.3067 86.0037 0.0000 12.1322 0.0000
# 4 0.0000 0.0000 0.0000 16.3769 0.0000 -2.6094
# 5 5.7218 -4.0795 12.1322 0.0000 24.7995 0.0000
# 6 0.0000 0.0000 0.0000 -2.6094 0.0000 24.0185
#
#
#
# Elastic Compliance Matrix: (Units=1/GPa)
#
#
# Indices 1 2 3 4 5 6 
#
# 1 0.013810 -0.010193 -0.001801 0.000000 -0.003982 0.000000
# 2 -0.010193 0.035976 0.001439 0.000000 0.007566 0.000000
# 3 -0.001801 0.001439 0.012725 0.000000 -0.005573 0.000000
# 4 0.000000 0.000000 0.000000 0.062137 0.000000 0.006751
# 5 -0.003982 0.007566 -0.005573 0.000000 0.045213 0.000000
# 6 0.000000 0.000000 0.000000 0.006751 0.000000 0.042368
#
#
# Mechanical properties :
#
#
# Convention : Reuss Voigt Hill
#
# Bulk Modulus (GPa) = 24.15257 31.92417 28.03837
# Shear Modulus (GPa) = 20.23161 25.06139 22.64650
#
# Velocity S-wave (km/s) = 3.20142 3.56311 3.38710
# Velocity P-wave (km/s) = 5.08928 5.75327 5.43143
#
# Compressibility (1/GPa) = 0.04140347
#
# Stress axis : x y z
#
# Youngs Moduli (GPa) = 72.40979 27.79607 78.58843
#
# Poissons Ratio (x) = 0.28332 0.14151
# Poissons Ratio (y) = 0.73805 -0.11313
# Poissons Ratio (z) = 0.13039 -0.04001
#
# Static dielectric constant tensor:
#      x y z
#    x 3.376920 0.000000 0.170340 
#    y 0.000000 3.370640 0.000000 
#    z 0.170340 0.000000 3.568760 
# 
# 
# High freq. dielectric constant tensor:
#      x y z
#    x 1.755770 0.000000 0.020160 
#    y 0.000000 1.747400 0.000000 
#    z 0.020160 0.000000 1.766010 
# 
# From -- ./inp_files/230458.got.cif
#   From: 2010.06.25/outbox.cif.g09.slc.cpg/sg15_116_cif.got.tgz:230458.got - 2010.06.28 07:06:18.
