data_PCOD8130271
_publ_section_title
;
Structure prediction by ZEFSAII (Michael W. Deem and Ramdas Pophale) SiO2 
 PCOD8130271
Probable space group: C 2/C
;
_chemical_formula_sum "Si O2"
_cell_formula_units_Z 56
_cell_length_a 11.737183
_cell_length_b 14.809517
_cell_length_c 29.345313
_cell_angle_alpha 90.000000
_cell_angle_beta 37.387282
_cell_angle_gamma 90.000000
_cell_volume 3097.240383
_symmetry_space_group_name_H-M "C 2/C"
_symmetry_group_IT_number 15
_symmetry_cell_setting 'monoclinic'
loop_
_space_group_symop_operation_xyz
x,y,z
-x,y,1/2-z
-x,-y,-z
x,-y,1/2+z
1/2+x,1/2+y,z
1/2-x,1/2+y,1/2-z
1/2-x,1/2-y,-z
1/2+x,1/2-y,1/2+z
loop_
_atom_site_type_symbol
_atom_site_label
_atom_site_fract_x
_atom_site_fract_y
_atom_site_fract_z
Si Si1 0.326907 0.713988 0.046171
Si Si2 0.168729 0.425859 0.225738
Si Si3 0.699616 0.550757 0.033061
Si Si4 0.120371 0.588917 0.612127
Si Si5 0.425050 0.641562 0.917003
Si Si6 0.309851 0.553293 0.112482
Si Si7 0.715934 0.229154 0.458464
O O1 0.159401 0.781933 0.088141
O O2 0.236435 0.643521 0.111014
O O3 0.396252 0.661960 0.979239
O O4 0.498677 0.768479 0.013387
O O5 0.354818 0.365172 0.164470
O O6 0.208546 0.527082 0.192666
O O7 0.000000 0.380020 0.250000
O O8 0.089330 0.433578 0.302513
O O9 0.681412 0.452207 0.061048
O O10 0.527627 0.570268 0.053286
O O11 0.712783 0.624968 0.069828
O O12 0.877408 0.560571 0.942036
O O13 0.278126 0.532986 0.589906
O O14 0.164901 0.695535 0.606627
O O15 0.750000 0.250000 0.500000
#
# Coordination Sequence:
#
# PCOD8130271 Si02
#       7
#     8   8   8   8   8   8   8
#     4  11  19  34  55  79 111 137 181 229 267 316
#     4   9  19  31  52  78 103 137 176 222 275 315
#     4  10  18  32  55  79 101 143 183 218 263 315
#     4  10  17  31  52  78 107 134 174 230 268 308
#     4  10  22  34  54  78 110 143 177 227 275 311
#     4  10  17  31  56  78 103 134 181 229 257 309
#     4  10  19  30  56  84 102 140 183 222 267 313
#
# _framework density 18.080611999999999
#
# number of rings (size 3 to 8) (size 9 to 14) (size 15 to 20)
#    0.000    2.000    4.286    3.000    0.000    0.571 
#    0.000    7.143    0.000    0.000    0.000    0.000 
#    0.000    0.000    0.000    0.000    0.000    0.000 
#
# Total GULP energy -346895.626171 kJ/mol
# GULP energy per Si atom -12389.129506 kJ/mol
# Density = 1.803946 g / cm^3
# Si number density = 18.080612 Si / 1000 Ang^3
#
#
#
# Elastic Constant Matrix: (Units=GPa)
#
#
# Indices 1 2 3 4 5 6 
#
# 1 67.0285 53.4176 31.7717 0.0002 -12.6367 -0.0001
# 2 53.4176 143.8864 53.4890 0.0002 -5.5439 -0.0002
# 3 31.7717 53.4890 109.4206 0.0006 -10.2448 0.0000
# 4 0.0002 0.0002 0.0006 19.6684 -0.0002 0.8732
# 5 -12.6367 -5.5439 -10.2448 -0.0002 19.6527 0.0001
# 6 -0.0001 -0.0002 0.0000 0.8732 0.0001 40.9076
#
#
#
# Elastic Compliance Matrix: (Units=1/GPa)
#
#
# Indices 1 2 3 4 5 6 
#
# 1 0.024513 -0.007831 -0.002124 0.000000 0.012446 0.000000
# 2 -0.007831 0.010996 -0.003451 0.000000 -0.003733 0.000000
# 3 -0.002124 -0.003451 0.011800 0.000000 0.003812 0.000000
# 4 0.000000 0.000000 0.000000 0.050891 0.000000 -0.001086
# 5 0.012446 -0.003733 0.003812 0.000000 0.059820 0.000000
# 6 0.000000 0.000000 0.000000 -0.001086 0.000000 0.024469
#
#
# Mechanical properties :
#
#
# Convention : Reuss Voigt Hill
#
# Bulk Modulus (GPa) = 48.78933 66.41022 57.59977
# Shear Modulus (GPa) = 23.13372 28.15622 25.64497
#
# Velocity S-wave (km/s) = 3.58086 3.95050 3.77021
# Velocity P-wave (km/s) = 6.64377 7.59068 7.13295
#
# Compressibility (1/GPa) = 0.02049628
#
# Stress axis : x y z
#
# Youngs Moduli (GPa) = 40.79409 90.93901 84.74780
#
# Poissons Ratio (x) = 0.71217 0.18002
# Poissons Ratio (y) = 0.31947 0.29246
# Poissons Ratio (z) = 0.08666 0.31383
#
# Static dielectric constant tensor:
#      x y z
#    x 3.247490 0.000000 0.032080 
#    y 0.000000 3.835890 0.000000 
#    z 0.032080 0.000000 3.359880 
# 
# 
# High freq. dielectric constant tensor:
#      x y z
#    x 1.677480 0.000000 -0.004230 
#    y 0.000000 1.700110 0.000000 
#    z -0.004230 0.000000 1.681510 
# 
# From -- ./inp_files/311034.got.cif
#   From: 2010.06.25/outbox.cif.g09.slc.cpg/sg15_156_cif.got.tgz:311034.got - 2010.06.28 07:06:18.
