data_PCOD8130966
_publ_section_title
;
Structure prediction by ZEFSAII (Michael W. Deem and Ramdas Pophale) SiO2 
 PCOD8130966
Probable space group: C 2/C
;
_chemical_formula_sum "Si O2"
_cell_formula_units_Z 48
_cell_length_a 10.794748
_cell_length_b 32.140921
_cell_length_c 14.036998
_cell_angle_alpha 90.000000
_cell_angle_beta 148.129282
_cell_angle_gamma 90.000000
_cell_volume 2571.476692
_symmetry_space_group_name_H-M "C 2/C"
_symmetry_group_IT_number 15
_symmetry_cell_setting 'monoclinic'
loop_
_space_group_symop_operation_xyz
x,y,z
-x,y,1/2-z
-x,-y,-z
x,-y,1/2+z
1/2+x,1/2+y,z
1/2-x,1/2+y,1/2-z
1/2-x,1/2-y,-z
1/2+x,1/2-y,1/2+z
loop_
_atom_site_type_symbol
_atom_site_label
_atom_site_fract_x
_atom_site_fract_y
_atom_site_fract_z
Si Si1 0.000000 0.453195 0.250000
Si Si2 0.107265 0.482034 0.667792
Si Si3 0.000000 0.581692 0.250000
Si Si4 0.794385 0.143490 0.334679
Si Si5 0.516642 0.426615 0.870643
Si Si6 0.107434 0.298214 0.993166
Si Si7 0.989653 0.207531 0.894927
O O1 0.125152 0.479286 0.249180
O O2 0.209746 0.425229 0.425489
O O3 0.951182 0.446722 0.622865
O O4 0.366908 0.463429 0.822508
O O5 0.000000 0.500000 0.500000
O O6 0.778118 0.611683 0.127390
O O7 0.919098 0.118677 0.331849
O O8 0.568307 0.164017 0.138023
O O9 0.978097 0.177419 0.493872
O O10 0.500000 0.435636 0.750000
O O11 0.961084 0.255374 0.909037
O O12 0.271271 0.295478 0.008252
O O13 0.261412 0.306824 0.187642
#
# Coordination Sequence:
#
# PCOD8130966 Si02
#       7
#     4   8   4   8   8   8   8
#     4  11  22  42  64  90 114 150 208 240 296 366
#     4  10  20  40  67  86 115 156 197 244 292 362
#     4   9  20  34  58  90 124 150 186 252 300 336
#     4  11  20  37  55  86 128 146 193 250 290 350
#     4  11  24  40  63  87 116 160 192 246 306 339
#     4  10  18  30  55  84 120 153 192 229 291 356
#     4  10  18  30  54  86 116 160 187 230 292 351
#
# _framework density 18.666316999999999
#
# number of rings (size 3 to 8) (size 9 to 14) (size 15 to 20)
#    0.000    1.667    5.000    0.500    0.000    1.333 
#    0.000    0.000    3.667    1.000    0.000    0.000 
#    0.000    0.000    0.000    0.000    0.000    0.000 
#
# Total GULP energy -297477.970694 kJ/mol
# GULP energy per Si atom -12394.915446 kJ/mol
# Density = 1.862383 g / cm^3
# Si number density = 18.666317 Si / 1000 Ang^3
#
#
#
# Elastic Constant Matrix: (Units=GPa)
#
#
# Indices 1 2 3 4 5 6 
#
# 1 76.2697 37.8908 36.7659 0.0000 -1.0248 0.0000
# 2 37.8908 101.3510 51.4408 0.0000 3.8977 0.0000
# 3 36.7659 51.4408 130.2992 0.0000 4.3620 0.0000
# 4 0.0000 0.0000 0.0000 37.5050 0.0000 -3.6230
# 5 -1.0248 3.8977 4.3620 0.0000 23.8625 0.0000
# 6 0.0000 0.0000 0.0000 -3.6230 0.0000 27.1692
#
#
#
# Elastic Compliance Matrix: (Units=1/GPa)
#
#
# Indices 1 2 3 4 5 6 
#
# 1 0.017006 -0.004961 -0.002909 0.000000 0.002072 0.000000
# 2 -0.004961 0.013817 -0.003997 0.000000 -0.001739 0.000000
# 3 -0.002909 -0.003997 0.010118 0.000000 -0.001322 0.000000
# 4 0.000000 0.000000 0.000000 0.027011 0.000000 0.003602
# 5 0.002072 -0.001739 -0.001322 0.000000 0.042521 0.000000
# 6 0.000000 0.000000 0.000000 0.003602 0.000000 0.037287
#
#
# Mechanical properties :
#
#
# Convention : Reuss Voigt Hill
#
# Bulk Modulus (GPa) = 58.11713 62.23499 60.17606
# Shear Modulus (GPa) = 28.21200 29.82885 29.02043
#
# Velocity S-wave (km/s) = 3.89187 4.00184 3.94724
# Velocity P-wave (km/s) = 7.16923 7.40042 7.28574
#
# Compressibility (1/GPa) = 0.01720663
#
# Stress axis : x y z
#
# Youngs Moduli (GPa) = 58.80177 72.37572 98.83686
#
# Poissons Ratio (x) = 0.35905 0.28756
# Poissons Ratio (y) = 0.29171 0.39502
# Poissons Ratio (z) = 0.17108 0.28926
#
# Static dielectric constant tensor:
#      x y z
#    x 3.366900 0.000000 -0.072190 
#    y 0.000000 3.600090 0.000000 
#    z -0.072190 0.000000 3.385400 
# 
# 
# High freq. dielectric constant tensor:
#      x y z
#    x 1.700570 0.000000 -0.010070 
#    y 0.000000 1.731680 0.000000 
#    z -0.010070 0.000000 1.715250 
# 
# From -- ./inp_files/149225.got.cif
#   From: 2010.06.25/outbox.cif.g09.slc.cpg/sg15_75_cif.got.tgz:149225.got - 2010.06.28 07:06:18.
