data_PCOD8130307
_publ_section_title
;
Structure prediction by ZEFSAII (Michael W. Deem and Ramdas Pophale) SiO2 
 PCOD8130307
Probable space group: C 2/C
;
_chemical_formula_sum "Si O2"
_cell_formula_units_Z 52
_cell_length_a 31.900989
_cell_length_b 16.373983
_cell_length_c 15.555327
_cell_angle_alpha 90.000000
_cell_angle_beta 17.772302
_cell_angle_gamma 90.000000
_cell_volume 2480.115712
_symmetry_space_group_name_H-M "C 2/C"
_symmetry_group_IT_number 15
_symmetry_cell_setting 'monoclinic'
loop_
_space_group_symop_operation_xyz
x,y,z
-x,y,1/2-z
-x,-y,-z
x,-y,1/2+z
1/2+x,1/2+y,z
1/2-x,1/2+y,1/2-z
1/2-x,1/2-y,-z
1/2+x,1/2-y,1/2+z
loop_
_atom_site_type_symbol
_atom_site_label
_atom_site_fract_x
_atom_site_fract_y
_atom_site_fract_z
Si Si1 0.032775 0.170385 0.785386
Si Si2 0.765782 0.558300 0.848655
Si Si3 0.664077 0.129816 0.277969
Si Si4 0.976256 0.009074 0.397944
Si Si5 0.317230 0.942495 0.052538
Si Si6 0.502500 0.164876 0.425197
Si Si7 0.000000 0.586101 0.750000
O O1 0.195349 0.177437 0.482520
O O2 0.977847 0.083986 0.929619
O O3 0.963894 0.243326 0.973562
O O4 0.000000 0.181674 0.750000
O O5 0.816674 0.467123 0.767326
O O6 0.792177 0.586427 0.698911
O O7 0.858363 0.618376 0.725485
O O8 0.602863 0.562044 0.190126
O O9 0.590499 0.166655 0.339289
O O10 0.572937 0.146307 0.540448
O O11 0.000000 0.002780 0.250000
O O12 0.830592 0.049351 0.706681
O O13 0.391374 0.030221 0.909746
O O14 0.410856 0.878122 0.820057
#
# Coordination Sequence:
#
# PCOD8130307 Si02
#       7
#     8   8   8   8   8   8   4
#     4  10  20  36  58  81 111 153 189 225 283 347
#     4   9  17  33  53  83 114 152 187 226 279 338
#     4  10  21  35  57  85 111 150 191 235 277 346
#     4   8  17  33  55  75 113 157 194 215 269 349
#     4  10  17  31  57  86 110 149 192 234 272 332
#     4  12  20  32  60  92 114 132 193 252 283 314
#     4  10  18  34  60  80 110 154 206 218 280 350
#
# _framework density 20.966764000000001
#
# number of rings (size 3 to 8) (size 9 to 14) (size 15 to 20)
#    0.000    2.154    3.077    4.615    0.000    0.000 
#    0.000    3.077   15.231    3.692    0.000    0.000 
#    0.000    0.000    0.000    0.000    0.000    0.000 
#
# Total GULP energy -322343.027507 kJ/mol
# GULP energy per Si atom -12397.808750 kJ/mol
# Density = 2.091904 g / cm^3
# Si number density = 20.966764 Si / 1000 Ang^3
#
#
#
# Elastic Constant Matrix: (Units=GPa)
#
#
# Indices 1 2 3 4 5 6 
#
# 1 76.2640 20.5956 17.4027 0.0001 -30.4276 0.0004
# 2 20.5956 67.1050 32.3727 0.0002 -13.1405 0.0004
# 3 17.4027 32.3727 100.5170 -0.0004 -39.1670 0.0010
# 4 0.0001 0.0002 -0.0004 11.4458 -0.0003 -1.7610
# 5 -30.4276 -13.1405 -39.1670 -0.0003 39.0769 -0.0001
# 6 0.0004 0.0004 0.0010 -1.7610 -0.0001 23.3840
#
#
#
# Elastic Compliance Matrix: (Units=1/GPa)
#
#
# Indices 1 2 3 4 5 6 
#
# 1 0.021702 -0.005541 0.006376 0.000001 0.021426 0.000000
# 2 -0.005541 0.019062 -0.007159 -0.000001 -0.005081 0.000000
# 3 0.006376 -0.007159 0.019931 0.000001 0.022534 -0.000001
# 4 0.000001 -0.000001 0.000001 0.088392 0.000002 0.006657
# 5 0.021426 -0.005081 0.022534 0.000002 0.063152 -0.000001
# 6 0.000000 0.000000 -0.000001 0.006657 -0.000001 0.043266
#
#
# Mechanical properties :
#
#
# Convention : Reuss Voigt Hill
#
# Bulk Modulus (GPa) = 20.81331 42.73646 31.77489
# Shear Modulus (GPa) = 17.59516 26.34901 21.97209
#
# Velocity S-wave (km/s) = 2.90003 3.54885 3.24072
# Velocity P-wave (km/s) = 4.60021 6.10079 5.40285
#
# Compressibility (1/GPa) = 0.04804618
#
# Stress axis : x y z
#
# Youngs Moduli (GPa) = 46.07793 52.46158 50.17306
#
# Poissons Ratio (x) = 0.29069 -0.31990
# Poissons Ratio (y) = 0.25532 0.35921
# Poissons Ratio (z) = -0.29379 0.37559
#
# Static dielectric constant tensor:
#      x y z
#    x 3.716180 0.000000 -0.300260 
#    y 0.000000 3.465520 0.000000 
#    z -0.300260 0.000000 4.071650 
# 
# 
# High freq. dielectric constant tensor:
#      x y z
#    x 1.812280 0.000000 -0.024890 
#    y 0.000000 1.788420 0.000000 
#    z -0.024890 0.000000 1.821960 
# 
# From -- ./inp_files/182845.got.cif
#   From: 2010.06.25/outbox.cif.g09.slc.cpg/sg15_92_cif.got.tgz:182845.got - 2010.06.28 07:06:18.
