data_PCOD8130561
_publ_section_title
;
Structure prediction by ZEFSAII (Michael W. Deem and Ramdas Pophale) SiO2 
 PCOD8130561
Probable space group: C 2/C
;
_chemical_formula_sum "Si O2"
_cell_formula_units_Z 48
_cell_length_a 16.327103
_cell_length_b 16.293923
_cell_length_c 17.881356
_cell_angle_alpha 90.000000
_cell_angle_beta 30.485848
_cell_angle_gamma 90.000000
_cell_volume 2413.359143
_symmetry_space_group_name_H-M "C 2/C"
_symmetry_group_IT_number 15
_symmetry_cell_setting 'monoclinic'
loop_
_space_group_symop_operation_xyz
x,y,z
-x,y,1/2-z
-x,-y,-z
x,-y,1/2+z
1/2+x,1/2+y,z
1/2-x,1/2+y,1/2-z
1/2-x,1/2-y,-z
1/2+x,1/2-y,1/2+z
loop_
_atom_site_type_symbol
_atom_site_label
_atom_site_fract_x
_atom_site_fract_y
_atom_site_fract_z
Si Si1 0.873547 0.149567 0.024676
Si Si2 0.190661 0.705805 0.741252
Si Si3 0.969599 0.843996 0.935381
Si Si4 0.971262 0.987111 0.186149
Si Si5 0.381843 0.074560 0.577415
Si Si6 0.927807 0.702312 0.161631
O O1 0.895291 0.063910 0.965182
O O2 0.960749 0.219544 0.905830
O O3 0.684097 0.173295 0.181041
O O4 0.949876 0.140911 0.046957
O O5 0.276973 0.668324 0.599828
O O6 0.135310 0.631372 0.836860
O O7 0.315416 0.769043 0.681738
O O8 0.036300 0.761541 0.842766
O O9 0.003795 0.918401 0.853411
O O10 0.792100 0.959018 0.307366
O O11 0.000000 0.973058 0.250000
O O12 0.456485 0.127417 0.451563
O O13 0.500000 0.000000 0.500000
#
# Coordination Sequence:
#
# PCOD8130561 Si02
#       6
#     8   8   8   8   8   8
#     4  10  18  36  63  89 123 161 214 255 300 370
#     4  10  18  35  64  96 115 150 214 271 299 350
#     4  10  20  37  64  89 120 158 215 256 304 366
#     4  12  26  42  59  93 137 169 198 259 329 374
#     4  12  22  36  65  97 123 160 218 262 302 367
#     4  10  17  34  60  93 122 148 209 264 303 354
#
# _framework density 19.889291
#
# number of rings (size 3 to 8) (size 9 to 14) (size 15 to 20)
#    0.000    1.333    8.333    2.500    2.333    0.000 
#    0.000    5.000    0.000    0.000    0.000    0.000 
#    0.000    0.000    0.000    0.000    0.000    0.000 
#
# Total GULP energy -297525.196187 kJ/mol
# GULP energy per Si atom -12396.883174 kJ/mol
# Density = 1.984402 g / cm^3
# Si number density = 19.889291 Si / 1000 Ang^3
#
#
#
# Elastic Constant Matrix: (Units=GPa)
#
#
# Indices 1 2 3 4 5 6 
#
# 1 12.3349 15.1792 7.3532 0.0013 1.1788 -0.0012
# 2 15.1792 96.2514 35.0673 -0.0030 -13.8666 0.0003
# 3 7.3532 35.0673 130.3432 -0.0023 -19.5713 -0.0006
# 4 0.0013 -0.0030 -0.0023 55.0796 -0.0006 2.4779
# 5 1.1788 -13.8666 -19.5713 -0.0006 13.0222 0.0028
# 6 -0.0012 0.0003 -0.0006 2.4779 0.0028 2.9610
#
#
#
# Elastic Compliance Matrix: (Units=1/GPa)
#
#
# Indices 1 2 3 4 5 6 
#
# 1 0.117425 -0.022380 -0.007462 -0.000009 -0.045675 0.000101
# 2 -0.022380 0.016847 -0.000351 0.000003 0.019437 -0.000032
# 3 -0.007462 -0.000351 0.010632 0.000002 0.016280 -0.000018
# 4 -0.000009 0.000003 0.000002 0.018866 0.000011 -0.015787
# 5 -0.045675 0.019437 0.016280 0.000011 0.126092 -0.000147
# 6 0.000101 -0.000032 -0.000018 -0.015787 -0.000147 0.350933
#
#
# Mechanical properties :
#
#
# Convention : Reuss Voigt Hill
#
# Bulk Modulus (GPa) = 11.83183 39.34766 25.58975
# Shear Modulus (GPa) = 6.85539 26.30122 16.57831
#
# Velocity S-wave (km/s) = 1.85856 3.64040 2.89022
# Velocity P-wave (km/s) = 3.25076 6.12342 4.90223
#
# Compressibility (1/GPa) = 0.08451778
#
# Stress axis : x y z
#
# Youngs Moduli (GPa) = 8.51611 59.35727 94.05503
#
# Poissons Ratio (x) = 1.32841 0.70180
# Poissons Ratio (y) = 0.19059 0.03305
# Poissons Ratio (z) = 0.06354 0.02086
#
# Static dielectric constant tensor:
#      x y z
#    x 3.033890 0.000000 -0.258430 
#    y 0.000000 3.904570 0.000020 
#    z -0.258430 0.000020 4.353050 
# 
# 
# High freq. dielectric constant tensor:
#      x y z
#    x 1.696350 0.000000 -0.010860 
#    y 0.000000 1.791750 0.000000 
#    z -0.010860 0.000000 1.806620 
# 
# From -- ./inp_files/66437.got.cif
#   From: 2010.06.25/outbox.cif.g09.slc.cpg/sg15_34_cif.got.tgz:66437.got - 2010.06.28 07:06:18.
