data_PCOD8130337
_publ_section_title
;
Structure prediction by ZEFSAII (Michael W. Deem and Ramdas Pophale) SiO2 
 PCOD8130337
Probable space group: C 2/C
;
_chemical_formula_sum "Si O2"
_cell_formula_units_Z 48
_cell_length_a 21.670804
_cell_length_b 17.612046
_cell_length_c 16.759102
_cell_angle_alpha 90.000000
_cell_angle_beta 154.235260
_cell_angle_gamma 90.000000
_cell_volume 2780.367470
_symmetry_space_group_name_H-M "C 2/C"
_symmetry_group_IT_number 15
_symmetry_cell_setting 'monoclinic'
loop_
_space_group_symop_operation_xyz
x,y,z
-x,y,1/2-z
-x,-y,-z
x,-y,1/2+z
1/2+x,1/2+y,z
1/2-x,1/2+y,1/2-z
1/2-x,1/2-y,-z
1/2+x,1/2-y,1/2+z
loop_
_atom_site_type_symbol
_atom_site_label
_atom_site_fract_x
_atom_site_fract_y
_atom_site_fract_z
Si Si1 0.361185 0.877343 0.190351
Si Si2 0.904083 0.976979 0.315037
Si Si3 0.838825 0.247417 0.287101
Si Si4 0.114556 0.833130 0.115799
Si Si5 0.177734 0.395383 0.538323
Si Si6 0.920365 0.928219 0.580527
O O1 0.342261 0.795315 0.209236
O O2 0.519249 0.909595 0.387856
O O3 0.327632 0.867251 0.058613
O O4 0.247766 0.936518 0.097476
O O5 0.862788 0.889201 0.282088
O O6 0.759940 0.025413 0.142573
O O7 0.000000 0.000000 0.500000
O O8 0.001893 0.991281 0.349901
O O9 0.765296 0.295143 0.272265
O O10 0.751738 0.170018 0.175285
O O11 0.997441 0.229662 0.502061
O O12 0.052635 0.873502 0.963571
O O13 0.000000 0.892085 0.750000
#
# Coordination Sequence:
#
# PCOD8130337 Si02
#       6
#     8   8   8   8   8   8
#     4  10  21  29  48  81 105 135 169 215 260 317
#     4  10  19  34  51  71 106 146 176 212 246 316
#     4  11  18  33  47  73 108 145 170 203 256 314
#     4  10  21  32  51  74 108 140 180 206 256 311
#     4  11  19  32  49  74 114 136 171 212 264 304
#     4  10  17  32  51  74 102 134 175 209 254 313
#
# _framework density 17.263905000000001
#
# number of rings (size 3 to 8) (size 9 to 14) (size 15 to 20)
#    0.000    1.667    6.667    0.500    0.000    1.333 
#    0.000    9.167    0.000    0.000    0.000    1.167 
#    0.000    0.000    0.000    0.000    0.000    0.000 
#
# Total GULP energy -297449.012619 kJ/mol
# GULP energy per Si atom -12393.708859 kJ/mol
# Density = 1.722461 g / cm^3
# Si number density = 17.263905 Si / 1000 Ang^3
#
#
#
# Elastic Constant Matrix: (Units=GPa)
#
#
# Indices 1 2 3 4 5 6 
#
# 1 78.3476 48.5988 39.1262 0.0000 36.5080 0.0000
# 2 48.5988 85.7799 37.4708 0.0001 15.9406 0.0001
# 3 39.1262 37.4708 77.5263 0.0001 31.3842 0.0001
# 4 0.0000 0.0001 0.0001 28.0113 0.0001 1.2904
# 5 36.5080 15.9406 31.3842 0.0001 32.3835 0.0000
# 6 0.0000 0.0001 0.0001 1.2904 0.0000 22.4708
#
#
#
# Elastic Compliance Matrix: (Units=1/GPa)
#
#
# Indices 1 2 3 4 5 6 
#
# 1 0.040711 -0.017381 0.004889 0.000000 -0.042078 0.000000
# 2 -0.017381 0.022205 -0.008998 0.000000 0.017385 0.000000
# 3 0.004889 -0.008998 0.025044 0.000000 -0.025354 0.000000
# 4 0.000000 0.000000 0.000000 0.035795 0.000000 -0.002055
# 5 -0.042078 0.017385 -0.025354 0.000000 0.094331 0.000000
# 6 0.000000 0.000000 0.000000 -0.002055 0.000000 0.044620
#
#
# Mechanical properties :
#
#
# Convention : Reuss Voigt Hill
#
# Bulk Modulus (GPa) = 22.23246 54.67175 38.45210
# Shear Modulus (GPa) = 15.59186 24.33699 19.96443
#
# Velocity S-wave (km/s) = 3.00850 3.75868 3.40432
# Velocity P-wave (km/s) = 4.99741 7.11153 6.14605
#
# Compressibility (1/GPa) = 0.04497928
#
# Stress axis : x y z
#
# Youngs Moduli (GPa) = 24.56337 45.03495 39.92918
#
# Poissons Ratio (x) = 0.78275 -0.19520
# Poissons Ratio (y) = 0.42694 0.35929
# Poissons Ratio (z) = -0.12008 0.40524
#
# Static dielectric constant tensor:
#      x y z
#    x 3.620710 0.000000 0.369190 
#    y 0.000000 3.341980 0.000000 
#    z 0.369190 0.000000 3.275470 
# 
# 
# High freq. dielectric constant tensor:
#      x y z
#    x 1.661050 0.000000 0.035480 
#    y 0.000000 1.633000 0.000000 
#    z 0.035480 0.000000 1.656530 
# 
# From -- ./inp_files/62382.got.cif
#   From: 2010.06.25/outbox.cif.g09.slc.cpg/sg15_32_cif.got.tgz:62382.got - 2010.06.28 07:06:18.
