data_PCOD8130666
_publ_section_title
;
Structure prediction by ZEFSAII (Michael W. Deem and Ramdas Pophale) SiO2 
 PCOD8130666
Probable space group: C 2/C
;
_chemical_formula_sum "Si O2"
_cell_formula_units_Z 56
_cell_length_a 10.379729
_cell_length_b 14.767287
_cell_length_c 18.854049
_cell_angle_alpha 90.000000
_cell_angle_beta 104.395433
_cell_angle_gamma 90.000000
_cell_volume 2799.220841
_symmetry_space_group_name_H-M "C 2/C"
_symmetry_group_IT_number 15
_symmetry_cell_setting 'monoclinic'
loop_
_space_group_symop_operation_xyz
x,y,z
-x,y,1/2-z
-x,-y,-z
x,-y,1/2+z
1/2+x,1/2+y,z
1/2-x,1/2+y,1/2-z
1/2-x,1/2-y,-z
1/2+x,1/2-y,1/2+z
loop_
_atom_site_type_symbol
_atom_site_label
_atom_site_fract_x
_atom_site_fract_y
_atom_site_fract_z
Si Si1 0.401991 0.906844 0.561245
Si Si2 0.726966 0.464109 0.669833
Si Si3 0.702595 0.784422 0.749235
Si Si4 0.454401 0.731604 0.636607
Si Si5 0.459516 0.470817 0.161902
Si Si6 0.636864 0.880191 0.234603
Si Si7 0.836486 0.479531 0.401440
O O1 0.309138 0.951115 0.609227
O O2 0.398885 0.796989 0.566544
O O3 0.339190 0.933229 0.478363
O O4 0.554151 0.941419 0.589469
O O5 0.765107 0.388919 0.733409
O O6 0.566718 0.464132 0.636741
O O7 0.752583 0.560842 0.709830
O O8 0.598028 0.775671 0.671697
O O9 0.642375 0.737592 0.810048
O O10 0.833930 0.726071 0.748885
O O11 0.460528 0.625427 0.619463
O O12 0.500000 0.457552 0.250000
O O13 0.313599 0.516647 0.133623
O O14 0.500000 0.908955 0.250000
O O15 0.631013 0.901324 0.150488
#
# Coordination Sequence:
#
# PCOD8130666 Si02
#       7
#     8   8   8   8   8   8   8
#     4  10  24  39  63  86 122 166 199 243 298 374
#     4  11  22  38  62  92 117 162 201 246 307 355
#     4  10  20  35  57  91 119 145 205 249 293 351
#     4  10  17  36  59  86 113 155 198 244 292 352
#     4  12  21  37  63  90 122 154 199 263 302 339
#     4  12  21  38  63  88 118 159 203 252 294 359
#     4  11  22  41  61  89 123 156 205 246 304 354
#
# _framework density 20.005566000000002
#
# number of rings (size 3 to 8) (size 9 to 14) (size 15 to 20)
#    0.000    1.143    7.143    0.857    2.000    1.714 
#    0.000    0.000    0.000    2.571    0.000    0.000 
#    0.000    0.000    0.000    0.000    0.000    0.000 
#
# Total GULP energy -347080.125829 kJ/mol
# GULP energy per Si atom -12395.718780 kJ/mol
# Density = 1.996003 g / cm^3
# Si number density = 20.005566 Si / 1000 Ang^3
#
#
#
# Elastic Constant Matrix: (Units=GPa)
#
#
# Indices 1 2 3 4 5 6 
#
# 1 134.8515 25.9204 36.9095 0.0000 11.0969 0.0000
# 2 25.9204 54.0847 15.0424 0.0000 -6.9765 0.0000
# 3 36.9095 15.0424 82.0503 0.0000 -3.4733 0.0000
# 4 0.0000 0.0000 0.0000 12.5317 0.0000 5.8495
# 5 11.0969 -6.9765 -3.4733 0.0000 25.1675 0.0000
# 6 0.0000 0.0000 0.0000 5.8495 0.0000 28.7678
#
#
#
# Elastic Compliance Matrix: (Units=1/GPa)
#
#
# Indices 1 2 3 4 5 6 
#
# 1 0.009825 -0.004418 -0.003867 0.000000 -0.006090 0.000000
# 2 -0.004418 0.022100 -0.001732 0.000000 0.007835 0.000000
# 3 -0.003867 -0.001732 0.014381 0.000000 0.003210 0.000000
# 4 0.000000 0.000000 0.000000 0.088165 0.000000 -0.017927
# 5 -0.006090 0.007835 0.003210 0.000000 0.045034 0.000000
# 6 0.000000 0.000000 0.000000 -0.017927 0.000000 0.038406
#
#
# Mechanical properties :
#
#
# Convention : Reuss Voigt Hill
#
# Bulk Modulus (GPa) = 38.06790 47.41457 42.74124
# Shear Modulus (GPa) = 20.26733 26.16769 23.21751
#
# Velocity S-wave (km/s) = 3.18635 3.62058 3.41038
# Velocity P-wave (km/s) = 5.71026 6.42108 6.07607
#
# Compressibility (1/GPa) = 0.02626885
#
# Stress axis : x y z
#
# Youngs Moduli (GPa) = 101.78632 45.24980 69.53755
#
# Poissons Ratio (x) = 0.19993 0.26892
# Poissons Ratio (y) = 0.44974 0.12046
# Poissons Ratio (z) = 0.39363 0.07839
#
# Static dielectric constant tensor:
#      x y z
#    x 3.864000 0.000000 0.113710 
#    y 0.000000 3.519490 0.000000 
#    z 0.113710 0.000000 3.410940 
# 
# 
# High freq. dielectric constant tensor:
#      x y z
#    x 1.793100 0.000000 0.006920 
#    y 0.000000 1.772500 0.000000 
#    z 0.006920 0.000000 1.753360 
# 
# From -- ./inp_files/197958.got.cif
#   From: 2010.06.25/outbox.cif.g09.slc.cpg/sg15_99_cif.got.tgz:197958.got - 2010.06.28 07:06:18.
