data_PCOD8130395
_publ_section_title
;
Structure prediction by ZEFSAII (Michael W. Deem and Ramdas Pophale) SiO2 
 PCOD8130395
Probable space group: C 2/C
;
_chemical_formula_sum "Si O2"
_cell_formula_units_Z 40
_cell_length_a 23.564824
_cell_length_b 13.443405
_cell_length_c 16.834774
_cell_angle_alpha 90.000000
_cell_angle_beta 21.246252
_cell_angle_gamma 90.000000
_cell_volume 1932.597810
_symmetry_space_group_name_H-M "C 2/C"
_symmetry_group_IT_number 15
_symmetry_cell_setting 'monoclinic'
loop_
_space_group_symop_operation_xyz
x,y,z
-x,y,1/2-z
-x,-y,-z
x,-y,1/2+z
1/2+x,1/2+y,z
1/2-x,1/2+y,1/2-z
1/2-x,1/2-y,-z
1/2+x,1/2-y,1/2+z
loop_
_atom_site_type_symbol
_atom_site_label
_atom_site_fract_x
_atom_site_fract_y
_atom_site_fract_z
Si Si1 0.582825 0.546545 0.562570
Si Si2 0.907520 0.196312 0.078230
Si Si3 0.411526 0.354561 0.752813
Si Si4 0.880561 0.356762 0.631843
Si Si5 0.427848 0.871290 0.263491
O O1 0.500000 0.586018 0.750000
O O2 0.510815 0.612088 0.583765
O O3 0.551842 0.429920 0.589340
O O4 0.772425 0.562826 0.319196
O O5 0.014101 0.295121 0.943318
O O6 0.877917 0.150742 0.203269
O O7 0.736684 0.220294 0.262294
O O8 0.455998 0.247518 0.728562
O O9 0.256310 0.396612 0.999395
O O10 0.987970 0.413470 0.425875
O O11 0.500000 0.917433 0.250000
#
# Coordination Sequence:
#
# PCOD8130395 Si02
#       5
#     8   8   8   8   8
#     4  10  21  37  57  79 116 151 193 237 279 332
#     4   9  19  36  60  81 114 150 190 232 283 338
#     4  10  19  32  59  84 115 147 182 234 303 336
#     4   9  20  35  59  83 113 150 194 231 283 338
#     4  10  17  32  56  86 112 144 185 235 289 355
#
# _framework density 20.69753
#
# number of rings (size 3 to 8) (size 9 to 14) (size 15 to 20)
#    1.200    1.200    2.000    1.200    0.000    0.800 
#    0.000    1.000    4.400    0.000    0.000    0.000 
#    0.000    0.000    0.000    0.000    0.000    0.000 
#
# Total GULP energy -247822.399887 kJ/mol
# GULP energy per Si atom -12391.119994 kJ/mol
# Density = 2.065042 g / cm^3
# Si number density = 20.697530 Si / 1000 Ang^3
#
#
#
# Elastic Constant Matrix: (Units=GPa)
#
#
# Indices 1 2 3 4 5 6 
#
# 1 40.7128 -12.7435 -5.2601 0.0001 5.5064 0.0000
# 2 -12.7435 34.3607 16.0946 0.0003 -0.9806 0.0001
# 3 -5.2601 16.0946 118.8391 0.0002 14.6623 0.0001
# 4 0.0001 0.0003 0.0002 27.1500 0.0000 -6.6108
# 5 5.5064 -0.9806 14.6623 0.0000 41.2439 0.0001
# 6 0.0000 0.0001 0.0001 -6.6108 0.0001 15.8650
#
#
#
# Elastic Compliance Matrix: (Units=1/GPa)
#
#
# Indices 1 2 3 4 5 6 
#
# 1 0.028303 0.010245 0.000315 0.000000 -0.003647 0.000000
# 2 0.010245 0.035000 -0.004414 0.000000 0.001034 0.000000
# 3 0.000315 -0.004414 0.009460 0.000000 -0.003510 0.000000
# 4 0.000000 0.000000 0.000000 0.040992 0.000000 0.017081
# 5 -0.003647 0.001034 -0.003510 0.000000 0.026005 0.000000
# 6 0.000000 0.000000 0.000000 0.017081 0.000000 0.070149
#
#
# Mechanical properties :
#
#
# Convention : Reuss Voigt Hill
#
# Bulk Modulus (GPa) = 11.75710 21.12162 16.43936
# Shear Modulus (GPa) = 22.12705 29.90655 26.01680
#
# Velocity S-wave (km/s) = 3.27321 3.80535 3.54927
# Velocity P-wave (km/s) = 4.46967 5.43458 4.97557
#
# Compressibility (1/GPa) = 0.08505500
#
# Stress axis : x y z
#
# Youngs Moduli (GPa) = 35.33179 28.57160 105.71316
#
# Poissons Ratio (x) = -0.29272 -0.03332
# Poissons Ratio (y) = -0.36198 0.46663
# Poissons Ratio (z) = -0.01114 0.12612
#
# Static dielectric constant tensor:
#      x y z
#    x 3.629510 0.000000 0.172460 
#    y 0.000000 3.150310 0.000000 
#    z 0.172460 0.000000 3.950910 
# 
# 
# High freq. dielectric constant tensor:
#      x y z
#    x 1.808500 0.000000 0.005550 
#    y 0.000000 1.759450 0.000000 
#    z 0.005550 0.000000 1.822200 
# 
# From -- ./inp_files/94669.got.cif
#   From: 2010.06.25/outbox.cif.g09.slc.cpg/sg15_48_cif.got.tgz:94669.got - 2010.06.28 07:06:18.
