data_PCOD8130942
_publ_section_title
;
Structure prediction by ZEFSAII (Michael W. Deem and Ramdas Pophale) SiO2 
 PCOD8130942
Probable space group: C 2/C
;
_chemical_formula_sum "Si O2"
_cell_formula_units_Z 48
_cell_length_a 11.738862
_cell_length_b 23.001135
_cell_length_c 13.509083
_cell_angle_alpha 90.000000
_cell_angle_beta 138.249071
_cell_angle_gamma 90.000000
_cell_volume 2428.880124
_symmetry_space_group_name_H-M "C 2/C"
_symmetry_group_IT_number 15
_symmetry_cell_setting 'monoclinic'
loop_
_space_group_symop_operation_xyz
x,y,z
-x,y,1/2-z
-x,-y,-z
x,-y,1/2+z
1/2+x,1/2+y,z
1/2-x,1/2+y,1/2-z
1/2-x,1/2-y,-z
1/2+x,1/2-y,1/2+z
loop_
_atom_site_type_symbol
_atom_site_label
_atom_site_fract_x
_atom_site_fract_y
_atom_site_fract_z
Si Si1 0.040915 0.938710 0.163036
Si Si2 0.643111 0.375061 0.979048
Si Si3 0.846191 0.948735 0.852766
Si Si4 0.688830 0.851723 0.220289
Si Si5 0.397429 0.728855 0.279915
Si Si6 0.835128 0.629784 0.407838
O O1 0.136449 0.875733 0.217036
O O2 0.000000 0.952197 0.250000
O O3 0.174214 0.985690 0.201698
O O4 0.862498 0.941229 0.983242
O O5 0.802442 0.365701 0.156611
O O6 0.534814 0.430880 0.937826
O O7 0.523660 0.317693 0.912885
O O8 0.706303 0.390067 0.910658
O O9 0.697480 0.908019 0.712328
O O10 0.655508 0.782670 0.184545
O O11 0.528655 0.882422 0.064088
O O12 0.500000 0.752299 0.250000
O O13 0.214777 0.697596 0.139113
#
# Coordination Sequence:
#
# PCOD8130942 Si02
#       6
#     8   8   8   8   8   8
#     4  10  21  38  55  71  99 137 174 207 247 305
#     4   9  17  30  51  77 107 138 164 202 257 313
#     4   9  19  36  57  75  96 134 171 203 253 309
#     4  11  20  28  47  77 107 137 168 205 252 298
#     4   9  17  30  49  75 109 141 165 201 258 314
#     4  10  18  30  52  81 107 128 165 216 257 296
#
# _framework density 19.762193
#
# number of rings (size 3 to 8) (size 9 to 14) (size 15 to 20)
#    0.000    2.333    0.000    5.000    0.000    3.333 
#    0.000    0.833    0.000   16.000    0.000    0.000 
#    0.000    0.000    0.000    0.000    0.000    0.000 
#
# Total GULP energy -297330.660767 kJ/mol
# GULP energy per Si atom -12388.777532 kJ/mol
# Density = 1.971721 g / cm^3
# Si number density = 19.762193 Si / 1000 Ang^3
#
#
#
# Elastic Constant Matrix: (Units=GPa)
#
#
# Indices 1 2 3 4 5 6 
#
# 1 36.0667 19.9978 29.1740 0.0000 -9.8106 0.0000
# 2 19.9978 69.7862 27.4085 0.0000 -4.5246 0.0000
# 3 29.1740 27.4085 140.3050 0.0000 -3.9453 0.0000
# 4 0.0000 0.0000 0.0000 23.6820 0.0000 -0.9679
# 5 -9.8106 -4.5246 -3.9453 0.0000 32.9132 0.0000
# 6 0.0000 0.0000 0.0000 -0.9679 0.0000 16.6293
#
#
#
# Elastic Compliance Matrix: (Units=1/GPa)
#
#
# Indices 1 2 3 4 5 6 
#
# 1 0.040347 -0.008365 -0.006471 0.000000 0.010101 0.000000
# 2 -0.008365 0.017359 -0.001660 0.000000 -0.000306 0.000000
# 3 -0.006471 -0.001660 0.008766 0.000000 -0.001106 0.000000
# 4 0.000000 0.000000 0.000000 0.042327 0.000000 0.002464
# 5 0.010101 -0.000306 -0.001106 0.000000 0.033219 0.000000
# 6 0.000000 0.000000 0.000000 0.002464 0.000000 0.060278
#
#
# Mechanical properties :
#
#
# Convention : Reuss Voigt Hill
#
# Bulk Modulus (GPa) = 29.87018 44.36871 37.11944
# Shear Modulus (GPa) = 20.28825 25.95008 23.11916
#
# Velocity S-wave (km/s) = 3.20757 3.62763 3.42404
# Velocity P-wave (km/s) = 5.37267 6.32821 5.86992
#
# Compressibility (1/GPa) = 0.03347821
#
# Stress axis : x y z
#
# Youngs Moduli (GPa) = 24.78527 57.60766 114.07550
#
# Poissons Ratio (x) = 0.48190 0.73821
# Poissons Ratio (y) = 0.20733 0.18939
# Poissons Ratio (z) = 0.16039 0.09564
#
# Static dielectric constant tensor:
#      x y z
#    x 3.037490 0.000000 -0.022970 
#    y 0.000000 3.596770 0.000000 
#    z -0.022970 0.000000 3.951550 
# 
# 
# High freq. dielectric constant tensor:
#      x y z
#    x 1.698800 0.000000 0.001540 
#    y 0.000000 1.774700 0.000000 
#    z 0.001540 0.000000 1.790470 
# 
# From -- ./inp_files/90979.got.cif
#   From: 2010.06.25/outbox.cif.g09.slc.cpg/sg15_46_cif.got.tgz:90979.got - 2010.06.28 07:06:18.
