data_PCOD8130654
_publ_section_title
;
Structure prediction by ZEFSAII (Michael W. Deem and Ramdas Pophale) SiO2 
 PCOD8130654
Probable space group: C 2/C
;
_chemical_formula_sum "Si O2"
_cell_formula_units_Z 56
_cell_length_a 22.107238
_cell_length_b 8.237217
_cell_length_c 20.938661
_cell_angle_alpha 90.000000
_cell_angle_beta 51.988175
_cell_angle_gamma 90.000000
_cell_volume 3004.180347
_symmetry_space_group_name_H-M "C 2/C"
_symmetry_group_IT_number 15
_symmetry_cell_setting 'monoclinic'
loop_
_space_group_symop_operation_xyz
x,y,z
-x,y,1/2-z
-x,-y,-z
x,-y,1/2+z
1/2+x,1/2+y,z
1/2-x,1/2+y,1/2-z
1/2-x,1/2-y,-z
1/2+x,1/2-y,1/2+z
loop_
_atom_site_type_symbol
_atom_site_label
_atom_site_fract_x
_atom_site_fract_y
_atom_site_fract_z
Si Si1 0.872577 0.195000 0.592702
Si Si2 0.303765 0.801917 0.299871
Si Si3 0.107887 0.011550 0.296247
Si Si4 0.909947 0.482890 0.654244
Si Si5 0.427333 0.778001 0.761521
Si Si6 0.975596 0.243309 0.410401
Si Si7 0.413757 0.904999 0.332211
O O1 0.785134 0.176970 0.626997
O O2 0.892480 0.065586 0.633646
O O3 0.888168 0.377231 0.607133
O O4 0.926234 0.157802 0.497450
O O5 0.319443 0.630607 0.254914
O O6 0.331264 0.947818 0.235998
O O7 0.353451 0.795732 0.332658
O O8 0.121579 0.875232 0.232007
O O9 0.026646 0.107182 0.340582
O O10 0.952878 0.379635 0.681758
O O11 0.965931 0.627389 0.595982
O O12 0.500000 0.701605 0.750000
O O13 0.387347 0.905066 0.837871
O O14 0.915657 0.337896 0.403005
O O15 0.500000 0.886920 0.250000
#
# Coordination Sequence:
#
# PCOD8130654 Si02
#       7
#     8   8   8   8   8   8   8
#     4  11  22  34  51  84 115 142 176 219 275 319
#     4  10  20  35  57  78 108 144 182 222 262 319
#     4  10  21  33  56  82 108 140 182 227 262 317
#     4   9  18  35  55  74 101 149 181 209 258 328
#     4   9  16  30  56  81  94 128 188 229 251 300
#     4  11  20  35  56  81 112 141 178 224 269 318
#     4  10  17  36  58  77  98 144 185 218 266 322
#
# _framework density 18.640692000000001
#
# number of rings (size 3 to 8) (size 9 to 14) (size 15 to 20)
#    0.000    2.000    5.714    1.714    2.000    0.571 
#    0.000    0.000    0.000    0.857    0.000    0.000 
#    0.000    0.000    0.000    0.000    0.000    0.000 
#
# Total GULP energy -346976.043511 kJ/mol
# GULP energy per Si atom -12392.001554 kJ/mol
# Density = 1.859826 g / cm^3
# Si number density = 18.640692 Si / 1000 Ang^3
#
#
#
# Elastic Constant Matrix: (Units=GPa)
#
#
# Indices 1 2 3 4 5 6 
#
# 1 82.2063 27.0204 21.5322 0.0002 -2.5118 0.0011
# 2 27.0204 85.1946 15.4153 0.0026 0.2111 0.0014
# 3 21.5322 15.4153 52.4425 0.0016 -12.6778 -0.0010
# 4 0.0002 0.0026 0.0016 15.7206 -0.0004 5.4460
# 5 -2.5118 0.2111 -12.6778 -0.0004 23.4872 -0.0002
# 6 0.0011 0.0014 -0.0010 5.4460 -0.0002 21.9511
#
#
#
# Elastic Compliance Matrix: (Units=1/GPa)
#
#
# Indices 1 2 3 4 5 6 
#
# 1 0.014724 -0.003717 -0.005249 0.000001 -0.001225 -0.000001
# 2 -0.003717 0.013453 -0.002937 -0.000002 -0.002104 0.000000
# 3 -0.005249 -0.002937 0.025253 -0.000002 0.013096 0.000002
# 4 0.000001 -0.000002 -0.000002 0.069592 0.000000 -0.017265
# 5 -0.001225 -0.002104 0.013096 0.000000 0.049533 0.000001
# 6 -0.000001 0.000000 0.000002 -0.017265 0.000001 0.049839
#
#
# Mechanical properties :
#
#
# Convention : Reuss Voigt Hill
#
# Bulk Modulus (GPa) = 33.75639 38.64215 36.19927
# Shear Modulus (GPa) = 19.52554 22.62347 21.07451
#
# Velocity S-wave (km/s) = 3.23997 3.48754 3.36603
# Velocity P-wave (km/s) = 5.66964 6.08213 5.87950
#
# Compressibility (1/GPa) = 0.02962402
#
# Stress axis : x y z
#
# Youngs Moduli (GPa) = 67.91781 74.33092 39.59945
#
# Poissons Ratio (x) = 0.27629 0.20786
# Poissons Ratio (y) = 0.25245 0.11630
# Poissons Ratio (z) = 0.35650 0.21831
#
# Static dielectric constant tensor:
#      x y z
#    x 3.451740 0.000000 0.126060 
#    y 0.000000 3.655390 0.000000 
#    z 0.126060 0.000000 3.007800 
# 
# 
# High freq. dielectric constant tensor:
#      x y z
#    x 1.725160 0.000000 0.009950 
#    y 0.000000 1.731550 0.000000 
#    z 0.009950 0.000000 1.674130 
# 
# From -- ./inp_files/251643.got.cif
#   From: 2010.06.25/outbox.cif.g09.slc.cpg/sg15_126_cif.got.tgz:251643.got - 2010.06.28 07:06:18.
