data_PCOD8130219
_publ_section_title
;
Structure prediction by ZEFSAII (Michael W. Deem and Ramdas Pophale) SiO2 
 PCOD8130219
Probable space group: C 2/C
;
_chemical_formula_sum "Si O2"
_cell_formula_units_Z 48
_cell_length_a 20.278671
_cell_length_b 9.138433
_cell_length_c 14.547808
_cell_angle_alpha 90.000000
_cell_angle_beta 85.912324
_cell_angle_gamma 90.000000
_cell_volume 2689.072983
_symmetry_space_group_name_H-M "C 2/C"
_symmetry_group_IT_number 15
_symmetry_cell_setting 'monoclinic'
loop_
_space_group_symop_operation_xyz
x,y,z
-x,y,1/2-z
-x,-y,-z
x,-y,1/2+z
1/2+x,1/2+y,z
1/2-x,1/2+y,1/2-z
1/2-x,1/2-y,-z
1/2+x,1/2-y,1/2+z
loop_
_atom_site_type_symbol
_atom_site_label
_atom_site_fract_x
_atom_site_fract_y
_atom_site_fract_z
Si Si1 0.921583 0.876209 0.573146
Si Si2 0.512462 0.075648 0.350037
Si Si3 0.877089 0.578355 0.902682
Si Si4 0.816232 0.330487 0.020566
Si Si5 0.561344 0.310769 0.485262
Si Si6 0.872900 0.350555 0.196494
O O1 0.879303 0.779777 0.503048
O O2 0.899910 0.816697 0.677222
O O3 0.000072 0.856505 0.555202
O O4 0.903638 0.046549 0.561976
O O5 0.500000 0.137888 0.250000
O O6 0.535055 0.212211 0.406020
O O7 0.447936 0.999852 0.398521
O O8 0.568432 0.954097 0.343023
O O9 0.851759 0.619396 0.802881
O O10 0.823763 0.470769 0.953646
O O11 0.883362 0.727525 0.960060
O O12 0.812883 0.379354 0.129497
O O13 0.750000 0.250000 0.000000
#
# Coordination Sequence:
#
# PCOD8130219 Si02
#       6
#     8   8   8   8   8   8
#     4   9  20  33  51  83 116 142 180 235 287 328
#     4  10  17  30  54  84 110 145 192 227 275 349
#     4  11  18  33  61  82 109 154 191 226 285 344
#     4  10  20  39  59  76 112 151 195 238 274 326
#     4  11  17  33  53  84 118 145 174 232 302 339
#     4   9  19  35  55  84 106 146 193 232 276 337
#
# _framework density 17.850017999999999
#
# number of rings (size 3 to 8) (size 9 to 14) (size 15 to 20)
#    1.000    1.000    5.000    0.500    0.000    0.000 
#    6.000    2.500    7.333    0.000    0.000    0.000 
#    0.000    0.000    0.000    0.000    0.000    0.000 
#
# Total GULP energy -297374.646111 kJ/mol
# GULP energy per Si atom -12390.610255 kJ/mol
# Density = 1.780939 g / cm^3
# Si number density = 17.850018 Si / 1000 Ang^3
#
#
#
# Elastic Constant Matrix: (Units=GPa)
#
#
# Indices 1 2 3 4 5 6 
#
# 1 67.5552 25.6466 36.3200 0.0000 17.7056 0.0000
# 2 25.6466 127.7978 68.9108 0.0000 10.1211 0.0000
# 3 36.3200 68.9108 102.8260 0.0000 31.9972 0.0000
# 4 0.0000 0.0000 0.0000 16.3460 0.0000 4.1080
# 5 17.7056 10.1211 31.9972 0.0000 22.4942 0.0000
# 6 0.0000 0.0000 0.0000 4.1080 0.0000 27.8516
#
#
#
# Elastic Compliance Matrix: (Units=1/GPa)
#
#
# Indices 1 2 3 4 5 6 
#
# 1 0.019704 -0.001957 -0.001967 0.000000 -0.011831 0.000000
# 2 -0.001957 0.014202 -0.013128 0.000000 0.013825 0.000000
# 3 -0.001967 -0.013128 0.030318 0.000000 -0.035672 0.000000
# 4 0.000000 0.000000 0.000000 0.063532 0.000000 -0.009371
# 5 -0.011831 0.013825 -0.035672 0.000000 0.098290 0.000000
# 6 0.000000 0.000000 0.000000 -0.009371 0.000000 0.037287
#
#
# Mechanical properties :
#
#
# Convention : Reuss Voigt Hill
#
# Bulk Modulus (GPa) = 33.20057 62.21485 47.70771
# Shear Modulus (GPa) = 16.26140 24.49180 20.37660
#
# Velocity S-wave (km/s) = 3.02156 3.70819 3.38234
# Velocity P-wave (km/s) = 5.55096 7.29823 6.48372
#
# Compressibility (1/GPa) = 0.03011997
#
# Stress axis : x y z
#
# Youngs Moduli (GPa) = 50.75167 70.41401 32.98320
#
# Poissons Ratio (x) = 0.13777 0.06488
# Poissons Ratio (y) = 0.09930 0.43302
# Poissons Ratio (z) = 0.09983 0.92443
#
# Static dielectric constant tensor:
#      x y z
#    x 2.959680 0.000000 0.207010 
#    y 0.000000 3.293850 0.000000 
#    z 0.207010 0.000000 3.398410 
# 
# 
# High freq. dielectric constant tensor:
#      x y z
#    x 1.658560 0.000000 0.019920 
#    y 0.000000 1.692860 0.000000 
#    z 0.019920 0.000000 1.678800 
# 
# From -- ./inp_files/171322.got.cif
#   From: 2010.06.25/outbox.cif.g09.slc.cpg/sg15_86_cif.got.tgz:171322.got - 2010.06.28 07:06:18.
