data_PCOD8130519
_publ_section_title
;
Structure prediction by ZEFSAII (Michael W. Deem and Ramdas Pophale) SiO2 
 PCOD8130519
Probable space group: C 2/C
;
_chemical_formula_sum "Si O2"
_cell_formula_units_Z 52
_cell_length_a 8.344675
_cell_length_b 15.818774
_cell_length_c 27.441885
_cell_angle_alpha 90.000000
_cell_angle_beta 132.405013
_cell_angle_gamma 90.000000
_cell_volume 2674.765569
_symmetry_space_group_name_H-M "C 2/C"
_symmetry_group_IT_number 15
_symmetry_cell_setting 'monoclinic'
loop_
_space_group_symop_operation_xyz
x,y,z
-x,y,1/2-z
-x,-y,-z
x,-y,1/2+z
1/2+x,1/2+y,z
1/2-x,1/2+y,1/2-z
1/2-x,1/2-y,-z
1/2+x,1/2-y,1/2+z
loop_
_atom_site_type_symbol
_atom_site_label
_atom_site_fract_x
_atom_site_fract_y
_atom_site_fract_z
Si Si1 0.500000 0.803136 0.750000
Si Si2 0.950993 0.790412 0.143818
Si Si3 0.413993 0.336934 0.959223
Si Si4 0.890900 0.571279 0.037073
Si Si5 0.791595 0.970177 0.102877
Si Si6 0.842233 0.741129 0.411016
Si Si7 0.465493 0.633074 0.363176
O O1 0.445945 0.747905 0.786334
O O2 0.291414 0.860904 0.697161
O O3 0.730731 0.744599 0.082722
O O4 0.893113 0.886285 0.146484
O O5 0.124273 0.782069 0.135472
O O6 0.265819 0.414203 0.948956
O O7 0.528004 0.368805 0.933407
O O8 0.596116 0.311165 0.035910
O O9 0.067140 0.497569 0.083808
O O10 0.008412 0.659530 0.049125
O O11 0.746000 0.544873 0.961843
O O12 0.962522 0.045440 0.146103
O O13 0.591438 0.712862 0.364909
#
# Coordination Sequence:
#
# PCOD8130519 Si02
#       7
#     4   8   8   8   8   8   8
#     4  10  24  44  52  72 102 160 190 236 264 324
#     4  10  19  37  61  76 111 144 197 223 270 337
#     4  10  17  34  55  87 117 145 171 223 281 349
#     4   9  17  30  56  85 120 140 169 215 296 346
#     4  10  18  34  55  87 111 146 176 230 280 344
#     4  10  17  34  58  87 105 149 181 226 282 350
#     4  10  23  35  55  79 116 143 188 233 286 325
#
# _framework density 19.440954999999999
#
# number of rings (size 3 to 8) (size 9 to 14) (size 15 to 20)
#    0.000    2.154    3.077    1.385    0.000    1.231 
#    0.000    7.692    0.000    0.000    0.000    0.000 
#    0.000    0.000    0.000    0.000    0.000    0.000 
#
# Total GULP energy -322374.501751 kJ/mol
# GULP energy per Si atom -12399.019298 kJ/mol
# Density = 1.939671 g / cm^3
# Si number density = 19.440955 Si / 1000 Ang^3
#
#
#
# Elastic Constant Matrix: (Units=GPa)
#
#
# Indices 1 2 3 4 5 6 
#
# 1 63.5453 27.3568 19.6294 0.0000 2.1372 0.0000
# 2 27.3568 86.7484 20.4602 0.0000 3.6090 0.0000
# 3 19.6294 20.4602 73.9841 0.0000 -3.1705 0.0000
# 4 0.0000 0.0000 0.0000 16.6701 0.0000 3.8695
# 5 2.1372 3.6090 -3.1705 0.0000 29.5084 0.0000
# 6 0.0000 0.0000 0.0000 3.8695 0.0000 26.6586
#
#
#
# Elastic Compliance Matrix: (Units=1/GPa)
#
#
# Indices 1 2 3 4 5 6 
#
# 1 0.019120 -0.005106 -0.003710 0.000000 -0.001159 0.000000
# 2 -0.005106 0.013801 -0.002530 0.000000 -0.001590 0.000000
# 3 -0.003710 -0.002530 0.015296 0.000000 0.002222 0.000000
# 4 0.000000 0.000000 0.000000 0.062079 0.000000 -0.009011
# 5 -0.001159 -0.001590 0.002222 0.000000 0.034406 0.000000
# 6 0.000000 0.000000 0.000000 -0.009011 0.000000 0.038819
#
#
# Mechanical properties :
#
#
# Convention : Reuss Voigt Hill
#
# Bulk Modulus (GPa) = 39.17991 39.90782 39.54387
# Shear Modulus (GPa) = 23.28591 25.02287 24.15439
#
# Velocity S-wave (km/s) = 3.46464 3.59154 3.52866
# Velocity P-wave (km/s) = 6.01681 6.14582 6.08166
#
# Compressibility (1/GPa) = 0.02552328
#
# Stress axis : x y z
#
# Youngs Moduli (GPa) = 52.30044 72.45974 65.37779
#
# Poissons Ratio (x) = 0.37001 0.24258
# Poissons Ratio (y) = 0.26707 0.16540
# Poissons Ratio (z) = 0.19406 0.18332
#
# Static dielectric constant tensor:
#      x y z
#    x 3.714490 0.000000 -0.034460 
#    y 0.000000 3.530470 0.000000 
#    z -0.034460 0.000000 3.246920 
# 
# 
# High freq. dielectric constant tensor:
#      x y z
#    x 1.758660 0.000000 0.000510 
#    y 0.000000 1.749020 0.000000 
#    z 0.000510 0.000000 1.726500 
# 
# From -- ./inp_files/231206.got.cif
#   From: 2010.06.25/outbox.cif.g09.slc.cpg/sg15_116_cif.got.tgz:231206.got - 2010.06.28 07:06:18.
