data_PCOD8130269
_publ_section_title
;
Structure prediction by ZEFSAII (Michael W. Deem and Ramdas Pophale) SiO2 
 PCOD8130269
Probable space group: C 2/C
;
_chemical_formula_sum "Si O2"
_cell_formula_units_Z 64
_cell_length_a 23.701227
_cell_length_b 11.609957
_cell_length_c 20.627392
_cell_angle_alpha 90.000000
_cell_angle_beta 37.673615
_cell_angle_gamma 90.000000
_cell_volume 3468.985958
_symmetry_space_group_name_H-M "C 2/C"
_symmetry_group_IT_number 15
_symmetry_cell_setting 'monoclinic'
loop_
_space_group_symop_operation_xyz
x,y,z
-x,y,1/2-z
-x,-y,-z
x,-y,1/2+z
1/2+x,1/2+y,z
1/2-x,1/2+y,1/2-z
1/2-x,1/2-y,-z
1/2+x,1/2-y,1/2+z
loop_
_atom_site_type_symbol
_atom_site_label
_atom_site_fract_x
_atom_site_fract_y
_atom_site_fract_z
Si Si1 0.509162 0.615225 0.534259
Si Si2 0.411683 0.700923 0.363332
Si Si3 0.496467 0.465262 0.182440
Si Si4 0.118690 0.381591 0.002343
Si Si5 0.641602 0.790496 0.839893
Si Si6 0.820418 0.095570 0.328838
Si Si7 0.152898 0.750346 0.819827
Si Si8 0.555224 0.984153 0.384397
O O1 0.500000 0.500000 0.500000
O O2 0.542295 0.597205 0.578923
O O3 0.409698 0.673675 0.632064
O O4 0.578732 0.703597 0.438149
O O5 0.500000 0.763393 0.250000
O O6 0.449809 0.585278 0.361587
O O7 0.369810 0.783917 0.454523
O O8 0.332532 0.669631 0.383543
O O9 0.500000 0.400202 0.250000
O O10 0.388267 0.486556 0.265552
O O11 0.025344 0.458425 0.096362
O O12 0.112486 0.318275 0.939567
O O13 0.215153 0.452391 0.918577
O O14 0.748965 0.761757 0.734192
O O15 0.612070 0.897646 0.819459
O O16 0.848072 0.177056 0.244475
O O17 0.129204 0.618846 0.822814
O O18 0.500000 0.000000 0.500000
#
# Coordination Sequence:
#
# PCOD8130269 Si02
#       8
#     8   8   8   8   8   8   8   8
#     4  12  21  35  62  85 110 143 196 236 274 331
#     4   9  17  30  51  76 112 146 184 230 284 339
#     4   9  19  34  53  78 111 144 184 233 280 324
#     4  10  17  31  52  75 111 147 183 222 283 344
#     4  10  24  35  54  86 114 146 184 236 281 337
#     4   9  18  31  50  84 111 141 185 231 287 340
#     4  11  21  36  56  85 113 141 184 237 284 328
#     4  10  19  36  52  74 114 149 176 223 294 332
#
# _framework density 18.449193999999999
#
# number of rings (size 3 to 8) (size 9 to 14) (size 15 to 20)
#    0.000    2.250    3.750    2.625    1.750    1.000 
#    0.000    0.000    2.750    3.000    0.000    0.000 
#    0.000    0.000    0.000    0.000    0.000    0.000 
#
# Total GULP energy -396498.072563 kJ/mol
# GULP energy per Si atom -12390.564768 kJ/mol
# Density = 1.840720 g / cm^3
# Si number density = 18.449194 Si / 1000 Ang^3
#
#
#
# Elastic Constant Matrix: (Units=GPa)
#
#
# Indices 1 2 3 4 5 6 
#
# 1 108.3883 38.0634 45.9179 0.0000 -11.0424 0.0000
# 2 38.0634 66.4669 26.7498 0.0000 -10.3801 0.0000
# 3 45.9179 26.7498 56.0702 0.0000 -11.3022 0.0000
# 4 0.0000 0.0000 0.0000 18.8412 0.0000 -0.7953
# 5 -11.0424 -10.3801 -11.3022 0.0000 38.4174 0.0000
# 6 0.0000 0.0000 0.0000 -0.7953 0.0000 19.0889
#
#
#
# Elastic Compliance Matrix: (Units=1/GPa)
#
#
# Indices 1 2 3 4 5 6 
#
# 1 0.015170 -0.004552 -0.010227 0.000000 0.000122 0.000000
# 2 -0.004552 0.020228 -0.005405 0.000000 0.002567 0.000000
# 3 -0.010227 -0.005405 0.029660 0.000000 0.004326 0.000000
# 4 0.000000 0.000000 0.000000 0.053169 0.000000 0.002215
# 5 0.000122 0.002567 0.004326 0.000000 0.028031 0.000000
# 6 0.000000 0.000000 0.000000 0.002215 0.000000 0.052479
#
#
# Mechanical properties :
#
#
# Convention : Reuss Voigt Hill
#
# Bulk Modulus (GPa) = 40.50165 50.26528 45.38346
# Shear Modulus (GPa) = 20.21560 23.28248 21.74904
#
# Velocity S-wave (km/s) = 3.31379 3.55629 3.43718
# Velocity P-wave (km/s) = 6.05329 6.64585 6.35648
#
# Compressibility (1/GPa) = 0.02469035
#
# Stress axis : x y z
#
# Youngs Moduli (GPa) = 65.92144 49.43604 33.71529
#
# Poissons Ratio (x) = 0.22505 0.34479
# Poissons Ratio (y) = 0.30010 0.18222
# Poissons Ratio (z) = 0.67415 0.26719
#
# Static dielectric constant tensor:
#      x y z
#    x 3.844590 0.000000 -0.250520 
#    y 0.000000 3.383370 0.000000 
#    z -0.250520 0.000000 3.669910 
# 
# 
# High freq. dielectric constant tensor:
#      x y z
#    x 1.722790 0.000000 -0.013530 
#    y 0.000000 1.684630 0.000000 
#    z -0.013530 0.000000 1.707860 
# 
# From -- ./inp_files/255353.got.cif
#   From: 2010.06.25/outbox.cif.g09.slc.cpg/sg15_128_cif.got.tgz:255353.got - 2010.06.28 07:06:18.
