data_PCOD8130102
_publ_section_title
;
Structure prediction by ZEFSAII (Michael W. Deem and Ramdas Pophale) SiO2 
 PCOD8130102
Probable space group: C 2/C
;
_chemical_formula_sum "Si O2"
_cell_formula_units_Z 64
_cell_length_a 25.016903
_cell_length_b 9.302235
_cell_length_c 20.547672
_cell_angle_alpha 90.000000
_cell_angle_beta 135.701424
_cell_angle_gamma 90.000000
_cell_volume 3339.536163
_symmetry_space_group_name_H-M "C 2/C"
_symmetry_group_IT_number 15
_symmetry_cell_setting 'monoclinic'
loop_
_space_group_symop_operation_xyz
x,y,z
-x,y,1/2-z
-x,-y,-z
x,-y,1/2+z
1/2+x,1/2+y,z
1/2-x,1/2+y,1/2-z
1/2-x,1/2-y,-z
1/2+x,1/2-y,1/2+z
loop_
_atom_site_type_symbol
_atom_site_label
_atom_site_fract_x
_atom_site_fract_y
_atom_site_fract_z
Si Si1 0.223971 0.573285 0.437242
Si Si2 0.042982 0.918813 0.481987
Si Si3 0.447187 0.912411 0.503130
Si Si4 0.721044 0.454219 0.649786
Si Si5 0.018207 0.110789 0.701223
Si Si6 0.693813 0.617164 0.872068
Si Si7 0.057348 0.417996 0.852968
Si Si8 0.774389 0.374076 0.317884
O O1 0.235766 0.491014 0.378694
O O2 0.288606 0.523399 0.547117
O O3 0.239954 0.736839 0.428399
O O4 0.141446 0.552993 0.398023
O O5 0.023182 0.750694 0.469710
O O6 0.131273 0.956078 0.557911
O O7 0.004718 0.978086 0.382133
O O8 0.000000 0.000000 0.500000
O O9 0.449769 0.979346 0.579083
O O10 0.362879 0.914057 0.399824
O O11 0.500000 0.000000 0.500000
O O12 0.741361 0.570500 0.721529
O O13 0.744371 0.295888 0.695178
O O14 0.106852 0.153447 0.779254
O O15 0.000000 0.015759 0.750000
O O16 0.962032 0.249125 0.658715
O O17 0.731612 0.547005 0.840860
O O18 0.000000 0.491430 0.750000
#
# Coordination Sequence:
#
# PCOD8130102 Si02
#       8
#     8   8   8   8   8   8   8   8
#     4  10  18  30  51  78 110 135 181 230 274 316
#     4  10  21  37  54  81 114 143 182 226 274 329
#     4  10  22  36  55  83 111 144 183 225 273 329
#     4  10  22  35  56  83 110 148 181 227 275 326
#     4  10  17  28  50  78 104 135 178 220 274 317
#     4  10  17  29  50  75 107 139 171 230 273 314
#     4  10  18  31  49  82 108 135 180 228 274 319
#     4  10  21  36  53  81 112 144 184 221 274 324
#
# _framework density 19.164338000000001
#
# number of rings (size 3 to 8) (size 9 to 14) (size 15 to 20)
#    0.000    2.000    3.750    1.500    5.250    2.000 
#    0.000    0.000    0.000    1.500    3.250    0.000 
#    0.000    0.000    0.000    0.000    0.000    0.000 
#
# Total GULP energy -396457.353731 kJ/mol
# GULP energy per Si atom -12389.292304 kJ/mol
# Density = 1.912072 g / cm^3
# Si number density = 19.164338 Si / 1000 Ang^3
#
#
#
# Elastic Constant Matrix: (Units=GPa)
#
#
# Indices 1 2 3 4 5 6 
#
# 1 171.5204 36.0772 73.8045 0.0000 -29.4886 0.0000
# 2 36.0772 26.0824 29.9133 0.0000 -6.1416 0.0000
# 3 73.8045 29.9133 155.8651 0.0000 -27.6308 0.0000
# 4 0.0000 0.0000 0.0000 21.4242 0.0000 -3.6194
# 5 -29.4886 -6.1416 -27.6308 0.0000 43.7064 0.0000
# 6 0.0000 0.0000 0.0000 -3.6194 0.0000 22.9494
#
#
#
# Elastic Compliance Matrix: (Units=1/GPa)
#
#
# Indices 1 2 3 4 5 6 
#
# 1 0.009366 -0.009935 -0.001864 0.000000 0.003744 0.000000
# 2 -0.009935 0.059743 -0.007277 0.000000 -0.002909 0.000000
# 3 -0.001864 -0.007277 0.009337 0.000000 0.003623 0.000000
# 4 0.000000 0.000000 0.000000 0.047954 0.000000 0.007563
# 5 0.003744 -0.002909 0.003623 0.000000 0.027288 0.000000
# 6 0.000000 0.000000 0.000000 0.007563 0.000000 0.044767
#
#
# Mechanical properties :
#
#
# Convention : Reuss Voigt Hill
#
# Bulk Modulus (GPa) = 24.81782 70.33975 47.57879
# Shear Modulus (GPa) = 19.99685 31.86084 25.92885
#
# Velocity S-wave (km/s) = 3.23374 4.08181 3.68227
# Velocity P-wave (km/s) = 5.18853 7.68102 6.55435
#
# Compressibility (1/GPa) = 0.04029363
#
# Stress axis : x y z
#
# Youngs Moduli (GPa) = 106.76998 16.73831 107.09616
#
# Poissons Ratio (x) = 0.16630 0.19967
# Poissons Ratio (y) = 1.06076 0.77934
# Poissons Ratio (z) = 0.19906 0.12180
#
# Static dielectric constant tensor:
#      x y z
#    x 4.803060 0.000000 0.098070 
#    y 0.000000 2.825790 0.000000 
#    z 0.098070 0.000000 4.275340 
# 
# 
# High freq. dielectric constant tensor:
#      x y z
#    x 1.769260 0.000000 -0.012020 
#    y 0.000000 1.658110 0.000000 
#    z -0.012020 0.000000 1.774360 
# 
# From -- ./inp_files/215070.got.cif
#   From: 2010.06.25/outbox.cif.g09.slc.cpg/sg15_108_cif.got.tgz:215070.got - 2010.06.28 07:06:18.
