data_PCOD8130458
_publ_section_title
;
Structure prediction by ZEFSAII (Michael W. Deem and Ramdas Pophale) SiO2 
 PCOD8130458
Probable space group: C 2/C
;
_chemical_formula_sum "Si O2"
_cell_formula_units_Z 40
_cell_length_a 5.083668
_cell_length_b 26.554929
_cell_length_c 16.036888
_cell_angle_alpha 90.000000
_cell_angle_beta 70.423012
_cell_angle_gamma 90.000000
_cell_volume 2039.773204
_symmetry_space_group_name_H-M "C 2/C"
_symmetry_group_IT_number 15
_symmetry_cell_setting 'monoclinic'
loop_
_space_group_symop_operation_xyz
x,y,z
-x,y,1/2-z
-x,-y,-z
x,-y,1/2+z
1/2+x,1/2+y,z
1/2-x,1/2+y,1/2-z
1/2-x,1/2-y,-z
1/2+x,1/2-y,1/2+z
loop_
_atom_site_type_symbol
_atom_site_label
_atom_site_fract_x
_atom_site_fract_y
_atom_site_fract_z
Si Si1 0.306083 0.131817 0.431883
Si Si2 0.759074 0.190916 0.486829
Si Si3 0.541023 0.134832 0.657219
Si Si4 0.500000 0.073909 0.250000
Si Si5 0.581396 0.420672 0.113252
Si Si6 0.000000 0.004817 0.250000
O O1 0.524718 0.169792 0.450408
O O2 0.447609 0.107972 0.336353
O O3 0.209914 0.086254 0.505742
O O4 0.053425 0.167228 0.427582
O O5 0.750000 0.250000 0.500000
O O6 0.709040 0.174219 0.586006
O O7 0.500000 0.161463 0.750000
O O8 0.241169 0.120705 0.651828
O O9 0.746700 0.086594 0.647058
O O10 0.235971 0.039483 0.262628
O O11 0.625449 0.473286 0.157603
#
# Coordination Sequence:
#
# PCOD8130458 Si02
#       6
#     8   8   8   4   8   4
#     4  10  23  42  59  84 125 155 191 241 303 335
#     4  10  21  39  64  86 114 151 196 239 286 360
#     4  10  17  33  56  86 116 141 182 243 307 326
#     4  12  26  40  58  85 124 167 188 234 290 358
#     4  10  20  35  60  84 113 151 188 253 281 326
#     4  12  22  36  62  87 114 155 212 236 278 356
#
# _framework density 19.610023000000002
#
# number of rings (size 3 to 8) (size 9 to 14) (size 15 to 20)
#    0.000    1.600    2.000    3.000    0.000    1.600 
#    3.600    0.000    0.000    0.000    0.000    0.000 
#    0.000    0.000    0.000    0.000    0.000    0.000 
#
# Total GULP energy -247823.094565 kJ/mol
# GULP energy per Si atom -12391.154728 kJ/mol
# Density = 1.956539 g / cm^3
# Si number density = 19.610023 Si / 1000 Ang^3
#
#
#
# Elastic Constant Matrix: (Units=GPa)
#
#
# Indices 1 2 3 4 5 6 
#
# 1 97.5651 11.2282 4.0590 0.0000 -0.6739 0.0000
# 2 11.2282 81.7939 30.6913 0.0000 -1.4021 0.0000
# 3 4.0590 30.6913 117.1387 0.0000 -0.8630 0.0000
# 4 0.0000 0.0000 0.0000 17.7549 0.0000 7.6792
# 5 -0.6739 -1.4021 -0.8630 0.0000 21.0419 0.0000
# 6 0.0000 0.0000 0.0000 7.6792 0.0000 29.2202
#
#
#
# Elastic Compliance Matrix: (Units=1/GPa)
#
#
# Indices 1 2 3 4 5 6 
#
# 1 0.010415 -0.001432 0.000016 0.000000 0.000239 0.000000
# 2 -0.001432 0.013768 -0.003552 0.000000 0.000726 0.000000
# 3 0.000016 -0.003552 0.009468 0.000000 0.000152 0.000000
# 4 0.000000 0.000000 0.000000 0.063545 0.000000 -0.016700
# 5 0.000239 0.000726 0.000152 0.000000 0.047586 0.000000
# 6 0.000000 0.000000 0.000000 -0.016700 0.000000 0.038612
#
#
# Mechanical properties :
#
#
# Convention : Reuss Voigt Hill
#
# Bulk Modulus (GPa) = 42.16697 43.16165 42.66431
# Shear Modulus (GPa) = 24.84647 30.30469 27.57558
#
# Velocity S-wave (km/s) = 3.56340 3.93538 3.75400
# Velocity P-wave (km/s) = 6.20321 6.53509 6.37131
#
# Compressibility (1/GPa) = 0.02371524
#
# Stress axis : x y z
#
# Youngs Moduli (GPa) = 96.01253 72.63350 105.61673
#
# Poissons Ratio (x) = 0.10399 -0.00169
# Poissons Ratio (y) = 0.13746 0.37518
# Poissons Ratio (z) = -0.00153 0.25802
#
# Static dielectric constant tensor:
#      x y z
#    x 4.659710 0.000000 0.568580 
#    y 0.000000 3.438650 0.000000 
#    z 0.568580 0.000000 4.180350 
# 
# 
# High freq. dielectric constant tensor:
#      x y z
#    x 1.789920 0.000000 0.005090 
#    y 0.000000 1.734730 0.000000 
#    z 0.005090 0.000000 1.770900 
# 
# From -- ./inp_files/129077.got.cif
#   From: 2010.06.25/outbox.cif.g09.slc.cpg/sg15_65_cif.got.tgz:129077.got - 2010.06.28 07:06:18.
