data_PCOD8130206
_publ_section_title
;
Structure prediction by ZEFSAII (Michael W. Deem and Ramdas Pophale) SiO2 
 PCOD8130206
Probable space group: C 2/C
;
_chemical_formula_sum "Si O2"
_cell_formula_units_Z 48
_cell_length_a 19.315772
_cell_length_b 8.167397
_cell_length_c 17.304381
_cell_angle_alpha 90.000000
_cell_angle_beta 120.795112
_cell_angle_gamma 90.000000
_cell_volume 2345.021223
_symmetry_space_group_name_H-M "C 2/C"
_symmetry_group_IT_number 15
_symmetry_cell_setting 'monoclinic'
loop_
_space_group_symop_operation_xyz
x,y,z
-x,y,1/2-z
-x,-y,-z
x,-y,1/2+z
1/2+x,1/2+y,z
1/2-x,1/2+y,1/2-z
1/2-x,1/2-y,-z
1/2+x,1/2-y,1/2+z
loop_
_atom_site_type_symbol
_atom_site_label
_atom_site_fract_x
_atom_site_fract_y
_atom_site_fract_z
Si Si1 0.766193 0.449959 0.655864
Si Si2 0.612284 0.399978 0.022560
Si Si3 0.544255 0.470835 0.644641
Si Si4 0.332691 0.211342 0.800920
Si Si5 0.925619 0.292439 0.757897
Si Si6 0.084509 0.434588 0.576973
O O1 0.697233 0.504533 0.554563
O O2 0.731096 0.342408 0.705558
O O3 0.793691 0.622320 0.706164
O O4 0.842655 0.347195 0.666169
O O5 0.577156 0.467091 0.082035
O O6 0.619780 0.203357 0.038898
O O7 0.552391 0.443610 0.917634
O O8 0.586749 0.298087 0.686092
O O9 0.566042 0.596543 0.725876
O O10 0.353871 0.087292 0.883603
O O11 0.927711 0.373907 0.842740
O O12 0.000000 0.357993 0.750000
O O13 0.000000 0.500000 0.500000
#
# Coordination Sequence:
#
# PCOD8130206 Si02
#       6
#     8   8   8   8   8   8
#     4  10  19  31  52  81 111 141 180 235 272 320
#     4   9  17  30  52  83 105 130 180 233 272 311
#     4   9  17  31  53  74 106 139 177 226 271 327
#     4  10  17  30  53  84 109 133 183 233 275 318
#     4  10  22  37  52  76 113 154 187 217 283 342
#     4  10  18  32  59  86 107 141 183 230 276 329
#
# _framework density 20.468897999999999
#
# number of rings (size 3 to 8) (size 9 to 14) (size 15 to 20)
#    0.000    2.333    1.667    4.000    2.333    0.000 
#    0.000    4.167    0.000    1.000    0.000    0.000 
#    0.000    0.000    0.000    0.000    0.000    0.000 
#
# Total GULP energy -297402.292323 kJ/mol
# GULP energy per Si atom -12391.762180 kJ/mol
# Density = 2.042231 g / cm^3
# Si number density = 20.468898 Si / 1000 Ang^3
#
#
#
# Elastic Constant Matrix: (Units=GPa)
#
#
# Indices 1 2 3 4 5 6 
#
# 1 67.6649 26.0423 38.5490 0.0000 31.7915 0.0000
# 2 26.0423 119.1168 52.1762 0.0000 25.2210 0.0000
# 3 38.5490 52.1762 88.6484 0.0000 48.0400 0.0000
# 4 0.0000 0.0000 0.0000 32.7434 0.0000 15.7512
# 5 31.7915 25.2210 48.0400 0.0000 35.6568 0.0000
# 6 0.0000 0.0000 0.0000 15.7512 0.0000 16.2053
#
#
#
# Elastic Compliance Matrix: (Units=1/GPa)
#
#
# Indices 1 2 3 4 5 6 
#
# 1 0.026301 -0.002049 0.006267 0.000000 -0.030444 0.000000
# 2 -0.002049 0.011596 -0.009187 0.000000 0.006002 0.000000
# 3 0.006267 -0.009187 0.049907 0.000000 -0.066329 0.000000
# 4 0.000000 0.000000 0.000000 0.057360 0.000000 -0.055753
# 5 -0.030444 0.006002 -0.066329 0.000000 0.140308 0.000000
# 6 0.000000 0.000000 0.000000 -0.055753 0.000000 0.115898
#
#
# Mechanical properties :
#
#
# Convention : Reuss Voigt Hill
#
# Bulk Modulus (GPa) = 12.84247 56.55168 34.69707
# Shear Modulus (GPa) = 11.43476 27.49860 19.46668
#
# Velocity S-wave (km/s) = 2.36612 3.66926 3.08723
# Velocity P-wave (km/s) = 3.70843 6.75569 5.44940
#
# Compressibility (1/GPa) = 0.07786665
#
# Stress axis : x y z
#
# Youngs Moduli (GPa) = 38.02199 86.23390 20.03723
#
# Poissons Ratio (x) = 0.17672 -0.12558
# Poissons Ratio (y) = 0.07792 0.18408
# Poissons Ratio (z) = -0.23829 0.79220
#
# Static dielectric constant tensor:
#      x y z
#    x 3.267870 0.000000 0.599110 
#    y 0.000000 4.217560 0.000000 
#    z 0.599110 0.000000 3.963190 
# 
# 
# High freq. dielectric constant tensor:
#      x y z
#    x 1.738440 0.000000 0.046680 
#    y 0.000000 1.819270 0.000000 
#    z 0.046680 0.000000 1.797860 
# 
# From -- ./inp_files/276377.got.cif
#   From: 2010.06.25/outbox.cif.g09.slc.cpg/sg15_139_cif.got.tgz:276377.got - 2010.06.28 07:06:18.
