data_PCOD8130871
_publ_section_title
;
Structure prediction by ZEFSAII (Michael W. Deem and Ramdas Pophale) SiO2 
 PCOD8130871
Probable space group: C 2/C
;
_chemical_formula_sum "Si O2"
_cell_formula_units_Z 48
_cell_length_a 14.957724
_cell_length_b 21.210714
_cell_length_c 9.166522
_cell_angle_alpha 90.000000
_cell_angle_beta 113.491047
_cell_angle_gamma 90.000000
_cell_volume 2667.182149
_symmetry_space_group_name_H-M "C 2/C"
_symmetry_group_IT_number 15
_symmetry_cell_setting 'monoclinic'
loop_
_space_group_symop_operation_xyz
x,y,z
-x,y,1/2-z
-x,-y,-z
x,-y,1/2+z
1/2+x,1/2+y,z
1/2-x,1/2+y,1/2-z
1/2-x,1/2-y,-z
1/2+x,1/2-y,1/2+z
loop_
_atom_site_type_symbol
_atom_site_label
_atom_site_fract_x
_atom_site_fract_y
_atom_site_fract_z
Si Si1 0.948817 0.934518 0.980830
Si Si2 0.780339 0.047179 0.598117
Si Si3 0.790969 0.093209 0.149279
Si Si4 0.854215 0.128280 0.885165
Si Si5 0.115641 0.220481 0.833233
Si Si6 0.275101 0.155256 0.116030
O O1 0.891117 0.922561 0.794635
O O2 0.881225 0.938793 0.078790
O O3 0.029376 0.880261 0.045903
O O4 0.000000 0.000000 0.000000
O O5 0.798768 0.068325 0.776744
O O6 0.701655 0.093284 0.467992
O O7 0.744430 0.974686 0.572555
O O8 0.722857 0.133816 0.213010
O O9 0.812585 0.135217 0.020944
O O10 0.833667 0.191761 0.779664
O O11 0.140013 0.294484 0.856166
O O12 0.000000 0.211386 0.750000
O O13 0.167456 0.184605 0.004265
#
# Coordination Sequence:
#
# PCOD8130871 Si02
#       6
#     8   8   8   8   8   8
#     4  11  18  26  40  70 109 139 157 189 244 317
#     4  10  18  30  44  68 102 136 159 194 252 302
#     4  11  19  28  45  74 104 130 158 203 257 299
#     4  11  19  26  45  72 100 134 168 199 240 297
#     4  10  20  38  54  69  95 137 178 206 243 296
#     4   9  21  36  52  73 101 132 169 205 246 310
#
# _framework density 17.99652
#
# number of rings (size 3 to 8) (size 9 to 14) (size 15 to 20)
#    0.000    1.667    3.333    5.000    0.000    0.667 
#    0.000    0.000    0.000    1.000    0.000    0.000 
#    0.000    0.000    0.000    0.000    0.000    0.000 
#
# Total GULP energy -297439.388335 kJ/mol
# GULP energy per Si atom -12393.307847 kJ/mol
# Density = 1.795556 g / cm^3
# Si number density = 17.996520 Si / 1000 Ang^3
#
#
#
# Elastic Constant Matrix: (Units=GPa)
#
#
# Indices 1 2 3 4 5 6 
#
# 1 24.5734 17.4755 19.8171 0.0000 -7.3304 0.0000
# 2 17.4755 94.5244 23.4121 0.0000 -7.5365 0.0000
# 3 19.8171 23.4121 89.1674 0.0000 -27.0231 0.0000
# 4 0.0000 0.0000 0.0000 26.5121 0.0000 1.0942
# 5 -7.3304 -7.5365 -27.0231 0.0000 25.2005 0.0000
# 6 0.0000 0.0000 0.0000 1.0942 0.0000 23.0289
#
#
#
# Elastic Compliance Matrix: (Units=1/GPa)
#
#
# Indices 1 2 3 4 5 6 
#
# 1 0.054433 -0.007539 -0.008893 0.000000 0.004043 0.000000
# 2 -0.007539 0.012361 -0.001651 0.000000 -0.000266 0.000000
# 3 -0.008893 -0.001651 0.018801 0.000000 0.017080 0.000000
# 4 0.000000 0.000000 0.000000 0.037793 0.000000 -0.001796
# 5 0.004043 -0.000266 0.017080 0.000000 0.059094 0.000000
# 6 0.000000 0.000000 0.000000 -0.001796 0.000000 0.043509
#
#
# Mechanical properties :
#
#
# Convention : Reuss Voigt Hill
#
# Bulk Modulus (GPa) = 20.23045 36.63051 28.43048
# Shear Modulus (GPa) = 17.94481 24.78565 21.36523
#
# Velocity S-wave (km/s) = 3.16116 3.71515 3.44930
# Velocity P-wave (km/s) = 4.95879 6.22909 5.62988
#
# Compressibility (1/GPa) = 0.04943044
#
# Stress axis : x y z
#
# Youngs Moduli (GPa) = 18.37113 80.90214 53.18827
#
# Poissons Ratio (x) = 0.60988 0.47300
# Poissons Ratio (y) = 0.13849 0.08780
# Poissons Ratio (z) = 0.16337 0.13355
#
# Static dielectric constant tensor:
#      x y z
#    x 2.823160 0.000000 -0.110850 
#    y 0.000000 3.335810 0.000000 
#    z -0.110850 0.000000 3.456130 
# 
# 
# High freq. dielectric constant tensor:
#      x y z
#    x 1.630430 0.000000 -0.019130 
#    y 0.000000 1.702430 0.000000 
#    z -0.019130 0.000000 1.704190 
# 
# From -- ./inp_files/41807.got.cif
#   From: 2010.06.25/outbox.cif.g09.slc.cpg/sg15_21_cif.got.tgz:41807.got - 2010.06.28 07:06:18.
