data_PCOD8130660
_publ_section_title
;
Structure prediction by ZEFSAII (Michael W. Deem and Ramdas Pophale) SiO2 
 PCOD8130660
Probable space group: C 2/C
;
_chemical_formula_sum "Si O2"
_cell_formula_units_Z 56
_cell_length_a 14.055345
_cell_length_b 18.154729
_cell_length_c 13.366482
_cell_angle_alpha 90.000000
_cell_angle_beta 63.203607
_cell_angle_gamma 90.000000
_cell_volume 3044.473447
_symmetry_space_group_name_H-M "C 2/C"
_symmetry_group_IT_number 15
_symmetry_cell_setting 'monoclinic'
loop_
_space_group_symop_operation_xyz
x,y,z
-x,y,1/2-z
-x,-y,-z
x,-y,1/2+z
1/2+x,1/2+y,z
1/2-x,1/2+y,1/2-z
1/2-x,1/2-y,-z
1/2+x,1/2-y,1/2+z
loop_
_atom_site_type_symbol
_atom_site_label
_atom_site_fract_x
_atom_site_fract_y
_atom_site_fract_z
Si Si1 0.226888 0.583830 0.475930
Si Si2 0.440756 0.807516 0.376214
Si Si3 0.814101 0.426139 0.924410
Si Si4 0.452319 0.636791 0.376922
Si Si5 0.960990 0.311241 0.963334
Si Si6 0.675697 0.863360 0.783014
Si Si7 0.135950 0.836559 0.935669
O O1 0.169928 0.649964 0.561246
O O2 0.177858 0.507259 0.535619
O O3 0.350252 0.586661 0.448365
O O4 0.210632 0.591892 0.364625
O O5 0.500000 0.835485 0.250000
O O6 0.414666 0.721152 0.384260
O O7 0.519681 0.826835 0.429432
O O8 0.887640 0.375525 0.957827
O O9 0.855424 0.422617 0.789210
O O10 0.691711 0.395047 0.984533
O O11 0.500000 0.608672 0.250000
O O12 0.535231 0.626480 0.428243
O O13 0.075095 0.309896 0.851797
O O14 0.900882 0.233159 0.980798
O O15 0.775745 0.814834 0.692615
#
# Coordination Sequence:
#
# PCOD8130660 Si02
#       7
#     8   8   8   8   8   8   8
#     4  11  21  36  60  82 119 154 185 234 295 341
#     4   9  21  34  55  91 112 145 194 237 285 339
#     4  10  22  36  57  85 118 150 189 231 286 344
#     4  10  17  36  59  77 114 153 189 240 278 331
#     4  10  19  38  62  81 115 153 185 246 283 328
#     4   9  21  37  59  87 110 153 193 228 294 330
#     4   9  20  37  58  86 113 149 201 230 278 343
#
# _framework density 18.393986999999999
#
# number of rings (size 3 to 8) (size 9 to 14) (size 15 to 20)
#    0.857    1.429    1.429    1.286    0.000    5.143 
#    0.000    0.000    3.143    0.000    0.000    0.000 
#    0.000    0.000    0.000    0.000    0.000    0.000 
#
# Total GULP energy -347039.358106 kJ/mol
# GULP energy per Si atom -12394.262789 kJ/mol
# Density = 1.835212 g / cm^3
# Si number density = 18.393987 Si / 1000 Ang^3
#
#
#
# Elastic Constant Matrix: (Units=GPa)
#
#
# Indices 1 2 3 4 5 6 
#
# 1 69.1057 11.9447 20.4057 0.0000 -2.2191 0.0000
# 2 11.9447 41.4827 22.6122 0.0000 -1.2839 0.0000
# 3 20.4057 22.6122 86.4941 0.0000 1.8354 0.0000
# 4 0.0000 0.0000 0.0000 19.6654 0.0000 4.1639
# 5 -2.2191 -1.2839 1.8354 0.0000 17.7259 0.0000
# 6 0.0000 0.0000 0.0000 4.1639 0.0000 16.8798
#
#
#
# Elastic Compliance Matrix: (Units=1/GPa)
#
#
# Indices 1 2 3 4 5 6 
#
# 1 0.015935 -0.002857 -0.003057 0.000000 0.002105 0.000000
# 2 -0.002857 0.028764 -0.006898 0.000000 0.002440 0.000000
# 3 -0.003057 -0.006898 0.014136 0.000000 -0.002346 0.000000
# 4 0.000000 0.000000 0.000000 0.053653 0.000000 -0.013235
# 5 0.002105 0.002440 -0.002346 0.000000 0.057098 0.000000
# 6 0.000000 0.000000 0.000000 -0.013235 0.000000 0.062507
#
#
# Mechanical properties :
#
#
# Convention : Reuss Voigt Hill
#
# Bulk Modulus (GPa) = 30.10981 34.11197 32.11089
# Shear Modulus (GPa) = 18.60209 20.32887 19.46548
#
# Velocity S-wave (km/s) = 3.18357 3.32805 3.25661
# Velocity P-wave (km/s) = 5.46977 5.77523 5.62457
#
# Compressibility (1/GPa) = 0.03321176
#
# Stress axis : x y z
#
# Youngs Moduli (GPa) = 62.75625 34.76508 70.74246
#
# Poissons Ratio (x) = 0.09931 0.21627
# Poissons Ratio (y) = 0.17928 0.48796
# Poissons Ratio (z) = 0.19185 0.23980
#
# Static dielectric constant tensor:
#      x y z
#    x 3.492840 0.000000 -0.017170 
#    y 0.000000 3.069210 0.000000 
#    z -0.017170 0.000000 3.435110 
# 
# 
# High freq. dielectric constant tensor:
#      x y z
#    x 1.729890 0.000000 -0.000480 
#    y 0.000000 1.679410 0.000000 
#    z -0.000480 0.000000 1.708690 
# 
# From -- ./inp_files/154779.got.cif
#   From: 2010.06.25/outbox.cif.g09.slc.cpg/sg15_78_cif.got.tgz:154779.got - 2010.06.28 07:06:18.
