data_PCOD8130474
_publ_section_title
;
Structure prediction by ZEFSAII (Michael W. Deem and Ramdas Pophale) SiO2 
 PCOD8130474
Probable space group: C 2/C
;
_chemical_formula_sum "Si O2"
_cell_formula_units_Z 64
_cell_length_a 20.077279
_cell_length_b 8.511333
_cell_length_c 21.114496
_cell_angle_alpha 90.000000
_cell_angle_beta 58.957709
_cell_angle_gamma 90.000000
_cell_volume 3091.405519
_symmetry_space_group_name_H-M "C 2/C"
_symmetry_group_IT_number 15
_symmetry_cell_setting 'monoclinic'
loop_
_space_group_symop_operation_xyz
x,y,z
-x,y,1/2-z
-x,-y,-z
x,-y,1/2+z
1/2+x,1/2+y,z
1/2-x,1/2+y,1/2-z
1/2-x,1/2-y,-z
1/2+x,1/2-y,1/2+z
loop_
_atom_site_type_symbol
_atom_site_label
_atom_site_fract_x
_atom_site_fract_y
_atom_site_fract_z
Si Si1 0.861914 0.796934 0.410663
Si Si2 0.280193 0.268954 0.084505
Si Si3 0.507050 0.168606 0.393631
Si Si4 0.451194 0.655809 0.508130
Si Si5 0.085914 0.661395 0.234805
Si Si6 0.123887 0.322590 0.204301
Si Si7 0.770588 0.509170 0.996891
Si Si8 0.983794 0.313450 0.361998
O O1 0.874792 0.793920 0.328178
O O2 0.819797 0.643537 0.458566
O O3 0.817944 0.957477 0.446115
O O4 0.943002 0.799454 0.407303
O O5 0.210571 0.243908 0.170558
O O6 0.304932 0.101629 0.041362
O O7 0.357903 0.363164 0.066719
O O8 0.229473 0.371873 0.060705
O O9 0.526029 0.197326 0.457632
O O10 0.579994 0.211758 0.311443
O O11 0.480271 0.991194 0.391233
O O12 0.500000 0.500000 0.500000
O O13 0.469135 0.696169 0.426998
O O14 0.138737 0.508370 0.202502
O O15 0.000000 0.615515 0.250000
O O16 0.083641 0.284214 0.156311
O O17 0.067401 0.271805 0.289953
#
# Coordination Sequence:
#
# PCOD8130474 Si02
#       8
#     8   8   8   8   8   8   8   8
#     4  10  17  33  58  91 109 139 191 255 297 343
#     4  11  21  37  55  83 119 163 190 243 298 353
#     4  10  19  36  61  81 110 154 197 233 291 365
#     4  12  26  40  55  81 127 168 197 238 294 361
#     4   9  15  32  61  88 111 141 188 249 296 339
#     4  10  17  36  67  91 110 145 202 255 298 353
#     4  10  20  31  58  86 116 140 191 249 303 343
#     4  10  19  38  66  89 110 154 207 246 298 359
#
# _framework density 20.702556000000001
#
# number of rings (size 3 to 8) (size 9 to 14) (size 15 to 20)
#    0.000    1.750    5.000    3.375    0.000    0.000 
#    2.250    2.500    0.000    0.000    0.000    0.000 
#    0.000    0.000    0.000    0.000    0.000    0.000 
#
# Total GULP energy -396455.295477 kJ/mol
# GULP energy per Si atom -12389.227984 kJ/mol
# Density = 2.065544 g / cm^3
# Si number density = 20.702556 Si / 1000 Ang^3
#
#
#
# Elastic Constant Matrix: (Units=GPa)
#
#
# Indices 1 2 3 4 5 6 
#
# 1 76.4894 19.6719 47.7277 0.0007 -16.5407 0.0006
# 2 19.6719 49.1427 24.6539 0.0013 -3.6847 0.0014
# 3 47.7277 24.6539 116.3305 0.0001 -6.9349 0.0003
# 4 0.0007 0.0013 0.0001 23.2571 0.0001 -0.1673
# 5 -16.5407 -3.6847 -6.9349 0.0001 34.9669 0.0004
# 6 0.0006 0.0014 0.0003 -0.1673 0.0004 24.2223
#
#
#
# Elastic Compliance Matrix: (Units=1/GPa)
#
#
# Indices 1 2 3 4 5 6 
#
# 1 0.020097 -0.003984 -0.006941 0.000000 0.007710 0.000000
# 2 -0.003984 0.023634 -0.003378 -0.000001 -0.000064 -0.000001
# 3 -0.006941 -0.003378 0.012086 0.000000 -0.001242 0.000000
# 4 0.000000 -0.000001 0.000000 0.043000 0.000000 0.000297
# 5 0.007710 -0.000064 -0.001242 0.000000 0.031992 -0.000001
# 6 0.000000 -0.000001 0.000000 0.000297 -0.000001 0.041286
#
#
# Mechanical properties :
#
#
# Convention : Reuss Voigt Hill
#
# Bulk Modulus (GPa) = 36.75196 47.34106 42.04651
# Shear Modulus (GPa) = 23.83544 26.48320 25.15932
#
# Velocity S-wave (km/s) = 3.39680 3.58050 3.48986
# Velocity P-wave (km/s) = 5.75980 6.32536 6.04920
#
# Compressibility (1/GPa) = 0.02720943
#
# Stress axis : x y z
#
# Youngs Moduli (GPa) = 49.75884 42.31259 82.74161
#
# Poissons Ratio (x) = 0.16859 0.57433
# Poissons Ratio (y) = 0.19826 0.27948
# Poissons Ratio (z) = 0.34539 0.14292
#
# Static dielectric constant tensor:
#      x y z
#    x 3.547590 0.000000 -0.209180 
#    y 0.000000 3.505210 0.000000 
#    z -0.209180 0.000000 4.186750 
# 
# 
# High freq. dielectric constant tensor:
#      x y z
#    x 1.777770 0.000000 -0.023920 
#    y 0.000000 1.788930 0.000000 
#    z -0.023920 0.000000 1.827320 
# 
# From -- ./inp_files/251871.got.cif
#   From: 2010.06.25/outbox.cif.g09.slc.cpg/sg15_126_cif.got.tgz:251871.got - 2010.06.28 07:06:18.
