data_PCOD8130507
_publ_section_title
;
Structure prediction by ZEFSAII (Michael W. Deem and Ramdas Pophale) SiO2 
 PCOD8130507
Probable space group: C 2/C
;
_chemical_formula_sum "Si O2"
_cell_formula_units_Z 64
_cell_length_a 9.848696
_cell_length_b 22.037807
_cell_length_c 22.068217
_cell_angle_alpha 90.000000
_cell_angle_beta 134.043829
_cell_angle_gamma 90.000000
_cell_volume 3442.923543
_symmetry_space_group_name_H-M "C 2/C"
_symmetry_group_IT_number 15
_symmetry_cell_setting 'monoclinic'
loop_
_space_group_symop_operation_xyz
x,y,z
-x,y,1/2-z
-x,-y,-z
x,-y,1/2+z
1/2+x,1/2+y,z
1/2-x,1/2+y,1/2-z
1/2-x,1/2-y,-z
1/2+x,1/2-y,1/2+z
loop_
_atom_site_type_symbol
_atom_site_label
_atom_site_fract_x
_atom_site_fract_y
_atom_site_fract_z
Si Si1 0.620051 0.633603 0.173729
Si Si2 0.711985 0.137419 0.100922
Si Si3 0.023591 0.837470 0.388716
Si Si4 0.148517 0.815551 0.559357
Si Si5 0.190177 0.900901 0.270781
Si Si6 0.571819 0.205609 0.168040
Si Si7 0.118852 0.674667 0.575276
Si Si8 0.206134 0.033841 0.288417
O O1 0.429433 0.647649 0.151191
O O2 0.584461 0.635927 0.090689
O O3 0.779121 0.684638 0.235179
O O4 0.699817 0.568977 0.221854
O O5 0.652554 0.191665 0.126780
O O6 0.679504 0.073579 0.126512
O O7 0.581166 0.142417 0.001357
O O8 0.025895 0.831696 0.461879
O O9 0.234923 0.850109 0.430027
O O10 0.871529 0.887394 0.318311
O O11 0.954430 0.776827 0.333867
O O12 0.368748 0.826040 0.613945
O O13 0.102644 0.747518 0.567946
O O14 0.328130 0.849339 0.341179
O O15 0.000000 0.899008 0.250000
O O16 0.293744 0.966809 0.305511
O O17 0.000000 0.022902 0.250000
#
# Coordination Sequence:
#
# PCOD8130507 Si02
#       8
#     8   8   8   8   8   8   8   8
#     4  10  21  31  53  76 104 137 171 204 254 306
#     4  10  18  33  53  77 105 132 167 213 251 302
#     4  10  18  32  52  76 107 133 166 213 261 295
#     4  11  19  32  51  82 108 130 164 212 254 310
#     4   9  18  31  53  75  98 135 178 216 251 294
#     4  10  17  34  52  76 106 134 165 210 256 297
#     4  10  18  32  52  81 106 127 171 217 255 298
#     4   8  17  34  49  72 102 135 173 215 249 288
#
# _framework density 18.588854000000001
#
# number of rings (size 3 to 8) (size 9 to 14) (size 15 to 20)
#    0.000    2.250    2.500    3.000    0.000    3.000 
#    0.000    0.625    0.000    0.000    6.500    0.000 
#    0.000    0.000    0.000    0.000    0.000    0.000 
#
# Total GULP energy -396597.544703 kJ/mol
# GULP energy per Si atom -12393.673272 kJ/mol
# Density = 1.854654 g / cm^3
# Si number density = 18.588854 Si / 1000 Ang^3
#
#
#
# Elastic Constant Matrix: (Units=GPa)
#
#
# Indices 1 2 3 4 5 6 
#
# 1 48.1910 26.1947 24.3082 0.0000 -10.2331 0.0000
# 2 26.1947 78.5249 54.1428 0.0000 -5.4328 0.0000
# 3 24.3082 54.1428 126.7356 0.0000 -14.4977 0.0000
# 4 0.0000 0.0000 0.0000 21.7880 0.0000 -1.9245
# 5 -10.2331 -5.4328 -14.4977 0.0000 30.0079 0.0000
# 6 0.0000 0.0000 0.0000 -1.9245 0.0000 13.0938
#
#
#
# Elastic Compliance Matrix: (Units=1/GPa)
#
#
# Indices 1 2 3 4 5 6 
#
# 1 0.027070 -0.007827 -0.001010 0.000000 0.007326 0.000000
# 2 -0.007827 0.020322 -0.007478 0.000000 -0.002603 0.000000
# 3 -0.001010 -0.007478 0.011733 0.000000 0.003970 0.000000
# 4 0.000000 0.000000 0.000000 0.046501 0.000000 0.006835
# 5 0.007326 -0.002603 0.003970 0.000000 0.037270 0.000000
# 6 0.000000 0.000000 0.000000 0.006835 0.000000 0.077376
#
#
# Mechanical properties :
#
#
# Convention : Reuss Voigt Hill
#
# Bulk Modulus (GPa) = 37.74352 51.41588 44.57970
# Shear Modulus (GPa) = 19.10332 22.89833 21.00082
#
# Velocity S-wave (km/s) = 3.20922 3.51355 3.36483
# Velocity P-wave (km/s) = 5.83786 6.64678 6.25541
#
# Compressibility (1/GPa) = 0.02649462
#
# Stress axis : x y z
#
# Youngs Moduli (GPa) = 36.94069 49.20804 85.22815
#
# Poissons Ratio (x) = 0.38514 0.08612
# Poissons Ratio (y) = 0.28912 0.63736
# Poissons Ratio (z) = 0.03733 0.36799
#
# Static dielectric constant tensor:
#      x y z
#    x 3.095490 0.000000 -0.010800 
#    y 0.000000 3.438670 0.000000 
#    z -0.010800 0.000000 3.612120 
# 
# 
# High freq. dielectric constant tensor:
#      x y z
#    x 1.683520 0.000000 -0.004760 
#    y 0.000000 1.702200 0.000000 
#    z -0.004760 0.000000 1.730790 
# 
# From -- ./inp_files/270851.got.cif
#   From: 2010.06.25/outbox.cif.g09.slc.cpg/sg15_136_cif.got.tgz:270851.got - 2010.06.28 07:06:18.
