data_PCOD8130332
_publ_section_title
;
Structure prediction by ZEFSAII (Michael W. Deem and Ramdas Pophale) SiO2 
 PCOD8130332
Probable space group: C 2/C
;
_chemical_formula_sum "Si O2"
_cell_formula_units_Z 56
_cell_length_a 21.123130
_cell_length_b 16.962376
_cell_length_c 8.612167
_cell_angle_alpha 90.000000
_cell_angle_beta 94.647382
_cell_angle_gamma 90.000000
_cell_volume 3075.581085
_symmetry_space_group_name_H-M "C 2/C"
_symmetry_group_IT_number 15
_symmetry_cell_setting 'monoclinic'
loop_
_space_group_symop_operation_xyz
x,y,z
-x,y,1/2-z
-x,-y,-z
x,-y,1/2+z
1/2+x,1/2+y,z
1/2-x,1/2+y,1/2-z
1/2-x,1/2-y,-z
1/2+x,1/2-y,1/2+z
loop_
_atom_site_type_symbol
_atom_site_label
_atom_site_fract_x
_atom_site_fract_y
_atom_site_fract_z
Si Si1 0.654222 0.332027 0.626856
Si Si2 0.223818 0.444665 0.454557
Si Si3 0.788348 0.401465 0.700125
Si Si4 0.834292 0.765384 0.197510
Si Si5 0.633305 0.589520 0.613169
Si Si6 0.287612 0.784031 0.156658
Si Si7 0.925394 0.045866 0.221428
O O1 0.721923 0.373308 0.615537
O O2 0.638212 0.285937 0.465790
O O3 0.655919 0.273533 0.777713
O O4 0.599190 0.394557 0.650370
O O5 0.225874 0.439502 0.637933
O O6 0.188276 0.525889 0.402205
O O7 0.295102 0.438512 0.403596
O O8 0.184788 0.370222 0.376440
O O9 0.839949 0.330128 0.720875
O O10 0.870465 0.817927 0.335861
O O11 0.759698 0.786769 0.203679
O O12 0.591240 0.576588 0.452730
O O13 0.606407 0.538929 0.752170
O O14 0.250000 0.750000 0.000000
O O15 0.000000 0.037992 0.250000
#
# Coordination Sequence:
#
# PCOD8130332 Si02
#       7
#     8   8   8   8   8   8   8
#     4  11  20  35  50  73 111 146 188 226 273 321
#     4  11  20  30  51  75 111 144 181 217 268 330
#     4  11  21  32  49  80 108 146 185 213 270 333
#     4  10  22  33  53  74 108 146 186 221 279 338
#     4  11  21  38  53  73 110 149 183 233 278 316
#     4  10  17  32  49  74 103 148 184 221 266 337
#     4  12  24  38  58  80 106 149 200 234 268 319
#
# _framework density 18.207941999999999
#
# number of rings (size 3 to 8) (size 9 to 14) (size 15 to 20)
#    0.000    1.143    5.714    3.857    6.000    0.000 
#    0.000    0.000    0.000    0.000    0.000    0.000 
#    0.000    5.714    0.000    0.000    0.000    0.000 
#
# Total GULP energy -347026.939348 kJ/mol
# GULP energy per Si atom -12393.819262 kJ/mol
# Density = 1.816650 g / cm^3
# Si number density = 18.207942 Si / 1000 Ang^3
#
#
#
# Elastic Constant Matrix: (Units=GPa)
#
#
# Indices 1 2 3 4 5 6 
#
# 1 37.3759 23.4980 9.9927 0.0000 -3.1421 0.0000
# 2 23.4980 157.2209 47.0580 0.0000 0.3112 0.0000
# 3 9.9927 47.0580 87.1820 0.0000 -7.3331 0.0000
# 4 0.0000 0.0000 0.0000 35.2902 0.0000 -5.5976
# 5 -3.1421 0.3112 -7.3331 0.0000 13.8723 0.0000
# 6 0.0000 0.0000 0.0000 -5.5976 0.0000 11.1902
#
#
#
# Elastic Compliance Matrix: (Units=1/GPa)
#
#
# Indices 1 2 3 4 5 6 
#
# 1 0.030204 -0.004364 -0.000547 0.000000 0.006650 0.000000
# 2 -0.004364 0.008296 -0.004266 0.000000 -0.003430 0.000000
# 3 -0.000547 -0.004266 0.014477 0.000000 0.007625 0.000000
# 4 0.000000 0.000000 0.000000 0.030779 0.000000 0.015396
# 5 0.006650 -0.003430 0.007625 0.000000 0.077700 0.000000
# 6 0.000000 0.000000 0.000000 0.015396 0.000000 0.097066
#
#
# Mechanical properties :
#
#
# Convention : Reuss Voigt Hill
#
# Bulk Modulus (GPa) = 28.88261 49.20845 39.04553
# Shear Modulus (GPa) = 17.33599 25.48589 21.41094
#
# Velocity S-wave (km/s) = 3.08898 3.74533 3.43288
# Velocity P-wave (km/s) = 5.34972 6.76667 6.09948
#
# Compressibility (1/GPa) = 0.03462291
#
# Stress axis : x y z
#
# Youngs Moduli (GPa) = 33.10827 120.53349 69.07398
#
# Poissons Ratio (x) = 0.52596 0.03780
# Poissons Ratio (y) = 0.14447 0.29470
# Poissons Ratio (z) = 0.01812 0.51426
#
# Static dielectric constant tensor:
#      x y z
#    x 2.792080 0.000000 -0.157280 
#    y 0.000000 3.967540 0.000000 
#    z -0.157280 0.000000 3.477600 
# 
# 
# High freq. dielectric constant tensor:
#      x y z
#    x 1.614890 0.000000 -0.018810 
#    y 0.000000 1.724660 0.000000 
#    z -0.018810 0.000000 1.724410 
# 
# From -- ./inp_files/56069.got.cif
#   From: 2010.06.25/outbox.cif.g09.slc.cpg/sg15_29_cif.got.tgz:56069.got - 2010.06.28 07:06:18.
