data_PCOD8130240
_publ_section_title
;
Structure prediction by ZEFSAII (Michael W. Deem and Ramdas Pophale) SiO2 
 PCOD8130240
Probable space group: C 2/C
;
_chemical_formula_sum "Si O2"
_cell_formula_units_Z 52
_cell_length_a 23.114896
_cell_length_b 30.098087
_cell_length_c 5.418983
_cell_angle_alpha 90.000000
_cell_angle_beta 67.163249
_cell_angle_gamma 90.000000
_cell_volume 3474.544491
_symmetry_space_group_name_H-M "C 2/C"
_symmetry_group_IT_number 15
_symmetry_cell_setting 'monoclinic'
loop_
_space_group_symop_operation_xyz
x,y,z
-x,y,1/2-z
-x,-y,-z
x,-y,1/2+z
1/2+x,1/2+y,z
1/2-x,1/2+y,1/2-z
1/2-x,1/2-y,-z
1/2+x,1/2-y,1/2+z
loop_
_atom_site_type_symbol
_atom_site_label
_atom_site_fract_x
_atom_site_fract_y
_atom_site_fract_z
Si Si1 0.941115 0.884887 0.515326
Si Si2 0.824038 0.165236 0.094220
Si Si3 0.106076 0.250808 0.967983
Si Si4 0.276305 0.687076 0.675717
Si Si5 0.070296 0.017842 0.354159
Si Si6 0.500000 0.312359 0.750000
Si Si7 0.643097 0.232418 0.909297
O O1 0.879824 0.870474 0.463329
O O2 0.927123 0.929178 0.695071
O O3 0.955756 0.842808 0.658996
O O4 0.000000 0.896905 0.250000
O O5 0.787478 0.156338 0.413785
O O6 0.850991 0.214931 0.053675
O O7 0.779868 0.158971 0.925280
O O8 0.172023 0.225693 0.901736
O O9 0.111058 0.283668 0.721600
O O10 0.047534 0.218054 0.014416
O O11 0.098463 0.277017 0.243566
O O12 0.209058 0.709189 0.759646
O O13 0.103927 0.004568 0.559051
O O14 0.000000 0.000000 0.500000
#
# Coordination Sequence:
#
# PCOD8130240 Si02
#       7
#     8   8   8   8   8   4   8
#     4  12  22  30  48  56  84 104 124 178 208 260
#     4  10  19  28  39  66  72  94 128 149 214 235
#     4  10  19  28  39  58  76 101 128 147 201 243
#     4  10  17  31  44  56  79  97 129 159 184 260
#     4  10  20  36  45  59  70  99 144 155 198 260
#     4  12  22  30  40  60  90 100 124 172 214 264
#     4  10  17  31  44  55  76 102 131 155 184 258
#
# _framework density 14.965989
#
# number of rings (size 3 to 8) (size 9 to 14) (size 15 to 20)
#    0.000    1.538    4.615    7.385    0.000    0.000 
#    0.000    0.000    0.000    0.000    0.000    0.000 
#    0.000    0.000    0.000    0.000    0.000    0.000 
#
# Total GULP energy -322116.987088 kJ/mol
# GULP energy per Si atom -12389.114888 kJ/mol
# Density = 1.493193 g / cm^3
# Si number density = 14.965989 Si / 1000 Ang^3
#
#
#
# Elastic Constant Matrix: (Units=GPa)
#
#
# Indices 1 2 3 4 5 6 
#
# 1 47.5672 32.8130 34.0996 0.0000 13.1286 0.0000
# 2 32.8130 36.8274 17.7229 0.0000 -4.6709 0.0000
# 3 34.0996 17.7229 110.6328 0.0000 30.9898 0.0000
# 4 0.0000 0.0000 0.0000 7.6518 0.0000 4.6969
# 5 13.1286 -4.6709 30.9898 0.0000 30.5475 0.0000
# 6 0.0000 0.0000 0.0000 4.6969 0.0000 12.6616
#
#
#
# Elastic Compliance Matrix: (Units=1/GPa)
#
#
# Indices 1 2 3 4 5 6 
#
# 1 0.119918 -0.116627 0.001612 0.000000 -0.071006 0.000000
# 2 -0.116627 0.147049 -0.011103 0.000000 0.083873 0.000000
# 3 0.001612 -0.011103 0.015353 0.000000 -0.017966 0.000000
# 4 0.000000 0.000000 0.000000 0.169220 0.000000 -0.062773
# 5 -0.071006 0.083873 -0.017966 0.000000 0.094304 0.000000
# 6 0.000000 0.000000 0.000000 -0.062773 0.000000 0.102265
#
#
# Mechanical properties :
#
#
# Convention : Reuss Voigt Hill
#
# Bulk Modulus (GPa) = 33.24236 40.47757 36.85997
# Shear Modulus (GPa) = 5.49224 17.53165 11.51195
#
# Velocity S-wave (km/s) = 1.91775 3.42633 2.77647
# Velocity P-wave (km/s) = 5.21190 6.53897 5.91278
#
# Compressibility (1/GPa) = 0.03008210
#
# Stress axis : x y z
#
# Youngs Moduli (GPa) = 8.33904 6.80044 65.13174
#
# Poissons Ratio (x) = 0.79312 -0.10496
# Poissons Ratio (y) = 0.97256 0.72318
# Poissons Ratio (z) = -0.01344 0.07551
#
# Static dielectric constant tensor:
#      x y z
#    x 2.881820 0.000000 0.144350 
#    y 0.000000 2.505580 0.000000 
#    z 0.144350 0.000000 1.951770 
# 
# 
# High freq. dielectric constant tensor:
#      x y z
#    x 1.551120 0.000000 0.034470 
#    y 0.000000 1.502410 0.000000 
#    z 0.034470 0.000000 1.592920 
# 
# From -- ./inp_files/11808.got.cif
#   From: 2010.06.25/outbox.cif.g09.slc.cpg/sg15_6_cif.got.tgz:11808.got - 2010.06.28 07:06:18.
