data_PCOD8130403
_publ_section_title
;
Structure prediction by ZEFSAII (Michael W. Deem and Ramdas Pophale) SiO2 
 PCOD8130403
Probable space group: C 2/C
;
_chemical_formula_sum "Si O2"
_cell_formula_units_Z 64
_cell_length_a 29.861890
_cell_length_b 20.778482
_cell_length_c 14.166805
_cell_angle_alpha 90.000000
_cell_angle_beta 158.070567
_cell_angle_gamma 90.000000
_cell_volume 3282.858721
_symmetry_space_group_name_H-M "C 2/C"
_symmetry_group_IT_number 15
_symmetry_cell_setting 'monoclinic'
loop_
_space_group_symop_operation_xyz
x,y,z
-x,y,1/2-z
-x,-y,-z
x,-y,1/2+z
1/2+x,1/2+y,z
1/2-x,1/2+y,1/2-z
1/2-x,1/2-y,-z
1/2+x,1/2-y,1/2+z
loop_
_atom_site_type_symbol
_atom_site_label
_atom_site_fract_x
_atom_site_fract_y
_atom_site_fract_z
Si Si1 0.800827 0.837141 0.013395
Si Si2 0.688931 0.631560 0.178331
Si Si3 0.063640 0.646892 0.148699
Si Si4 0.631386 0.493722 0.002447
Si Si5 0.626339 0.527832 0.783987
Si Si6 0.318549 0.963037 0.508717
Si Si7 0.987252 0.753887 0.119154
Si Si8 0.933979 0.593004 0.715682
O O1 0.874971 0.894609 0.209801
O O2 0.885940 0.776081 0.174249
O O3 0.765260 0.854481 0.837106
O O4 0.680947 0.817974 0.835358
O O5 0.621182 0.562519 0.038937
O O6 0.805521 0.628263 0.472040
O O7 0.605221 0.686580 0.060505
O O8 0.109262 0.600124 0.320948
O O9 0.963870 0.694851 0.000720
O O10 0.005535 0.607165 0.950508
O O11 0.731280 0.449019 0.248069
O O12 0.500000 0.461189 0.750000
O O13 0.666975 0.498839 0.963259
O O14 0.500000 0.500000 0.500000
O O15 0.733520 0.508222 0.924346
O O16 0.416086 0.016510 0.672395
O O17 0.000000 0.726746 0.250000
O O18 0.000000 0.616990 0.750000
#
# Coordination Sequence:
#
# PCOD8130403 Si02
#       8
#     8   8   8   8   8   8   8   8
#     4   9  18  34  59  83 114 146 194 238 289 345
#     4   9  18  34  59  87 109 145 200 245 290 326
#     4  11  22  39  55  87 119 159 193 232 293 362
#     4  10  17  32  57  87 120 150 185 245 293 338
#     4  10  18  31  56  90 118 146 188 244 293 342
#     4  10  23  35  55  87 120 155 196 232 297 364
#     4  10  21  37  60  85 111 149 198 250 285 346
#     4  11  22  39  61  83 117 154 195 248 290 349
#
# _framework density 19.495204000000001
#
# number of rings (size 3 to 8) (size 9 to 14) (size 15 to 20)
#    0.000    2.000    2.500    2.625    3.500    1.000 
#    2.250    0.000    0.000    0.000    0.000    0.000 
#    0.000    0.000    0.000    0.000    0.000    0.000 
#
# Total GULP energy -396529.302389 kJ/mol
# GULP energy per Si atom -12391.540700 kJ/mol
# Density = 1.945083 g / cm^3
# Si number density = 19.495204 Si / 1000 Ang^3
#
#
#
# Elastic Constant Matrix: (Units=GPa)
#
#
# Indices 1 2 3 4 5 6 
#
# 1 84.7839 30.3463 38.0878 0.0000 -11.3309 0.0000
# 2 30.3463 51.4508 31.7704 0.0000 -3.5845 0.0000
# 3 38.0878 31.7704 98.5617 0.0000 -14.0305 0.0000
# 4 0.0000 0.0000 0.0000 23.6517 0.0000 6.2772
# 5 -11.3309 -3.5845 -14.0305 0.0000 32.5244 0.0000
# 6 0.0000 0.0000 0.0000 6.2772 0.0000 30.2217
#
#
#
# Elastic Compliance Matrix: (Units=1/GPa)
#
#
# Indices 1 2 3 4 5 6 
#
# 1 0.016438 -0.007285 -0.003519 0.000000 0.003406 0.000000
# 2 -0.007285 0.027512 -0.006374 0.000000 -0.002256 0.000000
# 3 -0.003519 -0.006374 0.014155 0.000000 0.004178 0.000000
# 4 0.000000 0.000000 0.000000 0.044747 0.000000 -0.009294
# 5 0.003406 -0.002256 0.004178 0.000000 0.033486 0.000000
# 6 0.000000 0.000000 0.000000 -0.009294 0.000000 0.035019
#
#
# Mechanical properties :
#
#
# Convention : Reuss Voigt Hill
#
# Bulk Modulus (GPa) = 42.10798 48.35617 45.23207
# Shear Modulus (GPa) = 23.40486 26.25235 24.82861
#
# Velocity S-wave (km/s) = 3.46865 3.67359 3.57259
# Velocity P-wave (km/s) = 6.13906 6.54612 6.34585
#
# Compressibility (1/GPa) = 0.02374847
#
# Stress axis : x y z
#
# Youngs Moduli (GPa) = 60.83324 36.34817 70.64542
#
# Poissons Ratio (x) = 0.26480 0.24862
# Poissons Ratio (y) = 0.44318 0.45029
# Poissons Ratio (z) = 0.21409 0.23168
#
# Static dielectric constant tensor:
#      x y z
#    x 3.682440 0.000000 -0.042250 
#    y 0.000000 3.260250 0.000000 
#    z -0.042250 0.000000 3.561530 
# 
# 
# High freq. dielectric constant tensor:
#      x y z
#    x 1.770420 0.000000 0.003630 
#    y 0.000000 1.724450 0.000000 
#    z 0.003630 0.000000 1.755300 
# 
# From -- ./inp_files/183149.got.cif
#   From: 2010.06.25/outbox.cif.g09.slc.cpg/sg15_92_cif.got.tgz:183149.got - 2010.06.28 07:06:18.
