data_PCOD8130150
_publ_section_title
;
Structure prediction by ZEFSAII (Michael W. Deem and Ramdas Pophale) SiO2 
 PCOD8130150
Probable space group: C 2/C
;
_chemical_formula_sum "Si O2"
_cell_formula_units_Z 64
_cell_length_a 25.359622
_cell_length_b 8.779932
_cell_length_c 21.493239
_cell_angle_alpha 90.000000
_cell_angle_beta 133.720015
_cell_angle_gamma 90.000000
_cell_volume 3458.671610
_symmetry_space_group_name_H-M "C 2/C"
_symmetry_group_IT_number 15
_symmetry_cell_setting 'monoclinic'
loop_
_space_group_symop_operation_xyz
x,y,z
-x,y,1/2-z
-x,-y,-z
x,-y,1/2+z
1/2+x,1/2+y,z
1/2-x,1/2+y,1/2-z
1/2-x,1/2-y,-z
1/2+x,1/2-y,1/2+z
loop_
_atom_site_type_symbol
_atom_site_label
_atom_site_fract_x
_atom_site_fract_y
_atom_site_fract_z
Si Si1 0.303691 0.716620 0.951060
Si Si2 0.407978 0.149046 0.740015
Si Si3 0.836964 0.330730 0.506977
Si Si4 0.326523 0.439805 0.684384
Si Si5 0.698802 0.543713 0.960045
Si Si6 0.241752 0.670724 0.684426
Si Si7 0.777782 0.521293 0.705620
Si Si8 0.927469 0.397339 0.110327
O O1 0.249014 0.857112 0.897667
O O2 0.293734 0.601206 0.884044
O O3 0.285059 0.620335 0.997205
O O4 0.384705 0.786736 0.026932
O O5 0.387574 0.316256 0.750699
O O6 0.486740 0.113918 0.832198
O O7 0.407388 0.146591 0.664756
O O8 0.347240 0.031448 0.715939
O O9 0.777142 0.389049 0.506907
O O10 0.846384 0.151160 0.529146
O O11 0.815483 0.349739 0.417708
O O12 0.909517 0.426476 0.580622
O O13 0.350986 0.531106 0.642541
O O14 0.311697 0.559773 0.727987
O O15 0.204036 0.613958 0.716805
O O16 0.265604 0.845079 0.710901
#
# Coordination Sequence:
#
# PCOD8130150 Si02
#       8
#     8   8   8   8   8   8   8   8
#     4  11  18  32  58  83 111 144 190 231 282 334
#     4  10  23  37  57  84 122 157 185 231 283 357
#     4  10  20  32  56  84 113 142 191 239 284 335
#     4  10  19  33  59  83 113 146 187 240 281 332
#     4  10  17  29  54  88 107 140 182 243 278 328
#     4  11  22  37  60  87 109 142 198 244 284 333
#     4  11  23  37  60  84 113 149 194 242 288 330
#     4  11  21  37  57  86 122 154 189 222 295 344
#
# _framework density 18.504214000000001
#
# number of rings (size 3 to 8) (size 9 to 14) (size 15 to 20)
#    0.000    1.500    5.000    3.375    3.500    0.000 
#    0.000    1.875    0.000    1.500    0.000    0.000 
#    0.000    0.000    0.000    0.000    0.000    0.000 
#
# Total GULP energy -396579.777820 kJ/mol
# GULP energy per Si atom -12393.118057 kJ/mol
# Density = 1.846210 g / cm^3
# Si number density = 18.504214 Si / 1000 Ang^3
#
#
#
# Elastic Constant Matrix: (Units=GPa)
#
#
# Indices 1 2 3 4 5 6 
#
# 1 58.7809 33.2474 39.6075 0.0000 -0.9458 0.0000
# 2 33.2474 115.9101 36.3929 0.0000 7.7295 0.0000
# 3 39.6075 36.3929 80.8452 0.0000 14.2367 0.0000
# 4 0.0000 0.0000 0.0000 28.4805 0.0000 -7.5871
# 5 -0.9458 7.7295 14.2367 0.0000 29.3193 0.0000
# 6 0.0000 0.0000 0.0000 -7.5871 0.0000 29.1388
#
#
#
# Elastic Compliance Matrix: (Units=1/GPa)
#
#
# Indices 1 2 3 4 5 6 
#
# 1 0.028965 -0.004604 -0.013665 0.000000 0.008783 0.000000
# 2 -0.004604 0.010786 -0.002267 0.000000 -0.001891 0.000000
# 3 -0.013665 -0.002267 0.021932 0.000000 -0.010493 0.000000
# 4 0.000000 0.000000 0.000000 0.037729 0.000000 0.009824
# 5 0.008783 -0.001891 -0.010493 0.000000 0.039984 0.000000
# 6 0.000000 0.000000 0.000000 0.009824 0.000000 0.036876
#
#
# Mechanical properties :
#
#
# Convention : Reuss Voigt Hill
#
# Bulk Modulus (GPa) = 48.51449 52.67019 50.59234
# Shear Modulus (GPa) = 22.30011 27.14028 24.72020
#
# Velocity S-wave (km/s) = 3.47527 3.83392 3.65899
# Velocity P-wave (km/s) = 6.50987 6.93716 6.72691
#
# Compressibility (1/GPa) = 0.02061240
#
# Stress axis : x y z
#
# Youngs Moduli (GPa) = 34.52420 92.71541 45.59489
#
# Poissons Ratio (x) = 0.42682 0.62305
# Poissons Ratio (y) = 0.15893 0.10336
# Poissons Ratio (z) = 0.47177 0.21017
#
# Static dielectric constant tensor:
#      x y z
#    x 3.142860 0.000000 -0.192690 
#    y 0.000000 3.813790 0.000000 
#    z -0.192690 0.000000 3.338890 
# 
# 
# High freq. dielectric constant tensor:
#      x y z
#    x 1.675980 0.000000 -0.026150 
#    y 0.000000 1.739810 0.000000 
#    z -0.026150 0.000000 1.700850 
# 
# From -- ./inp_files/255061.got.cif
#   From: 2010.06.25/outbox.cif.g09.slc.cpg/sg15_128_cif.got.tgz:255061.got - 2010.06.28 07:06:18.
