data_PCOD8130147
_publ_section_title
;
Structure prediction by ZEFSAII (Michael W. Deem and Ramdas Pophale) SiO2 
 PCOD8130147
Probable space group: C 2/C
;
_chemical_formula_sum "Si O2"
_cell_formula_units_Z 52
_cell_length_a 8.908397
_cell_length_b 20.527532
_cell_length_c 14.248341
_cell_angle_alpha 90.000000
_cell_angle_beta 107.955769
_cell_angle_gamma 90.000000
_cell_volume 2478.652921
_symmetry_space_group_name_H-M "C 2/C"
_symmetry_group_IT_number 15
_symmetry_cell_setting 'monoclinic'
loop_
_space_group_symop_operation_xyz
x,y,z
-x,y,1/2-z
-x,-y,-z
x,-y,1/2+z
1/2+x,1/2+y,z
1/2-x,1/2+y,1/2-z
1/2-x,1/2-y,-z
1/2+x,1/2-y,1/2+z
loop_
_atom_site_type_symbol
_atom_site_label
_atom_site_fract_x
_atom_site_fract_y
_atom_site_fract_z
Si Si1 0.000000 0.683071 0.750000
Si Si2 0.215532 0.501785 0.966675
Si Si3 0.820389 0.730901 0.884476
Si Si4 0.786088 0.907472 0.323061
Si Si5 0.000000 0.822455 0.250000
Si Si6 0.644376 0.992887 0.658594
Si Si7 0.292462 0.147432 0.050055
Si Si8 0.500000 0.890994 0.750000
O O1 0.057486 0.729475 0.677108
O O2 0.141895 0.640313 0.819057
O O3 0.324155 0.546574 0.920225
O O4 0.270355 0.426343 0.970941
O O5 0.037547 0.511103 0.895493
O O6 0.228606 0.526308 0.076737
O O7 0.641956 0.722317 0.813172
O O8 0.839810 0.800713 0.940534
O O9 0.860688 0.671634 0.963410
O O10 0.942885 0.867438 0.326503
O O11 0.737412 0.947004 0.220423
O O12 0.643799 0.934460 0.734357
O O13 0.432892 0.152167 0.153051
#
# Coordination Sequence:
#
# PCOD8130147 Si02
#       8
#     4   8   8   8   4   8   8   4
#     4  10  19  34  60  80 112 143 204 242 272 326
#     4  10  18  29  57  88 110 139 186 245 291 337
#     4  10  22  39  59  85 112 163 196 235 278 344
#     4  11  18  35  53  86 112 145 184 245 288 349
#     4  10  23  36  58  80 126 155 190 226 300 352
#     4  10  17  29  53  90 110 136 188 238 293 329
#     4  10  20  36  60  83 119 149 198 234 289 336
#     4  10  18  32  60  88 120 146 190 248 280 344
#
# _framework density 20.979139
#
# number of rings (size 3 to 8) (size 9 to 14) (size 15 to 20)
#    0.000    1.846    4.615    2.308    4.308    0.000 
#    0.000    3.846    6.769    8.308    0.000    0.000 
#    0.000    0.000    0.000    0.000    0.000    0.000 
#
# Total GULP energy -322307.139796 kJ/mol
# GULP energy per Si atom -12396.428454 kJ/mol
# Density = 2.093139 g / cm^3
# Si number density = 20.979139 Si / 1000 Ang^3
#
#
#
# Elastic Constant Matrix: (Units=GPa)
#
#
# Indices 1 2 3 4 5 6 
#
# 1 74.4279 29.8001 27.0838 0.0000 -31.1622 0.0000
# 2 29.8001 85.4224 22.9349 0.0000 -29.9934 0.0000
# 3 27.0838 22.9349 112.6236 0.0000 -33.6463 0.0000
# 4 0.0000 0.0000 0.0000 22.9137 0.0000 -5.7216
# 5 -31.1622 -29.9934 -33.6463 0.0000 39.6932 0.0000
# 6 0.0000 0.0000 0.0000 -5.7216 0.0000 12.9248
#
#
#
# Elastic Compliance Matrix: (Units=1/GPa)
#
#
# Indices 1 2 3 4 5 6 
#
# 1 0.020272 -0.002029 -0.000221 0.000000 0.014194 0.000000
# 2 -0.002029 0.016156 0.000494 0.000000 0.011034 0.000000
# 3 -0.000221 0.000494 0.011907 0.000000 0.010293 0.000000
# 4 0.000000 0.000000 0.000000 0.049066 0.000000 0.021721
# 5 0.014194 0.011034 0.010293 0.000000 0.053400 0.000000
# 6 0.000000 0.000000 0.000000 0.021721 0.000000 0.086986
#
#
# Mechanical properties :
#
#
# Convention : Reuss Voigt Hill
#
# Bulk Modulus (GPa) = 22.30992 48.01239 35.16115
# Shear Modulus (GPa) = 19.51318 27.95002 23.73160
#
# Velocity S-wave (km/s) = 3.05310 3.65400 3.36698
# Velocity P-wave (km/s) = 4.80479 6.38261 5.64906
#
# Compressibility (1/GPa) = 0.04482312
#
# Stress axis : x y z
#
# Youngs Moduli (GPa) = 49.33006 61.89719 83.98713
#
# Poissons Ratio (x) = 0.12556 0.01858
# Poissons Ratio (y) = 0.10007 -0.04152
# Poissons Ratio (z) = 0.01091 -0.03060
#
# Static dielectric constant tensor:
#      x y z
#    x 3.388170 0.000000 -0.283920 
#    y 0.000000 3.766040 0.000000 
#    z -0.283920 0.000000 3.971640 
# 
# 
# High freq. dielectric constant tensor:
#      x y z
#    x 1.775310 0.000000 -0.020890 
#    y 0.000000 1.816230 0.000000 
#    z -0.020890 0.000000 1.837660 
# 
# From -- ./inp_files/136941.got.cif
#   From: 2010.06.25/outbox.cif.g09.slc.cpg/sg15_69_cif.got.tgz:136941.got - 2010.06.28 07:06:18.
