data_PCOD8130945
_publ_section_title
;
Structure prediction by ZEFSAII (Michael W. Deem and Ramdas Pophale) SiO2 
 PCOD8130945
Probable space group: C 2/C
;
_chemical_formula_sum "Si O2"
_cell_formula_units_Z 52
_cell_length_a 30.788779
_cell_length_b 8.788749
_cell_length_c 14.630663
_cell_angle_alpha 90.000000
_cell_angle_beta 39.208635
_cell_angle_gamma 90.000000
_cell_volume 2502.655023
_symmetry_space_group_name_H-M "C 2/C"
_symmetry_group_IT_number 15
_symmetry_cell_setting 'monoclinic'
loop_
_space_group_symop_operation_xyz
x,y,z
-x,y,1/2-z
-x,-y,-z
x,-y,1/2+z
1/2+x,1/2+y,z
1/2-x,1/2+y,1/2-z
1/2-x,1/2-y,-z
1/2+x,1/2-y,1/2+z
loop_
_atom_site_type_symbol
_atom_site_label
_atom_site_fract_x
_atom_site_fract_y
_atom_site_fract_z
Si Si1 0.113398 0.318204 0.513059
Si Si2 0.913523 0.325907 0.137451
Si Si3 0.819575 0.809458 0.429564
Si Si4 0.000000 0.086562 0.750000
Si Si5 0.930481 0.664307 0.123538
Si Si6 0.612359 0.607616 0.156132
Si Si7 0.926862 0.657793 0.913364
O O1 0.137052 0.320268 0.368422
O O2 0.174352 0.272714 0.482129
O O3 0.054094 0.192598 0.611134
O O4 0.088499 0.483859 0.585099
O O5 0.909145 0.493730 0.188982
O O6 0.891269 0.198123 0.243609
O O7 0.991510 0.303287 0.974273
O O8 0.750000 0.750000 0.500000
O O9 0.882709 0.776724 0.258453
O O10 0.822863 0.991555 0.441669
O O11 0.040946 0.983053 0.756379
O O12 0.923477 0.690429 0.026498
O O13 0.626122 0.726465 0.050440
O O14 0.000000 0.698571 0.750000
#
# Coordination Sequence:
#
# PCOD8130945 Si02
#       7
#     8   8   8   4   8   8   8
#     4  10  21  35  59  83 123 160 201 250 313 369
#     4  10  19  35  61 100 115 153 195 264 325 366
#     4  11  26  44  56  80 126 177 211 248 292 365
#     4  10  18  30  52  90 122 164 180 252 320 354
#     4  10  21  36  64  89 129 155 193 252 321 375
#     4  11  21  35  62  92 130 154 203 257 302 377
#     4  11  19  37  62  97 125 146 195 258 322 381
#
# _framework density 20.777933000000001
#
# number of rings (size 3 to 8) (size 9 to 14) (size 15 to 20)
#    0.000    1.538    3.077    2.769    2.154    4.923 
#    0.000    9.231    0.000    0.000    0.000    0.000 
#    0.000    0.000    0.000    0.000    0.000    0.000 
#
# Total GULP energy -322289.216752 kJ/mol
# GULP energy per Si atom -12395.739106 kJ/mol
# Density = 2.073064 g / cm^3
# Si number density = 20.777933 Si / 1000 Ang^3
#
#
#
# Elastic Constant Matrix: (Units=GPa)
#
#
# Indices 1 2 3 4 5 6 
#
# 1 151.2153 63.0244 29.8518 0.0008 16.2141 -0.0003
# 2 63.0244 137.1944 24.2766 -0.0027 11.7918 0.0008
# 3 29.8518 24.2766 27.5334 -0.0026 12.8891 0.0009
# 4 0.0008 -0.0027 -0.0026 16.9763 0.0006 12.5839
# 5 16.2141 11.7918 12.8891 0.0006 24.2659 -0.0001
# 6 -0.0003 0.0008 0.0009 12.5839 -0.0001 36.2406
#
#
#
# Elastic Compliance Matrix: (Units=1/GPa)
#
#
# Indices 1 2 3 4 5 6 
#
# 1 0.009348 -0.002959 -0.007021 -0.000003 -0.001079 0.000001
# 2 -0.002959 0.009574 -0.005298 0.000001 0.000139 -0.000001
# 3 -0.007021 -0.005298 0.060161 0.000014 -0.024689 -0.000006
# 4 -0.000003 0.000001 0.000014 0.079323 -0.000008 -0.027544
# 5 -0.001079 0.000139 -0.024689 -0.000008 0.054977 0.000004
# 6 0.000001 -0.000001 -0.000006 -0.027544 0.000004 0.037157
#
#
# Mechanical properties :
#
#
# Convention : Reuss Voigt Hill
#
# Bulk Modulus (GPa) = 20.60753 61.13875 40.87314
# Shear Modulus (GPa) = 16.81960 28.74925 22.78442
#
# Velocity S-wave (km/s) = 2.84825 3.72377 3.31504
# Velocity P-wave (km/s) = 4.55590 6.92657 5.86232
#
# Compressibility (1/GPa) = 0.04852596
#
# Stress axis : x y z
#
# Youngs Moduli (GPa) = 106.97242 104.45067 16.62215
#
# Poissons Ratio (x) = 0.30910 0.11670
# Poissons Ratio (y) = 0.31656 0.08807
# Poissons Ratio (z) = 0.75106 0.55339
#
# Static dielectric constant tensor:
#      x y z
#    x 3.990920 0.000000 0.215210 
#    y 0.000000 4.180870 0.000000 
#    z 0.215210 0.000000 3.157610 
# 
# 
# High freq. dielectric constant tensor:
#      x y z
#    x 1.822500 0.000000 0.034040 
#    y 0.000000 1.836530 0.000000 
#    z 0.034040 0.000000 1.753510 
# 
# From -- ./inp_files/181067.got.cif
#   From: 2010.06.25/outbox.cif.g09.slc.cpg/sg15_91_cif.got.tgz:181067.got - 2010.06.28 07:06:18.
