data_PCOD8130040
_publ_section_title
;
Structure prediction by ZEFSAII (Michael W. Deem and Ramdas Pophale) SiO2 
 PCOD8130040
Probable space group: C 2/C
;
_chemical_formula_sum "Si O2"
_cell_formula_units_Z 64
_cell_length_a 35.410364
_cell_length_b 15.841555
_cell_length_c 8.130428
_cell_angle_alpha 90.000000
_cell_angle_beta 78.847203
_cell_angle_gamma 90.000000
_cell_volume 4474.674556
_symmetry_space_group_name_H-M "C 2/C"
_symmetry_group_IT_number 15
_symmetry_cell_setting 'monoclinic'
loop_
_space_group_symop_operation_xyz
x,y,z
-x,y,1/2-z
-x,-y,-z
x,-y,1/2+z
1/2+x,1/2+y,z
1/2-x,1/2+y,1/2-z
1/2-x,1/2-y,-z
1/2+x,1/2-y,1/2+z
loop_
_atom_site_type_symbol
_atom_site_label
_atom_site_fract_x
_atom_site_fract_y
_atom_site_fract_z
Si Si1 0.122565 0.876267 0.201505
Si Si2 0.192679 0.907571 0.720875
Si Si3 0.806688 0.784295 0.492606
Si Si4 0.463250 0.445059 0.874586
Si Si5 0.235068 0.377510 0.429466
Si Si6 0.261160 0.528468 0.609171
Si Si7 0.378264 0.556602 0.430098
Si Si8 0.038411 0.878160 0.261185
O O1 0.130092 0.909580 0.379585
O O2 0.080038 0.833062 0.216822
O O3 0.152524 0.804098 0.125919
O O4 0.126916 0.954594 0.071059
O O5 0.197612 0.822607 0.821033
O O6 0.224208 0.911089 0.548756
O O7 0.150273 0.904251 0.680031
O O8 0.201029 0.990408 0.828195
O O9 0.801666 0.683066 0.510514
O O10 0.774039 0.822654 0.402633
O O11 0.500000 0.403947 0.750000
O O12 0.464043 0.546524 0.869738
O O13 0.421528 0.416528 0.837092
O O14 0.465659 0.420651 0.059893
O O15 0.235322 0.450961 0.565347
O O16 0.233417 0.417904 0.249777
O O17 0.000000 0.820820 0.250000
#
# Coordination Sequence:
#
# PCOD8130040 Si02
#       8
#     8   8   8   8   8   8   8   8
#     4  10  18  26  37  53  76 103 132 165 196 224
#     4  10  17  25  40  58  75  98 129 161 190 224
#     4  10  19  28  40  60  81  99 123 161 197 221
#     4   9  16  23  32  47  67  93 130 170 192 209
#     4   9  18  31  44  58  77 100 127 157 191 227
#     4   9  17  30  44  56  73  99 129 155 186 231
#     4  10  17  25  37  52  73 104 136 163 193 223
#     4   9  16  24  34  48  67  96 130 161 192 222
#
# _framework density 14.302716
#
# number of rings (size 3 to 8) (size 9 to 14) (size 15 to 20)
#    0.000    2.500    0.000    6.000    0.000    3.500 
#    0.000    2.500    0.000    0.000    0.000    0.000 
#    0.000    0.000    0.000    1.125    0.000    0.500 
#
# Total GULP energy -396482.923012 kJ/mol
# GULP energy per Si atom -12390.091344 kJ/mol
# Density = 1.427016 g / cm^3
# Si number density = 14.302716 Si / 1000 Ang^3
#
#
#
# Elastic Constant Matrix: (Units=GPa)
#
#
# Indices 1 2 3 4 5 6 
#
# 1 92.7129 38.3660 41.2594 0.0000 -10.4624 0.0000
# 2 38.3660 53.1941 36.0623 0.0000 -7.9229 0.0000
# 3 41.2594 36.0623 76.1182 0.0000 -7.3929 0.0000
# 4 0.0000 0.0000 0.0000 14.2404 0.0000 -3.2776
# 5 -10.4624 -7.9229 -7.3929 0.0000 21.6292 0.0000
# 6 0.0000 0.0000 0.0000 -3.2776 0.0000 11.4686
#
#
#
# Elastic Compliance Matrix: (Units=1/GPa)
#
#
# Indices 1 2 3 4 5 6 
#
# 1 0.016752 -0.008313 -0.004810 0.000000 0.003414 0.000000
# 2 -0.008313 0.032554 -0.010498 0.000000 0.004316 0.000000
# 3 -0.004810 -0.010498 0.020810 0.000000 0.000940 0.000000
# 4 0.000000 0.000000 0.000000 0.075167 0.000000 0.021482
# 5 0.003414 0.004316 0.000940 0.000000 0.049788 0.000000
# 6 0.000000 0.000000 0.000000 0.021482 0.000000 0.093334
#
#
# Mechanical properties :
#
#
# Convention : Reuss Voigt Hill
#
# Bulk Modulus (GPa) = 43.71830 50.37784 47.04807
# Shear Modulus (GPa) = 14.56570 16.55679 15.56125
#
# Velocity S-wave (km/s) = 3.19468 3.40604 3.30205
# Velocity P-wave (km/s) = 6.65137 7.12511 6.89231
#
# Compressibility (1/GPa) = 0.02287372
#
# Stress axis : x y z
#
# Youngs Moduli (GPa) = 59.69489 30.71774 48.05369
#
# Poissons Ratio (x) = 0.25534 0.23116
# Poissons Ratio (y) = 0.49621 0.50449
# Poissons Ratio (z) = 0.28716 0.32249
#
# Static dielectric constant tensor:
#      x y z
#    x 3.079790 0.000000 0.007520 
#    y 0.000000 2.374010 0.000000 
#    z 0.007520 0.000000 2.921710 
# 
# 
# High freq. dielectric constant tensor:
#      x y z
#    x 1.549830 0.000000 0.008110 
#    y 0.000000 1.470360 0.000000 
#    z 0.008110 0.000000 1.561440 
# 
# From -- ./inp_files/70305.got.cif
#   From: 2010.06.25/outbox.cif.g09.slc.cpg/sg15_36_cif.got.tgz:70305.got - 2010.06.28 07:06:18.
