data_PCOD8130535
_publ_section_title
;
Structure prediction by ZEFSAII (Michael W. Deem and Ramdas Pophale) SiO2 
 PCOD8130535
Probable space group: C 2/C
;
_chemical_formula_sum "Si O2"
_cell_formula_units_Z 44
_cell_length_a 12.418909
_cell_length_b 13.025696
_cell_length_c 19.805372
_cell_angle_alpha 90.000000
_cell_angle_beta 135.928639
_cell_angle_gamma 90.000000
_cell_volume 2228.425341
_symmetry_space_group_name_H-M "C 2/C"
_symmetry_group_IT_number 15
_symmetry_cell_setting 'monoclinic'
loop_
_space_group_symop_operation_xyz
x,y,z
-x,y,1/2-z
-x,-y,-z
x,-y,1/2+z
1/2+x,1/2+y,z
1/2-x,1/2+y,1/2-z
1/2-x,1/2-y,-z
1/2+x,1/2-y,1/2+z
loop_
_atom_site_type_symbol
_atom_site_label
_atom_site_fract_x
_atom_site_fract_y
_atom_site_fract_z
Si Si1 0.838589 0.144745 0.552733
Si Si2 0.262235 0.932403 0.029241
Si Si3 0.939534 0.326170 0.298437
Si Si4 0.356620 0.573524 0.875248
Si Si5 0.049393 0.101334 0.164671
Si Si6 0.000000 0.944085 0.250000
O O1 0.750000 0.250000 0.500000
O O2 0.994373 0.141749 0.577689
O O3 0.886786 0.127710 0.653377
O O4 0.721288 0.054474 0.476049
O O5 0.426898 0.876136 0.094492
O O6 0.188730 0.908571 0.068671
O O7 0.138912 0.887845 0.919705
O O8 0.788923 0.396219 0.237086
O O9 0.882452 0.214230 0.297232
O O10 0.000000 0.316977 0.250000
O O11 0.393179 0.452468 0.878989
O O12 0.098035 0.020756 0.245375
#
# Coordination Sequence:
#
# PCOD8130535 Si02
#       6
#     8   8   8   8   8   4
#     4  10  20  38  59  79 116 150 184 227 286 332
#     4   9  19  36  55  79 107 142 189 227 271 337
#     4  10  19  33  56  81 107 141 185 225 275 323
#     4   9  20  36  51  84 109 139 186 229 272 334
#     4  10  17  34  57  72 112 142 179 229 282 324
#     4   8  18  36  54  80 108 148 186 224 282 326
#
# _framework density 19.744885
#
# number of rings (size 3 to 8) (size 9 to 14) (size 15 to 20)
#    0.000    2.909    0.909    2.727    0.000    1.455 
#   18.000    0.000    0.000    9.818    0.000    0.000 
#    0.000    0.000    0.000    0.000    0.000    0.000 
#
# Total GULP energy -272585.895055 kJ/mol
# GULP energy per Si atom -12390.267957 kJ/mol
# Density = 1.969994 g / cm^3
# Si number density = 19.744885 Si / 1000 Ang^3
#
#
#
# Elastic Constant Matrix: (Units=GPa)
#
#
# Indices 1 2 3 4 5 6 
#
# 1 48.5653 28.9742 23.3612 0.0000 9.8980 0.0000
# 2 28.9742 126.0478 57.8400 0.0000 20.9146 0.0000
# 3 23.3612 57.8400 99.7685 0.0000 10.6725 0.0000
# 4 0.0000 0.0000 0.0000 34.3438 0.0000 2.0448
# 5 9.8980 20.9146 10.6725 0.0000 26.2568 0.0000
# 6 0.0000 0.0000 0.0000 2.0448 0.0000 16.6574
#
#
#
# Elastic Compliance Matrix: (Units=1/GPa)
#
#
# Indices 1 2 3 4 5 6 
#
# 1 0.025349 -0.003352 -0.003404 0.000000 -0.005502 0.000000
# 2 -0.003352 0.012365 -0.005714 0.000000 -0.006263 0.000000
# 3 -0.003404 -0.005714 0.014123 0.000000 0.000094 0.000000
# 4 0.000000 0.000000 0.000000 0.029332 0.000000 -0.003601
# 5 -0.005502 -0.006263 0.000094 0.000000 0.045110 0.000000
# 6 0.000000 0.000000 0.000000 -0.003601 0.000000 0.060475
#
#
# Mechanical properties :
#
#
# Convention : Reuss Voigt Hill
#
# Bulk Modulus (GPa) = 37.17726 54.97027 46.07376
# Shear Modulus (GPa) = 22.65933 26.39868 24.52901
#
# Velocity S-wave (km/s) = 3.39131 3.66045 3.52845
# Velocity P-wave (km/s) = 5.84844 6.76505 6.32338
#
# Compressibility (1/GPa) = 0.02689816
#
# Stress axis : x y z
#
# Youngs Moduli (GPa) = 39.44857 80.87242 70.80843
#
# Poissons Ratio (x) = 0.27110 0.24101
# Poissons Ratio (y) = 0.13224 0.40458
# Poissons Ratio (z) = 0.13427 0.46208
#
# Static dielectric constant tensor:
#      x y z
#    x 3.371380 0.000000 0.031730 
#    y 0.000000 3.530270 0.000000 
#    z 0.031730 0.000000 3.922540 
# 
# 
# High freq. dielectric constant tensor:
#      x y z
#    x 1.740020 0.000000 -0.005390 
#    y 0.000000 1.762800 0.000000 
#    z -0.005390 0.000000 1.777460 
# 
# From -- ./inp_files/243842.got.cif
#   From: 2010.06.25/outbox.cif.g09.slc.cpg/sg15_122_cif.got.tgz:243842.got - 2010.06.28 07:06:18.
