data_PCOD8130610
_publ_section_title
;
Structure prediction by ZEFSAII (Michael W. Deem and Ramdas Pophale) SiO2 
 PCOD8130610
Probable space group: C 2/C
;
_chemical_formula_sum "Si O2"
_cell_formula_units_Z 36
_cell_length_a 10.297139
_cell_length_b 16.680774
_cell_length_c 10.492008
_cell_angle_alpha 90.000000
_cell_angle_beta 121.252329
_cell_angle_gamma 90.000000
_cell_volume 1540.643022
_symmetry_space_group_name_H-M "C 2/C"
_symmetry_group_IT_number 15
_symmetry_cell_setting 'monoclinic'
loop_
_space_group_symop_operation_xyz
x,y,z
-x,y,1/2-z
-x,-y,-z
x,-y,1/2+z
1/2+x,1/2+y,z
1/2-x,1/2+y,1/2-z
1/2-x,1/2-y,-z
1/2+x,1/2-y,1/2+z
loop_
_atom_site_type_symbol
_atom_site_label
_atom_site_fract_x
_atom_site_fract_y
_atom_site_fract_z
Si Si1 0.682447 0.279962 0.119451
Si Si2 0.668649 0.466545 0.086970
Si Si3 0.730389 0.061100 0.593738
Si Si4 0.500000 0.318624 0.250000
Si Si5 0.520684 0.831865 0.125307
O O1 0.666913 0.371335 0.064224
O O2 0.550326 0.263448 0.157376
O O3 0.845242 0.266937 0.271984
O O4 0.637934 0.215366 0.986123
O O5 0.735064 0.488818 0.259710
O O6 0.500000 0.500000 0.000000
O O7 0.776592 0.503021 0.031145
O O8 0.569846 0.107332 0.537820
O O9 0.860575 0.126079 0.634896
O O10 0.500000 0.879402 0.250000
#
# Coordination Sequence:
#
# PCOD8130610 Si02
#       5
#     8   8   8   4   8
#     4  10  21  36  65  87 126 160 216 254 321 369
#     4  10  17  35  59  93 119 159 212 260 304 378
#     4  10  19  34  61  87 127 155 208 266 318 357
#     4   8  16  34  54  92 118 156 194 280 300 362
#     4  10  22  40  59  89 127 169 205 263 315 376
#
# _framework density 23.366866000000002
#
# number of rings (size 3 to 8) (size 9 to 14) (size 15 to 20)
#    0.000    2.667    4.444    0.667    0.000    5.333 
#    0.000    4.444    0.000    5.333    0.000    0.000 
#    0.000    0.000    0.000    0.000    0.000    0.000 
#
# Total GULP energy -223006.994059 kJ/mol
# GULP energy per Si atom -12389.277448 kJ/mol
# Density = 2.331368 g / cm^3
# Si number density = 23.366866 Si / 1000 Ang^3
#
#
#
# Elastic Constant Matrix: (Units=GPa)
#
#
# Indices 1 2 3 4 5 6 
#
# 1 105.2606 22.5426 24.5461 0.0000 -5.2836 0.0000
# 2 22.5426 59.0159 32.7596 0.0000 1.2524 0.0000
# 3 24.5461 32.7596 96.2116 0.0000 -9.4977 0.0000
# 4 0.0000 0.0000 0.0000 5.9193 0.0000 -5.8974
# 5 -5.2836 1.2524 -9.4977 0.0000 46.0784 0.0000
# 6 0.0000 0.0000 0.0000 -5.8974 0.0000 42.2485
#
#
#
# Elastic Compliance Matrix: (Units=1/GPa)
#
#
# Indices 1 2 3 4 5 6 
#
# 1 0.010593 -0.003233 -0.001504 0.000000 0.000993 0.000000
# 2 -0.003233 0.022077 -0.006929 0.000000 -0.002399 0.000000
# 3 -0.001504 -0.006929 0.013411 0.000000 0.002780 0.000000
# 4 0.000000 0.000000 0.000000 0.196227 0.000000 0.027391
# 5 0.000993 -0.002399 0.002780 0.000000 0.022454 0.000000
# 6 0.000000 0.000000 0.000000 0.027391 0.000000 0.027493
#
#
# Mechanical properties :
#
#
# Convention : Reuss Voigt Hill
#
# Bulk Modulus (GPa) = 43.95650 46.68721 45.32185
# Shear Modulus (GPa) = 15.47179 30.89190 23.18185
#
# Velocity S-wave (km/s) = 2.57597 3.63993 3.15315
# Velocity P-wave (km/s) = 5.26306 6.13913 5.71790
#
# Compressibility (1/GPa) = 0.02274977
#
# Stress axis : x y z
#
# Youngs Moduli (GPa) = 94.40171 45.29695 74.56440
#
# Poissons Ratio (x) = 0.14642 0.11214
# Poissons Ratio (y) = 0.30515 0.51666
# Poissons Ratio (z) = 0.14197 0.31387
#
# Static dielectric constant tensor:
#      x y z
#    x 5.127940 0.000000 -0.306890 
#    y 0.000000 3.696130 0.000000 
#    z -0.306890 0.000000 4.235990 
# 
# 
# High freq. dielectric constant tensor:
#      x y z
#    x 1.970540 0.000000 -0.015970 
#    y 0.000000 1.876760 0.000000 
#    z -0.015970 0.000000 1.906300 
# 
# From -- ./inp_files/86947.got.cif
#   From: 2010.06.25/outbox.cif.g09.slc.cpg/sg15_44_cif.got.tgz:86947.got - 2010.06.28 07:06:18.
