data_PCOD8130677
_publ_section_title
;
Structure prediction by ZEFSAII (Michael W. Deem and Ramdas Pophale) SiO2 
 PCOD8130677
Probable space group: C 2/C
;
_chemical_formula_sum "Si O2"
_cell_formula_units_Z 60
_cell_length_a 24.059516
_cell_length_b 17.611643
_cell_length_c 11.822372
_cell_angle_alpha 90.000000
_cell_angle_beta 37.471991
_cell_angle_gamma 90.000000
_cell_volume 3047.626124
_symmetry_space_group_name_H-M "C 2/C"
_symmetry_group_IT_number 15
_symmetry_cell_setting 'monoclinic'
loop_
_space_group_symop_operation_xyz
x,y,z
-x,y,1/2-z
-x,-y,-z
x,-y,1/2+z
1/2+x,1/2+y,z
1/2-x,1/2+y,1/2-z
1/2-x,1/2-y,-z
1/2+x,1/2-y,1/2+z
loop_
_atom_site_type_symbol
_atom_site_label
_atom_site_fract_x
_atom_site_fract_y
_atom_site_fract_z
Si Si1 0.870480 0.359344 0.141882
Si Si2 0.847418 0.782230 0.812859
Si Si3 0.780884 0.914712 0.776421
Si Si4 0.158694 0.881950 0.475859
Si Si5 0.199574 0.952309 0.998624
Si Si6 0.590232 0.548998 0.874253
Si Si7 0.863958 0.479375 0.339374
Si Si8 0.000000 0.580079 0.250000
O O1 0.903436 0.285598 0.162056
O O2 0.763155 0.356036 0.279022
O O3 0.891860 0.431993 0.184168
O O4 0.930370 0.366099 0.931440
O O5 0.840227 0.847868 0.731871
O O6 0.750000 0.750000 0.000000
O O7 0.887561 0.819859 0.863781
O O8 0.779020 0.901035 0.644897
O O9 0.828535 0.994582 0.718988
O O10 0.680120 0.921879 0.995161
O O11 0.091400 0.888142 0.473908
O O12 0.163781 0.962268 0.531868
O O13 0.292686 0.955969 0.918221
O O14 0.120657 0.913690 0.204926
O O15 0.500000 0.500000 0.000000
O O16 0.950492 0.523252 0.244975
#
# Coordination Sequence:
#
# PCOD8130677 Si02
#       8
#     8   8   8   8   8   8   8   4
#     4  10  20  34  57  84 111 157 193 228 297 350
#     4  10  17  36  61  79 107 152 204 221 275 355
#     4  10  18  33  57  82 105 149 195 238 275 343
#     4   9  17  33  57  79 104 150 198 233 271 352
#     4   9  17  32  53  83 108 138 192 240 288 334
#     4  10  19  31  52  82 116 140 183 243 302 332
#     4  10  18  35  56  83 112 147 190 241 290 336
#     4  12  22  32  56  90 126 142 182 254 292 350
#
# _framework density 19.687455
#
# number of rings (size 3 to 8) (size 9 to 14) (size 15 to 20)
#    0.000    2.133    5.333    3.600    0.000    2.133 
#    0.000    1.333    2.933    8.800    0.000    0.000 
#    0.000    0.000    0.000    0.000    0.000    0.000 
#
# Total GULP energy -371646.133849 kJ/mol
# GULP energy per Si atom -12388.204462 kJ/mol
# Density = 1.964265 g / cm^3
# Si number density = 19.687455 Si / 1000 Ang^3
#
#
#
# Elastic Constant Matrix: (Units=GPa)
#
#
# Indices 1 2 3 4 5 6 
#
# 1 96.5685 15.6776 53.0225 0.0000 22.6299 0.0000
# 2 15.6776 50.3928 27.8692 0.0000 12.7841 0.0000
# 3 53.0225 27.8692 99.2464 0.0000 24.5302 0.0000
# 4 0.0000 0.0000 0.0000 23.9425 0.0000 8.0136
# 5 22.6299 12.7841 24.5302 0.0000 27.5831 0.0000
# 6 0.0000 0.0000 0.0000 8.0136 0.0000 26.9288
#
#
#
# Elastic Compliance Matrix: (Units=1/GPa)
#
#
# Indices 1 2 3 4 5 6 
#
# 1 0.015639 0.000695 -0.006792 0.000000 -0.007112 0.000000
# 2 0.000695 0.024450 -0.005506 0.000000 -0.007006 0.000000
# 3 -0.006792 -0.005506 0.016974 0.000000 -0.006971 0.000000
# 4 0.000000 0.000000 0.000000 0.046387 0.000000 -0.013804
# 5 -0.007112 -0.007006 -0.006971 0.000000 0.051535 0.000000
# 6 0.000000 0.000000 0.000000 -0.013804 0.000000 0.041243
#
#
# Mechanical properties :
#
#
# Convention : Reuss Voigt Hill
#
# Bulk Modulus (GPa) = 29.53588 48.81626 39.17607
# Shear Modulus (GPa) = 21.67147 25.66678 23.66912
#
# Velocity S-wave (km/s) = 3.32139 3.61461 3.47110
# Velocity P-wave (km/s) = 5.45379 6.50154 6.00058
#
# Compressibility (1/GPa) = 0.03385712
#
# Stress axis : x y z
#
# Youngs Moduli (GPa) = 63.94469 40.89984 58.91471
#
# Poissons Ratio (x) = -0.02844 0.40017
# Poissons Ratio (y) = -0.04447 0.32436
# Poissons Ratio (z) = 0.43433 0.22518
#
# Static dielectric constant tensor:
#      x y z
#    x 3.790870 0.000000 0.488640 
#    y 0.000000 2.583020 0.000000 
#    z 0.488640 0.000000 3.842950 
# 
# 
# High freq. dielectric constant tensor:
#      x y z
#    x 1.755890 0.000000 0.025380 
#    y 0.000000 1.725720 0.000000 
#    z 0.025380 0.000000 1.769250 
# 
# From -- ./inp_files/119429.got.cif
#   From: 2010.06.25/outbox.cif.g09.slc.cpg/sg15_60_cif.got.tgz:119429.got - 2010.06.28 07:06:18.
