data_PCOD8130689
_publ_section_title
;
Structure prediction by ZEFSAII (Michael W. Deem and Ramdas Pophale) SiO2 
 PCOD8130689
Probable space group: C 2/C
;
_chemical_formula_sum "Si O2"
_cell_formula_units_Z 56
_cell_length_a 16.980984
_cell_length_b 20.751459
_cell_length_c 15.230409
_cell_angle_alpha 90.000000
_cell_angle_beta 151.757893
_cell_angle_gamma 90.000000
_cell_volume 2539.605403
_symmetry_space_group_name_H-M "C 2/C"
_symmetry_group_IT_number 15
_symmetry_cell_setting 'monoclinic'
loop_
_space_group_symop_operation_xyz
x,y,z
-x,y,1/2-z
-x,-y,-z
x,-y,1/2+z
1/2+x,1/2+y,z
1/2-x,1/2+y,1/2-z
1/2-x,1/2-y,-z
1/2+x,1/2-y,1/2+z
loop_
_atom_site_type_symbol
_atom_site_label
_atom_site_fract_x
_atom_site_fract_y
_atom_site_fract_z
Si Si1 0.521348 0.103970 0.870331
Si Si2 0.415127 0.584997 0.756800
Si Si3 0.906299 0.700813 0.893057
Si Si4 0.961303 0.375600 0.616064
Si Si5 0.468161 0.339440 0.478061
Si Si6 0.855555 0.953502 0.769053
Si Si7 0.360417 0.990549 0.790712
O O1 0.500000 0.128107 0.750000
O O2 0.521968 0.165760 0.934873
O O3 0.365200 0.055790 0.737653
O O4 0.693651 0.066217 0.054001
O O5 0.500000 0.605543 0.750000
O O6 0.216453 0.590072 0.559219
O O7 0.492093 0.633195 0.903808
O O8 0.455001 0.510214 0.816986
O O9 0.720375 0.679627 0.689336
O O10 0.967321 0.681086 0.050416
O O11 0.915223 0.777439 0.894919
O O12 0.000000 0.345951 0.750000
O O13 0.102717 0.428479 0.733333
O O14 0.523125 0.392388 0.603374
O O15 0.810455 0.980388 0.823139
O O16 0.500000 0.000000 0.000000
#
# Coordination Sequence:
#
# PCOD8130689 Si02
#       7
#     8   8   8   8   8   8   8
#     4  11  22  39  69 101 129 170 214 263 322 390
#     4  11  25  40  61 103 136 163 214 268 326 386
#     4  11  24  46  65  93 127 175 222 267 317 390
#     4  11  22  39  67  99 128 172 211 262 318 388
#     4  11  26  45  67  88 128 178 218 267 331 374
#     4  11  22  41  66  96 132 175 208 265 327 384
#     4  10  17  36  66  92 130 164 217 250 318 381
#
# _framework density 22.05067
#
# number of rings (size 3 to 8) (size 9 to 14) (size 15 to 20)
#    0.000    1.143    5.714    2.571    2.000    1.714 
#    0.000    6.429    0.000    0.000    0.000    0.000 
#    0.000    0.000    0.000    0.000    0.000    0.000 
#
# Total GULP energy -347273.385176 kJ/mol
# GULP energy per Si atom -12402.620899 kJ/mol
# Density = 2.200048 g / cm^3
# Si number density = 22.050670 Si / 1000 Ang^3
#
#
#
# Elastic Constant Matrix: (Units=GPa)
#
#
# Indices 1 2 3 4 5 6 
#
# 1 78.6224 16.7619 13.7678 0.0000 -20.2298 0.0000
# 2 16.7619 127.1028 26.1546 0.0000 -6.6171 0.0000
# 3 13.7678 26.1546 60.3734 0.0000 -22.4363 0.0000
# 4 0.0000 0.0000 0.0000 32.1844 0.0000 4.1866
# 5 -20.2298 -6.6171 -22.4363 0.0000 27.9841 0.0000
# 6 0.0000 0.0000 0.0000 4.1866 0.0000 16.1136
#
#
#
# Elastic Compliance Matrix: (Units=1/GPa)
#
#
# Indices 1 2 3 4 5 6 
#
# 1 0.016039 -0.001834 0.001830 0.000000 0.012628 0.000000
# 2 -0.001834 0.008884 -0.004476 0.000000 -0.002814 0.000000
# 3 0.001830 -0.004476 0.025901 0.000000 0.021031 0.000000
# 4 0.000000 0.000000 0.000000 0.032158 0.000000 -0.008355
# 5 0.012628 -0.002814 0.021031 0.000000 0.061059 0.000000
# 6 0.000000 0.000000 0.000000 -0.008355 0.000000 0.064230
#
#
# Mechanical properties :
#
#
# Convention : Reuss Voigt Hill
#
# Bulk Modulus (GPa) = 23.88754 42.16301 33.02528
# Shear Modulus (GPa) = 21.62753 29.21737 25.42245
#
# Velocity S-wave (km/s) = 3.13519 3.64402 3.39914
# Velocity P-wave (km/s) = 4.89514 6.07187 5.51498
#
# Compressibility (1/GPa) = 0.04186283
#
# Stress axis : x y z
#
# Youngs Moduli (GPa) = 62.34869 112.56018 38.60860
#
# Poissons Ratio (x) = 0.20647 -0.07065
# Poissons Ratio (y) = 0.11436 0.17282
# Poissons Ratio (z) = -0.11410 0.50384
#
# Static dielectric constant tensor:
#      x y z
#    x 3.935000 0.000000 -0.079280 
#    y 0.000000 4.136880 0.000000 
#    z -0.079280 0.000000 3.838000 
# 
# 
# High freq. dielectric constant tensor:
#      x y z
#    x 1.856940 0.000000 0.002810 
#    y 0.000000 1.858830 0.000000 
#    z 0.002810 0.000000 1.867560 
# 
# From -- ./inp_files/163839.got.cif
#   From: 2010.06.25/outbox.cif.g09.slc.cpg/sg15_82_cif.got.tgz:163839.got - 2010.06.28 07:06:18.
