data_PCOD8130076
_publ_section_title
;
Structure prediction by ZEFSAII (Michael W. Deem and Ramdas Pophale) SiO2 
 PCOD8130076
Probable space group: C 2/C
;
_chemical_formula_sum "Si O2"
_cell_formula_units_Z 40
_cell_length_a 7.772155
_cell_length_b 32.233606
_cell_length_c 12.307816
_cell_angle_alpha 90.000000
_cell_angle_beta 34.858493
_cell_angle_gamma 90.000000
_cell_volume 1762.328112
_symmetry_space_group_name_H-M "C 2/C"
_symmetry_group_IT_number 15
_symmetry_cell_setting 'monoclinic'
loop_
_space_group_symop_operation_xyz
x,y,z
-x,y,1/2-z
-x,-y,-z
x,-y,1/2+z
1/2+x,1/2+y,z
1/2-x,1/2+y,1/2-z
1/2-x,1/2-y,-z
1/2+x,1/2-y,1/2+z
loop_
_atom_site_type_symbol
_atom_site_label
_atom_site_fract_x
_atom_site_fract_y
_atom_site_fract_z
Si Si1 0.514966 0.706220 0.019193
Si Si2 0.216250 0.642865 0.317340
Si Si3 0.139125 0.449404 0.838065
Si Si4 0.583743 0.203843 0.880181
Si Si5 0.711044 0.023943 0.543051
O O1 0.783162 0.707858 0.966236
O O2 0.629126 0.692957 0.841656
O O3 0.284707 0.671368 0.177837
O O4 0.363845 0.751693 0.089355
O O5 0.500000 0.635624 0.250000
O O6 0.106335 0.598935 0.327001
O O7 0.947692 0.666356 0.518846
O O8 0.431557 0.469588 0.625217
O O9 0.856086 0.474746 0.937024
O O10 0.135869 0.452326 0.970289
O O11 0.500000 0.042292 0.750000
#
# Coordination Sequence:
#
# PCOD8130076 Si02
#       5
#     8   8   8   8   8
#     4   9  15  23  37  57  88 133 170 192 247 304
#     4  10  17  28  41  64 101 131 172 208 245 310
#     4  10  21  36  53  81 106 139 179 222 262 315
#     4   9  15  23  37  57  87 135 165 198 243 306
#     4  10  20  37  58  75 103 142 175 221 275 318
#
# _framework density 22.69725
#
# number of rings (size 3 to 8) (size 9 to 14) (size 15 to 20)
#    0.000    2.400    4.000    0.600    0.000    1.600 
#    0.000    0.000    0.000    0.000    0.000    0.000 
#    0.000    1.600    0.000    2.400    0.000    0.000 
#
# Total GULP energy -247922.154442 kJ/mol
# GULP energy per Si atom -12396.107722 kJ/mol
# Density = 2.264559 g / cm^3
# Si number density = 22.697250 Si / 1000 Ang^3
#
#
#
# Elastic Constant Matrix: (Units=GPa)
#
#
# Indices 1 2 3 4 5 6 
#
# 1 23.3032 18.8132 21.2775 0.0000 -4.6413 0.0000
# 2 18.8132 213.4969 90.8451 0.0000 0.1214 0.0000
# 3 21.2775 90.8451 203.6381 0.0000 27.5137 0.0000
# 4 0.0000 0.0000 0.0000 33.4364 0.0000 -5.2265
# 5 -4.6413 0.1214 27.5137 0.0000 10.0477 0.0000
# 6 0.0000 0.0000 0.0000 -5.2265 0.0000 8.5697
#
#
#
# Elastic Compliance Matrix: (Units=1/GPa)
#
#
# Indices 1 2 3 4 5 6 
#
# 1 0.083463 0.002849 -0.024120 0.000000 0.104568 0.000000
# 2 0.002849 0.006780 -0.005538 0.000000 0.016399 0.000000
# 3 -0.024120 -0.005538 0.018091 0.000000 -0.060614 0.000000
# 4 0.000000 0.000000 0.000000 0.033059 0.000000 0.020162
# 5 0.104568 0.016399 -0.060614 0.000000 0.313611 0.000000
# 6 0.000000 0.000000 0.000000 0.020162 0.000000 0.128986
#
#
# Mechanical properties :
#
#
# Convention : Reuss Voigt Hill
#
# Bulk Modulus (GPa) = 18.27619 78.03439 48.15529
# Shear Modulus (GPa) = 7.62374 31.04426 19.33400
#
# Velocity S-wave (km/s) = 1.83471 3.70233 2.92176
# Velocity P-wave (km/s) = 3.54371 7.26165 5.71355
#
# Compressibility (1/GPa) = 0.05471600
#
# Stress axis : x y z
#
# Youngs Moduli (GPa) = 11.98140 147.49283 55.27599
#
# Poissons Ratio (x) = -0.42023 1.33326
# Poissons Ratio (y) = -0.03414 0.30612
# Poissons Ratio (z) = 0.28899 0.81682
#
# Static dielectric constant tensor:
#      x y z
#    x 3.574990 0.000000 0.174310 
#    y 0.000000 3.986800 0.000000 
#    z 0.174310 0.000000 4.399440 
# 
# 
# High freq. dielectric constant tensor:
#      x y z
#    x 1.855480 0.000000 0.017430 
#    y 0.000000 1.885690 0.000000 
#    z 0.017430 0.000000 1.907760 
# 
# From -- ./inp_files/148917.got.cif
#   From: 2010.06.25/outbox.cif.g09.slc.cpg/sg15_75_cif.got.tgz:148917.got - 2010.06.28 07:06:18.
