data_PCOD8130066
_publ_section_title
;
Structure prediction by ZEFSAII (Michael W. Deem and Ramdas Pophale) SiO2 
 PCOD8130066
Probable space group: C 2/C
;
_chemical_formula_sum "Si O2"
_cell_formula_units_Z 64
_cell_length_a 15.143480
_cell_length_b 24.894520
_cell_length_c 16.341608
_cell_angle_alpha 90.000000
_cell_angle_beta 143.121340
_cell_angle_gamma 90.000000
_cell_volume 3697.124083
_symmetry_space_group_name_H-M "C 2/C"
_symmetry_group_IT_number 15
_symmetry_cell_setting 'monoclinic'
loop_
_space_group_symop_operation_xyz
x,y,z
-x,y,1/2-z
-x,-y,-z
x,-y,1/2+z
1/2+x,1/2+y,z
1/2-x,1/2+y,1/2-z
1/2-x,1/2-y,-z
1/2+x,1/2-y,1/2+z
loop_
_atom_site_type_symbol
_atom_site_label
_atom_site_fract_x
_atom_site_fract_y
_atom_site_fract_z
Si Si1 0.710451 0.052876 0.526638
Si Si2 0.444278 0.017167 0.793024
Si Si3 0.867776 0.995330 0.003872
Si Si4 0.175703 0.409096 0.174626
Si Si5 0.030477 0.801045 0.478132
Si Si6 0.848209 0.839258 0.099183
Si Si7 0.530909 0.586746 0.519153
Si Si8 0.724784 0.794039 0.164680
O O1 0.824062 0.010738 0.567294
O O2 0.734412 0.055297 0.641741
O O3 0.735480 0.111207 0.504659
O O4 0.543572 0.034823 0.385778
O O5 0.500000 0.044807 0.750000
O O6 0.457429 0.060269 0.877294
O O7 0.277681 0.996740 0.660745
O O8 0.966918 0.049188 0.061040
O O9 0.955050 0.942996 0.039238
O O10 0.301992 0.402118 0.334199
O O11 0.133740 0.349118 0.114701
O O12 0.126402 0.810933 0.468115
O O13 0.107230 0.753841 0.586764
O O14 0.039962 0.854138 0.543460
O O15 0.862629 0.786057 0.328759
O O16 0.783559 0.795790 0.115015
O O17 0.000000 0.862670 0.250000
#
# Coordination Sequence:
#
# PCOD8130066 Si02
#       8
#     8   8   8   8   8   8   8   8
#     4  10  17  27  47  69  95 122 151 193 230 279
#     4   9  18  31  45  68 100 121 154 190 234 286
#     4   9  17  29  44  69  91 124 156 190 227 284
#     4   9  18  31  47  68  93 126 156 190 233 287
#     4  10  17  32  46  67  90 129 159 203 234 279
#     4   9  17  29  44  63  93 126 159 186 231 291
#     4   9  17  30  48  63  93 123 165 190 226 283
#     4   9  19  30  47  66  91 122 164 196 238 281
#
# _framework density 17.310752000000001
#
# number of rings (size 3 to 8) (size 9 to 14) (size 15 to 20)
#    0.000    2.750    1.250    1.500    0.000    0.000 
#    4.500    0.000    0.000    0.000    0.000   14.000 
#    0.000    0.000    0.000    0.000    0.000    0.000 
#
# Total GULP energy -396474.154800 kJ/mol
# GULP energy per Si atom -12389.817337 kJ/mol
# Density = 1.727135 g / cm^3
# Si number density = 17.310752 Si / 1000 Ang^3
#
#
#
# Elastic Constant Matrix: (Units=GPa)
#
#
# Indices 1 2 3 4 5 6 
#
# 1 65.0231 48.1541 18.1890 0.0000 -5.2482 0.0000
# 2 48.1541 124.2123 40.7685 0.0000 2.6670 0.0000
# 3 18.1890 40.7685 30.9708 0.0000 4.3721 0.0000
# 4 0.0000 0.0000 0.0000 25.8151 0.0000 6.8076
# 5 -5.2482 2.6670 4.3721 0.0000 22.5729 0.0000
# 6 0.0000 0.0000 0.0000 6.8076 0.0000 26.5706
#
#
#
# Elastic Compliance Matrix: (Units=1/GPa)
#
#
# Indices 1 2 3 4 5 6 
#
# 1 0.022758 -0.007502 -0.004485 0.000000 0.007046 0.000000
# 2 -0.007502 0.016736 -0.017580 0.000000 -0.000317 0.000000
# 3 -0.004485 -0.017580 0.059546 0.000000 -0.010499 0.000000
# 4 0.000000 0.000000 0.000000 0.041544 0.000000 -0.010644
# 5 0.007046 -0.000317 -0.010499 0.000000 0.048010 0.000000
# 6 0.000000 0.000000 0.000000 -0.010644 0.000000 0.040363
#
#
# Mechanical properties :
#
#
# Convention : Reuss Voigt Hill
#
# Bulk Modulus (GPa) = 25.05886 48.26993 36.66440
# Shear Modulus (GPa) = 16.58968 22.53138 19.56053
#
# Velocity S-wave (km/s) = 3.09907 3.61166 3.36514
# Velocity P-wave (km/s) = 5.22618 6.73328 6.02702
#
# Compressibility (1/GPa) = 0.03990604
#
# Stress axis : x y z
#
# Youngs Moduli (GPa) = 43.94009 59.75225 16.79379
#
# Poissons Ratio (x) = 0.44826 0.07533
# Poissons Ratio (y) = 0.32964 0.29523
# Poissons Ratio (z) = 0.19709 1.05042
#
# Static dielectric constant tensor:
#      x y z
#    x 3.407140 0.000000 0.019950 
#    y 0.000000 3.272690 0.000000 
#    z 0.019950 0.000000 2.966350 
# 
# 
# High freq. dielectric constant tensor:
#      x y z
#    x 1.659460 0.000000 0.009130 
#    y 0.000000 1.657200 0.000000 
#    z 0.009130 0.000000 1.636020 
# 
# From -- ./inp_files/156784.got.cif
#   From: 2010.06.25/outbox.cif.g09.slc.cpg/sg15_79_cif.got.tgz:156784.got - 2010.06.28 07:06:18.
