data_PCOD8130891
_publ_section_title
;
Structure prediction by ZEFSAII (Michael W. Deem and Ramdas Pophale) SiO2 
 PCOD8130891
Probable space group: C 2/C
;
_chemical_formula_sum "Si O2"
_cell_formula_units_Z 56
_cell_length_a 23.508918
_cell_length_b 12.684666
_cell_length_c 21.349202
_cell_angle_alpha 90.000000
_cell_angle_beta 148.633965
_cell_angle_gamma 90.000000
_cell_volume 3313.729267
_symmetry_space_group_name_H-M "C 2/C"
_symmetry_group_IT_number 15
_symmetry_cell_setting 'monoclinic'
loop_
_space_group_symop_operation_xyz
x,y,z
-x,y,1/2-z
-x,-y,-z
x,-y,1/2+z
1/2+x,1/2+y,z
1/2-x,1/2+y,1/2-z
1/2-x,1/2-y,-z
1/2+x,1/2-y,1/2+z
loop_
_atom_site_type_symbol
_atom_site_label
_atom_site_fract_x
_atom_site_fract_y
_atom_site_fract_z
Si Si1 0.171654 0.258659 0.181417
Si Si2 0.032866 0.283381 0.926226
Si Si3 0.695883 0.865611 0.780948
Si Si4 0.551743 0.581832 0.729511
Si Si5 0.761056 0.700777 0.943664
Si Si6 0.051318 0.915127 0.628348
Si Si7 0.175768 0.051527 0.642236
O O1 0.273355 0.186695 0.256365
O O2 0.110517 0.200065 0.182346
O O3 0.226665 0.369345 0.248302
O O4 0.082996 0.265856 0.042061
O O5 0.935238 0.368089 0.838982
O O6 0.998121 0.170317 0.863974
O O7 0.117128 0.339599 0.957485
O O8 0.741860 0.798097 0.880335
O O9 0.758204 0.976504 0.843475
O O10 0.500000 0.582480 0.750000
O O11 0.679872 0.604214 0.857698
O O12 0.543482 0.466363 0.690172
O O13 0.750000 0.750000 0.000000
O O14 0.926649 0.896009 0.488977
O O15 0.123627 0.993359 0.653213
#
# Coordination Sequence:
#
# PCOD8130891 Si02
#       7
#     8   8   8   8   8   8   8
#     4  10  19  32  51  74 105 138 173 216 263 301
#     4  10  18  31  47  78 110 133 167 213 267 319
#     4   9  19  29  48  75 104 134 168 207 261 315
#     4  11  20  31  52  77 103 139 176 213 259 310
#     4  10  18  30  48  75 108 138 165 207 258 309
#     4  10  19  33  53  76 102 134 177 214 256 316
#     4  10  19  34  53  76 104 136 170 216 264 313
#
# _framework density 16.899388999999999
#
# number of rings (size 3 to 8) (size 9 to 14) (size 15 to 20)
#    0.000    2.000    1.429    6.857    0.000    0.571 
#    0.000    1.429    0.000    0.857    3.714    0.000 
#    0.000    0.000    0.000    0.000    0.000    0.000 
#
# Total GULP energy -346867.760476 kJ/mol
# GULP energy per Si atom -12388.134303 kJ/mol
# Density = 1.686093 g / cm^3
# Si number density = 16.899389 Si / 1000 Ang^3
#
#
#
# Elastic Constant Matrix: (Units=GPa)
#
#
# Indices 1 2 3 4 5 6 
#
# 1 83.1144 32.7058 43.8861 0.0000 15.2228 0.0000
# 2 32.7058 52.0409 27.2941 0.0000 7.4003 0.0000
# 3 43.8861 27.2941 88.2445 0.0000 23.1923 0.0000
# 4 0.0000 0.0000 0.0000 19.5007 0.0000 5.4190
# 5 15.2228 7.4003 23.1923 0.0000 33.1170 0.0000
# 6 0.0000 0.0000 0.0000 5.4190 0.0000 23.3067
#
#
#
# Elastic Compliance Matrix: (Units=1/GPa)
#
#
# Indices 1 2 3 4 5 6 
#
# 1 0.019078 -0.008358 -0.006237 0.000000 -0.002534 0.000000
# 2 -0.008358 0.026599 -0.004312 0.000000 0.000918 0.000000
# 3 -0.006237 -0.004312 0.018090 0.000000 -0.008839 0.000000
# 4 0.000000 0.000000 0.000000 0.054822 0.000000 -0.012747
# 5 -0.002534 0.000918 -0.008839 0.000000 0.037346 0.000000
# 6 0.000000 0.000000 0.000000 -0.012747 0.000000 0.045870
#
#
# Mechanical properties :
#
#
# Convention : Reuss Voigt Hill
#
# Bulk Modulus (GPa) = 38.52909 47.90798 43.21854
# Shear Modulus (GPa) = 20.13936 23.15247 21.64591
#
# Velocity S-wave (km/s) = 3.45588 3.70539 3.58281
# Velocity P-wave (km/s) = 6.22677 6.83499 6.53796
#
# Compressibility (1/GPa) = 0.02595441
#
# Stress axis : x y z
#
# Youngs Moduli (GPa) = 52.41669 37.59472 55.27823
#
# Poissons Ratio (x) = 0.31423 0.34475
# Poissons Ratio (y) = 0.43812 0.23834
# Poissons Ratio (z) = 0.32690 0.16209
#
# Static dielectric constant tensor:
#      x y z
#    x 2.295420 0.000000 0.279860 
#    y 0.000000 2.927480 0.000000 
#    z 0.279860 0.000000 3.353500 
# 
# 
# High freq. dielectric constant tensor:
#      x y z
#    x 1.643770 0.000000 0.021460 
#    y 0.000000 1.614490 0.000000 
#    z 0.021460 0.000000 1.662190 
# 
# From -- ./inp_files/117463.got.cif
#   From: 2010.06.25/outbox.cif.g09.slc.cpg/sg15_59_cif.got.tgz:117463.got - 2010.06.28 07:06:18.
