data_PCOD8130604
_publ_section_title
;
Structure prediction by ZEFSAII (Michael W. Deem and Ramdas Pophale) SiO2 
 PCOD8130604
Probable space group: C 2/C
;
_chemical_formula_sum "Si O2"
_cell_formula_units_Z 64
_cell_length_a 15.144658
_cell_length_b 11.591852
_cell_length_c 20.808635
_cell_angle_alpha 90.000000
_cell_angle_beta 104.757659
_cell_angle_gamma 90.000000
_cell_volume 3532.545036
_symmetry_space_group_name_H-M "C 2/C"
_symmetry_group_IT_number 15
_symmetry_cell_setting 'monoclinic'
loop_
_space_group_symop_operation_xyz
x,y,z
-x,y,1/2-z
-x,-y,-z
x,-y,1/2+z
1/2+x,1/2+y,z
1/2-x,1/2+y,1/2-z
1/2-x,1/2-y,-z
1/2+x,1/2-y,1/2+z
loop_
_atom_site_type_symbol
_atom_site_label
_atom_site_fract_x
_atom_site_fract_y
_atom_site_fract_z
Si Si1 0.453029 0.394507 0.528428
Si Si2 0.701134 0.171774 0.542480
Si Si3 0.904481 0.341695 0.960933
Si Si4 0.907293 0.767762 0.861877
Si Si5 0.542489 0.896002 0.321260
Si Si6 0.208604 0.942636 0.908150
Si Si7 0.443448 0.032576 0.064266
Si Si8 0.393993 0.330562 0.722897
O O1 0.500000 0.500000 0.500000
O O2 0.431434 0.292279 0.473611
O O3 0.519069 0.358977 0.598597
O O4 0.357188 0.425738 0.543377
O O5 0.750000 0.250000 0.500000
O O6 0.664592 0.246898 0.594814
O O7 0.621944 0.114622 0.486894
O O8 0.765717 0.076533 0.586209
O O9 0.796072 0.358784 0.932968
O O10 0.958601 0.401694 0.911455
O O11 0.947399 0.408038 0.030156
O O12 0.958555 0.651524 0.849194
O O13 0.855747 0.820634 0.788966
O O14 0.500000 0.953030 0.250000
O O15 0.611606 0.792677 0.315495
O O16 0.590978 0.999149 0.370246
O O17 0.162772 0.920701 0.830059
O O18 0.500000 0.366845 0.750000
#
# Coordination Sequence:
#
# PCOD8130604 Si02
#       8
#     8   8   8   8   8   8   8   8
#     4  12  21  34  57  87 120 155 190 244 298 357
#     4  11  23  37  56  86 120 156 191 244 307 361
#     4  10  20  33  57  83 116 146 200 243 292 341
#     4  10  18  38  58  76 114 156 196 226 298 359
#     4   9  16  30  58  84 103 146 200 232 279 353
#     4  11  21  35  59  90 114 150 208 246 287 350
#     4  10  17  35  58  79 114 156 182 244 302 344
#     4   9  18  36  61  81 112 155 198 246 283 355
#
# _framework density 18.117248
#
# number of rings (size 3 to 8) (size 9 to 14) (size 15 to 20)
#    0.000    2.000    5.000    2.625    0.000    1.000 
#    0.000    5.000    0.000    0.750    0.000    0.000 
#    0.000    0.000    0.000    0.000    0.000    0.000 
#
# Total GULP energy -396487.368139 kJ/mol
# GULP energy per Si atom -12390.230254 kJ/mol
# Density = 1.807601 g / cm^3
# Si number density = 18.117248 Si / 1000 Ang^3
#
#
#
# Elastic Constant Matrix: (Units=GPa)
#
#
# Indices 1 2 3 4 5 6 
#
# 1 97.3600 48.8467 55.0822 0.0000 -5.5038 0.0000
# 2 48.8467 80.7613 49.3365 0.0000 0.9605 0.0000
# 3 55.0822 49.3365 123.7196 0.0000 -8.5755 0.0000
# 4 0.0000 0.0000 0.0000 28.4633 0.0000 -7.6986
# 5 -5.5038 0.9605 -8.5755 0.0000 27.8504 0.0000
# 6 0.0000 0.0000 0.0000 -7.6986 0.0000 22.8720
#
#
#
# Elastic Compliance Matrix: (Units=1/GPa)
#
#
# Indices 1 2 3 4 5 6 
#
# 1 0.016523 -0.007430 -0.004240 0.000000 0.002216 0.000000
# 2 -0.007430 0.019902 -0.004882 0.000000 -0.003658 0.000000
# 3 -0.004240 -0.004882 0.012130 0.000000 0.003065 0.000000
# 4 0.000000 0.000000 0.000000 0.038652 0.000000 0.013010
# 5 0.002216 -0.003658 0.003065 0.000000 0.037414 0.000000
# 6 0.000000 0.000000 0.000000 0.013010 0.000000 0.048101
#
#
# Mechanical properties :
#
#
# Convention : Reuss Voigt Hill
#
# Bulk Modulus (GPa) = 64.72036 67.59687 66.15862
# Shear Modulus (GPa) = 23.69956 25.74217 24.72087
#
# Velocity S-wave (km/s) = 3.62072 3.77353 3.69791
# Velocity P-wave (km/s) = 7.29932 7.50851 7.40466
#
# Compressibility (1/GPa) = 0.01545109
#
# Stress axis : x y z
#
# Youngs Moduli (GPa) = 60.52281 50.24674 82.44178
#
# Poissons Ratio (x) = 0.37332 0.34954
# Poissons Ratio (y) = 0.44966 0.40249
# Poissons Ratio (z) = 0.25661 0.24531
#
# Static dielectric constant tensor:
#      x y z
#    x 3.361550 0.000000 -0.163060 
#    y 0.000000 3.159970 0.000000 
#    z -0.163060 0.000000 3.504520 
# 
# 
# High freq. dielectric constant tensor:
#      x y z
#    x 1.688720 0.000000 -0.006340 
#    y 0.000000 1.685140 0.000000 
#    z -0.006340 0.000000 1.702770 
# 
# From -- ./inp_files/243728.got.cif
#   From: 2010.06.25/outbox.cif.g09.slc.cpg/sg15_122_cif.got.tgz:243728.got - 2010.06.28 07:06:18.
