data_PCOD8130424
_publ_section_title
;
Structure prediction by ZEFSAII (Michael W. Deem and Ramdas Pophale) SiO2 
 PCOD8130424
Probable space group: C 2/C
;
_chemical_formula_sum "Si O2"
_cell_formula_units_Z 56
_cell_length_a 15.217107
_cell_length_b 12.629936
_cell_length_c 13.977435
_cell_angle_alpha 90.000000
_cell_angle_beta 126.017668
_cell_angle_gamma 90.000000
_cell_volume 2172.806437
_symmetry_space_group_name_H-M "C 2/C"
_symmetry_group_IT_number 15
_symmetry_cell_setting 'monoclinic'
loop_
_space_group_symop_operation_xyz
x,y,z
-x,y,1/2-z
-x,-y,-z
x,-y,1/2+z
1/2+x,1/2+y,z
1/2-x,1/2+y,1/2-z
1/2-x,1/2-y,-z
1/2+x,1/2-y,1/2+z
loop_
_atom_site_type_symbol
_atom_site_label
_atom_site_fract_x
_atom_site_fract_y
_atom_site_fract_z
Si Si1 0.128431 0.968543 0.394736
Si Si2 0.379121 0.705598 0.159531
Si Si3 0.242872 0.923608 0.645251
Si Si4 0.652241 0.218606 0.659239
Si Si5 0.599165 0.419281 0.174411
Si Si6 0.618803 0.986813 0.616396
Si Si7 0.105958 0.731300 0.034582
O O1 0.235297 0.960956 0.529979
O O2 0.132410 0.891174 0.305960
O O3 0.029661 0.946240 0.405772
O O4 0.117170 0.079448 0.333217
O O5 0.500000 0.751556 0.250000
O O6 0.312711 0.757030 0.206691
O O7 0.334682 0.736094 0.025612
O O8 0.215503 0.798727 0.630719
O O9 0.365541 0.951785 0.761409
O O10 0.159269 0.980941 0.664796
O O11 0.523372 0.226876 0.562457
O O12 0.686014 0.097704 0.649817
O O13 0.628797 0.313191 0.135138
O O14 0.663500 0.883592 0.589118
O O15 0.500000 0.000000 0.500000
#
# Coordination Sequence:
#
# PCOD8130424 Si02
#       7
#     8   8   8   8   8   8   8
#     4  11  20  34  60 111 136 160 209 283 337 393
#     4  10  17  32  64 100 131 160 215 266 328 386
#     4  12  22  38  68  96 129 170 223 279 325 391
#     4  10  21  40  65  98 124 174 222 272 322 394
#     4  11  20  35  64 102 137 162 211 270 349 382
#     4  10  26  47  63  88 136 185 225 261 332 398
#     4  10  20  40  66  90 136 181 207 265 333 398
#
# _framework density 25.773119999999999
#
# number of rings (size 3 to 8) (size 9 to 14) (size 15 to 20)
#    0.000    1.429    5.714    1.286    2.000    0.000 
#    2.571    3.571    6.286    0.000    0.000    0.000 
#    0.000    0.000    0.000    0.000    0.000    0.000 
#
# Total GULP energy -346876.743300 kJ/mol
# GULP energy per Si atom -12388.455118 kJ/mol
# Density = 2.571446 g / cm^3
# Si number density = 25.773120 Si / 1000 Ang^3
#
#
#
# Elastic Constant Matrix: (Units=GPa)
#
#
# Indices 1 2 3 4 5 6 
#
# 1 60.8057 30.8087 18.4575 0.0000 0.6931 0.0000
# 2 30.8087 181.1277 50.6330 0.0000 -4.4545 0.0000
# 3 18.4575 50.6330 212.9183 0.0000 -11.8818 0.0000
# 4 0.0000 0.0000 0.0000 39.6727 0.0000 5.2562
# 5 0.6931 -4.4545 -11.8818 0.0000 26.9984 0.0000
# 6 0.0000 0.0000 0.0000 5.2562 0.0000 13.1311
#
#
#
# Elastic Compliance Matrix: (Units=1/GPa)
#
#
# Indices 1 2 3 4 5 6 
#
# 1 0.018205 -0.002858 -0.000975 0.000000 -0.001368 0.000000
# 2 -0.002858 0.006366 -0.001234 0.000000 0.000581 0.000000
# 3 -0.000975 -0.001234 0.005192 0.000000 0.002106 0.000000
# 4 0.000000 0.000000 0.000000 0.026618 0.000000 -0.010655
# 5 -0.001368 0.000581 0.002106 0.000000 0.038097 0.000000
# 6 0.000000 0.000000 0.000000 -0.010655 0.000000 0.080420
#
#
# Mechanical properties :
#
#
# Convention : Reuss Voigt Hill
#
# Bulk Modulus (GPa) = 50.94048 72.73889 61.83969
# Shear Modulus (GPa) = 26.09943 39.62396 32.86169
#
# Velocity S-wave (km/s) = 3.18569 3.92524 3.57464
# Velocity P-wave (km/s) = 5.77402 6.98766 6.40963
#
# Compressibility (1/GPa) = 0.01963075
#
# Stress axis : x y z
#
# Youngs Moduli (GPa) = 54.92910 157.07905 192.60021
#
# Poissons Ratio (x) = 0.44889 0.18777
# Poissons Ratio (y) = 0.15697 0.23763
# Poissons Ratio (z) = 0.05355 0.19380
#
# Static dielectric constant tensor:
#      x y z
#    x 4.290050 0.000000 0.291090 
#    y 0.000000 4.967740 0.000000 
#    z 0.291090 0.000000 5.290460 
# 
# 
# High freq. dielectric constant tensor:
#      x y z
#    x 2.004180 0.000000 0.025730 
#    y 0.000000 2.028900 0.000000 
#    z 0.025730 0.000000 2.069920 
# 
# From -- ./inp_files/161421.got.cif
#   From: 2010.06.25/outbox.cif.g09.slc.cpg/sg15_81_cif.got.tgz:161421.got - 2010.06.28 07:06:18.
