data_PCOD8130527
_publ_section_title
;
Structure prediction by ZEFSAII (Michael W. Deem and Ramdas Pophale) SiO2 
 PCOD8130527
Probable space group: C 2/C
;
_chemical_formula_sum "Si O2"
_cell_formula_units_Z 52
_cell_length_a 8.371439
_cell_length_b 19.559880
_cell_length_c 22.291350
_cell_angle_alpha 90.000000
_cell_angle_beta 136.219212
_cell_angle_gamma 90.000000
_cell_volume 2525.496130
_symmetry_space_group_name_H-M "C 2/C"
_symmetry_group_IT_number 15
_symmetry_cell_setting 'monoclinic'
loop_
_space_group_symop_operation_xyz
x,y,z
-x,y,1/2-z
-x,-y,-z
x,-y,1/2+z
1/2+x,1/2+y,z
1/2-x,1/2+y,1/2-z
1/2-x,1/2-y,-z
1/2+x,1/2-y,1/2+z
loop_
_atom_site_type_symbol
_atom_site_label
_atom_site_fract_x
_atom_site_fract_y
_atom_site_fract_z
Si Si1 0.500000 0.253595 0.750000
Si Si2 0.000000 0.087734 0.750000
Si Si3 0.202324 0.574044 0.995548
Si Si4 0.328126 0.861096 0.791808
Si Si5 0.000000 0.474052 0.250000
Si Si6 0.558243 0.141123 0.672018
Si Si7 0.790196 0.096892 0.363573
Si Si8 0.183862 0.526057 0.120278
O O1 0.735483 0.297558 0.806273
O O2 0.464915 0.206796 0.681756
O O3 0.835807 0.140130 0.741702
O O4 0.851808 0.040187 0.664070
O O5 0.059329 0.636107 0.925795
O O6 0.081843 0.501158 0.947066
O O7 0.460472 0.584882 0.039075
O O8 0.210766 0.576325 0.070301
O O9 0.200455 0.854784 0.693019
O O10 0.608035 0.866826 0.859938
O O11 0.251418 0.930721 0.803722
O O12 0.002753 0.429105 0.191224
O O13 0.218128 0.523304 0.317689
#
# Coordination Sequence:
#
# PCOD8130527 Si02
#       8
#     4   4   8   8   4   8   8   8
#     4  11  23  42  56  70 105 153 200 230 256 323
#     4  10  17  34  56  82 111 142 188 222 270 344
#     4  10  19  33  54  90 121 138 171 228 293 330
#     4  10  21  37  58  80 107 152 193 218 263 331
#     4   9  18  34  54  82 110 141 178 218 278 339
#     4  10  22  35  54  80 111 149 184 225 274 322
#     4  10  19  34  61  88 109 136 180 236 281 328
#     4  10  19  32  58  88 116 147 173 222 287 336
#
# _framework density 20.590014
#
# number of rings (size 3 to 8) (size 9 to 14) (size 15 to 20)
#    0.000    2.154    0.000    6.923    0.000    3.692 
#    0.000    6.923    0.000    0.000    0.000    0.000 
#    0.000    0.000    0.000    0.000    0.000    0.000 
#
# Total GULP energy -322093.766557 kJ/mol
# GULP energy per Si atom -12388.221791 kJ/mol
# Density = 2.054315 g / cm^3
# Si number density = 20.590014 Si / 1000 Ang^3
#
#
#
# Elastic Constant Matrix: (Units=GPa)
#
#
# Indices 1 2 3 4 5 6 
#
# 1 123.8137 57.4593 44.4186 0.0004 16.7462 0.0001
# 2 57.4593 88.5121 24.4164 0.0004 11.6948 0.0003
# 3 44.4186 24.4164 78.2509 0.0011 25.3734 0.0006
# 4 0.0004 0.0004 0.0011 10.5005 0.0006 -3.0919
# 5 16.7462 11.6948 25.3734 0.0006 34.4115 0.0003
# 6 0.0001 0.0003 0.0006 -3.0919 0.0003 40.7016
#
#
#
# Elastic Compliance Matrix: (Units=1/GPa)
#
#
# Indices 1 2 3 4 5 6 
#
# 1 0.013316 -0.007170 -0.005271 0.000000 -0.000157 0.000000
# 2 -0.007170 0.016306 -0.000463 0.000000 -0.001711 0.000000
# 3 -0.005271 -0.000463 0.019757 -0.000001 -0.011845 0.000000
# 4 0.000000 0.000000 -0.000001 0.097413 -0.000001 0.007400
# 5 -0.000157 -0.001711 -0.011845 -0.000001 0.038452 0.000000
# 6 0.000000 0.000000 0.000000 0.007400 0.000000 0.025131
#
#
# Mechanical properties :
#
#
# Convention : Reuss Voigt Hill
#
# Bulk Modulus (GPa) = 42.42399 60.35169 51.38784
# Shear Modulus (GPa) = 20.48848 28.07487 24.28167
#
# Velocity S-wave (km/s) = 3.15789 3.69659 3.43781
# Velocity P-wave (km/s) = 5.82626 6.89888 6.38513
#
# Compressibility (1/GPa) = 0.02357157
#
# Stress axis : x y z
#
# Youngs Moduli (GPa) = 75.09718 61.32675 50.61554
#
# Poissons Ratio (x) = 0.43969 0.26678
# Poissons Ratio (y) = 0.53842 0.02345
# Poissons Ratio (z) = 0.39581 0.02842
#
# Static dielectric constant tensor:
#      x y z
#    x 4.087510 0.000000 -0.086780 
#    y 0.000000 3.424830 0.000000 
#    z -0.086780 0.000000 3.835070 
# 
# 
# High freq. dielectric constant tensor:
#      x y z
#    x 1.817040 0.000000 0.003340 
#    y 0.000000 1.769520 0.000000 
#    z 0.003340 0.000000 1.790910 
# 
# From -- ./inp_files/190872.got.cif
#   From: 2010.06.25/outbox.cif.g09.slc.cpg/sg15_96_cif.got.tgz:190872.got - 2010.06.28 07:06:18.
