data_PCOD8130397
_publ_section_title
;
Structure prediction by ZEFSAII (Michael W. Deem and Ramdas Pophale) SiO2 
 PCOD8130397
Probable space group: C 2/C
;
_chemical_formula_sum "Si O2"
_cell_formula_units_Z 48
_cell_length_a 9.352044
_cell_length_b 26.125359
_cell_length_c 10.812844
_cell_angle_alpha 90.000000
_cell_angle_beta 58.938960
_cell_angle_gamma 90.000000
_cell_volume 2263.059654
_symmetry_space_group_name_H-M "C 2/C"
_symmetry_group_IT_number 15
_symmetry_cell_setting 'monoclinic'
loop_
_space_group_symop_operation_xyz
x,y,z
-x,y,1/2-z
-x,-y,-z
x,-y,1/2+z
1/2+x,1/2+y,z
1/2-x,1/2+y,1/2-z
1/2-x,1/2-y,-z
1/2+x,1/2-y,1/2+z
loop_
_atom_site_type_symbol
_atom_site_label
_atom_site_fract_x
_atom_site_fract_y
_atom_site_fract_z
Si Si1 0.690646 0.967744 0.161655
Si Si2 0.604971 0.868612 0.817192
Si Si3 0.039358 0.696484 0.918221
Si Si4 0.178317 0.524923 0.398937
Si Si5 0.445720 0.687005 0.132530
Si Si6 0.259852 0.849868 0.367408
O O1 0.500000 0.987080 0.250000
O O2 0.692184 0.907704 0.182750
O O3 0.776554 0.997300 0.240697
O O4 0.773284 0.981118 0.990080
O O5 0.500000 0.891809 0.750000
O O6 0.662679 0.914535 0.880600
O O7 0.764511 0.837303 0.698821
O O8 0.477861 0.829759 0.941036
O O9 0.877607 0.677904 0.914209
O O10 0.043779 0.757146 0.932556
O O11 0.211307 0.679467 0.775248
O O12 0.000000 0.500000 0.500000
O O13 0.500000 0.689940 0.250000
O O14 0.570529 0.651792 0.997874
#
# Coordination Sequence:
#
# PCOD8130397 Si02
#       6
#     8   8   8   8   8   8
#     4  10  17  32  56  87 116 150 202 252 302 362
#     4  12  25  41  59  89 129 162 203 250 308 376
#     4  11  20  37  64  89 120 157 208 245 303 364
#     4  10  19  34  59  85 114 160 210 249 300 368
#     4  12  22  37  63  93 120 159 206 259 302 353
#     4  11  19  35  62  94 117 150 207 264 298 355
#
# _framework density 21.210225000000001
#
# number of rings (size 3 to 8) (size 9 to 14) (size 15 to 20)
#    0.000    1.000    6.667    4.000    0.000    0.667 
#    0.000    1.667    0.000    2.000    0.000    0.000 
#    0.000    0.000    0.000    0.000    0.000    0.000 
#
# Total GULP energy -297493.445138 kJ/mol
# GULP energy per Si atom -12395.560214 kJ/mol
# Density = 2.116195 g / cm^3
# Si number density = 21.210225 Si / 1000 Ang^3
#
#
#
# Elastic Constant Matrix: (Units=GPa)
#
#
# Indices 1 2 3 4 5 6 
#
# 1 31.7544 17.1626 37.5907 0.0000 14.8524 0.0000
# 2 17.1626 115.8900 38.8309 0.0000 6.7011 0.0000
# 3 37.5907 38.8309 142.4924 0.0000 15.3526 0.0000
# 4 0.0000 0.0000 0.0000 32.4086 0.0000 13.4709
# 5 14.8524 6.7011 15.3526 0.0000 27.7170 0.0000
# 6 0.0000 0.0000 0.0000 13.4709 0.0000 8.2634
#
#
#
# Elastic Compliance Matrix: (Units=1/GPa)
#
#
# Indices 1 2 3 4 5 6 
#
# 1 0.058714 -0.003283 -0.012007 0.000000 -0.024018 0.000000
# 2 -0.003283 0.009702 -0.001823 0.000000 0.000424 0.000000
# 3 -0.012007 -0.001823 0.010572 0.000000 0.001019 0.000000
# 4 0.000000 0.000000 0.000000 0.095707 0.000000 -0.156019
# 5 -0.024018 0.000424 0.001019 0.000000 0.048283 0.000000
# 6 0.000000 0.000000 0.000000 -0.156019 0.000000 0.375355
#
#
# Mechanical properties :
#
#
# Convention : Reuss Voigt Hill
#
# Bulk Modulus (GPa) = 22.34080 53.03392 37.68736
# Shear Modulus (GPa) = 7.72227 26.78131 17.25179
#
# Velocity S-wave (km/s) = 1.91016 3.55725 2.85506
# Velocity P-wave (km/s) = 3.92694 6.47536 5.35496
#
# Compressibility (1/GPa) = 0.04476115
#
# Stress axis : x y z
#
# Youngs Moduli (GPa) = 17.03184 103.07656 94.58504
#
# Poissons Ratio (x) = 0.33843 1.13565
# Poissons Ratio (y) = 0.05592 0.17245
# Poissons Ratio (z) = 0.20449 0.18794
#
# Static dielectric constant tensor:
#      x y z
#    x 3.461650 0.000000 0.360040 
#    y 0.000000 3.939850 0.000000 
#    z 0.360040 0.000000 4.607430 
# 
# 
# High freq. dielectric constant tensor:
#      x y z
#    x 1.769110 0.000000 0.016310 
#    y 0.000000 1.842640 0.000000 
#    z 0.016310 0.000000 1.850430 
# 
# From -- ./inp_files/80533.got.cif
#   From: 2010.06.25/outbox.cif.g09.slc.cpg/sg15_41_cif.got.tgz:80533.got - 2010.06.28 07:06:18.
