data_PCOD8130582
_publ_section_title
;
Structure prediction by ZEFSAII (Michael W. Deem and Ramdas Pophale) SiO2 
 PCOD8130582
Probable space group: C 2/C
;
_chemical_formula_sum "Si O2"
_cell_formula_units_Z 44
_cell_length_a 12.312820
_cell_length_b 14.291435
_cell_length_c 20.653788
_cell_angle_alpha 90.000000
_cell_angle_beta 37.630092
_cell_angle_gamma 90.000000
_cell_volume 2219.025443
_symmetry_space_group_name_H-M "C 2/C"
_symmetry_group_IT_number 15
_symmetry_cell_setting 'monoclinic'
loop_
_space_group_symop_operation_xyz
x,y,z
-x,y,1/2-z
-x,-y,-z
x,-y,1/2+z
1/2+x,1/2+y,z
1/2-x,1/2+y,1/2-z
1/2-x,1/2-y,-z
1/2+x,1/2-y,1/2+z
loop_
_atom_site_type_symbol
_atom_site_label
_atom_site_fract_x
_atom_site_fract_y
_atom_site_fract_z
Si Si1 0.264666 0.393124 0.022922
Si Si2 0.351287 0.322989 0.266525
Si Si3 0.251311 0.291490 0.798600
Si Si4 0.045152 0.026674 0.303988
Si Si5 0.046361 0.290094 0.023442
Si Si6 0.500000 0.852098 0.250000
O O1 0.376454 0.475240 0.934142
O O2 0.405848 0.313781 0.975803
O O3 0.117870 0.362884 0.041202
O O4 0.147817 0.417049 0.143206
O O5 0.500000 0.305768 0.250000
O O6 0.378504 0.252029 0.194251
O O7 0.357152 0.427960 0.235186
O O8 0.162374 0.302404 0.388217
O O9 0.331019 0.387524 0.732778
O O10 0.408205 0.216957 0.740614
O O11 0.135030 0.316637 0.914598
O O12 0.000000 0.044907 0.250000
#
# Coordination Sequence:
#
# PCOD8130582 Si02
#       6
#     8   8   8   8   8   4
#     4  10  17  34  66  96 116 151 211 269 307 341
#     4  11  25  39  58  92 133 165 200 247 317 386
#     4  11  19  38  65  88 123 162 207 259 312 354
#     4  11  20  37  63  99 121 158 210 260 304 363
#     4  10  19  35  65  89 120 161 207 262 303 361
#     4  10  18  32  68 100 110 154 212 270 308 344
#
# _framework density 19.828524000000002
#
# number of rings (size 3 to 8) (size 9 to 14) (size 15 to 20)
#    0.000    1.455    6.364    1.091    0.000    1.455 
#    0.000    3.636    2.000    0.000    0.000    0.000 
#    0.000    0.000    0.000    0.000    0.000    0.000 
#
# Total GULP energy -272633.260778 kJ/mol
# GULP energy per Si atom -12392.420944 kJ/mol
# Density = 1.978339 g / cm^3
# Si number density = 19.828524 Si / 1000 Ang^3
#
#
#
# Elastic Constant Matrix: (Units=GPa)
#
#
# Indices 1 2 3 4 5 6 
#
# 1 90.1598 39.3328 56.1417 0.0004 -5.0503 -0.0008
# 2 39.3328 60.6112 41.3128 -0.0003 7.0962 -0.0003
# 3 56.1417 41.3128 111.0221 -0.0015 -10.1850 -0.0011
# 4 0.0004 -0.0003 -0.0015 15.5686 0.0001 6.1975
# 5 -5.0503 7.0962 -10.1850 0.0001 29.6408 0.0004
# 6 -0.0008 -0.0003 -0.0011 6.1975 0.0004 -65.5559
#
#
#
# Elastic Compliance Matrix: (Units=1/GPa)
#
#
# Indices 1 2 3 4 5 6 
#
# 1 0.018681 -0.008363 -0.006050 -0.000001 0.003106 0.000000
# 2 -0.008363 0.028069 -0.007190 0.000000 -0.010615 0.000000
# 3 -0.006050 -0.007190 0.015287 0.000001 0.005943 0.000000
# 4 -0.000001 0.000000 0.000001 0.061902 0.000000 0.005852
# 5 0.003106 -0.010615 0.005943 0.000000 0.038850 0.000000
# 6 0.000000 0.000000 0.000000 0.005852 0.000000 -0.014701
#
#
# Mechanical properties :
#
#
# Convention : Reuss Voigt Hill
#
# Bulk Modulus (GPa) = 53.10020 59.48531 56.29275
# Shear Modulus (GPa) = 25.30748 4.26441 14.78595
#
# Velocity S-wave (km/s) = 3.57643 1.46810 2.73370
# Velocity P-wave (km/s) = 6.62513 5.73923 6.19803
#
# Compressibility (1/GPa) = 0.01883232
#
# Stress axis : x y z
#
# Youngs Moduli (GPa) = 53.53079 35.62666 65.41504
#
# Poissons Ratio (x) = 0.29794 0.39574
# Poissons Ratio (y) = 0.44767 0.47031
# Poissons Ratio (z) = 0.32384 0.25614
#
# Static dielectric constant tensor:
#      x y z
#    x 3.471370 0.000000 0.183540 
#    y 0.000000 3.329850 0.000000 
#    z 0.183540 0.000000 3.994450 
# 
# 
# High freq. dielectric constant tensor:
#      x y z
#    x 1.757520 0.000000 0.011640 
#    y 0.000000 1.731160 0.000000 
#    z 0.011640 0.000000 1.797480 
# 
# From -- ./inp_files/143342.got.cif
#   From: 2010.06.25/outbox.cif.g09.slc.cpg/sg15_72_cif.got.tgz:143342.got - 2010.06.28 07:06:18.
