data_PCOD8130725
_publ_section_title
;
Structure prediction by ZEFSAII (Michael W. Deem and Ramdas Pophale) SiO2 
 PCOD8130725
Probable space group: C 2/C
;
_chemical_formula_sum "Si O2"
_cell_formula_units_Z 44
_cell_length_a 14.114330
_cell_length_b 15.276678
_cell_length_c 11.655692
_cell_angle_alpha 90.000000
_cell_angle_beta 112.831045
_cell_angle_gamma 90.000000
_cell_volume 2316.299521
_symmetry_space_group_name_H-M "C 2/C"
_symmetry_group_IT_number 15
_symmetry_cell_setting 'monoclinic'
loop_
_space_group_symop_operation_xyz
x,y,z
-x,y,1/2-z
-x,-y,-z
x,-y,1/2+z
1/2+x,1/2+y,z
1/2-x,1/2+y,1/2-z
1/2-x,1/2-y,-z
1/2+x,1/2-y,1/2+z
loop_
_atom_site_type_symbol
_atom_site_label
_atom_site_fract_x
_atom_site_fract_y
_atom_site_fract_z
Si Si1 0.294305 0.563202 0.244012
Si Si2 0.542891 0.710053 0.496512
Si Si3 0.312107 0.838695 0.005900
Si Si4 0.000000 0.885960 0.750000
Si Si5 0.738867 0.629866 0.703361
Si Si6 0.307627 0.722513 0.411085
O O1 0.415889 0.555996 0.275997
O O2 0.256349 0.465418 0.240667
O O3 0.270815 0.629061 0.340281
O O4 0.240950 0.595830 0.105045
O O5 0.578987 0.811197 0.499126
O O6 0.551922 0.672851 0.372038
O O7 0.621379 0.656144 0.615180
O O8 0.428815 0.711608 0.495712
O O9 0.316190 0.882862 0.132283
O O10 0.250000 0.750000 0.000000
O O11 0.787672 0.701978 0.809558
O O12 0.250000 0.750000 0.500000
#
# Coordination Sequence:
#
# PCOD8130725 Si02
#       6
#     8   8   8   4   8   8
#     4  11  22  37  63  92 123 154 209 255 307 359
#     4  10  20  40  66  87 117 166 210 248 302 361
#     4  10  17  41  64  83 116 165 204 240 296 368
#     4  10  18  34  64  96 110 154 216 254 300 370
#     4  11  23  39  65  93 124 164 194 263 310 351
#     4  11  25  40  61  93 126 161 204 252 313 368
#
# _framework density 18.995816000000001
#
# number of rings (size 3 to 8) (size 9 to 14) (size 15 to 20)
#    0.000    1.455    7.273    1.091    2.545    5.091 
#    0.000    0.909    4.000    0.000    0.000    0.000 
#    0.000    0.000    0.000    0.000    0.000    0.000 
#
# Total GULP energy -272573.538245 kJ/mol
# GULP energy per Si atom -12389.706284 kJ/mol
# Density = 1.895258 g / cm^3
# Si number density = 18.995816 Si / 1000 Ang^3
#
#
#
# Elastic Constant Matrix: (Units=GPa)
#
#
# Indices 1 2 3 4 5 6 
#
# 1 70.4600 20.7545 14.2032 0.0000 -13.8098 0.0000
# 2 20.7545 108.3978 29.6927 0.0000 2.6129 0.0000
# 3 14.2032 29.6927 79.3547 0.0000 -9.8972 0.0000
# 4 0.0000 0.0000 0.0000 30.1671 0.0000 -6.8996
# 5 -13.8098 2.6129 -9.8972 0.0000 28.4432 0.0000
# 6 0.0000 0.0000 0.0000 -6.8996 0.0000 23.3973
#
#
#
# Elastic Compliance Matrix: (Units=1/GPa)
#
#
# Indices 1 2 3 4 5 6 
#
# 1 0.016914 -0.003219 -0.000796 0.000000 0.008231 0.000000
# 2 -0.003219 0.011049 -0.004056 0.000000 -0.003989 0.000000
# 3 -0.000796 -0.004056 0.014907 0.000000 0.005173 0.000000
# 4 0.000000 0.000000 0.000000 0.035546 0.000000 0.010482
# 5 0.008231 -0.003989 0.005173 0.000000 0.041320 0.000000
# 6 0.000000 0.000000 0.000000 0.010482 0.000000 0.045831
#
#
# Mechanical properties :
#
#
# Convention : Reuss Voigt Hill
#
# Bulk Modulus (GPa) = 37.41353 43.05703 40.23528
# Shear Modulus (GPa) = 26.23042 29.30565 27.76803
#
# Velocity S-wave (km/s) = 3.72001 3.93204 3.82749
# Velocity P-wave (km/s) = 6.17979 6.58258 6.38436
#
# Compressibility (1/GPa) = 0.02672830
#
# Stress axis : x y z
#
# Youngs Moduli (GPa) = 59.12165 90.50915 67.08325
#
# Poissons Ratio (x) = 0.29132 0.05343
# Poissons Ratio (y) = 0.19030 0.27206
# Poissons Ratio (z) = 0.04709 0.36706
#
# Static dielectric constant tensor:
#      x y z
#    x 3.040180 0.000000 0.201270 
#    y 0.000000 3.499290 0.000000 
#    z 0.201270 0.000000 3.525840 
# 
# 
# High freq. dielectric constant tensor:
#      x y z
#    x 1.729700 0.000000 -0.002760 
#    y 0.000000 1.726120 0.000000 
#    z -0.002760 0.000000 1.744740 
# 
# From -- ./inp_files/96093.got.cif
#   From: 2010.06.25/outbox.cif.g09.slc.cpg/sg15_49_cif.got.tgz:96093.got - 2010.06.28 07:06:18.
