data_PCOD8130861
_publ_section_title
;
Structure prediction by ZEFSAII (Michael W. Deem and Ramdas Pophale) SiO2 
 PCOD8130861
Probable space group: C 2/C
;
_chemical_formula_sum "Si O2"
_cell_formula_units_Z 48
_cell_length_a 22.162367
_cell_length_b 8.702347
_cell_length_c 15.958183
_cell_angle_alpha 90.000000
_cell_angle_beta 133.287949
_cell_angle_gamma 90.000000
_cell_volume 2240.360132
_symmetry_space_group_name_H-M "C 2/C"
_symmetry_group_IT_number 15
_symmetry_cell_setting 'monoclinic'
loop_
_space_group_symop_operation_xyz
x,y,z
-x,y,1/2-z
-x,-y,-z
x,-y,1/2+z
1/2+x,1/2+y,z
1/2-x,1/2+y,1/2-z
1/2-x,1/2-y,-z
1/2+x,1/2-y,1/2+z
loop_
_atom_site_type_symbol
_atom_site_label
_atom_site_fract_x
_atom_site_fract_y
_atom_site_fract_z
Si Si1 0.722836 0.374288 0.041240
Si Si2 0.054104 0.603601 0.610964
Si Si3 0.448336 0.624935 0.052421
Si Si4 0.797301 0.798655 0.764272
Si Si5 0.600760 0.425148 0.184237
Si Si6 0.822355 0.624467 0.197938
O O1 0.748085 0.315234 0.157151
O O2 0.766443 0.543910 0.071060
O O3 0.750000 0.250000 0.000000
O O4 0.623482 0.392000 0.946368
O O5 0.120292 0.710014 0.622198
O O6 0.102709 0.493466 0.719256
O O7 0.000000 0.500000 0.500000
O O8 0.994726 0.712850 0.609417
O O9 0.511646 0.485382 0.130716
O O10 0.410417 0.625861 0.922768
O O11 0.737761 0.854957 0.780191
O O12 0.828353 0.945725 0.741366
O O13 0.633886 0.288719 0.276916
#
# Coordination Sequence:
#
# PCOD8130861 Si02
#       6
#     8   8   8   8   8   8
#     4  11  23  39  58  86 121 166 201 245 314 369
#     4  10  18  29  53  87 117 149 197 254 299 345
#     4  10  19  33  55  88 121 152 191 251 303 363
#     4  10  19  34  55  86 122 156 201 253 297 360
#     4  10  18  32  57  88 119 147 203 250 301 340
#     4  11  19  34  58  89 116 153 203 256 295 357
#
# _framework density 21.425127
#
# number of rings (size 3 to 8) (size 9 to 14) (size 15 to 20)
#    0.000    1.667    5.000    1.000    0.000    0.000 
#    0.000    8.333    0.000    2.000    0.000    0.000 
#    0.000    0.000    0.000    0.000    0.000    0.000 
#
# Total GULP energy -297379.467585 kJ/mol
# GULP energy per Si atom -12390.811149 kJ/mol
# Density = 2.137636 g / cm^3
# Si number density = 21.425127 Si / 1000 Ang^3
#
#
#
# Elastic Constant Matrix: (Units=GPa)
#
#
# Indices 1 2 3 4 5 6 
#
# 1 96.5440 46.9000 38.9060 0.0000 34.9301 0.0000
# 2 46.9000 155.1230 42.3156 0.0000 28.2053 0.0000
# 3 38.9060 42.3156 55.6343 0.0000 28.6784 0.0000
# 4 0.0000 0.0000 0.0000 54.0168 0.0000 13.4313
# 5 34.9301 28.2053 28.6784 0.0000 33.2037 0.0000
# 6 0.0000 0.0000 0.0000 13.4313 0.0000 30.3185
#
#
#
# Elastic Compliance Matrix: (Units=1/GPa)
#
#
# Indices 1 2 3 4 5 6 
#
# 1 0.017824 -0.001793 -0.004002 0.000000 -0.013771 0.000000
# 2 -0.001793 0.008464 -0.004416 0.000000 -0.001489 0.000000
# 3 -0.004002 -0.004416 0.036102 0.000000 -0.023220 0.000000
# 4 0.000000 0.000000 0.000000 0.020804 0.000000 -0.009217
# 5 -0.013771 -0.001489 -0.023220 0.000000 0.065924 0.000000
# 6 0.000000 0.000000 0.000000 -0.009217 0.000000 0.037066
#
#
# Mechanical properties :
#
#
# Convention : Reuss Voigt Hill
#
# Bulk Modulus (GPa) = 23.82833 62.61607 43.22220
# Shear Modulus (GPa) = 22.66574 35.45312 29.05943
#
# Velocity S-wave (km/s) = 3.25607 4.07227 3.68683
# Velocity P-wave (km/s) = 5.02810 7.16939 6.19201
#
# Compressibility (1/GPa) = 0.04196685
#
# Stress axis : x y z
#
# Youngs Moduli (GPa) = 56.10273 118.14575 27.69966
#
# Poissons Ratio (x) = 0.21188 0.11086
# Poissons Ratio (y) = 0.10061 0.12232
# Poissons Ratio (z) = 0.22453 0.52174
#
# Static dielectric constant tensor:
#      x y z
#    x 3.608610 0.000000 0.769840 
#    y 0.000000 4.410590 0.000000 
#    z 0.769840 0.000000 4.324540 
# 
# 
# High freq. dielectric constant tensor:
#      x y z
#    x 1.806080 0.000000 0.057490 
#    y 0.000000 1.863050 0.000000 
#    z 0.057490 0.000000 1.821440 
# 
# From -- ./inp_files/213715.got.cif
#   From: 2010.06.25/outbox.cif.g09.slc.cpg/sg15_107_cif.got.tgz:213715.got - 2010.06.28 07:06:18.
