data_PCOD8130682
_publ_section_title
;
Structure prediction by ZEFSAII (Michael W. Deem and Ramdas Pophale) SiO2 
 PCOD8130682
Probable space group: C 2/C
;
_chemical_formula_sum "Si O2"
_cell_formula_units_Z 56
_cell_length_a 20.033477
_cell_length_b 23.222849
_cell_length_c 11.045716
_cell_angle_alpha 90.000000
_cell_angle_beta 147.843174
_cell_angle_gamma 90.000000
_cell_volume 2735.092286
_symmetry_space_group_name_H-M "C 2/C"
_symmetry_group_IT_number 15
_symmetry_cell_setting 'monoclinic'
loop_
_space_group_symop_operation_xyz
x,y,z
-x,y,1/2-z
-x,-y,-z
x,-y,1/2+z
1/2+x,1/2+y,z
1/2-x,1/2+y,1/2-z
1/2-x,1/2-y,-z
1/2+x,1/2-y,1/2+z
loop_
_atom_site_type_symbol
_atom_site_label
_atom_site_fract_x
_atom_site_fract_y
_atom_site_fract_z
Si Si1 0.000000 0.374831 0.250000
Si Si2 0.120860 0.967194 0.724168
Si Si3 0.748051 0.195248 0.148922
Si Si4 0.272210 0.326938 0.408675
Si Si5 0.366110 0.390222 0.982756
Si Si6 0.318888 0.964611 0.654319
Si Si7 0.427929 0.078185 0.894755
Si Si8 0.500000 0.603762 0.250000
O O1 0.970316 0.415707 0.318997
O O2 0.112011 0.332344 0.458641
O O3 0.156593 0.922695 0.677452
O O4 0.083277 0.935500 0.790019
O O5 0.000000 0.000000 0.500000
O O6 0.239797 0.010395 0.919506
O O7 0.747120 0.263209 0.169992
O O8 0.838368 0.174843 0.398055
O O9 0.798311 0.176890 0.093353
O O10 0.149782 0.365145 0.187123
O O11 0.393843 0.354590 0.528427
O O12 0.265352 0.415032 0.918688
O O13 0.500000 0.397073 0.250000
O O14 0.343464 0.020540 0.777021
O O15 0.451692 0.932386 0.832123
#
# Coordination Sequence:
#
# PCOD8130682 Si02
#       8
#     4   8   8   8   8   8   8   4
#     4  10  17  36  62  90 122 160 205 264 312 372
#     4  12  23  38  61  92 124 163 206 254 307 375
#     4  10  20  38  63  94 119 159 214 258 311 368
#     4  10  21  37  63  93 122 161 209 268 304 362
#     4  12  23  41  64  89 126 168 208 257 315 376
#     4  11  22  38  59  90 125 164 197 255 313 382
#     4  10  21  36  58  89 128 160 201 254 318 373
#     4  12  21  40  62  94 126 156 209 264 308 356
#
# _framework density 20.474629
#
# number of rings (size 3 to 8) (size 9 to 14) (size 15 to 20)
#    0.000    1.143    5.714    2.143    0.000    0.000 
#    0.000    0.000    3.143    1.714    0.000    0.000 
#    0.000    0.000    0.000    0.000    0.000    0.000 
#
# Total GULP energy -346935.932679 kJ/mol
# GULP energy per Si atom -12390.569024 kJ/mol
# Density = 2.042803 g / cm^3
# Si number density = 20.474629 Si / 1000 Ang^3
#
#
#
# Elastic Constant Matrix: (Units=GPa)
#
#
# Indices 1 2 3 4 5 6 
#
# 1 30.7939 12.2768 16.4718 0.0000 2.0706 0.0000
# 2 12.2768 123.8443 60.0204 0.0000 2.7512 0.0000
# 3 16.4718 60.0204 152.4376 0.0000 11.4488 0.0000
# 4 0.0000 0.0000 0.0000 28.1656 0.0000 7.8749
# 5 2.0706 2.7512 11.4488 0.0000 26.1251 0.0000
# 6 0.0000 0.0000 0.0000 7.8749 0.0000 9.2395
#
#
#
# Elastic Compliance Matrix: (Units=1/GPa)
#
#
# Indices 1 2 3 4 5 6 
#
# 1 0.034910 -0.002040 -0.002872 0.000000 -0.001294 0.000000
# 2 -0.002040 0.010110 -0.003818 0.000000 0.000770 0.000000
# 3 -0.002872 -0.003818 0.008610 0.000000 -0.003143 0.000000
# 4 0.000000 0.000000 0.000000 0.046612 0.000000 -0.039728
# 5 -0.001294 0.000770 -0.003143 0.000000 0.039676 0.000000
# 6 0.000000 0.000000 0.000000 -0.039728 0.000000 0.142092
#
#
# Mechanical properties :
#
#
# Convention : Reuss Voigt Hill
#
# Bulk Modulus (GPa) = 27.64708 53.84597 40.74652
# Shear Modulus (GPa) = 16.04992 27.25981 21.65486
#
# Velocity S-wave (km/s) = 2.80285 3.65279 3.25567
# Velocity P-wave (km/s) = 4.89969 6.64428 5.83753
#
# Compressibility (1/GPa) = 0.03617019
#
# Stress axis : x y z
#
# Youngs Moduli (GPa) = 28.64469 98.90957 116.14632
#
# Poissons Ratio (x) = 0.20179 0.33356
# Poissons Ratio (y) = 0.05844 0.44347
# Poissons Ratio (z) = 0.08226 0.37765
#
# Static dielectric constant tensor:
#      x y z
#    x 3.534800 0.000000 0.210430 
#    y 0.000000 3.455450 0.000000 
#    z 0.210430 0.000000 3.953790 
# 
# 
# High freq. dielectric constant tensor:
#      x y z
#    x 1.767490 0.000000 0.027750 
#    y 0.000000 1.807040 0.000000 
#    z 0.027750 0.000000 1.807820 
# 
# From -- ./inp_files/114968.got.cif
#   From: 2010.06.25/outbox.cif.g09.slc.cpg/sg15_58_cif.got.tgz:114968.got - 2010.06.28 07:06:18.
