data_PCOD8130684
_publ_section_title
;
Structure prediction by ZEFSAII (Michael W. Deem and Ramdas Pophale) SiO2 
 PCOD8130684
Probable space group: C 2/C
;
_chemical_formula_sum "Si O2"
_cell_formula_units_Z 56
_cell_length_a 22.878734
_cell_length_b 22.119794
_cell_length_c 12.092726
_cell_angle_alpha 90.000000
_cell_angle_beta 27.456370
_cell_angle_gamma 90.000000
_cell_volume 2821.675069
_symmetry_space_group_name_H-M "C 2/C"
_symmetry_group_IT_number 15
_symmetry_cell_setting 'monoclinic'
loop_
_space_group_symop_operation_xyz
x,y,z
-x,y,1/2-z
-x,-y,-z
x,-y,1/2+z
1/2+x,1/2+y,z
1/2-x,1/2+y,1/2-z
1/2-x,1/2-y,-z
1/2+x,1/2-y,1/2+z
loop_
_atom_site_type_symbol
_atom_site_label
_atom_site_fract_x
_atom_site_fract_y
_atom_site_fract_z
Si Si1 0.141757 0.896217 0.974327
Si Si2 0.686784 0.954404 0.633834
Si Si3 0.756425 0.701617 0.151520
Si Si4 0.000000 0.909656 0.750000
Si Si5 0.425536 0.921661 0.140269
Si Si6 0.500000 0.121463 0.750000
Si Si7 0.784010 0.172118 0.527897
Si Si8 0.375520 0.508079 0.636552
O O1 0.234376 0.910187 0.919889
O O2 0.156132 0.827003 0.907029
O O3 0.173676 0.942330 0.820284
O O4 0.000000 0.908046 0.250000
O O5 0.761177 0.959545 0.393504
O O6 0.668835 0.021350 0.715813
O O7 0.545740 0.926598 0.855667
O O8 0.781298 0.773468 0.123158
O O9 0.882316 0.664961 0.967191
O O10 0.702453 0.695161 0.119279
O O11 0.092317 0.868432 0.666613
O O12 0.090522 0.950812 0.524188
O O13 0.477434 0.919874 0.179804
O O14 0.348470 0.862651 0.234955
O O15 0.500000 0.500000 0.500000
#
# Coordination Sequence:
#
# PCOD8130684 Si02
#       8
#     8   8   8   4   8   4   8   8
#     4  12  22  38  61  90 125 164 204 249 312 373
#     4  11  23  37  60  92 127 165 196 254 317 378
#     4  10  21  38  64  88 116 162 209 253 301 356
#     4  12  23  40  64  92 120 161 206 254 320 362
#     4  10  21  39  58  91 129 158 204 250 314 371
#     4  10  17  36  64  86 120 161 204 250 296 374
#     4  10  22  40  61  88 121 158 209 260 294 366
#     4  12  21  37  59  92 128 157 199 257 311 370
#
# _framework density 19.846367999999998
#
# number of rings (size 3 to 8) (size 9 to 14) (size 15 to 20)
#    0.000    1.143    3.571    4.714    0.000    0.000 
#    0.000    1.429    0.000    1.714    0.000    0.000 
#    0.000    0.000    0.000    0.000    0.000    0.000 
#
# Total GULP energy -347194.733396 kJ/mol
# GULP energy per Si atom -12399.811907 kJ/mol
# Density = 1.980120 g / cm^3
# Si number density = 19.846368 Si / 1000 Ang^3
#
#
#
# Elastic Constant Matrix: (Units=GPa)
#
#
# Indices 1 2 3 4 5 6 
#
# 1 45.0580 10.9270 19.0135 0.0046 -2.6417 -0.0028
# 2 10.9270 85.6917 28.3262 0.0050 7.4266 -0.0035
# 3 19.0135 28.3262 125.2499 0.0050 8.4108 -0.0045
# 4 0.0046 0.0050 0.0050 20.5155 -0.0035 14.8634
# 5 -2.6417 7.4266 8.4108 -0.0035 24.0650 0.0028
# 6 -0.0028 -0.0035 -0.0045 14.8634 0.0028 21.0768
#
#
#
# Elastic Compliance Matrix: (Units=1/GPa)
#
#
# Indices 1 2 3 4 5 6 
#
# 1 0.024517 -0.002373 -0.003497 -0.000009 0.004646 0.000008
# 2 -0.002373 0.013052 -0.002359 -0.000008 -0.003464 0.000008
# 3 -0.003497 -0.002359 0.009242 -0.000005 -0.002886 0.000005
# 4 -0.000009 -0.000008 -0.000005 0.099662 0.000026 -0.070282
# 5 0.004646 -0.003464 -0.002886 0.000026 0.044142 -0.000025
# 6 0.000008 0.000008 0.000005 -0.070282 -0.000025 0.097008
#
#
# Mechanical properties :
#
#
# Convention : Reuss Voigt Hill
#
# Bulk Modulus (GPa) = 32.94510 41.39255 37.16883
# Shear Modulus (GPa) = 15.91341 26.31367 21.11354
#
# Velocity S-wave (km/s) = 2.83473 3.64520 3.26521
# Velocity P-wave (km/s) = 5.22976 6.21437 5.74320
#
# Compressibility (1/GPa) = 0.03035353
#
# Stress axis : x y z
#
# Youngs Moduli (GPa) = 40.78770 76.61458 108.19894
#
# Poissons Ratio (x) = 0.18180 0.37839
# Poissons Ratio (y) = 0.09679 0.25525
# Poissons Ratio (z) = 0.14264 0.18074
#
# Static dielectric constant tensor:
#      x y z
#    x 3.583660 0.000000 -0.093350 
#    y 0.000000 3.804460 0.000000 
#    z -0.093350 0.000000 3.775800 
# 
# 
# High freq. dielectric constant tensor:
#      x y z
#    x 1.768350 0.000000 -0.017570 
#    y 0.000000 1.766710 0.000000 
#    z -0.017570 0.000000 1.776680 
# 
# From -- ./inp_files/119822.got.cif
#   From: 2010.06.25/outbox.cif.g09.slc.cpg/sg15_60_cif.got.tgz:119822.got - 2010.06.28 07:06:18.
