data_PCOD8130979
_publ_section_title
;
Structure prediction by ZEFSAII (Michael W. Deem and Ramdas Pophale) SiO2 
 PCOD8130979
Probable space group: C 2/C
;
_chemical_formula_sum "Si O2"
_cell_formula_units_Z 64
_cell_length_a 17.715872
_cell_length_b 9.147579
_cell_length_c 28.240048
_cell_angle_alpha 90.000000
_cell_angle_beta 47.358561
_cell_angle_gamma 90.000000
_cell_volume 3366.512186
_symmetry_space_group_name_H-M "C 2/C"
_symmetry_group_IT_number 15
_symmetry_cell_setting 'monoclinic'
loop_
_space_group_symop_operation_xyz
x,y,z
-x,y,1/2-z
-x,-y,-z
x,-y,1/2+z
1/2+x,1/2+y,z
1/2-x,1/2+y,1/2-z
1/2-x,1/2-y,-z
1/2+x,1/2-y,1/2+z
loop_
_atom_site_type_symbol
_atom_site_label
_atom_site_fract_x
_atom_site_fract_y
_atom_site_fract_z
Si Si1 0.234824 0.371836 0.467196
Si Si2 0.460425 0.739280 0.457982
Si Si3 0.569801 0.183494 0.676541
Si Si4 0.377766 0.649774 0.039939
Si Si5 0.303735 0.659743 0.596780
Si Si6 0.543188 0.685324 0.888703
Si Si7 0.937638 0.045696 0.381166
Si Si8 0.455761 0.006327 0.403631
O O1 0.250000 0.250000 0.500000
O O2 0.194231 0.291650 0.436674
O O3 0.338113 0.453350 0.408670
O O4 0.154688 0.482592 0.524372
O O5 0.557140 0.657912 0.439828
O O6 0.372649 0.768404 0.534961
O O7 0.409355 0.639901 0.439418
O O8 0.508794 0.885611 0.414698
O O9 0.500000 0.137433 0.750000
O O10 0.685985 0.205170 0.645069
O O11 0.531587 0.340445 0.673003
O O12 0.558264 0.052391 0.643651
O O13 0.311707 0.503382 0.072202
O O14 0.453314 0.641045 0.963102
O O15 0.346078 0.674415 0.632830
O O16 0.532664 0.566120 0.850736
O O17 0.523539 0.846829 0.875703
#
# Coordination Sequence:
#
# PCOD8130979 Si02
#       8
#     8   8   8   8   8   8   8   8
#     4  11  18  29  54  91 119 143 173 222 285 348
#     4  10  18  32  54  91 116 148 173 222 292 355
#     4  11  26  42  56  75 109 153 203 242 271 318
#     4  10  18  30  55  91 127 140 170 220 287 355
#     4  11  19  35  59  83 116 153 183 219 286 344
#     4  10  19  34  58  89 116 142 177 223 286 351
#     4  11  19  36  57  81 117 145 184 229 280 341
#     4  10  21  34  57  83 118 145 182 233 284 329
#
# _framework density 19.010773
#
# number of rings (size 3 to 8) (size 9 to 14) (size 15 to 20)
#    0.000    1.500    5.000    3.000    0.000    7.500 
#    0.000    1.875    0.000    0.000    0.000    0.000 
#    0.000    0.000    0.000    0.000    0.000    0.000 
#
# Total GULP energy -396689.931548 kJ/mol
# GULP energy per Si atom -12396.560361 kJ/mol
# Density = 1.896750 g / cm^3
# Si number density = 19.010773 Si / 1000 Ang^3
#
#
#
# Elastic Constant Matrix: (Units=GPa)
#
#
# Indices 1 2 3 4 5 6 
#
# 1 111.6680 44.8716 35.2332 0.0001 -1.1790 -0.0001
# 2 44.8716 109.4896 24.6091 0.0001 6.5035 0.0004
# 3 35.2332 24.6091 43.6943 0.0000 5.0534 0.0000
# 4 0.0001 0.0001 0.0000 14.9029 0.0000 2.3106
# 5 -1.1790 6.5035 5.0534 0.0000 13.1200 0.0000
# 6 -0.0001 0.0004 0.0000 2.3106 0.0000 35.0511
#
#
#
# Elastic Compliance Matrix: (Units=1/GPa)
#
#
# Indices 1 2 3 4 5 6 
#
# 1 0.013588 -0.003817 -0.009595 0.000000 0.006808 0.000000
# 2 -0.003817 0.011647 -0.002904 0.000000 -0.004998 0.000000
# 3 -0.009595 -0.002904 0.033693 0.000000 -0.012400 0.000000
# 4 0.000000 0.000000 0.000000 0.067794 0.000000 -0.004469
# 5 0.006808 -0.004998 -0.012400 0.000000 0.084085 0.000000
# 6 0.000000 0.000000 0.000000 -0.004469 0.000000 0.028824
#
#
# Mechanical properties :
#
#
# Convention : Reuss Voigt Hill
#
# Bulk Modulus (GPa) = 38.02726 52.69775 45.36250
# Shear Modulus (GPa) = 17.79187 23.29065 20.54126
#
# Velocity S-wave (km/s) = 3.06254 3.50398 3.29067
# Velocity P-wave (km/s) = 5.70543 6.64459 6.19284
#
# Compressibility (1/GPa) = 0.02629692
#
# Stress axis : x y z
#
# Youngs Moduli (GPa) = 73.59511 85.85882 29.68003
#
# Poissons Ratio (x) = 0.32769 0.28477
# Poissons Ratio (y) = 0.28088 0.08620
# Poissons Ratio (z) = 0.70611 0.24935
#
# Static dielectric constant tensor:
#      x y z
#    x 3.964510 0.000000 0.009730 
#    y 0.000000 3.569640 0.000000 
#    z 0.009730 0.000000 2.824780 
# 
# 
# High freq. dielectric constant tensor:
#      x y z
#    x 1.757580 0.000000 0.000860 
#    y 0.000000 1.755730 0.000000 
#    z 0.000860 0.000000 1.660660 
# 
# From -- ./inp_files/315670.got.cif
#   From: 2010.06.25/outbox.cif.g09.slc.cpg/sg15_158_cif.got.tgz:315670.got - 2010.06.28 07:06:18.
