data_PCOD8130418
_publ_section_title
;
Structure prediction by ZEFSAII (Michael W. Deem and Ramdas Pophale) SiO2 
 PCOD8130418
Probable space group: C 2/C
;
_chemical_formula_sum "Si O2"
_cell_formula_units_Z 48
_cell_length_a 11.353374
_cell_length_b 14.539733
_cell_length_c 13.640347
_cell_angle_alpha 90.000000
_cell_angle_beta 91.030876
_cell_angle_gamma 90.000000
_cell_volume 2251.316198
_symmetry_space_group_name_H-M "C 2/C"
_symmetry_group_IT_number 15
_symmetry_cell_setting 'monoclinic'
loop_
_space_group_symop_operation_xyz
x,y,z
-x,y,1/2-z
-x,-y,-z
x,-y,1/2+z
1/2+x,1/2+y,z
1/2-x,1/2+y,1/2-z
1/2-x,1/2-y,-z
1/2+x,1/2-y,1/2+z
loop_
_atom_site_type_symbol
_atom_site_label
_atom_site_fract_x
_atom_site_fract_y
_atom_site_fract_z
Si Si1 0.131056 0.070015 0.270791
Si Si2 0.629151 0.229857 0.708309
Si Si3 0.236247 0.414832 0.333837
Si Si4 0.519861 0.032223 0.360280
Si Si5 0.348368 0.905514 0.462118
Si Si6 0.133838 0.972471 0.984397
O O1 0.156521 0.161849 0.208278
O O2 0.145748 0.088219 0.386612
O O3 0.000000 0.033036 0.250000
O O4 0.220810 0.991991 0.241056
O O5 0.500000 0.211197 0.750000
O O6 0.727653 0.182169 0.778422
O O7 0.642761 0.189532 0.598468
O O8 0.105395 0.443841 0.363332
O O9 0.323174 0.406050 0.427369
O O10 0.500000 0.072859 0.250000
O O11 0.576946 0.107722 0.435265
O O12 0.397798 0.992260 0.400146
O O13 0.213230 0.934153 0.483801
O O14 0.000000 0.000000 0.000000
#
# Coordination Sequence:
#
# PCOD8130418 Si02
#       6
#     8   8   8   8   8   8
#     4  11  23  39  64  92 127 171 212 253 317 392
#     4  11  21  39  65  94 125 162 218 266 319 373
#     4  11  20  38  65  87 126 167 207 265 314 374
#     4  10  17  32  59  93 118 159 207 260 318 371
#     4  10  19  33  62  91 121 164 209 261 314 369
#     4  11  22  37  62  91 126 175 211 247 317 393
#
# _framework density 21.32086
#
# number of rings (size 3 to 8) (size 9 to 14) (size 15 to 20)
#    0.000    1.333    6.667    0.000    0.000    0.667 
#    0.000    3.333    0.000    8.000    0.000    0.000 
#    0.000    0.000    0.000    0.000    0.000    0.000 
#
# Total GULP energy -297540.836605 kJ/mol
# GULP energy per Si atom -12397.534859 kJ/mol
# Density = 2.127233 g / cm^3
# Si number density = 21.320860 Si / 1000 Ang^3
#
#
#
# Elastic Constant Matrix: (Units=GPa)
#
#
# Indices 1 2 3 4 5 6 
#
# 1 104.9175 22.5087 22.8294 0.0000 2.2269 0.0000
# 2 22.5087 54.1198 12.5777 0.0000 -4.7134 0.0000
# 3 22.8294 12.5777 158.0229 0.0000 23.5568 0.0000
# 4 0.0000 0.0000 0.0000 28.6430 0.0000 0.3199
# 5 2.2269 -4.7134 23.5568 0.0000 34.8537 0.0000
# 6 0.0000 0.0000 0.0000 0.3199 0.0000 13.3463
#
#
#
# Elastic Compliance Matrix: (Units=1/GPa)
#
#
# Indices 1 2 3 4 5 6 
#
# 1 0.010696 -0.004227 -0.001136 0.000000 -0.000487 0.000000
# 2 -0.004227 0.021000 -0.001695 0.000000 0.004256 0.000000
# 3 -0.001136 -0.001695 0.007396 0.000000 -0.005155 0.000000
# 4 0.000000 0.000000 0.000000 0.034922 0.000000 -0.000837
# 5 -0.000487 0.004256 -0.005155 0.000000 0.032782 0.000000
# 6 0.000000 0.000000 0.000000 -0.000837 0.000000 0.074947
#
#
# Mechanical properties :
#
#
# Convention : Reuss Voigt Hill
#
# Bulk Modulus (GPa) = 40.03976 48.09909 44.06942
# Shear Modulus (GPa) = 24.48769 32.64490 28.56629
#
# Velocity S-wave (km/s) = 3.39268 3.91720 3.66434
# Velocity P-wave (km/s) = 5.84529 6.56262 6.21431
#
# Compressibility (1/GPa) = 0.02497517
#
# Stress axis : x y z
#
# Youngs Moduli (GPa) = 93.49597 47.61889 135.21218
#
# Poissons Ratio (x) = 0.20127 0.15362
# Poissons Ratio (y) = 0.39518 0.22922
# Poissons Ratio (z) = 0.10623 0.08073
#
# Static dielectric constant tensor:
#      x y z
#    x 3.964490 0.000000 0.096770 
#    y 0.000000 3.374320 0.000000 
#    z 0.096770 0.000000 4.344310 
# 
# 
# High freq. dielectric constant tensor:
#      x y z
#    x 1.846900 0.000000 0.004570 
#    y 0.000000 1.774900 0.000000 
#    z 0.004570 0.000000 1.859680 
# 
# From -- ./inp_files/143639.got.cif
#   From: 2010.06.25/outbox.cif.g09.slc.cpg/sg15_72_cif.got.tgz:143639.got - 2010.06.28 07:06:18.
