data_PCOD8130816
_publ_section_title
;
Structure prediction by ZEFSAII (Michael W. Deem and Ramdas Pophale) SiO2 
 PCOD8130816
Probable space group: C 2/C
;
_chemical_formula_sum "Si O2"
_cell_formula_units_Z 56
_cell_length_a 14.751345
_cell_length_b 19.111243
_cell_length_c 16.652206
_cell_angle_alpha 90.000000
_cell_angle_beta 43.134017
_cell_angle_gamma 90.000000
_cell_volume 3209.685318
_symmetry_space_group_name_H-M "C 2/C"
_symmetry_group_IT_number 15
_symmetry_cell_setting 'monoclinic'
loop_
_space_group_symop_operation_xyz
x,y,z
-x,y,1/2-z
-x,-y,-z
x,-y,1/2+z
1/2+x,1/2+y,z
1/2-x,1/2+y,1/2-z
1/2-x,1/2-y,-z
1/2+x,1/2-y,1/2+z
loop_
_atom_site_type_symbol
_atom_site_label
_atom_site_fract_x
_atom_site_fract_y
_atom_site_fract_z
Si Si1 0.538042 0.386894 0.945629
Si Si2 0.796586 0.620293 0.179531
Si Si3 0.166389 0.996235 0.968333
Si Si4 0.178331 0.454053 0.996467
Si Si5 0.868037 0.756091 0.040376
Si Si6 0.624995 0.819747 0.121416
Si Si7 0.571646 0.972965 0.784133
O O1 0.650644 0.367174 0.808546
O O2 0.600181 0.422150 0.985795
O O3 0.438589 0.441608 0.969153
O O4 0.462387 0.315479 0.017701
O O5 0.785353 0.559014 0.119416
O O6 0.863137 0.690574 0.103281
O O7 0.896627 0.594881 0.183572
O O8 0.291092 0.012622 0.828012
O O9 0.221854 0.990598 0.024496
O O10 0.203644 0.382716 0.029163
O O11 0.024167 0.475941 0.103333
O O12 0.718792 0.783302 0.125912
O O13 0.922018 0.734530 0.917201
O O14 0.500000 0.849780 0.250000
O O15 0.500000 0.946025 0.750000
#
# Coordination Sequence:
#
# PCOD8130816 Si02
#       7
#     8   8   8   8   8   8   8
#     4  10  19  34  50  73 105 140 174 202 250 312
#     4  10  21  33  51  80 102 136 165 211 258 299
#     4   9  18  32  52  75  99 138 169 207 253 298
#     4  10  18  31  52  79 102 128 166 213 257 300
#     4  10  20  31  46  73 103 138 169 205 252 306
#     4  10  18  29  45  71 104 133 166 205 259 306
#     4   9  18  34  56  77 101 131 170 210 255 304
#
# _framework density 17.447192999999999
#
# number of rings (size 3 to 8) (size 9 to 14) (size 15 to 20)
#    0.000    2.286    1.429    2.571    0.000    0.571 
#    0.000    0.000    0.000    7.714    0.000    0.000 
#    0.000    0.000    0.000    0.000    0.000    0.000 
#
# Total GULP energy -347107.983485 kJ/mol
# GULP energy per Si atom -12396.713696 kJ/mol
# Density = 1.740748 g / cm^3
# Si number density = 17.447193 Si / 1000 Ang^3
#
#
#
# Elastic Constant Matrix: (Units=GPa)
#
#
# Indices 1 2 3 4 5 6 
#
# 1 81.6219 46.0301 37.3513 0.0000 0.8825 0.0000
# 2 46.0301 82.0642 38.1893 0.0000 -3.1103 0.0000
# 3 37.3513 38.1893 74.8417 0.0001 -1.2140 -0.0001
# 4 0.0000 0.0000 0.0001 28.5544 0.0000 -4.4553
# 5 0.8825 -3.1103 -1.2140 0.0000 19.0472 0.0000
# 6 0.0000 0.0000 -0.0001 -4.4553 0.0000 31.1654
#
#
#
# Elastic Compliance Matrix: (Units=1/GPa)
#
#
# Indices 1 2 3 4 5 6 
#
# 1 0.019604 -0.008555 -0.005462 0.000000 -0.002653 0.000000
# 2 -0.008555 0.019797 -0.005779 0.000000 0.003261 0.000000
# 3 -0.005462 -0.005779 0.019045 0.000000 0.000523 0.000000
# 4 0.000000 0.000000 0.000000 0.035820 0.000000 0.005121
# 5 -0.002653 0.003261 0.000523 0.000000 0.053190 0.000000
# 6 0.000000 0.000000 0.000000 0.005121 0.000000 0.032819
#
#
# Mechanical properties :
#
#
# Convention : Reuss Voigt Hill
#
# Bulk Modulus (GPa) = 53.03873 53.51880 53.27876
# Shear Modulus (GPa) = 22.10909 23.55054 22.82982
#
# Velocity S-wave (km/s) = 3.56364 3.67797 3.62126
# Velocity P-wave (km/s) = 6.88464 6.98412 6.93456
#
# Compressibility (1/GPa) = 0.01885415
#
# Stress axis : x y z
#
# Youngs Moduli (GPa) = 51.00980 50.51223 52.50792
#
# Poissons Ratio (x) = 0.43213 0.28677
# Poissons Ratio (y) = 0.43639 0.30347
# Poissons Ratio (z) = 0.27859 0.29193
#
# Static dielectric constant tensor:
#      x y z
#    x 3.327690 0.000000 -0.056220 
#    y 0.000000 3.163510 0.000000 
#    z -0.056220 0.000000 3.225340 
# 
# 
# High freq. dielectric constant tensor:
#      x y z
#    x 1.667310 0.000000 -0.011990 
#    y 0.000000 1.657930 0.000000 
#    z -0.011990 0.000000 1.671230 
# 
# From -- ./inp_files/98396.got.cif
#   From: 2010.06.25/outbox.cif.g09.slc.cpg/sg15_50_cif.got.tgz:98396.got - 2010.06.28 07:06:18.
