data_PCOD8130396
_publ_section_title
;
Structure prediction by ZEFSAII (Michael W. Deem and Ramdas Pophale) SiO2 
 PCOD8130396
Probable space group: C 2/C
;
_chemical_formula_sum "Si O2"
_cell_formula_units_Z 48
_cell_length_a 21.104242
_cell_length_b 7.924408
_cell_length_c 17.706027
_cell_angle_alpha 90.000000
_cell_angle_beta 58.535075
_cell_angle_gamma 90.000000
_cell_volume 2525.726404
_symmetry_space_group_name_H-M "C 2/C"
_symmetry_group_IT_number 15
_symmetry_cell_setting 'monoclinic'
loop_
_space_group_symop_operation_xyz
x,y,z
-x,y,1/2-z
-x,-y,-z
x,-y,1/2+z
1/2+x,1/2+y,z
1/2-x,1/2+y,1/2-z
1/2-x,1/2-y,-z
1/2+x,1/2-y,1/2+z
loop_
_atom_site_type_symbol
_atom_site_label
_atom_site_fract_x
_atom_site_fract_y
_atom_site_fract_z
Si Si1 0.198458 0.524511 0.897090
Si Si2 0.709584 0.913018 0.052715
Si Si3 0.715264 0.402048 0.867856
Si Si4 0.576162 0.178120 0.746175
Si Si5 0.141236 0.009128 0.772473
Si Si6 0.373224 0.879812 0.695132
O O1 0.180824 0.716721 0.888130
O O2 0.285122 0.488198 0.824847
O O3 0.141410 0.404000 0.885919
O O4 0.180978 0.509453 0.996565
O O5 0.641125 0.863320 0.147407
O O6 0.773058 0.023082 0.055835
O O7 0.750000 0.750000 0.000000
O O8 0.659679 0.508576 0.850344
O O9 0.793979 0.414807 0.779683
O O10 0.500000 0.193954 0.750000
O O11 0.587623 0.356732 0.781778
O O12 0.570290 0.023221 0.809678
O O13 0.101032 0.193209 0.792214
#
# Coordination Sequence:
#
# PCOD8130396 Si02
#       6
#     8   8   8   8   8   8
#     4  10  17  32  56  86 113 135 181 238 277 313
#     4  11  20  33  55  87 112 139 182 234 278 312
#     4   9  18  30  55  86 113 138 181 230 276 322
#     4  11  23  39  55  79 114 150 184 220 273 338
#     4  10  18  34  57  82 107 148 185 224 272 323
#     4   9  19  33  57  82 109 146 186 222 269 331
#
# _framework density 19.004434
#
# number of rings (size 3 to 8) (size 9 to 14) (size 15 to 20)
#    0.000    2.000    3.333    1.500    4.667    0.667 
#    0.000    0.833    0.000    2.000    0.000    0.000 
#    0.000    0.000    0.000    0.000    0.000    0.000 
#
# Total GULP energy -297386.504738 kJ/mol
# GULP energy per Si atom -12391.104364 kJ/mol
# Density = 1.896118 g / cm^3
# Si number density = 19.004434 Si / 1000 Ang^3
#
#
#
# Elastic Constant Matrix: (Units=GPa)
#
#
# Indices 1 2 3 4 5 6 
#
# 1 84.7109 64.5253 31.3276 -0.0001 27.5259 -0.0002
# 2 64.5253 132.3903 17.0192 -0.0003 17.5935 0.0000
# 3 31.3276 17.0192 69.4685 0.0002 31.8763 0.0000
# 4 -0.0001 -0.0003 0.0002 25.7634 -0.0001 11.1356
# 5 27.5259 17.5935 31.8763 -0.0001 29.7115 -0.0002
# 6 -0.0002 0.0000 0.0000 11.1356 -0.0002 23.2229
#
#
#
# Elastic Compliance Matrix: (Units=1/GPa)
#
#
# Indices 1 2 3 4 5 6 
#
# 1 0.025025 -0.009922 -0.001797 0.000000 -0.015381 0.000000
# 2 -0.009922 0.012139 0.001144 0.000000 0.000776 0.000000
# 3 -0.001797 0.001144 0.028505 0.000000 -0.029594 0.000000
# 4 0.000000 0.000000 0.000000 0.048963 0.000000 -0.023478
# 5 -0.015381 0.000776 -0.029594 0.000000 0.079198 0.000000
# 6 0.000000 0.000000 0.000000 -0.023478 0.000000 0.054319
#
#
# Mechanical properties :
#
#
# Convention : Reuss Voigt Hill
#
# Bulk Modulus (GPa) = 22.46191 56.92376 39.69283
# Shear Modulus (GPa) = 17.59722 27.31940 22.45831
#
# Velocity S-wave (km/s) = 3.04625 3.79559 3.44138
# Velocity P-wave (km/s) = 4.92116 7.01616 6.05988
#
# Compressibility (1/GPa) = 0.04451981
#
# Stress axis : x y z
#
# Youngs Moduli (GPa) = 39.96038 82.37978 35.08208
#
# Poissons Ratio (x) = 0.81735 0.06303
# Poissons Ratio (y) = 0.39648 -0.04014
# Poissons Ratio (z) = 0.07179 -0.09425
#
# Static dielectric constant tensor:
#      x y z
#    x 2.951130 0.000000 -0.086660 
#    y 0.000000 3.635620 0.000000 
#    z -0.086660 0.000000 1.901670 
# 
# 
# High freq. dielectric constant tensor:
#      x y z
#    x 1.701340 0.000000 0.043870 
#    y 0.000000 1.759310 0.000000 
#    z 0.043870 0.000000 1.718990 
# 
# From -- ./inp_files/166110.got.cif
#   From: 2010.06.25/outbox.cif.g09.slc.cpg/sg15_84_cif.got.tgz:166110.got - 2010.06.28 07:06:18.
