data_PCOD8130475
_publ_section_title
;
Structure prediction by ZEFSAII (Michael W. Deem and Ramdas Pophale) SiO2 
 PCOD8130475
Probable space group: C 2/C
;
_chemical_formula_sum "Si O2"
_cell_formula_units_Z 48
_cell_length_a 26.725169
_cell_length_b 13.270402
_cell_length_c 13.562826
_cell_angle_alpha 90.000000
_cell_angle_beta 148.358273
_cell_angle_gamma 90.000000
_cell_volume 2523.411222
_symmetry_space_group_name_H-M "C 2/C"
_symmetry_group_IT_number 15
_symmetry_cell_setting 'monoclinic'
loop_
_space_group_symop_operation_xyz
x,y,z
-x,y,1/2-z
-x,-y,-z
x,-y,1/2+z
1/2+x,1/2+y,z
1/2-x,1/2+y,1/2-z
1/2-x,1/2-y,-z
1/2+x,1/2-y,1/2+z
loop_
_atom_site_type_symbol
_atom_site_label
_atom_site_fract_x
_atom_site_fract_y
_atom_site_fract_z
Si Si1 0.500000 0.407236 0.250000
Si Si2 0.892684 0.727869 0.441668
Si Si3 0.858387 0.065301 0.223019
Si Si4 0.500000 0.093754 0.750000
Si Si5 0.656070 0.570330 0.529288
Si Si6 0.953174 0.852854 0.378272
Si Si7 0.703820 0.943864 0.624002
O O1 0.583292 0.479044 0.431503
O O2 0.465432 0.336337 0.281537
O O3 0.885125 0.829702 0.491965
O O4 0.900042 0.756512 0.338081
O O5 0.802772 0.654191 0.313998
O O6 0.988301 0.667726 0.635247
O O7 0.767727 0.088042 0.138563
O O8 0.945194 0.137978 0.397378
O O9 0.888464 0.950014 0.289696
O O10 0.829091 0.086640 0.061586
O O11 0.402760 0.027750 0.595983
O O12 0.755928 0.538713 0.747520
#
# Coordination Sequence:
#
# PCOD8130475 Si02
#       7
#     4   8   8   4   8   8   8
#     4  10  19  30  60  91 120 146 191 252 302 355
#     4  10  19  35  58  84 118 156 197 239 293 347
#     4  10  19  32  60  87 119 152 194 249 298 349
#     4   8  21  36  58  85 120 152 203 246 274 353
#     4  11  19  35  60  89 119 152 194 251 303 340
#     4  10  17  33  58  91 116 150 190 249 305 339
#     4  10  21  38  55  91 118 157 201 243 289 360
#
# _framework density 19.02187
#
# number of rings (size 3 to 8) (size 9 to 14) (size 15 to 20)
#    1.000    1.000    3.333    3.500    0.000    0.667 
#    0.000    4.167    0.000    1.000    0.000    0.000 
#    0.000    0.000    0.000    0.000    0.000    0.000 
#
# Total GULP energy -297400.796094 kJ/mol
# GULP energy per Si atom -12391.699837 kJ/mol
# Density = 1.897858 g / cm^3
# Si number density = 19.021870 Si / 1000 Ang^3
#
#
#
# Elastic Constant Matrix: (Units=GPa)
#
#
# Indices 1 2 3 4 5 6 
#
# 1 126.6616 23.7535 36.5438 0.0000 4.5945 0.0000
# 2 23.7535 17.7027 26.4730 0.0000 -0.7091 0.0000
# 3 36.5438 26.4730 98.2894 0.0000 10.5671 0.0000
# 4 0.0000 0.0000 0.0000 21.4610 0.0000 -1.0287
# 5 4.5945 -0.7091 10.5671 0.0000 26.7275 0.0000
# 6 0.0000 0.0000 0.0000 -1.0287 0.0000 29.5354
#
#
#
# Elastic Compliance Matrix: (Units=1/GPa)
#
#
# Indices 1 2 3 4 5 6 
#
# 1 0.010684 -0.014844 0.000277 0.000000 -0.002340 0.000000
# 2 -0.014844 0.119844 -0.028591 0.000000 0.017035 0.000000
# 3 0.000277 -0.028591 0.018651 0.000000 -0.008180 0.000000
# 4 0.000000 0.000000 0.000000 0.046674 0.000000 0.001626
# 5 -0.002340 0.017035 -0.008180 0.000000 0.041503 0.000000
# 6 0.000000 0.000000 0.000000 0.001626 0.000000 0.033914
#
#
# Mechanical properties :
#
#
# Convention : Reuss Voigt Hill
#
# Bulk Modulus (GPa) = 15.90743 46.24379 31.07561
# Shear Modulus (GPa) = 13.20868 25.93701 19.57285
#
# Velocity S-wave (km/s) = 2.63800 3.69662 3.21123
# Velocity P-wave (km/s) = 4.20233 6.52561 5.48831
#
# Compressibility (1/GPa) = 0.06286370
#
# Stress axis : x y z
#
# Youngs Moduli (GPa) = 93.60104 8.34419 53.61674
#
# Poissons Ratio (x) = 0.12386 -0.01488
# Poissons Ratio (y) = 1.38941 1.53295
# Poissons Ratio (z) = -0.02597 0.23857
#
# Static dielectric constant tensor:
#      x y z
#    x 3.575500 0.000000 -0.057940 
#    y 0.000000 3.077290 0.000000 
#    z -0.057940 0.000000 3.405120 
# 
# 
# High freq. dielectric constant tensor:
#      x y z
#    x 1.745940 0.000000 -0.005670 
#    y 0.000000 1.696240 0.000000 
#    z -0.005670 0.000000 1.729450 
# 
# From -- ./inp_files/178142.got.cif
#   From: 2010.06.25/outbox.cif.g09.slc.cpg/sg15_90_cif.got.tgz:178142.got - 2010.06.28 07:06:18.
