data_PCOD8130501
_publ_section_title
;
Structure prediction by ZEFSAII (Michael W. Deem and Ramdas Pophale) SiO2 
 PCOD8130501
Probable space group: C 2/C
;
_chemical_formula_sum "Si O2"
_cell_formula_units_Z 56
_cell_length_a 21.694881
_cell_length_b 10.310188
_cell_length_c 14.783228
_cell_angle_alpha 90.000000
_cell_angle_beta 106.500900
_cell_angle_gamma 90.000000
_cell_volume 3170.502320
_symmetry_space_group_name_H-M "C 2/C"
_symmetry_group_IT_number 15
_symmetry_cell_setting 'monoclinic'
loop_
_space_group_symop_operation_xyz
x,y,z
-x,y,1/2-z
-x,-y,-z
x,-y,1/2+z
1/2+x,1/2+y,z
1/2-x,1/2+y,1/2-z
1/2-x,1/2-y,-z
1/2+x,1/2-y,1/2+z
loop_
_atom_site_type_symbol
_atom_site_label
_atom_site_fract_x
_atom_site_fract_y
_atom_site_fract_z
Si Si1 0.558668 0.107221 0.600426
Si Si2 0.792368 0.247370 0.806343
Si Si3 0.132279 0.572509 0.266081
Si Si4 0.731913 0.494446 0.099936
Si Si5 0.429567 0.012190 0.582480
Si Si6 0.700684 0.034902 0.047662
Si Si7 0.821568 0.738450 0.871761
O O1 0.548139 0.083945 0.488551
O O2 0.603110 0.235879 0.629272
O O3 0.601266 0.993564 0.664761
O O4 0.488880 0.114742 0.620244
O O5 0.849046 0.279830 0.757019
O O6 0.810017 0.119475 0.870644
O O7 0.781155 0.376491 0.860833
O O8 0.724010 0.222104 0.732617
O O9 0.199595 0.506520 0.321678
O O10 0.082769 0.568333 0.329734
O O11 0.691371 0.626748 0.083260
O O12 0.741534 0.454929 0.999777
O O13 0.365080 0.087828 0.526532
O O14 0.690053 0.883182 0.066165
#
# Coordination Sequence:
#
# PCOD8130501 Si02
#       7
#     8   8   8   8   8   8   8
#     4  10  17  34  50  76 104 129 181 219 258 305
#     4  11  18  32  50  75 113 139 170 220 269 319
#     4  10  18  32  49  77 106 134 177 215 262 308
#     4  10  20  30  51  77 109 144 167 213 276 322
#     4   9  19  30  54  78  98 135 176 232 257 291
#     4  10  19  34  50  78 106 135 187 217 260 317
#     4  10  18  32  49  74 108 142 170 215 266 320
#
# _framework density 17.662815999999999
#
# number of rings (size 3 to 8) (size 9 to 14) (size 15 to 20)
#    0.000    2.000    4.286    2.143    0.000    1.143 
#    0.000    0.000    0.000    0.857    0.000    2.000 
#    0.000    0.000    0.000    0.000    0.000    0.000 
#
# Total GULP energy -346870.185930 kJ/mol
# GULP energy per Si atom -12388.220926 kJ/mol
# Density = 1.762261 g / cm^3
# Si number density = 17.662816 Si / 1000 Ang^3
#
#
#
# Elastic Constant Matrix: (Units=GPa)
#
#
# Indices 1 2 3 4 5 6 
#
# 1 122.6414 46.2072 41.0074 0.0000 -11.6815 0.0000
# 2 46.2072 67.3269 22.5836 0.0000 -11.6004 0.0000
# 3 41.0074 22.5836 67.1881 0.0000 -12.9809 0.0000
# 4 0.0000 0.0000 0.0000 21.1345 0.0000 -3.1188
# 5 -11.6815 -11.6004 -12.9809 0.0000 29.2014 0.0000
# 6 0.0000 0.0000 0.0000 -3.1188 0.0000 26.2511
#
#
#
# Elastic Compliance Matrix: (Units=1/GPa)
#
#
# Indices 1 2 3 4 5 6 
#
# 1 0.012498 -0.006794 -0.005360 0.000000 -0.000082 0.000000
# 2 -0.006794 0.021002 -0.001998 0.000000 0.004737 0.000000
# 3 -0.005360 -0.001998 0.019975 0.000000 0.005941 0.000000
# 4 0.000000 0.000000 0.000000 0.048160 0.000000 0.005722
# 5 -0.000082 0.004737 0.005941 0.000000 0.038735 0.000000
# 6 0.000000 0.000000 0.000000 0.005722 0.000000 0.038773
#
#
# Mechanical properties :
#
#
# Convention : Reuss Voigt Hill
#
# Bulk Modulus (GPa) = 39.72780 52.97253 46.35017
# Shear Modulus (GPa) = 23.16569 25.14130 24.15349
#
# Velocity S-wave (km/s) = 3.62546 3.77689 3.70195
# Velocity P-wave (km/s) = 6.32981 7.00543 6.67617
#
# Compressibility (1/GPa) = 0.02517129
#
# Stress axis : x y z
#
# Youngs Moduli (GPa) = 80.01303 47.61514 50.06382
#
# Poissons Ratio (x) = 0.32348 0.26836
# Poissons Ratio (y) = 0.54358 0.10000
# Poissons Ratio (z) = 0.42890 0.09511
#
# Static dielectric constant tensor:
#      x y z
#    x 3.581610 0.000000 -0.100990 
#    y 0.000000 3.061530 0.000000 
#    z -0.100990 0.000000 3.415430 
# 
# 
# High freq. dielectric constant tensor:
#      x y z
#    x 1.674070 0.000000 -0.011780 
#    y 0.000000 1.638030 0.000000 
#    z -0.011780 0.000000 1.696480 
# 
# From -- ./inp_files/167297.got.cif
#   From: 2010.06.25/outbox.cif.g09.slc.cpg/sg15_84_cif.got.tgz:167297.got - 2010.06.28 07:06:18.
