data_PCOD8130716
_publ_section_title
;
Structure prediction by ZEFSAII (Michael W. Deem and Ramdas Pophale) SiO2 
 PCOD8130716
Probable space group: C 2/C
;
_chemical_formula_sum "Si O2"
_cell_formula_units_Z 40
_cell_length_a 8.272130
_cell_length_b 12.373068
_cell_length_c 24.514612
_cell_angle_alpha 90.000000
_cell_angle_beta 132.292529
_cell_angle_gamma 90.000000
_cell_volume 1856.036265
_symmetry_space_group_name_H-M "C 2/C"
_symmetry_group_IT_number 15
_symmetry_cell_setting 'monoclinic'
loop_
_space_group_symop_operation_xyz
x,y,z
-x,y,1/2-z
-x,-y,-z
x,-y,1/2+z
1/2+x,1/2+y,z
1/2-x,1/2+y,1/2-z
1/2-x,1/2-y,-z
1/2+x,1/2-y,1/2+z
loop_
_atom_site_type_symbol
_atom_site_label
_atom_site_fract_x
_atom_site_fract_y
_atom_site_fract_z
Si Si1 0.158107 0.254237 0.065560
Si Si2 0.423776 0.801017 0.900141
Si Si3 0.960430 0.958835 0.551399
Si Si4 0.664511 0.901064 0.334576
Si Si5 0.011137 0.539828 0.586666
O O1 0.403262 0.215141 0.109550
O O2 0.035696 0.165335 0.075244
O O3 0.168306 0.366088 0.100831
O O4 0.025509 0.262716 0.979797
O O5 0.210380 0.727649 0.841536
O O6 0.356434 0.927132 0.885694
O O7 0.699726 0.969486 0.502329
O O8 0.000000 0.000000 0.500000
O O9 0.104210 0.036207 0.623202
O O10 0.500000 0.935978 0.250000
O O11 0.561739 0.933836 0.368756
#
# Coordination Sequence:
#
# PCOD8130716 Si02
#       5
#     8   8   8   8   8
#     4  11  20  37  68  96 124 150 201 265 309 357
#     4  11  21  39  61  94 125 154 199 261 309 355
#     4  10  17  38  66  87 122 159 200 249 308 359
#     4  11  24  44  60  84 129 169 204 252 306 367
#     4  11  22  41  64  96 120 158 210 253 309 365
#
# _framework density 21.551303000000001
#
# number of rings (size 3 to 8) (size 9 to 14) (size 15 to 20)
#    0.000    1.200    8.000    2.400    0.000    0.000 
#    3.600    1.000    0.000    0.000    0.000    0.000 
#    0.000    0.000    0.000    0.000    0.000    0.000 
#
# Total GULP energy -248005.924705 kJ/mol
# GULP energy per Si atom -12400.296235 kJ/mol
# Density = 2.150225 g / cm^3
# Si number density = 21.551303 Si / 1000 Ang^3
#
#
#
# Elastic Constant Matrix: (Units=GPa)
#
#
# Indices 1 2 3 4 5 6 
#
# 1 18.5720 22.3837 12.5446 0.0000 -2.8149 0.0000
# 2 22.3837 184.3931 30.6313 0.0000 5.1837 0.0000
# 3 12.5446 30.6313 93.6458 0.0000 3.5428 0.0000
# 4 0.0000 0.0000 0.0000 20.0981 0.0000 6.6135
# 5 -2.8149 5.1837 3.5428 0.0000 9.5264 0.0000
# 6 0.0000 0.0000 0.0000 6.6135 0.0000 45.1535
#
#
#
# Elastic Compliance Matrix: (Units=1/GPa)
#
#
# Indices 1 2 3 4 5 6 
#
# 1 0.074108 -0.008452 -0.008282 0.000000 0.029577 0.000000
# 2 -0.008452 0.006756 -0.000856 0.000000 -0.005855 0.000000
# 3 -0.008282 -0.000856 0.012316 0.000000 -0.006562 0.000000
# 4 0.000000 0.000000 0.000000 0.052275 0.000000 -0.007657
# 5 0.029577 -0.005855 -0.006562 0.000000 0.119337 0.000000
# 6 0.000000 0.000000 0.000000 -0.007657 0.000000 0.023268
#
#
# Mechanical properties :
#
#
# Convention : Reuss Voigt Hill
#
# Bulk Modulus (GPa) = 17.24116 47.52557 32.38336
# Shear Modulus (GPa) = 14.59539 30.35902 22.47721
#
# Velocity S-wave (km/s) = 2.60521 3.75732 3.23300
# Velocity P-wave (km/s) = 4.13121 6.39714 5.38471
#
# Compressibility (1/GPa) = 0.05800075
#
# Stress axis : x y z
#
# Youngs Moduli (GPa) = 13.49385 148.01685 81.19362
#
# Poissons Ratio (x) = 1.25100 0.67243
# Poissons Ratio (y) = 0.11405 0.06952
# Poissons Ratio (z) = 0.11175 0.12673
#
# Static dielectric constant tensor:
#      x y z
#    x 3.974840 0.000000 0.221770 
#    y 0.000000 4.331110 0.000000 
#    z 0.221770 0.000000 3.624180 
# 
# 
# High freq. dielectric constant tensor:
#      x y z
#    x 1.836800 0.000000 0.000580 
#    y 0.000000 1.870910 0.000000 
#    z 0.000580 0.000000 1.784750 
# 
# From -- ./inp_files/187787.got.cif
#   From: 2010.06.25/outbox.cif.g09.slc.cpg/sg15_94_cif.got.tgz:187787.got - 2010.06.28 07:06:18.
