data_PCOD8130867
_publ_section_title
;
Structure prediction by ZEFSAII (Michael W. Deem and Ramdas Pophale) SiO2 
 PCOD8130867
Probable space group: C 2/C
;
_chemical_formula_sum "Si O2"
_cell_formula_units_Z 48
_cell_length_a 29.358975
_cell_length_b 16.138768
_cell_length_c 12.200770
_cell_angle_alpha 90.000000
_cell_angle_beta 26.051551
_cell_angle_gamma 90.000000
_cell_volume 2538.871448
_symmetry_space_group_name_H-M "C 2/C"
_symmetry_group_IT_number 15
_symmetry_cell_setting 'monoclinic'
loop_
_space_group_symop_operation_xyz
x,y,z
-x,y,1/2-z
-x,-y,-z
x,-y,1/2+z
1/2+x,1/2+y,z
1/2-x,1/2+y,1/2-z
1/2-x,1/2-y,-z
1/2+x,1/2-y,1/2+z
loop_
_atom_site_type_symbol
_atom_site_label
_atom_site_fract_x
_atom_site_fract_y
_atom_site_fract_z
Si Si1 0.314959 0.934654 0.270718
Si Si2 0.157160 0.378607 0.041735
Si Si3 0.670753 0.434475 0.985507
Si Si4 0.000000 0.510226 0.750000
Si Si5 0.000000 0.049880 0.250000
Si Si6 0.822345 0.206196 0.430575
Si Si7 0.513170 0.401756 0.490296
O O1 0.323745 0.915986 0.379910
O O2 0.253490 0.858870 0.342377
O O3 0.247403 0.016567 0.400429
O O4 0.427766 0.948178 0.975097
O O5 0.262999 0.382223 0.743602
O O6 0.128215 0.280368 0.104027
O O7 0.064307 0.430700 0.190989
O O8 0.597003 0.494222 0.074945
O O9 0.605049 0.373850 0.208994
O O10 0.964833 0.109386 0.427044
O O11 0.750000 0.250000 0.500000
O O12 0.912678 0.152578 0.176604
O O13 0.500000 0.500000 0.500000
#
# Coordination Sequence:
#
# PCOD8130867 Si02
#       7
#     8   8   8   4   4   8   8
#     4  10  19  40  58  86 112 156 196 233 276 354
#     4  10  22  38  59  84 122 150 185 249 295 330
#     4  10  20  33  60  89 114 149 202 232 281 348
#     4  10  22  39  65  82 108 164 202 226 274 359
#     4  10  18  29  59  84 112 148 190 244 270 327
#     4  10  21  37  56  84 123 149 182 245 297 329
#     4  10  19  35  57  89 114 152 195 232 287 347
#
# _framework density 18.906037999999999
#
# number of rings (size 3 to 8) (size 9 to 14) (size 15 to 20)
#    0.000    2.000    3.333    1.500    7.000    0.667 
#    6.000    0.000    0.000    3.000    0.000    0.000 
#    0.000    0.000    0.000    0.000    0.000    0.000 
#
# Total GULP energy -297341.161392 kJ/mol
# GULP energy per Si atom -12389.215058 kJ/mol
# Density = 1.886301 g / cm^3
# Si number density = 18.906038 Si / 1000 Ang^3
#
#
#
# Elastic Constant Matrix: (Units=GPa)
#
#
# Indices 1 2 3 4 5 6 
#
# 1 86.5448 28.9186 48.6177 0.0000 10.7765 0.0000
# 2 28.9186 99.3168 69.8973 0.0000 7.9933 0.0000
# 3 48.6177 69.8973 177.2813 0.0000 10.7887 0.0000
# 4 0.0000 0.0000 0.0000 33.3122 0.0000 -10.7387
# 5 10.7765 7.9933 10.7887 0.0000 28.5390 0.0000
# 6 0.0000 0.0000 0.0000 -10.7387 0.0000 14.4130
#
#
#
# Elastic Compliance Matrix: (Units=1/GPa)
#
#
# Indices 1 2 3 4 5 6 
#
# 1 0.014294 -0.001746 -0.003002 0.000000 -0.003774 0.000000
# 2 -0.001746 0.014247 -0.005052 0.000000 -0.001421 0.000000
# 3 -0.003002 -0.005052 0.008496 0.000000 -0.000663 0.000000
# 4 0.000000 0.000000 0.000000 0.039508 0.000000 0.029437
# 5 -0.003774 -0.001421 -0.000663 0.000000 0.037114 0.000000
# 6 0.000000 0.000000 0.000000 0.029437 0.000000 0.091314
#
#
# Mechanical properties :
#
#
# Convention : Reuss Voigt Hill
#
# Bulk Modulus (GPa) = 57.34552 73.11223 65.22887
# Shear Modulus (GPa) = 21.70267 29.63345 25.66806
#
# Velocity S-wave (km/s) = 3.39178 3.96334 3.68865
# Velocity P-wave (km/s) = 6.76288 7.72654 7.26072
#
# Compressibility (1/GPa) = 0.01743815
#
# Stress axis : x y z
#
# Youngs Moduli (GPa) = 69.95728 70.19056 117.69819
#
# Poissons Ratio (x) = 0.12252 0.35336
# Poissons Ratio (y) = 0.12211 0.59461
# Poissons Ratio (z) = 0.21003 0.35460
#
# Static dielectric constant tensor:
#      x y z
#    x 4.051900 0.000000 0.185450 
#    y 0.000000 3.804810 0.000000 
#    z 0.185450 0.000000 3.880080 
# 
# 
# High freq. dielectric constant tensor:
#      x y z
#    x 1.732770 0.000000 -0.003620 
#    y 0.000000 1.715830 0.000000 
#    z -0.003620 0.000000 1.742300 
# 
# From -- ./inp_files/123772.got.cif
#   From: 2010.06.25/outbox.cif.g09.slc.cpg/sg15_62_cif.got.tgz:123772.got - 2010.06.28 07:06:18.
