data_PCOD8130553
_publ_section_title
;
Structure prediction by ZEFSAII (Michael W. Deem and Ramdas Pophale) SiO2 
 PCOD8130553
Probable space group: C 2/C
;
_chemical_formula_sum "Si O2"
_cell_formula_units_Z 48
_cell_length_a 26.835317
_cell_length_b 10.243269
_cell_length_c 21.546514
_cell_angle_alpha 90.000000
_cell_angle_beta 160.714272
_cell_angle_gamma 90.000000
_cell_volume 1956.156798
_symmetry_space_group_name_H-M "C 2/C"
_symmetry_group_IT_number 15
_symmetry_cell_setting 'monoclinic'
loop_
_space_group_symop_operation_xyz
x,y,z
-x,y,1/2-z
-x,-y,-z
x,-y,1/2+z
1/2+x,1/2+y,z
1/2-x,1/2+y,1/2-z
1/2-x,1/2-y,-z
1/2+x,1/2-y,1/2+z
loop_
_atom_site_type_symbol
_atom_site_label
_atom_site_fract_x
_atom_site_fract_y
_atom_site_fract_z
Si Si1 0.875437 0.975780 0.056194
Si Si2 0.166839 0.451921 0.405589
Si Si3 0.799467 0.417160 0.433246
Si Si4 0.099188 0.881602 0.641919
Si Si5 0.474328 0.289227 0.069251
Si Si6 0.459763 0.295552 0.794587
O O1 0.887317 0.900607 0.005646
O O2 0.000000 0.918731 0.250000
O O3 0.713466 0.962144 0.899687
O O4 0.895933 0.131069 0.065275
O O5 0.117440 0.544564 0.404549
O O6 0.315997 0.377407 0.603531
O O7 0.037960 0.350631 0.231152
O O8 0.756546 0.550697 0.346624
O O9 0.653252 0.323347 0.274066
O O10 0.935220 0.347636 0.555934
O O11 0.108273 0.781663 0.595056
O O12 0.029340 0.801534 0.617746
O O13 0.000000 0.000000 0.500000
#
# Coordination Sequence:
#
# PCOD8130553 Si02
#       6
#     8   8   8   8   8   8
#     4  10  17  34  59  84 118 165 205 251 331 381
#     4   9  18  33  58  88 121 157 212 265 318 378
#     4  10  21  39  63  91 128 169 216 267 323 389
#     4   9  17  36  58  90 121 167 216 251 322 394
#     4  11  21  38  65  88 127 175 210 264 322 396
#     4   9  16  32  60  84 120 156 206 267 316 379
#
# _framework density 24.53791
#
# number of rings (size 3 to 8) (size 9 to 14) (size 15 to 20)
#    0.000    2.333    6.667    0.000    0.000    2.000 
#    0.000    0.833   25.667    0.000    0.000    0.000 
#    0.000    0.000    0.000    0.000    0.000    0.000 
#
# Total GULP energy -297373.419902 kJ/mol
# GULP energy per Si atom -12390.559163 kJ/mol
# Density = 2.448206 g / cm^3
# Si number density = 24.537910 Si / 1000 Ang^3
#
#
#
# Elastic Constant Matrix: (Units=GPa)
#
#
# Indices 1 2 3 4 5 6 
#
# 1 158.9963 46.3632 51.5700 0.0005 -43.4734 0.0006
# 2 46.3632 62.9227 26.0142 0.0002 -9.7707 0.0003
# 3 51.5700 26.0142 86.2880 0.0005 -13.8621 0.0007
# 4 0.0005 0.0002 0.0005 26.6500 0.0004 -3.7229
# 5 -43.4734 -9.7707 -13.8621 0.0004 26.9582 0.0005
# 6 0.0006 0.0003 0.0007 -3.7229 0.0005 52.5681
#
#
#
# Elastic Compliance Matrix: (Units=1/GPa)
#
#
# Indices 1 2 3 4 5 6 
#
# 1 0.014621 -0.006211 -0.003749 -0.000001 0.019399 0.000000
# 2 -0.006211 0.021220 -0.003335 0.000000 -0.004039 0.000000
# 3 -0.003749 -0.003335 0.014901 0.000000 0.000407 0.000000
# 4 -0.000001 0.000000 0.000000 0.037898 -0.000002 0.002684
# 5 0.019399 -0.004039 0.000407 -0.000002 0.067122 -0.000001
# 6 0.000000 0.000000 0.000000 0.002684 -0.000001 0.019213
#
#
# Mechanical properties :
#
#
# Convention : Reuss Voigt Hill
#
# Bulk Modulus (GPa) = 41.40360 61.78909 51.59634
# Shear Modulus (GPa) = 23.85330 33.51923 28.68627
#
# Velocity S-wave (km/s) = 3.12123 3.69998 3.42286
# Velocity P-wave (km/s) = 5.46804 6.59461 6.05757
#
# Compressibility (1/GPa) = 0.02415249
#
# Stress axis : x y z
#
# Youngs Moduli (GPa) = 68.39706 47.12522 67.11145
#
# Poissons Ratio (x) = 0.29267 0.25162
# Poissons Ratio (y) = 0.42478 0.22379
# Poissons Ratio (z) = 0.25644 0.15714
#
# Static dielectric constant tensor:
#      x y z
#    x 5.108730 0.000000 -0.453110 
#    y 0.000000 4.317870 0.000000 
#    z -0.453110 0.000000 4.488390 
# 
# 
# High freq. dielectric constant tensor:
#      x y z
#    x 1.995210 0.000000 -0.010300 
#    y 0.000000 1.953610 0.000000 
#    z -0.010300 0.000000 1.956970 
# 
# From -- ./inp_files/257231.got.cif
#   From: 2010.06.25/outbox.cif.g09.slc.cpg/sg15_129_cif.got.tgz:257231.got - 2010.06.28 07:06:18.
