data_PCOD8130024
_publ_section_title
;
Structure prediction by ZEFSAII (Michael W. Deem and Ramdas Pophale) SiO2 
 PCOD8130024
Probable space group: C 2/C
;
_chemical_formula_sum "Si O2"
_cell_formula_units_Z 52
_cell_length_a 22.204523
_cell_length_b 8.058407
_cell_length_c 13.753051
_cell_angle_alpha 90.000000
_cell_angle_beta 111.946921
_cell_angle_gamma 90.000000
_cell_volume 2282.537367
_symmetry_space_group_name_H-M "C 2/C"
_symmetry_group_IT_number 15
_symmetry_cell_setting 'monoclinic'
loop_
_space_group_symop_operation_xyz
x,y,z
-x,y,1/2-z
-x,-y,-z
x,-y,1/2+z
1/2+x,1/2+y,z
1/2-x,1/2+y,1/2-z
1/2-x,1/2-y,-z
1/2+x,1/2-y,1/2+z
loop_
_atom_site_type_symbol
_atom_site_label
_atom_site_fract_x
_atom_site_fract_y
_atom_site_fract_z
Si Si1 0.706116 0.581065 0.257886
Si Si2 0.891764 0.350074 0.601126
Si Si3 0.527951 0.950934 0.617517
Si Si4 0.778232 0.299509 0.410876
Si Si5 0.591343 0.362536 0.207310
Si Si6 0.500000 0.598025 0.250000
Si Si7 0.888307 0.673127 0.699770
O O1 0.756424 0.478861 0.355582
O O2 0.738521 0.658850 0.180009
O O3 0.648937 0.458775 0.188303
O O4 0.674875 0.729753 0.301547
O O5 0.856486 0.309230 0.477389
O O6 0.881209 0.199728 0.670845
O O7 0.859964 0.523001 0.619021
O O8 0.968365 0.387301 0.647500
O O9 0.575211 0.794495 0.631108
O O10 0.500000 0.000000 0.500000
O O11 0.567567 0.103872 0.685161
O O12 0.750000 0.250000 0.500000
O O13 0.528630 0.482061 0.181310
O O14 0.561035 0.706697 0.327817
#
# Coordination Sequence:
#
# PCOD8130024 Si02
#       7
#     8   8   8   8   8   4   8
#     4  11  27  47  73 102 137 184 246 297 350 427
#     4  11  21  43  71 100 139 190 229 279 361 413
#     4  11  21  38  65 106 141 183 225 285 355 427
#     4  12  28  51  72 100 143 188 242 300 355 414
#     4  10  20  41  69  97 144 181 228 292 348 418
#     4  10  16  36  64  96 134 172 218 276 348 410
#     4  10  21  41  68 103 136 183 234 285 346 428
#
# _framework density 22.781665
#
# number of rings (size 3 to 8) (size 9 to 14) (size 15 to 20)
#    0.000    1.231    4.615    1.846    2.154    1.846 
#    5.538    2.308    0.000    0.000    0.000    0.000 
#    0.000    0.000    0.000    0.000    0.000    0.000 
#
# Total GULP energy -322216.011133 kJ/mol
# GULP energy per Si atom -12392.923505 kJ/mol
# Density = 2.272981 g / cm^3
# Si number density = 22.781665 Si / 1000 Ang^3
#
#
#
# Elastic Constant Matrix: (Units=GPa)
#
#
# Indices 1 2 3 4 5 6 
#
# 1 61.8848 22.8713 12.2942 0.0000 -8.5513 0.0000
# 2 22.8713 122.8780 37.3089 0.0000 -5.3275 0.0000
# 3 12.2942 37.3089 111.5147 0.0000 3.3942 0.0000
# 4 0.0000 0.0000 0.0000 33.6628 0.0000 1.7272
# 5 -8.5513 -5.3275 3.3942 0.0000 27.3251 0.0000
# 6 0.0000 0.0000 0.0000 1.7272 0.0000 40.3320
#
#
#
# Elastic Compliance Matrix: (Units=1/GPa)
#
#
# Indices 1 2 3 4 5 6 
#
# 1 0.018162 -0.002776 -0.001235 0.000000 0.005296 0.000000
# 2 -0.002776 0.009610 -0.002951 0.000000 0.001372 0.000000
# 3 -0.001235 -0.002951 0.010159 0.000000 -0.002224 0.000000
# 4 0.000000 0.000000 0.000000 0.029772 0.000000 -0.001275
# 5 0.005296 0.001372 -0.002224 0.000000 0.038797 0.000000
# 6 0.000000 0.000000 0.000000 -0.001275 0.000000 0.024849
#
#
# Mechanical properties :
#
#
# Convention : Reuss Voigt Hill
#
# Bulk Modulus (GPa) = 41.65371 49.02515 45.33943
# Shear Modulus (GPa) = 32.62117 35.18421 33.90269
#
# Velocity S-wave (km/s) = 3.78816 3.93416 3.86185
# Velocity P-wave (km/s) = 6.12022 6.49639 6.31111
#
# Compressibility (1/GPa) = 0.02400747
#
# Stress axis : x y z
#
# Youngs Moduli (GPa) = 55.05975 104.05501 98.43949
#
# Poissons Ratio (x) = 0.28886 0.12155
# Poissons Ratio (y) = 0.15285 0.29049
# Poissons Ratio (z) = 0.06799 0.30706
#
# Static dielectric constant tensor:
#      x y z
#    x -11.209260 0.000000 0.064580 
#    y 0.000000 4.153410 0.000000 
#    z 0.064580 0.000000 3.807310 
# 
# 
# High freq. dielectric constant tensor:
#      x y z
#    x 1.898240 0.000000 0.016880 
#    y 0.000000 1.920110 0.000000 
#    z 0.016880 0.000000 1.865970 
# 
# From -- ./inp_files/172054.got.cif
#   From: 2010.06.25/outbox.cif.g09.slc.cpg/sg15_87_cif.got.tgz:172054.got - 2010.06.28 07:06:18.
