data_PCOD8130504
_publ_section_title
;
Structure prediction by ZEFSAII (Michael W. Deem and Ramdas Pophale) SiO2 
 PCOD8130504
Probable space group: C 2/C
;
_chemical_formula_sum "Si O2"
_cell_formula_units_Z 44
_cell_length_a 12.353563
_cell_length_b 19.003227
_cell_length_c 9.036882
_cell_angle_alpha 90.000000
_cell_angle_beta 85.955930
_cell_angle_gamma 90.000000
_cell_volume 2116.194124
_symmetry_space_group_name_H-M "C 2/C"
_symmetry_group_IT_number 15
_symmetry_cell_setting 'monoclinic'
loop_
_space_group_symop_operation_xyz
x,y,z
-x,y,1/2-z
-x,-y,-z
x,-y,1/2+z
1/2+x,1/2+y,z
1/2-x,1/2+y,1/2-z
1/2-x,1/2-y,-z
1/2+x,1/2-y,1/2+z
loop_
_atom_site_type_symbol
_atom_site_label
_atom_site_fract_x
_atom_site_fract_y
_atom_site_fract_z
Si Si1 0.057402 0.747497 0.966678
Si Si2 0.794848 0.858097 0.103636
Si Si3 0.098565 0.543570 0.627582
Si Si4 0.455455 0.894628 0.906233
Si Si5 0.662404 0.275500 0.664904
Si Si6 0.000000 0.166797 0.750000
O O1 0.131760 0.788428 0.839697
O O2 0.936410 0.738748 0.913986
O O3 0.099898 0.667496 0.992402
O O4 0.061637 0.787994 0.120127
O O5 0.708314 0.916296 0.161646
O O6 0.762209 0.778876 0.155557
O O7 0.907383 0.879022 0.175256
O O8 0.810592 0.849553 0.922260
O O9 0.126623 0.460024 0.614834
O O10 0.000000 0.558643 0.750000
O O11 0.061784 0.571850 0.472362
O O12 0.500000 0.860982 0.750000
#
# Coordination Sequence:
#
# PCOD8130504 Si02
#       6
#     8   8   8   8   8   4
#     4  10  17  34  51  85 114 144 192 238 286 344
#     4  10  19  35  50  80 115 157 191 225 287 348
#     4  10  20  35  55  82 116 155 186 234 296 340
#     4  10  19  30  54  86 114 141 187 242 288 339
#     4   9  19  30  56  74 112 159 181 232 295 334
#     4  10  22  32  54  82 118 156 188 234 274 348
#
# _framework density 20.792041999999999
#
# number of rings (size 3 to 8) (size 9 to 14) (size 15 to 20)
#    0.000    2.182    2.727    1.091    0.000    0.727 
#    0.000    1.818    0.000    0.000    0.000   20.364 
#    2.727    0.000    0.000   23.455    0.000    0.000 
#
# Total GULP energy -272599.472301 kJ/mol
# GULP energy per Si atom -12390.885105 kJ/mol
# Density = 2.074472 g / cm^3
# Si number density = 20.792042 Si / 1000 Ang^3
#
#
#
# Elastic Constant Matrix: (Units=GPa)
#
#
# Indices 1 2 3 4 5 6 
#
# 1 97.0022 42.5338 34.2045 0.0000 -3.2976 0.0000
# 2 42.5338 78.5359 29.1838 0.0000 -6.5449 0.0000
# 3 34.2045 29.1838 124.8779 0.0000 -23.1367 0.0000
# 4 0.0000 0.0000 0.0000 15.5016 0.0000 2.4524
# 5 -3.2976 -6.5449 -23.1367 0.0000 33.7940 0.0000
# 6 0.0000 0.0000 0.0000 2.4524 0.0000 11.2808
#
#
#
# Elastic Compliance Matrix: (Units=1/GPa)
#
#
# Indices 1 2 3 4 5 6 
#
# 1 0.014172 -0.006853 -0.002600 0.000000 -0.001724 0.000000
# 2 -0.006853 0.017266 -0.001904 0.000000 0.001372 0.000000
# 3 -0.002600 -0.001904 0.010364 0.000000 0.006473 0.000000
# 4 0.000000 0.000000 0.000000 0.066807 0.000000 -0.014524
# 5 -0.001724 0.001372 0.006473 0.000000 0.034120 0.000000
# 6 0.000000 0.000000 0.000000 -0.014524 0.000000 0.091803
#
#
# Mechanical properties :
#
#
# Convention : Reuss Voigt Hill
#
# Bulk Modulus (GPa) = 52.38520 56.91781 54.65150
# Shear Modulus (GPa) = 18.96742 25.08153 22.02447
#
# Velocity S-wave (km/s) = 3.02361 3.47696 3.25818
# Velocity P-wave (km/s) = 6.11876 6.59949 6.36366
#
# Compressibility (1/GPa) = 0.01908936
#
# Stress axis : x y z
#
# Youngs Moduli (GPa) = 70.56141 57.91625 96.48630
#
# Poissons Ratio (x) = 0.39690 0.25083
# Poissons Ratio (y) = 0.48356 0.18370
# Poissons Ratio (z) = 0.18344 0.11027
#
# Static dielectric constant tensor:
#      x y z
#    x 3.557340 0.000000 -0.095480 
#    y 0.000000 3.440750 0.000000 
#    z -0.095480 0.000000 4.070120 
# 
# 
# High freq. dielectric constant tensor:
#      x y z
#    x 1.784260 0.000000 -0.004840 
#    y 0.000000 1.767570 0.000000 
#    z -0.004840 0.000000 1.835290 
# 
# From -- ./inp_files/30920.got.cif
#   From: 2010.06.25/outbox.cif.g09.slc.cpg/sg15_16_cif.got.tgz:30920.got - 2010.06.28 07:06:18.
