data_PCOD8130256
_publ_section_title
;
Structure prediction by ZEFSAII (Michael W. Deem and Ramdas Pophale) SiO2 
 PCOD8130256
Probable space group: C 2/C
;
_chemical_formula_sum "Si O2"
_cell_formula_units_Z 56
_cell_length_a 15.745501
_cell_length_b 11.066157
_cell_length_c 23.106481
_cell_angle_alpha 90.000000
_cell_angle_beta 124.221462
_cell_angle_gamma 90.000000
_cell_volume 3329.080833
_symmetry_space_group_name_H-M "C 2/C"
_symmetry_group_IT_number 15
_symmetry_cell_setting 'monoclinic'
loop_
_space_group_symop_operation_xyz
x,y,z
-x,y,1/2-z
-x,-y,-z
x,-y,1/2+z
1/2+x,1/2+y,z
1/2-x,1/2+y,1/2-z
1/2-x,1/2-y,-z
1/2+x,1/2-y,1/2+z
loop_
_atom_site_type_symbol
_atom_site_label
_atom_site_fract_x
_atom_site_fract_y
_atom_site_fract_z
Si Si1 0.797017 0.248186 0.216852
Si Si2 0.394906 0.391160 0.329564
Si Si3 0.629235 0.363528 0.414698
Si Si4 0.261202 0.879116 0.570794
Si Si5 0.881640 0.005079 0.205578
Si Si6 0.881960 0.485731 0.203869
Si Si7 0.198533 0.874526 0.667207
O O1 0.679922 0.295014 0.167953
O O2 0.874333 0.345456 0.218689
O O3 0.823684 0.230972 0.295238
O O4 0.809402 0.121454 0.188149
O O5 0.510014 0.348172 0.382827
O O6 0.366870 0.405770 0.250611
O O7 0.385583 0.521031 0.356486
O O8 0.666389 0.227500 0.422492
O O9 0.688282 0.425593 0.491242
O O10 0.651425 0.444408 0.367059
O O11 0.191714 0.828788 0.598167
O O12 0.332777 0.990383 0.620948
O O13 0.000000 0.048225 0.250000
O O14 0.813879 0.567686 0.222284
O O15 0.000000 0.527622 0.250000
#
# Coordination Sequence:
#
# PCOD8130256 Si02
#       7
#     8   8   8   8   8   8   8
#     4  10  17  31  50  76  99 118 159 209 247 281
#     4   9  18  30  51  77  93 127 162 204 241 278
#     4  10  19  33  53  67 101 130 168 199 231 289
#     4   9  20  34  50  72  97 132 164 198 241 287
#     4   9  18  31  52  75  94 129 167 200 236 284
#     4   9  19  32  50  71  99 126 157 201 246 293
#     4   8  18  31  48  73  96 121 163 196 243 281
#
# _framework density 16.821460999999999
#
# number of rings (size 3 to 8) (size 9 to 14) (size 15 to 20)
#    0.857    2.000    0.000    1.286    2.000    1.143 
#    0.000    0.714    3.143    1.714    0.000    0.000 
#    0.000    0.000    0.000    0.000    0.000    0.000 
#
# Total GULP energy -346958.219556 kJ/mol
# GULP energy per Si atom -12391.364984 kJ/mol
# Density = 1.678317 g / cm^3
# Si number density = 16.821461 Si / 1000 Ang^3
#
#
#
# Elastic Constant Matrix: (Units=GPa)
#
#
# Indices 1 2 3 4 5 6 
#
# 1 83.0847 27.5915 43.1151 0.0000 1.7940 0.0000
# 2 27.5915 62.5974 39.3924 0.0000 5.2330 0.0000
# 3 43.1151 39.3924 115.2449 0.0000 -3.0431 0.0000
# 4 0.0000 0.0000 0.0000 15.2634 0.0000 -9.4285
# 5 1.7940 5.2330 -3.0431 0.0000 11.4755 0.0000
# 6 0.0000 0.0000 0.0000 -9.4285 0.0000 28.0583
#
#
#
# Elastic Compliance Matrix: (Units=1/GPa)
#
#
# Indices 1 2 3 4 5 6 
#
# 1 0.015764 -0.003879 -0.004623 0.000000 -0.001921 0.000000
# 2 -0.003879 0.022846 -0.006664 0.000000 -0.011579 0.000000
# 3 -0.004623 -0.006664 0.012874 0.000000 0.007175 0.000000
# 4 0.000000 0.000000 0.000000 0.082678 0.000000 0.027783
# 5 -0.001921 -0.011579 0.007175 0.000000 0.094625 0.000000
# 6 0.000000 0.000000 0.000000 0.027783 0.000000 0.044976
#
#
# Mechanical properties :
#
#
# Convention : Reuss Voigt Hill
#
# Bulk Modulus (GPa) = 47.27268 53.45834 50.36551
# Shear Modulus (GPa) = 16.06964 21.01465 18.54215
#
# Velocity S-wave (km/s) = 3.09416 3.53834 3.32368
# Velocity P-wave (km/s) = 6.39755 6.96721 6.68845
#
# Compressibility (1/GPa) = 0.02115387
#
# Stress axis : x y z
#
# Youngs Moduli (GPa) = 63.43435 43.77070 77.67730
#
# Poissons Ratio (x) = 0.16979 0.35907
# Poissons Ratio (y) = 0.24606 0.51762
# Poissons Ratio (z) = 0.29323 0.29168
#
# Static dielectric constant tensor:
#      x y z
#    x 3.284220 0.000000 -0.135990 
#    y 0.000000 2.956110 0.000000 
#    z -0.135990 0.000000 2.988590 
# 
# 
# High freq. dielectric constant tensor:
#      x y z
#    x 1.660730 0.000000 -0.007180 
#    y 0.000000 1.635290 0.000000 
#    z -0.007180 0.000000 1.617300 
# 
# From -- ./inp_files/298628.got.cif
#   From: 2010.06.25/outbox.cif.g09.slc.cpg/sg15_150_cif.got.tgz:298628.got - 2010.06.28 07:06:18.
