data_PCOD8130408
_publ_section_title
;
Structure prediction by ZEFSAII (Michael W. Deem and Ramdas Pophale) SiO2 
 PCOD8130408
Probable space group: C 2/C
;
_chemical_formula_sum "Si O2"
_cell_formula_units_Z 64
_cell_length_a 16.142728
_cell_length_b 12.911592
_cell_length_c 18.109880
_cell_angle_alpha 90.000000
_cell_angle_beta 61.454989
_cell_angle_gamma 90.000000
_cell_volume 3315.777522
_symmetry_space_group_name_H-M "C 2/C"
_symmetry_group_IT_number 15
_symmetry_cell_setting 'monoclinic'
loop_
_space_group_symop_operation_xyz
x,y,z
-x,y,1/2-z
-x,-y,-z
x,-y,1/2+z
1/2+x,1/2+y,z
1/2-x,1/2+y,1/2-z
1/2-x,1/2-y,-z
1/2+x,1/2-y,1/2+z
loop_
_atom_site_type_symbol
_atom_site_label
_atom_site_fract_x
_atom_site_fract_y
_atom_site_fract_z
Si Si1 0.714514 0.141462 0.157290
Si Si2 0.298244 0.795298 0.669308
Si Si3 0.441348 0.378369 0.101200
Si Si4 0.906890 0.540766 0.751938
Si Si5 0.452502 0.943753 0.588239
Si Si6 0.422382 0.386147 0.590660
Si Si7 0.089238 0.220669 0.255146
Si Si8 0.452832 0.780467 0.848873
O O1 0.694431 0.190511 0.245837
O O2 0.824526 0.136231 0.089367
O O3 0.659893 0.211541 0.119092
O O4 0.678613 0.022629 0.175086
O O5 0.340001 0.679659 0.638286
O O6 0.192278 0.821472 0.687209
O O7 0.364128 0.875951 0.597194
O O8 0.422857 0.499046 0.127085
O O9 0.510348 0.329719 0.134793
O O10 0.491079 0.369533 0.000645
O O11 0.912693 0.529635 0.661030
O O12 0.897757 0.660702 0.772248
O O13 0.000000 0.494537 0.750000
O O14 0.500000 0.000000 0.500000
O O15 0.523612 0.867220 0.600237
O O16 0.431199 0.300584 0.650691
O O17 0.000000 0.171524 0.250000
O O18 0.500000 0.804256 0.750000
#
# Coordination Sequence:
#
# PCOD8130408 Si02
#       8
#     8   8   8   8   8   8   8   8
#     4  10  17  36  61  88 111 149 202 249 296 353
#     4   9  19  37  59  82 111 151 197 243 300 353
#     4  10  21  38  58  82 116 160 191 242 313 354
#     4  10  17  32  58  82 109 148 192 236 290 347
#     4  10  19  31  56  90 117 144 183 252 314 348
#     4  10  23  38  55  82 125 157 194 247 301 365
#     4  10  22  37  57  81 113 156 202 235 279 374
#     4  11  18  36  63  89 113 152 205 254 295 360
#
# _framework density 19.301658
#
# number of rings (size 3 to 8) (size 9 to 14) (size 15 to 20)
#    0.000    2.000    5.000    0.750    3.500    1.000 
#    0.000    3.125    0.000    0.000    0.000    0.000 
#    0.000    0.000    0.000    0.000    0.000    0.000 
#
# Total GULP energy -396534.015450 kJ/mol
# GULP energy per Si atom -12391.687983 kJ/mol
# Density = 1.925773 g / cm^3
# Si number density = 19.301658 Si / 1000 Ang^3
#
#
#
# Elastic Constant Matrix: (Units=GPa)
#
#
# Indices 1 2 3 4 5 6 
#
# 1 149.0085 32.2274 23.1642 0.0000 -8.9470 0.0000
# 2 32.2274 62.6283 13.8797 0.0000 2.1329 0.0000
# 3 23.1642 13.8797 47.7328 0.0000 -2.9537 0.0000
# 4 0.0000 0.0000 0.0000 25.2014 0.0000 0.3260
# 5 -8.9470 2.1329 -2.9537 0.0000 22.0828 0.0000
# 6 0.0000 0.0000 0.0000 0.3260 0.0000 27.7524
#
#
#
# Elastic Compliance Matrix: (Units=1/GPa)
#
#
# Indices 1 2 3 4 5 6 
#
# 1 0.008123 -0.003702 -0.002662 0.000000 0.003293 0.000000
# 2 -0.003702 0.018874 -0.003930 0.000000 -0.003849 0.000000
# 3 -0.002662 -0.003930 0.023536 0.000000 0.002449 0.000000
# 4 0.000000 0.000000 0.000000 0.039686 0.000000 -0.000466
# 5 0.003293 -0.003849 0.002449 0.000000 0.047318 0.000000
# 6 0.000000 0.000000 0.000000 -0.000466 0.000000 0.036038
#
#
# Mechanical properties :
#
#
# Convention : Reuss Voigt Hill
#
# Bulk Modulus (GPa) = 33.39362 44.21245 38.80304
# Shear Modulus (GPa) = 24.49233 27.68053 26.08643
#
# Velocity S-wave (km/s) = 3.56606 3.79106 3.68028
# Velocity P-wave (km/s) = 5.85612 6.48989 6.18113
#
# Compressibility (1/GPa) = 0.02994584
#
# Stress axis : x y z
#
# Youngs Moduli (GPa) = 123.10330 52.98201 42.48817
#
# Poissons Ratio (x) = 0.19616 0.11310
# Poissons Ratio (y) = 0.45577 0.16697
# Poissons Ratio (z) = 0.32768 0.20821
#
# Static dielectric constant tensor:
#      x y z
#    x 4.095000 0.000000 -0.131560 
#    y 0.000000 3.527910 0.000000 
#    z -0.131560 0.000000 3.221390 
# 
# 
# High freq. dielectric constant tensor:
#      x y z
#    x 1.753250 0.000000 -0.012940 
#    y 0.000000 1.748820 0.000000 
#    z -0.012940 0.000000 1.726410 
# 
# From -- ./inp_files/248375.got.cif
#   From: 2010.06.25/outbox.cif.g09.slc.cpg/sg15_125_cif.got.tgz:248375.got - 2010.06.28 07:06:18.
