data_PCOD8130733
_publ_section_title
;
Structure prediction by ZEFSAII (Michael W. Deem and Ramdas Pophale) SiO2 
 PCOD8130733
Probable space group: C 2/C
;
_chemical_formula_sum "Si O2"
_cell_formula_units_Z 56
_cell_length_a 28.654461
_cell_length_b 29.208851
_cell_length_c 8.394605
_cell_angle_alpha 90.000000
_cell_angle_beta 149.522593
_cell_angle_gamma 90.000000
_cell_volume 3563.567569
_symmetry_space_group_name_H-M "C 2/C"
_symmetry_group_IT_number 15
_symmetry_cell_setting 'monoclinic'
loop_
_space_group_symop_operation_xyz
x,y,z
-x,y,1/2-z
-x,-y,-z
x,-y,1/2+z
1/2+x,1/2+y,z
1/2-x,1/2+y,1/2-z
1/2-x,1/2-y,-z
1/2+x,1/2-y,1/2+z
loop_
_atom_site_type_symbol
_atom_site_label
_atom_site_fract_x
_atom_site_fract_y
_atom_site_fract_z
Si Si1 0.827166 0.144601 0.179639
Si Si2 0.269036 0.214313 0.419490
Si Si3 0.394741 0.526977 0.884416
Si Si4 0.606914 0.298724 0.204063
Si Si5 0.064724 0.105831 0.711381
Si Si6 0.862943 0.935936 0.614975
Si Si7 0.909554 0.223671 0.201651
O O1 0.740085 0.164232 0.024406
O O2 0.900679 0.120406 0.513475
O O3 0.790586 0.103626 0.957021
O O4 0.879651 0.184730 0.239153
O O5 0.250000 0.250000 0.500000
O O6 0.367737 0.226880 0.632740
O O7 0.193098 0.217842 0.058642
O O8 0.380962 0.561412 0.695947
O O9 0.361433 0.477023 0.736831
O O10 0.500000 0.523591 0.250000
O O11 0.336147 0.545158 0.862479
O O12 0.582548 0.352440 0.142378
O O13 0.629130 0.288469 0.086334
O O14 0.519357 0.270870 0.016501
O O15 0.958336 0.092172 0.398351
#
# Coordination Sequence:
#
# PCOD8130733 Si02
#       7
#     8   8   8   8   8   8   8
#     4  10  18  28  42  56  79 110 144 185 220 259
#     4   9  20  31  44  64  85 109 149 193 231 267
#     4  10  19  26  36  56  83 111 146 191 213 245
#     4  10  19  30  48  63  84 119 149 188 227 267
#     4  10  18  26  39  59  79 109 151 182 210 253
#     4  11  18  27  38  54  82 112 150 187 216 252
#     4  10  19  31  45  65  85 110 152 193 228 268
#
# _framework density 15.714589999999999
#
# number of rings (size 3 to 8) (size 9 to 14) (size 15 to 20)
#    0.000    2.000    1.429    5.143    6.000    1.714 
#    0.000    0.000    0.000    0.000    0.000    0.000 
#    0.000    0.000    0.000    0.000    0.000  380.000 
#
# Total GULP energy -346914.480802 kJ/mol
# GULP energy per Si atom -12389.802886 kJ/mol
# Density = 1.567882 g / cm^3
# Si number density = 15.714590 Si / 1000 Ang^3
#
#
#
# Elastic Constant Matrix: (Units=GPa)
#
#
# Indices 1 2 3 4 5 6 
#
# 1 85.6245 45.7923 14.9500 0.0000 -10.6181 0.0000
# 2 45.7923 89.9977 21.5897 0.0000 4.0902 0.0000
# 3 14.9500 21.5897 25.6172 0.0000 -3.2811 0.0000
# 4 0.0000 0.0000 0.0000 17.2537 0.0000 -3.6945
# 5 -10.6181 4.0902 -3.2811 0.0000 20.5645 0.0000
# 6 0.0000 0.0000 0.0000 -3.6945 0.0000 36.7376
#
#
#
# Elastic Compliance Matrix: (Units=1/GPa)
#
#
# Indices 1 2 3 4 5 6 
#
# 1 0.018408 -0.009580 -0.001232 0.000000 0.011214 0.000000
# 2 -0.009580 0.019381 -0.012118 0.000000 -0.010735 0.000000
# 3 -0.001232 -0.012118 0.051242 0.000000 0.009949 0.000000
# 4 0.000000 0.000000 0.000000 0.059234 0.000000 0.005957
# 5 0.011214 -0.010735 0.009949 0.000000 0.058140 0.000000
# 6 0.000000 0.000000 0.000000 0.005957 0.000000 0.027819
#
#
# Mechanical properties :
#
#
# Convention : Reuss Voigt Hill
#
# Bulk Modulus (GPa) = 23.16402 40.65594 31.90998
# Shear Modulus (GPa) = 16.97930 22.83833 19.90881
#
# Velocity S-wave (km/s) = 3.29063 3.81638 3.56322
# Velocity P-wave (km/s) = 5.40464 6.73404 6.10563
#
# Compressibility (1/GPa) = 0.04317040
#
# Stress axis : x y z
#
# Youngs Moduli (GPa) = 54.32318 51.59720 19.51509
#
# Poissons Ratio (x) = 0.49432 0.02405
# Poissons Ratio (y) = 0.52044 0.23648
# Poissons Ratio (z) = 0.06695 0.62524
#
# Static dielectric constant tensor:
#      x y z
#    x 3.517520 0.000000 -0.248640 
#    y 0.000000 3.458210 0.000000 
#    z -0.248640 0.000000 2.673550 
# 
# 
# High freq. dielectric constant tensor:
#      x y z
#    x 1.618320 0.000000 -0.042580 
#    y 0.000000 1.607230 0.000000 
#    z -0.042580 0.000000 1.540250 
# 
# From -- ./inp_files/51925.got.cif
#   From: 2010.06.25/outbox.cif.g09.slc.cpg/sg15_26_cif.got.tgz:51925.got - 2010.06.28 07:06:18.
