data_PCOD8130014
_publ_section_title
;
Structure prediction by ZEFSAII (Michael W. Deem and Ramdas Pophale) SiO2 
 PCOD8130014
Probable space group: C 2/C
;
_chemical_formula_sum "Si O2"
_cell_formula_units_Z 44
_cell_length_a 8.075472
_cell_length_b 21.824578
_cell_length_c 14.003809
_cell_angle_alpha 90.000000
_cell_angle_beta 122.164142
_cell_angle_gamma 90.000000
_cell_volume 2089.298561
_symmetry_space_group_name_H-M "C 2/C"
_symmetry_group_IT_number 15
_symmetry_cell_setting 'monoclinic'
loop_
_space_group_symop_operation_xyz
x,y,z
-x,y,1/2-z
-x,-y,-z
x,-y,1/2+z
1/2+x,1/2+y,z
1/2-x,1/2+y,1/2-z
1/2-x,1/2-y,-z
1/2+x,1/2-y,1/2+z
loop_
_atom_site_type_symbol
_atom_site_label
_atom_site_fract_x
_atom_site_fract_y
_atom_site_fract_z
Si Si1 0.000000 0.095391 0.750000
Si Si2 0.335661 0.565309 0.000663
Si Si3 0.265951 0.605808 0.174867
Si Si4 0.700214 0.497483 0.190288
Si Si5 0.007283 0.710446 0.359798
Si Si6 0.087178 0.163248 0.964232
O O1 0.096598 0.136217 0.861367
O O2 0.177330 0.054508 0.763312
O O3 0.202890 0.532161 0.876624
O O4 0.453766 0.623172 0.993494
O O5 0.199270 0.588670 0.045947
O O6 0.480882 0.515130 0.089865
O O7 0.500000 0.607933 0.250000
O O8 0.188163 0.555453 0.228724
O O9 0.186204 0.671732 0.177967
O O10 0.007448 0.767074 0.433544
O O11 0.192838 0.665447 0.428297
O O12 0.000000 0.735820 0.250000
#
# Coordination Sequence:
#
# PCOD8130014 Si02
#       6
#     4   8   8   8   8   8
#     4  10  16  36  62  84 114 152 202 238 284 366
#     4   9  17  32  57  86 110 151 200 239 299 348
#     4  10  19  35  59  86 116 155 197 245 302 351
#     4   9  16  30  58  83 115 149 196 235 294 360
#     4  11  22  39  57  85 121 158 207 245 291 352
#     4  10  22  36  61  85 115 160 203 245 293 350
#
# _framework density 21.059699999999999
#
# number of rings (size 3 to 8) (size 9 to 14) (size 15 to 20)
#    0.000    2.182    3.636    2.182    0.000    0.727 
#    0.000    0.909    4.000    2.182    0.000    0.000 
#    0.000    0.000    0.000    0.000    0.000    0.000 
#
# Total GULP energy -272677.534042 kJ/mol
# GULP energy per Si atom -12394.433366 kJ/mol
# Density = 2.101177 g / cm^3
# Si number density = 21.059700 Si / 1000 Ang^3
#
#
#
# Elastic Constant Matrix: (Units=GPa)
#
#
# Indices 1 2 3 4 5 6 
#
# 1 40.1431 29.7292 27.0700 0.0000 -19.9816 0.0000
# 2 29.7292 104.6220 31.3702 0.0000 -7.4791 0.0000
# 3 27.0700 31.3702 92.1748 0.0000 -25.1737 0.0000
# 4 0.0000 0.0000 0.0000 33.2180 0.0000 -8.6766
# 5 -19.9816 -7.4791 -25.1737 0.0000 30.7954 0.0000
# 6 0.0000 0.0000 0.0000 -8.6766 0.0000 21.1748
#
#
#
# Elastic Compliance Matrix: (Units=1/GPa)
#
#
# Indices 1 2 3 4 5 6 
#
# 1 0.048004 -0.010782 -0.003395 0.000000 0.025754 0.000000
# 2 -0.010782 0.013072 -0.002994 0.000000 -0.006269 0.000000
# 3 -0.003395 -0.002994 0.015533 0.000000 0.009767 0.000000
# 4 0.000000 0.000000 0.000000 0.033712 0.000000 0.013814
# 5 0.025754 -0.006269 0.009767 0.000000 0.055644 0.000000
# 6 0.000000 0.000000 0.000000 0.013814 0.000000 0.052886
#
#
# Mechanical properties :
#
#
# Convention : Reuss Voigt Hill
#
# Bulk Modulus (GPa) = 23.65962 45.91984 34.78973
# Shear Modulus (GPa) = 18.70681 26.95566 22.83123
#
# Velocity S-wave (km/s) = 2.98363 3.58154 3.29617
# Velocity P-wave (km/s) = 4.80919 6.24141 5.57151
#
# Compressibility (1/GPa) = 0.04226611
#
# Stress axis : x y z
#
# Youngs Moduli (GPa) = 20.83152 76.50135 64.38095
#
# Poissons Ratio (x) = 0.82482 0.21857
# Poissons Ratio (y) = 0.22460 0.19278
# Poissons Ratio (z) = 0.07072 0.22908
#
# Static dielectric constant tensor:
#      x y z
#    x 3.362640 0.000000 -0.568290 
#    y 0.000000 3.875820 0.000000 
#    z -0.568290 0.000000 4.261270 
# 
# 
# High freq. dielectric constant tensor:
#      x y z
#    x 1.775210 0.000000 -0.035620 
#    y 0.000000 1.835280 0.000000 
#    z -0.035620 0.000000 1.838790 
# 
# From -- ./inp_files/78719.got.cif
#   From: 2010.06.25/outbox.cif.g09.slc.cpg/sg15_40_cif.got.tgz:78719.got - 2010.06.28 07:06:18.
