data_PCOD8130435
_publ_section_title
;
Structure prediction by ZEFSAII (Michael W. Deem and Ramdas Pophale) SiO2 
 PCOD8130435
Probable space group: C 2/C
;
_chemical_formula_sum "Si O2"
_cell_formula_units_Z 64
_cell_length_a 12.598987
_cell_length_b 18.895951
_cell_length_c 22.410426
_cell_angle_alpha 90.000000
_cell_angle_beta 43.851609
_cell_angle_gamma 90.000000
_cell_volume 3696.221553
_symmetry_space_group_name_H-M "C 2/C"
_symmetry_group_IT_number 15
_symmetry_cell_setting 'monoclinic'
loop_
_space_group_symop_operation_xyz
x,y,z
-x,y,1/2-z
-x,-y,-z
x,-y,1/2+z
1/2+x,1/2+y,z
1/2-x,1/2+y,1/2-z
1/2-x,1/2-y,-z
1/2+x,1/2-y,1/2+z
loop_
_atom_site_type_symbol
_atom_site_label
_atom_site_fract_x
_atom_site_fract_y
_atom_site_fract_z
Si Si1 0.891403 0.245263 0.527310
Si Si2 0.508823 0.986653 0.087825
Si Si3 0.089146 0.604380 0.449805
Si Si4 0.141268 0.989290 0.522584
Si Si5 0.584967 0.600850 0.930964
Si Si6 0.954359 0.251246 0.363301
Si Si7 0.392721 0.108441 0.739248
Si Si8 0.938210 0.902666 0.837336
O O1 0.953612 0.312998 0.539335
O O2 0.969512 0.178824 0.527806
O O3 0.943698 0.253718 0.438388
O O4 0.707841 0.232910 0.602890
O O5 0.423734 0.950627 0.176997
O O6 0.426480 0.061970 0.106223
O O7 0.483870 0.934382 0.041713
O O8 0.686551 0.004153 0.026640
O O9 0.258084 0.607342 0.407795
O O10 0.150787 0.936641 0.463093
O O11 0.034691 0.955661 0.618251
O O12 0.064088 0.062699 0.534883
O O13 0.715061 0.603661 0.827909
O O14 0.016424 0.174011 0.317734
O O15 0.072714 0.311443 0.295442
O O16 0.500000 0.086394 0.750000
O O17 0.000000 0.934953 0.750000
#
# Coordination Sequence:
#
# PCOD8130435 Si02
#       8
#     8   8   8   8   8   8   8   8
#     4  10  17  33  51  77 103 138 168 213 268 318
#     4  10  19  37  53  76 105 140 183 215 259 314
#     4   9  20  33  55  74 103 139 174 216 264 317
#     4  10  21  38  52  74 107 150 177 216 262 318
#     4  11  22  34  54  77 111 142 181 216 268 316
#     4  10  18  30  51  77 110 129 161 218 274 316
#     4  12  20  31  53  85 107 138 174 222 266 319
#     4  10  20  32  50  80 111 134 167 216 271 317
#
# _framework density 17.314979999999998
#
# number of rings (size 3 to 8) (size 9 to 14) (size 15 to 20)
#    0.000    1.750    5.000    0.375    3.500    0.000 
#    0.000    0.625    0.000    0.000    0.000    0.875 
#    0.000    0.000    0.000    0.000    0.000    0.000 
#
# Total GULP energy -396758.498766 kJ/mol
# GULP energy per Si atom -12398.703086 kJ/mol
# Density = 1.727557 g / cm^3
# Si number density = 17.314980 Si / 1000 Ang^3
#
#
#
# Elastic Constant Matrix: (Units=GPa)
#
#
# Indices 1 2 3 4 5 6 
#
# 1 46.8966 51.7309 11.9194 0.0017 9.6099 -0.0009
# 2 51.7309 150.7942 39.6588 0.0008 13.2030 -0.0003
# 3 11.9194 39.6588 82.6975 0.0045 13.7328 -0.0021
# 4 0.0017 0.0008 0.0045 22.4455 -0.0012 8.8014
# 5 9.6099 13.2030 13.7328 -0.0012 20.5811 0.0005
# 6 -0.0009 -0.0003 -0.0021 8.8014 0.0005 27.2558
#
#
#
# Elastic Compliance Matrix: (Units=1/GPa)
#
#
# Indices 1 2 3 4 5 6 
#
# 1 0.036317 -0.012142 0.002374 -0.000005 -0.010752 0.000003
# 2 -0.012142 0.011788 -0.004036 0.000002 0.000800 -0.000001
# 3 0.002374 -0.004036 0.015115 -0.000005 -0.008604 0.000003
# 4 -0.000005 0.000002 -0.000005 0.051012 0.000008 -0.016473
# 5 -0.010752 0.000800 -0.008604 0.000008 0.058837 -0.000005
# 6 0.000003 -0.000001 0.000003 -0.016473 -0.000005 0.042009
#
#
# Mechanical properties :
#
#
# Convention : Reuss Voigt Hill
#
# Bulk Modulus (GPa) = 28.08061 54.11182 41.09622
# Shear Modulus (GPa) = 19.64211 25.86175 22.75193
#
# Velocity S-wave (km/s) = 3.37174 3.86891 3.62885
# Velocity P-wave (km/s) = 5.60454 7.16081 6.42994
#
# Compressibility (1/GPa) = 0.03561176
#
# Stress axis : x y z
#
# Youngs Moduli (GPa) = 27.53558 84.83043 66.16138
#
# Poissons Ratio (x) = 1.02997 -0.15705
# Poissons Ratio (y) = 0.33432 0.26703
# Poissons Ratio (z) = -0.06536 0.34238
#
# Static dielectric constant tensor:
#      x y z
#    x 2.947620 0.000000 0.200210 
#    y 0.000000 3.414420 0.000000 
#    z 0.200210 0.000000 3.237720 
# 
# 
# High freq. dielectric constant tensor:
#      x y z
#    x 1.630710 0.000000 0.019400 
#    y 0.000000 1.674540 0.000000 
#    z 0.019400 0.000000 1.671740 
# 
# From -- ./inp_files/239774.got.cif
#   From: 2010.06.25/outbox.cif.g09.slc.cpg/sg15_120_cif.got.tgz:239774.got - 2010.06.28 07:06:18.
