data_PCOD8130364
_publ_section_title
;
Structure prediction by ZEFSAII (Michael W. Deem and Ramdas Pophale) SiO2 
 PCOD8130364
Probable space group: C 2/C
;
_chemical_formula_sum "Si O2"
_cell_formula_units_Z 40
_cell_length_a 14.669965
_cell_length_b 11.074504
_cell_length_c 20.632277
_cell_angle_alpha 90.000000
_cell_angle_beta 34.216099
_cell_angle_gamma 90.000000
_cell_volume 1884.867253
_symmetry_space_group_name_H-M "C 2/C"
_symmetry_group_IT_number 15
_symmetry_cell_setting 'monoclinic'
loop_
_space_group_symop_operation_xyz
x,y,z
-x,y,1/2-z
-x,-y,-z
x,-y,1/2+z
1/2+x,1/2+y,z
1/2-x,1/2+y,1/2-z
1/2-x,1/2-y,-z
1/2+x,1/2-y,1/2+z
loop_
_atom_site_type_symbol
_atom_site_label
_atom_site_fract_x
_atom_site_fract_y
_atom_site_fract_z
Si Si1 0.612204 0.398319 0.239833
Si Si2 0.248953 0.374220 0.915233
Si Si3 0.336468 0.884791 0.317614
Si Si4 0.101269 0.301200 0.357506
Si Si5 0.427147 0.440531 0.936569
O O1 0.500000 0.337481 0.250000
O O2 0.316248 0.522675 0.329382
O O3 0.753350 0.305066 0.175455
O O4 0.507197 0.434184 0.365547
O O5 0.333006 0.250685 0.846340
O O6 0.292477 0.397126 0.964255
O O7 0.055798 0.366105 0.020262
O O8 0.500000 0.946324 0.250000
O O9 0.338624 0.880491 0.238811
O O10 0.175264 0.957891 0.436380
O O11 0.065706 0.161753 0.362503
#
# Coordination Sequence:
#
# PCOD8130364 Si02
#       5
#     8   8   8   8   8
#     4  10  21  35  50  78 107 139 178 210 247 312
#     4  10  17  32  53  81 103 130 172 225 256 301
#     4  11  16  29  53  81 107 129 163 218 271 302
#     4  11  19  30  55  80 104 139 170 215 265 299
#     4  10  19  32  53  79 109 132 168 217 264 303
#
# _framework density 21.221653
#
# number of rings (size 3 to 8) (size 9 to 14) (size 15 to 20)
#    0.000    1.600    6.000    2.400    0.000    0.800 
#    0.000    0.000    0.000    6.000    0.000    0.000 
#    0.000    0.000    0.000    0.000    0.000    0.000 
#
# Total GULP energy -247969.777197 kJ/mol
# GULP energy per Si atom -12398.488860 kJ/mol
# Density = 2.117335 g / cm^3
# Si number density = 21.221653 Si / 1000 Ang^3
#
#
#
# Elastic Constant Matrix: (Units=GPa)
#
#
# Indices 1 2 3 4 5 6 
#
# 1 83.3908 8.8844 46.6839 -0.0001 -32.9497 -0.0001
# 2 8.8844 17.0845 11.2171 -0.0002 -10.4494 0.0000
# 3 46.6839 11.2171 121.0736 -0.0003 -8.8288 0.0001
# 4 -0.0001 -0.0002 -0.0003 15.7454 0.0001 -8.3638
# 5 -32.9497 -10.4494 -8.8288 0.0001 45.6390 0.0000
# 6 -0.0001 0.0000 0.0001 -8.3638 0.0000 14.7623
#
#
#
# Elastic Compliance Matrix: (Units=1/GPa)
#
#
# Indices 1 2 3 4 5 6 
#
# 1 0.021850 0.002758 -0.007591 0.000000 0.014938 0.000000
# 2 0.002758 0.071861 -0.006467 0.000001 0.017193 0.000001
# 3 -0.007591 -0.006467 0.011439 0.000000 -0.004748 0.000000
# 4 0.000000 0.000001 0.000000 0.090853 0.000000 0.051474
# 5 0.014938 0.017193 -0.004748 0.000000 0.035714 0.000000
# 6 0.000000 0.000001 0.000000 0.051474 0.000000 0.096903
#
#
# Mechanical properties :
#
#
# Convention : Reuss Voigt Hill
#
# Bulk Modulus (GPa) = 12.11406 39.45773 25.78590
# Shear Modulus (GPa) = 13.20178 25.54690 19.37434
#
# Velocity S-wave (km/s) = 2.49688 3.47337 3.02479
# Velocity P-wave (km/s) = 3.74610 5.89230 4.93723
#
# Compressibility (1/GPa) = 0.08254873
#
# Stress axis : x y z
#
# Youngs Moduli (GPa) = 45.76685 13.91584 87.41723
#
# Poissons Ratio (x) = -0.03838 0.66360
# Poissons Ratio (y) = -0.12622 0.56536
# Poissons Ratio (z) = 0.34742 0.09000
#
# Static dielectric constant tensor:
#      x y z
#    x 3.896440 0.000000 0.070570 
#    y 0.000000 3.123530 0.000000 
#    z 0.070570 0.000000 4.189210 
# 
# 
# High freq. dielectric constant tensor:
#      x y z
#    x 1.828460 0.000000 0.001330 
#    y 0.000000 1.766240 0.000000 
#    z 0.001330 0.000000 1.854000 
# 
# From -- ./inp_files/273998.got.cif
#   From: 2010.06.25/outbox.cif.g09.slc.cpg/sg15_137_cif.got.tgz:273998.got - 2010.06.28 07:06:18.
