data_PCOD8130178
_publ_section_title
;
Structure prediction by ZEFSAII (Michael W. Deem and Ramdas Pophale) SiO2 
 PCOD8130178
Probable space group: C 2/C
;
_chemical_formula_sum "Si O2"
_cell_formula_units_Z 60
_cell_length_a 14.673361
_cell_length_b 26.145412
_cell_length_c 11.338188
_cell_angle_alpha 90.000000
_cell_angle_beta 51.177543
_cell_angle_gamma 90.000000
_cell_volume 3388.891487
_symmetry_space_group_name_H-M "C 2/C"
_symmetry_group_IT_number 15
_symmetry_cell_setting 'monoclinic'
loop_
_space_group_symop_operation_xyz
x,y,z
-x,y,1/2-z
-x,-y,-z
x,-y,1/2+z
1/2+x,1/2+y,z
1/2-x,1/2+y,1/2-z
1/2-x,1/2-y,-z
1/2+x,1/2-y,1/2+z
loop_
_atom_site_type_symbol
_atom_site_label
_atom_site_fract_x
_atom_site_fract_y
_atom_site_fract_z
Si Si1 0.380091 0.613805 0.418281
Si Si2 0.409853 0.094706 0.483375
Si Si3 0.472204 0.817110 0.502847
Si Si4 0.000000 0.382647 0.250000
Si Si5 0.228147 0.143873 0.223921
Si Si6 0.496623 0.708102 0.115937
Si Si7 0.798358 0.446115 0.304928
Si Si8 0.838421 0.435650 0.786096
O O1 0.500000 0.598218 0.250000
O O2 0.278781 0.624025 0.404864
O O3 0.400534 0.665756 0.478112
O O4 0.332296 0.571757 0.549014
O O5 0.430443 0.155433 0.492926
O O6 0.324969 0.068382 0.647888
O O7 0.538222 0.068119 0.384115
O O8 0.350019 0.088515 0.406154
O O9 0.474350 0.845574 0.377663
O O10 0.342959 0.823205 0.659606
O O11 0.491384 0.756687 0.477714
O O12 0.108710 0.419499 0.185421
O O13 0.120025 0.180881 0.335737
O O14 0.234093 0.094384 0.304363
O O15 0.500000 0.725896 0.250000
O O16 0.800887 0.506086 0.323532
#
# Coordination Sequence:
#
# PCOD8130178 Si02
#       8
#     8   8   8   4   8   8   8   8
#     4   9  20  36  53  81 112 137 185 225 259 318
#     4   9  21  33  50  85 110 135 182 223 262 331
#     4  10  17  30  51  77 109 136 166 217 278 316
#     4  10  18  26  46  88 108 120 178 220 266 322
#     4   9  19  34  53  74 108 143 176 217 269 327
#     4   9  19  33  52  78 106 139 177 223 270 309
#     4  11  20  32  57  80 110 143 176 225 268 320
#     4  10  20  36  54  74 114 145 174 217 278 316
#
# _framework density 17.704903999999999
#
# number of rings (size 3 to 8) (size 9 to 14) (size 15 to 20)
#    0.000    2.667    2.000    1.200    1.867    4.267 
#    0.000    3.333    0.000    3.200    0.000    0.000 
#    0.000    0.000    0.000    0.000    0.000    0.000 
#
# Total GULP energy -371752.053365 kJ/mol
# GULP energy per Si atom -12391.735112 kJ/mol
# Density = 1.766461 g / cm^3
# Si number density = 17.704904 Si / 1000 Ang^3
#
#
#
# Elastic Constant Matrix: (Units=GPa)
#
#
# Indices 1 2 3 4 5 6 
#
# 1 81.3433 56.0458 30.2708 0.0000 6.2453 0.0000
# 2 56.0458 141.3970 50.6777 0.0000 6.6766 0.0000
# 3 30.2708 50.6777 84.7963 0.0000 3.1802 0.0000
# 4 0.0000 0.0000 0.0000 21.7092 0.0000 -3.9126
# 5 6.2453 6.6766 3.1802 0.0000 15.2954 0.0000
# 6 0.0000 0.0000 0.0000 -3.9126 0.0000 10.9412
#
#
#
# Elastic Compliance Matrix: (Units=1/GPa)
#
#
# Indices 1 2 3 4 5 6 
#
# 1 0.017617 -0.005842 -0.002644 0.000000 -0.004093 0.000000
# 2 -0.005842 0.011061 -0.004468 0.000000 -0.001514 0.000000
# 3 -0.002644 -0.004468 0.015414 0.000000 -0.000175 0.000000
# 4 0.000000 0.000000 0.000000 0.049237 0.000000 0.017607
# 5 -0.004093 -0.001514 -0.000175 0.000000 0.067748 0.000000
# 6 0.000000 0.000000 0.000000 0.017607 0.000000 0.097694
#
#
# Mechanical properties :
#
#
# Convention : Reuss Voigt Hill
#
# Bulk Modulus (GPa) = 54.99574 64.61391 59.80483
# Shear Modulus (GPa) = 17.19755 20.95864 19.07809
#
# Velocity S-wave (km/s) = 3.12002 3.44434 3.28618
# Velocity P-wave (km/s) = 6.64148 7.23824 6.94627
#
# Compressibility (1/GPa) = 0.01818323
#
# Stress axis : x y z
#
# Youngs Moduli (GPa) = 56.76373 90.40988 64.87728
#
# Poissons Ratio (x) = 0.52817 0.17154
# Poissons Ratio (y) = 0.33161 0.28988
# Poissons Ratio (z) = 0.15009 0.40396
#
# Static dielectric constant tensor:
#      x y z
#    x 3.234150 0.000000 0.024820 
#    y 0.000000 3.315220 0.000000 
#    z 0.024820 0.000000 3.229250 
# 
# 
# High freq. dielectric constant tensor:
#      x y z
#    x 1.671170 0.000000 -0.001660 
#    y 0.000000 1.683770 0.000000 
#    z -0.001660 0.000000 1.667090 
# 
# From -- ./inp_files/100964.got.cif
#   From: 2010.06.25/outbox.cif.g09.slc.cpg/sg15_51_cif.got.tgz:100964.got - 2010.06.28 07:06:18.
