data_PCOD8130712
_publ_section_title
;
Structure prediction by ZEFSAII (Michael W. Deem and Ramdas Pophale) SiO2 
 PCOD8130712
Probable space group: C 2/C
;
_chemical_formula_sum "Si O2"
_cell_formula_units_Z 60
_cell_length_a 10.992433
_cell_length_b 14.751839
_cell_length_c 20.722842
_cell_angle_alpha 90.000000
_cell_angle_beta 54.069066
_cell_angle_gamma 90.000000
_cell_volume 2720.989230
_symmetry_space_group_name_H-M "C 2/C"
_symmetry_group_IT_number 15
_symmetry_cell_setting 'monoclinic'
loop_
_space_group_symop_operation_xyz
x,y,z
-x,y,1/2-z
-x,-y,-z
x,-y,1/2+z
1/2+x,1/2+y,z
1/2-x,1/2+y,1/2-z
1/2-x,1/2-y,-z
1/2+x,1/2-y,1/2+z
loop_
_atom_site_type_symbol
_atom_site_label
_atom_site_fract_x
_atom_site_fract_y
_atom_site_fract_z
Si Si1 0.980436 0.825343 0.413102
Si Si2 0.500000 0.401488 0.750000
Si Si3 0.299964 0.233288 0.795170
Si Si4 0.464773 0.713121 0.063862
Si Si5 0.563820 0.845615 0.130400
Si Si6 0.865942 0.724328 0.339258
Si Si7 0.866644 0.522262 0.337801
Si Si8 0.456969 0.526329 0.124697
O O1 0.127298 0.783753 0.330474
O O2 0.959774 0.780339 0.488900
O O3 0.851239 0.791272 0.404944
O O4 0.966446 0.933872 0.424018
O O5 0.353420 0.338027 0.783018
O O6 0.502098 0.466020 0.812030
O O7 0.304781 0.195951 0.866727
O O8 0.404996 0.174384 0.715205
O O9 0.565586 0.795113 0.060664
O O10 0.295893 0.726381 0.146238
O O11 0.526710 0.614879 0.067733
O O12 0.613126 0.951336 0.108753
O O13 0.889632 0.622284 0.359011
O O14 0.000000 0.752656 0.250000
O O15 0.717091 0.515143 0.340698
O O16 0.000000 0.493085 0.250000
#
# Coordination Sequence:
#
# PCOD8130712 Si02
#       8
#     8   4   8   8   8   8   8   8
#     4  12  24  39  59  92 125 163 202 245 318 372
#     4  10  22  40  62  90 126 152 208 272 296 350
#     4  10  19  37  62  85 118 149 206 259 289 353
#     4  11  23  41  61  86 129 163 197 257 307 366
#     4  10  17  38  63  87 111 156 209 252 294 345
#     4  10  24  40  62  88 120 164 209 248 302 364
#     4  10  19  36  62  88 115 153 204 259 297 357
#     4  11  22  40  60  90 124 161 202 252 308 362
#
# _framework density 22.050803999999999
#
# number of rings (size 3 to 8) (size 9 to 14) (size 15 to 20)
#    0.000    1.600    5.333    1.600    4.667    0.533 
#    0.000    0.667    0.000    0.000    0.000    0.000 
#    0.000    0.000    0.000    0.000    0.000    0.000 
#
# Total GULP energy -371694.733352 kJ/mol
# GULP energy per Si atom -12389.824445 kJ/mol
# Density = 2.200062 g / cm^3
# Si number density = 22.050804 Si / 1000 Ang^3
#
#
#
# Elastic Constant Matrix: (Units=GPa)
#
#
# Indices 1 2 3 4 5 6 
#
# 1 59.0175 40.8299 12.8466 0.0000 16.9832 0.0000
# 2 40.8299 103.2693 13.9433 0.0000 18.5021 0.0000
# 3 12.8466 13.9433 36.3506 0.0000 20.4551 0.0000
# 4 0.0000 0.0000 0.0000 22.0109 0.0000 9.5419
# 5 16.9832 18.5021 20.4551 0.0000 35.8064 0.0000
# 6 0.0000 0.0000 0.0000 9.5419 0.0000 35.2158
#
#
#
# Elastic Compliance Matrix: (Units=1/GPa)
#
#
# Indices 1 2 3 4 5 6 
#
# 1 0.025103 -0.008513 -0.002036 0.000000 -0.006344 0.000000
# 2 -0.008513 0.013611 -0.000776 0.000000 -0.002552 0.000000
# 3 -0.002036 -0.000776 0.040909 0.000000 -0.022003 0.000000
# 4 0.000000 0.000000 0.000000 0.051479 0.000000 -0.013948
# 5 -0.006344 -0.002552 -0.022003 0.000000 0.044825 0.000000
# 6 0.000000 0.000000 0.000000 -0.013948 0.000000 0.032176
#
#
# Mechanical properties :
#
#
# Convention : Reuss Voigt Hill
#
# Bulk Modulus (GPa) = 17.55269 37.09744 27.32506
# Shear Modulus (GPa) = 20.02047 27.34112 23.68079
#
# Velocity S-wave (km/s) = 3.01645 3.52506 3.28063
# Velocity P-wave (km/s) = 4.48434 5.78172 5.17386
#
# Compressibility (1/GPa) = 0.05697133
#
# Stress axis : x y z
#
# Youngs Moduli (GPa) = 39.83626 73.46775 24.44479
#
# Poissons Ratio (x) = 0.62546 0.04977
# Poissons Ratio (y) = 0.33914 0.01898
# Poissons Ratio (z) = 0.08110 0.05704
#
# Static dielectric constant tensor:
#      x y z
#    x 4.048120 0.000000 -0.035490 
#    y 0.000000 4.099450 0.000000 
#    z -0.035490 0.000000 3.591510 
# 
# 
# High freq. dielectric constant tensor:
#      x y z
#    x 1.867580 0.000000 0.004920 
#    y 0.000000 1.867110 0.000000 
#    z 0.004920 0.000000 1.839790 
# 
# From -- ./inp_files/238689.got.cif
#   From: 2010.06.25/outbox.cif.g09.slc.cpg/sg15_120_cif.got.tgz:238689.got - 2010.06.28 07:06:18.
