data_PCOD8130956
_publ_section_title
;
Structure prediction by ZEFSAII (Michael W. Deem and Ramdas Pophale) SiO2 
 PCOD8130956
Probable space group: C 2/C
;
_chemical_formula_sum "Si O2"
_cell_formula_units_Z 64
_cell_length_a 24.645672
_cell_length_b 7.750187
_cell_length_c 19.257251
_cell_angle_alpha 90.000000
_cell_angle_beta 110.434781
_cell_angle_gamma 90.000000
_cell_volume 3446.825303
_symmetry_space_group_name_H-M "C 2/C"
_symmetry_group_IT_number 15
_symmetry_cell_setting 'monoclinic'
loop_
_space_group_symop_operation_xyz
x,y,z
-x,y,1/2-z
-x,-y,-z
x,-y,1/2+z
1/2+x,1/2+y,z
1/2-x,1/2+y,1/2-z
1/2-x,1/2-y,-z
1/2+x,1/2-y,1/2+z
loop_
_atom_site_type_symbol
_atom_site_label
_atom_site_fract_x
_atom_site_fract_y
_atom_site_fract_z
Si Si1 0.675865 0.802971 0.227450
Si Si2 0.473815 0.710092 0.807640
Si Si3 0.528789 0.835188 0.478434
Si Si4 0.302478 0.400704 0.245726
Si Si5 0.866923 0.389559 0.701232
Si Si6 0.604978 0.623769 0.610696
Si Si7 0.906310 0.237575 0.432418
Si Si8 0.580225 0.095227 0.417791
O O1 0.681811 0.604540 0.256953
O O2 0.734596 0.872070 0.219597
O O3 0.627039 0.825055 0.146636
O O4 0.660167 0.931899 0.283159
O O5 0.500000 0.616442 0.750000
O O6 0.430810 0.863423 0.762895
O O7 0.437392 0.583035 0.841538
O O8 0.525737 0.785147 0.876080
O O9 0.579294 0.773095 0.552107
O O10 0.474692 0.708662 0.443570
O O11 0.500000 0.000000 0.500000
O O12 0.558557 0.897231 0.419943
O O13 0.327190 0.280457 0.194953
O O14 0.332532 0.325891 0.329657
O O15 0.871643 0.406461 0.620145
O O16 0.615275 0.457421 0.567600
O O17 0.892659 0.337707 0.497447
#
# Coordination Sequence:
#
# PCOD8130956 Si02
#       8
#     8   8   8   8   8   8   8   8
#     4  11  21  38  62  84 104 148 198 235 281 334
#     4   9  17  31  53  79 113 150 180 226 285 332
#     4  10  18  30  54  79 110 148 183 214 277 340
#     4  10  22  37  62  82 106 146 197 237 278 331
#     4  10  21  38  58  80 118 146 185 240 280 331
#     4  10  19  34  53  84 112 146 191 232 273 341
#     4  10  21  33  56  84 114 147 189 231 281 336
#     4  10  20  34  53  84 114 151 180 223 290 334
#
# _framework density 18.567812
#
# number of rings (size 3 to 8) (size 9 to 14) (size 15 to 20)
#    0.000    2.000    3.750    1.125    5.250    0.000 
#    2.250    3.125    0.000    3.750    0.000    0.000 
#    0.000    0.000    0.000    0.000    0.000    0.000 
#
# Total GULP energy -396465.277031 kJ/mol
# GULP energy per Si atom -12389.539907 kJ/mol
# Density = 1.852555 g / cm^3
# Si number density = 18.567812 Si / 1000 Ang^3
#
#
#
# Elastic Constant Matrix: (Units=GPa)
#
#
# Indices 1 2 3 4 5 6 
#
# 1 74.3121 26.1876 37.4700 0.0000 -9.8617 0.0000
# 2 26.1876 75.5653 38.0778 0.0000 -13.7002 0.0000
# 3 37.4700 38.0778 89.2240 0.0000 -17.0689 0.0000
# 4 0.0000 0.0000 0.0000 26.6631 0.0000 0.6037
# 5 -9.8617 -13.7002 -17.0689 0.0000 28.7027 0.0000
# 6 0.0000 0.0000 0.0000 0.6037 0.0000 23.6227
#
#
#
# Elastic Compliance Matrix: (Units=1/GPa)
#
#
# Indices 1 2 3 4 5 6 
#
# 1 0.017630 -0.002908 -0.005946 0.000000 0.001133 0.000000
# 2 -0.002908 0.017812 -0.005580 0.000000 0.004185 0.000000
# 3 -0.005946 -0.005580 0.017135 0.000000 0.005484 0.000000
# 4 0.000000 0.000000 0.000000 0.037527 0.000000 -0.000959
# 5 0.001133 0.004185 0.005484 0.000000 0.040488 0.000000
# 6 0.000000 0.000000 0.000000 -0.000959 0.000000 0.042357
#
#
# Mechanical properties :
#
#
# Convention : Reuss Voigt Hill
#
# Bulk Modulus (GPa) = 42.17733 49.17468 45.67601
# Shear Modulus (GPa) = 23.84150 24.95544 24.39847
#
# Velocity S-wave (km/s) = 3.58721 3.67006 3.62887
# Velocity P-wave (km/s) = 6.31839 6.67087 6.49702
#
# Compressibility (1/GPa) = 0.02370942
#
# Stress axis : x y z
#
# Youngs Moduli (GPa) = 56.72128 56.14294 58.36011
#
# Poissons Ratio (x) = 0.16327 0.34700
# Poissons Ratio (y) = 0.16495 0.32563
# Poissons Ratio (z) = 0.33726 0.31326
#
# Static dielectric constant tensor:
#      x y z
#    x 3.842680 0.000000 0.146820 
#    y 0.000000 3.593970 0.000000 
#    z 0.146820 0.000000 3.544440 
# 
# 
# High freq. dielectric constant tensor:
#      x y z
#    x 1.710110 0.000000 0.010180 
#    y 0.000000 1.712190 0.000000 
#    z 0.010180 0.000000 1.711640 
# 
# From -- ./inp_files/218280.got.cif
#   From: 2010.06.25/outbox.cif.g09.slc.cpg/sg15_110_cif.got.tgz:218280.got - 2010.06.28 07:06:18.
