data_PCOD8130897
_publ_section_title
;
Structure prediction by ZEFSAII (Michael W. Deem and Ramdas Pophale) SiO2 
 PCOD8130897
Probable space group: C 2/C
;
_chemical_formula_sum "Si O2"
_cell_formula_units_Z 60
_cell_length_a 21.393137
_cell_length_b 32.906974
_cell_length_c 5.271784
_cell_angle_alpha 90.000000
_cell_angle_beta 52.662796
_cell_angle_gamma 90.000000
_cell_volume 2950.738762
_symmetry_space_group_name_H-M "C 2/C"
_symmetry_group_IT_number 15
_symmetry_cell_setting 'monoclinic'
loop_
_space_group_symop_operation_xyz
x,y,z
-x,y,1/2-z
-x,-y,-z
x,-y,1/2+z
1/2+x,1/2+y,z
1/2-x,1/2+y,1/2-z
1/2-x,1/2-y,-z
1/2+x,1/2-y,1/2+z
loop_
_atom_site_type_symbol
_atom_site_label
_atom_site_fract_x
_atom_site_fract_y
_atom_site_fract_z
Si Si1 0.292158 0.022549 0.173567
Si Si2 0.300747 0.162238 0.695504
Si Si3 0.292153 0.113719 0.232882
Si Si4 0.631385 0.682776 0.255725
Si Si5 0.104449 0.022354 0.629810
Si Si6 0.389654 0.613293 0.846197
Si Si7 0.697661 0.247905 0.876350
Si Si8 0.000000 0.168524 0.250000
O O1 0.325166 0.068621 0.100972
O O2 0.198421 0.021588 0.398283
O O3 0.324791 0.998588 0.338425
O O4 0.327860 0.131832 0.405475
O O5 0.348953 0.204556 0.529485
O O6 0.313895 0.142315 0.939626
O O7 0.210126 0.177966 0.892960
O O8 0.200349 0.110625 0.519507
O O9 0.607847 0.637008 0.394120
O O10 0.640899 0.712638 0.479697
O O11 0.554738 0.698039 0.287902
O O12 0.074089 0.068544 0.709869
O O13 0.071262 0.001825 0.455257
O O14 0.438680 0.638682 0.529429
O O15 0.750000 0.250000 0.500000
O O16 0.750000 0.250000 0.000000
#
# Coordination Sequence:
#
# PCOD8130897 Si02
#       8
#     8   8   8   8   8   8   8   4
#     4   9  16  26  41  65  89 116 148 188 231 278
#     4  10  18  32  49  72  89 115 149 192 238 286
#     4  10  18  30  49  68  92 119 153 193 240 282
#     4  10  22  34  52  70  94 121 150 195 246 297
#     4   9  19  32  50  64  81 110 153 200 246 291
#     4  10  21  34  49  66  90 118 156 197 249 294
#     4  10  20  34  54  74  95 116 148 192 244 294
#     4  12  22  36  50  68  94 120 162 190 246 302
#
# _framework density 20.333891999999999
#
# number of rings (size 3 to 8) (size 9 to 14) (size 15 to 20)
#    0.000    2.133    1.333    3.600    3.733    3.200 
#    0.000    0.667    0.000    0.000    0.000    0.000 
#    0.000    0.000    0.000    0.000    0.000    0.000 
#
# Total GULP energy -371684.201635 kJ/mol
# GULP energy per Si atom -12389.473388 kJ/mol
# Density = 2.028761 g / cm^3
# Si number density = 20.333892 Si / 1000 Ang^3
#
#
#
# Elastic Constant Matrix: (Units=GPa)
#
#
# Indices 1 2 3 4 5 6 
#
# 1 73.1070 47.9363 29.0397 0.0000 32.8277 0.0000
# 2 47.9363 156.2858 32.3513 0.0000 28.3239 0.0000
# 3 29.0397 32.3513 56.0551 0.0000 36.3580 0.0000
# 4 0.0000 0.0000 0.0000 25.3707 0.0000 16.3588
# 5 32.8277 28.3239 36.3580 0.0000 31.7302 0.0000
# 6 0.0000 0.0000 0.0000 16.3588 0.0000 17.3869
#
#
#
# Elastic Compliance Matrix: (Units=1/GPa)
#
#
# Indices 1 2 3 4 5 6 
#
# 1 0.031845 -0.004514 0.018940 0.000000 -0.050619 0.000000
# 2 -0.004514 0.008273 -0.002630 0.000000 0.000299 0.000000
# 3 0.018940 -0.002630 0.080737 0.000000 -0.109759 0.000000
# 4 0.000000 0.000000 0.000000 0.100208 0.000000 -0.094282
# 5 -0.050619 0.000299 -0.109759 0.000000 0.209387 0.000000
# 6 0.000000 0.000000 0.000000 -0.094282 0.000000 0.146221
#
#
# Mechanical properties :
#
#
# Convention : Reuss Voigt Hill
#
# Bulk Modulus (GPa) = 6.92297 56.01138 31.46718
# Shear Modulus (GPa) = 8.31630 26.63893 17.47762
#
# Velocity S-wave (km/s) = 2.02454 3.62342 2.93496
# Velocity P-wave (km/s) = 2.97944 6.71649 5.19559
#
# Compressibility (1/GPa) = 0.14444660
#
# Stress axis : x y z
#
# Youngs Moduli (GPa) = 31.40187 120.86847 12.38597
#
# Poissons Ratio (x) = 0.54565 -0.23459
# Poissons Ratio (y) = 0.14176 0.03258
# Poissons Ratio (z) = -0.59476 0.31789
#
# Static dielectric constant tensor:
#      x y z
#    x 4.759810 0.000000 -0.643280 
#    y 0.000000 4.515530 0.000000 
#    z -0.643280 0.000000 4.186620 
# 
# 
# High freq. dielectric constant tensor:
#      x y z
#    x 1.748310 0.000000 0.053810 
#    y 0.000000 1.811760 0.000000 
#    z 0.053810 0.000000 1.764620 
# 
# From -- ./inp_files/16582.got.cif
#   From: 2010.06.25/outbox.cif.g09.slc.cpg/sg15_9_cif.got.tgz:16582.got - 2010.06.28 07:06:18.
