data_PCOD8130602
_publ_section_title
;
Structure prediction by ZEFSAII (Michael W. Deem and Ramdas Pophale) SiO2 
 PCOD8130602
Probable space group: C 2/C
;
_chemical_formula_sum "Si O2"
_cell_formula_units_Z 64
_cell_length_a 30.932907
_cell_length_b 18.894038
_cell_length_c 18.016956
_cell_angle_alpha 90.000000
_cell_angle_beta 18.308485
_cell_angle_gamma 90.000000
_cell_volume 3307.810146
_symmetry_space_group_name_H-M "C 2/C"
_symmetry_group_IT_number 15
_symmetry_cell_setting 'monoclinic'
loop_
_space_group_symop_operation_xyz
x,y,z
-x,y,1/2-z
-x,-y,-z
x,-y,1/2+z
1/2+x,1/2+y,z
1/2-x,1/2+y,1/2-z
1/2-x,1/2-y,-z
1/2+x,1/2-y,1/2+z
loop_
_atom_site_type_symbol
_atom_site_label
_atom_site_fract_x
_atom_site_fract_y
_atom_site_fract_z
Si Si1 0.866167 0.068284 0.139799
Si Si2 0.808456 0.219644 0.008688
Si Si3 0.616824 0.718797 0.455072
Si Si4 0.911516 0.367409 0.054441
Si Si5 0.141890 0.002056 0.695495
Si Si6 0.279280 0.141556 0.481849
Si Si7 0.589308 0.001890 0.532732
Si Si8 0.412476 0.947748 0.191599
O O1 0.881268 0.152386 0.102956
O O2 0.722325 0.046101 0.339359
O O3 0.875212 0.057231 0.213533
O O4 0.996078 0.023346 0.894019
O O5 0.751513 0.153193 0.055672
O O6 0.966271 0.231065 0.731795
O O7 0.783791 0.205453 0.136039
O O8 0.729165 0.291276 0.112255
O O9 0.662152 0.792062 0.341007
O O10 0.909924 0.375329 0.147269
O O11 0.846057 0.434740 0.117771
O O12 0.060428 0.372061 0.773964
O O13 0.199176 0.073200 0.642192
O O14 0.254182 0.974225 0.454041
O O15 0.500000 0.978590 0.750000
O O16 0.489038 0.053535 0.646638
O O17 0.500000 0.000000 0.000000
#
# Coordination Sequence:
#
# PCOD8130602 Si02
#       8
#     8   8   8   8   8   8   8   8
#     4  11  24  37  58  88 121 159 191 251 298 359
#     4   9  20  31  56  85 122 150 183 250 313 354
#     4  10  21  36  52  87 123 151 198 242 303 350
#     4  10  22  35  60  86 120 157 201 248 296 357
#     4  11  21  39  60  86 124 151 203 238 304 362
#     4  10  17  35  57  87 114 151 190 247 307 352
#     4  11  21  38  63  89 115 155 208 252 294 350
#     4  10  20  38  60  88 116 154 199 246 290 350
#
# _framework density 19.348147999999998
#
# number of rings (size 3 to 8) (size 9 to 14) (size 15 to 20)
#    0.000    1.750    5.000    0.000    7.000    0.000 
#    0.000    0.625    0.000    0.000    0.000    0.000 
#    0.000    0.000    0.000    0.000    0.000    0.000 
#
# Total GULP energy -396477.047145 kJ/mol
# GULP energy per Si atom -12389.907723 kJ/mol
# Density = 1.930411 g / cm^3
# Si number density = 19.348148 Si / 1000 Ang^3
#
#
#
# Elastic Constant Matrix: (Units=GPa)
#
#
# Indices 1 2 3 4 5 6 
#
# 1 99.0293 53.3899 16.0736 -0.0005 3.3030 -0.0008
# 2 53.3899 113.9705 17.6503 -0.0042 8.6771 0.0023
# 3 16.0736 17.6503 81.1872 -0.0033 -1.2381 0.0021
# 4 -0.0005 -0.0042 -0.0033 14.4623 0.0011 2.1264
# 5 3.3030 8.6771 -1.2381 0.0011 24.6085 -0.0007
# 6 -0.0008 0.0023 0.0021 2.1264 -0.0007 26.1470
#
#
#
# Elastic Compliance Matrix: (Units=1/GPa)
#
#
# Indices 1 2 3 4 5 6 
#
# 1 0.013655 -0.006210 -0.001349 -0.000002 0.000289 0.000001
# 2 -0.006210 0.012181 -0.001473 0.000004 -0.003535 -0.000002
# 3 -0.001349 -0.001473 0.012925 0.000003 0.001351 -0.000001
# 4 -0.000002 0.000004 0.000003 0.069982 -0.000004 -0.005691
# 5 0.000289 -0.003535 0.001351 -0.000004 0.041912 0.000002
# 6 0.000001 -0.000002 -0.000001 -0.005691 0.000002 0.038708
#
#
# Mechanical properties :
#
#
# Convention : Reuss Voigt Hill
#
# Bulk Modulus (GPa) = 48.31431 52.04606 50.18018
# Shear Modulus (GPa) = 23.32899 26.84843 25.08871
#
# Velocity S-wave (km/s) = 3.47616 3.72916 3.60488
# Velocity P-wave (km/s) = 6.41380 6.74539 6.58168
#
# Compressibility (1/GPa) = 0.02069780
#
# Stress axis : x y z
#
# Youngs Moduli (GPa) = 73.23137 82.09835 77.36932
#
# Poissons Ratio (x) = 0.50983 0.10437
# Poissons Ratio (y) = 0.45477 0.11393
# Poissons Ratio (z) = 0.09879 0.12089
#
# Static dielectric constant tensor:
#      x y z
#    x 4.227070 0.000000 -0.017580 
#    y 0.000000 3.853010 0.000010 
#    z -0.017580 0.000010 3.501420 
# 
# 
# High freq. dielectric constant tensor:
#      x y z
#    x 1.750930 0.000000 -0.013750 
#    y 0.000000 1.744120 0.000000 
#    z -0.013750 0.000000 1.725080 
# 
# From -- ./inp_files/225874.got.cif
#   From: 2010.06.25/outbox.cif.g09.slc.cpg/sg15_113_cif.got.tgz:225874.got - 2010.06.28 07:06:18.
