data_PCOD8130075
_publ_section_title
;
Structure prediction by ZEFSAII (Michael W. Deem and Ramdas Pophale) SiO2 
 PCOD8130075
Probable space group: C 2/C
;
_chemical_formula_sum "Si O2"
_cell_formula_units_Z 60
_cell_length_a 20.854171
_cell_length_b 12.294059
_cell_length_c 15.075084
_cell_angle_alpha 90.000000
_cell_angle_beta 69.057428
_cell_angle_gamma 90.000000
_cell_volume 3609.662073
_symmetry_space_group_name_H-M "C 2/C"
_symmetry_group_IT_number 15
_symmetry_cell_setting 'monoclinic'
loop_
_space_group_symop_operation_xyz
x,y,z
-x,y,1/2-z
-x,-y,-z
x,-y,1/2+z
1/2+x,1/2+y,z
1/2-x,1/2+y,1/2-z
1/2-x,1/2-y,-z
1/2+x,1/2-y,1/2+z
loop_
_atom_site_type_symbol
_atom_site_label
_atom_site_fract_x
_atom_site_fract_y
_atom_site_fract_z
Si Si1 0.489490 0.119131 0.967563
Si Si2 0.000000 0.925824 0.250000
Si Si3 0.432798 0.789780 0.230910
Si Si4 0.888432 0.995794 0.060337
Si Si5 0.295153 0.403255 0.963173
Si Si6 0.495441 0.337949 0.445416
Si Si7 0.647340 0.836855 0.064891
Si Si8 0.626721 0.438808 0.743255
O O1 0.544544 0.134019 0.861297
O O2 0.410868 0.130589 0.976085
O O3 0.504440 0.209685 0.034906
O O4 0.500000 0.000000 0.000000
O O5 0.001412 0.850955 0.162152
O O6 0.933938 0.002849 0.280831
O O7 0.500000 0.750191 0.250000
O O8 0.381744 0.855478 0.321411
O O9 0.395123 0.681840 0.216297
O O10 0.854032 0.000735 0.175092
O O11 0.941191 0.894649 0.034383
O O12 0.927083 0.107629 0.018389
O O13 0.829121 0.983144 0.017556
O O14 0.329233 0.286436 0.962824
O O15 0.308615 0.439593 0.855050
O O16 0.213819 0.411683 0.018223
#
# Coordination Sequence:
#
# PCOD8130075 Si02
#       8
#     8   4   8   8   8   8   8   8
#     4  11  21  37  55  74 104 143 185 220 246 307
#     4  10  18  28  50  84 114 136 156 220 286 320
#     4   9  17  31  53  76  98 131 181 216 254 302
#     4  10  18  29  54  82 109 131 168 223 277 315
#     4  10  18  34  54  79 112 132 169 219 272 319
#     4  10  19  31  50  82 109 131 174 220 267 313
#     4   9  20  35  54  77 103 137 175 220 261 306
#     4  10  17  27  53  84 106 137 163 213 279 325
#
# _framework density 16.622056000000001
#
# number of rings (size 3 to 8) (size 9 to 14) (size 15 to 20)
#    0.000    2.133    4.667    0.000    0.000    0.000 
#    6.000    0.000    0.000    0.800    0.000    0.000 
#    0.000    0.000    0.000    0.000    0.000    0.000 
#
# Total GULP energy -371930.812103 kJ/mol
# GULP energy per Si atom -12397.693737 kJ/mol
# Density = 1.658422 g / cm^3
# Si number density = 16.622056 Si / 1000 Ang^3
#
#
#
# Elastic Constant Matrix: (Units=GPa)
#
#
# Indices 1 2 3 4 5 6 
#
# 1 79.2465 32.2583 58.9208 0.0000 -10.8114 0.0000
# 2 32.2583 90.4172 42.6286 0.0000 1.1620 0.0000
# 3 58.9208 42.6286 118.9269 0.0000 -9.4191 0.0000
# 4 0.0000 0.0000 0.0000 19.5104 0.0000 5.0985
# 5 -10.8114 1.1620 -9.4191 0.0000 26.4459 0.0000
# 6 0.0000 0.0000 0.0000 5.0985 0.0000 17.8078
#
#
#
# Elastic Compliance Matrix: (Units=1/GPa)
#
#
# Indices 1 2 3 4 5 6 
#
# 1 0.021470 -0.003531 -0.008916 0.000000 0.005757 0.000000
# 2 -0.003531 0.014033 -0.003544 0.000000 -0.003322 0.000000
# 3 -0.008916 -0.003544 0.014221 0.000000 0.001576 0.000000
# 4 0.000000 0.000000 0.000000 0.055399 0.000000 -0.015861
# 5 0.005757 -0.003322 0.001576 0.000000 0.040874 0.000000
# 6 0.000000 0.000000 0.000000 -0.015861 0.000000 0.060696
#
#
# Mechanical properties :
#
#
# Convention : Reuss Voigt Hill
#
# Bulk Modulus (GPa) = 56.35822 61.80066 59.07944
# Shear Modulus (GPa) = 20.44245 23.07168 21.75707
#
# Velocity S-wave (km/s) = 3.51071 3.72965 3.62184
# Velocity P-wave (km/s) = 7.10019 7.47045 7.28768
#
# Compressibility (1/GPa) = 0.01774364
#
# Stress axis : x y z
#
# Youngs Moduli (GPa) = 46.57575 71.26048 70.31918
#
# Poissons Ratio (x) = 0.25159 0.62695
# Poissons Ratio (y) = 0.16444 0.24921
# Poissons Ratio (z) = 0.41526 0.25255
#
# Static dielectric constant tensor:
#      x y z
#    x 2.962820 0.000000 -0.077600 
#    y 0.000000 2.811830 0.000000 
#    z -0.077600 0.000000 3.282730 
# 
# 
# High freq. dielectric constant tensor:
#      x y z
#    x 1.618530 0.000000 0.000940 
#    y 0.000000 1.609920 0.000000 
#    z 0.000940 0.000000 1.655700 
# 
# From -- ./inp_files/172940.got.cif
#   From: 2010.06.25/outbox.cif.g09.slc.cpg/sg15_87_cif.got.tgz:172940.got - 2010.06.28 07:06:18.
