data_PCOD8130434
_publ_section_title
;
Structure prediction by ZEFSAII (Michael W. Deem and Ramdas Pophale) SiO2 
 PCOD8130434
Probable space group: C 2/C
;
_chemical_formula_sum "Si O2"
_cell_formula_units_Z 40
_cell_length_a 13.399675
_cell_length_b 20.741878
_cell_length_c 13.851646
_cell_angle_alpha 90.000000
_cell_angle_beta 32.118708
_cell_angle_gamma 90.000000
_cell_volume 2046.869180
_symmetry_space_group_name_H-M "C 2/C"
_symmetry_group_IT_number 15
_symmetry_cell_setting 'monoclinic'
loop_
_space_group_symop_operation_xyz
x,y,z
-x,y,1/2-z
-x,-y,-z
x,-y,1/2+z
1/2+x,1/2+y,z
1/2-x,1/2+y,1/2-z
1/2-x,1/2-y,-z
1/2+x,1/2-y,1/2+z
loop_
_atom_site_type_symbol
_atom_site_label
_atom_site_fract_x
_atom_site_fract_y
_atom_site_fract_z
Si Si1 0.794019 0.356469 0.461721
Si Si2 0.659330 0.914495 0.365092
Si Si3 0.439762 0.670575 0.531459
Si Si4 0.414534 0.010734 0.918040
Si Si5 0.833590 0.687340 0.135412
O O1 0.638245 0.337262 0.512728
O O2 0.770213 0.431550 0.511707
O O3 0.769599 0.312289 0.575896
O O4 0.000000 0.345484 0.250000
O O5 0.856522 0.883799 0.170576
O O6 0.587145 0.961092 0.339475
O O7 0.509374 0.858697 0.509276
O O8 0.693924 0.955209 0.434181
O O9 0.664200 0.663319 0.342517
O O10 0.385813 0.739798 0.619592
O O11 0.500000 0.980751 0.750000
#
# Coordination Sequence:
#
# PCOD8130434 Si02
#       5
#     8   8   8   8   8
#     4  10  17  33  51  76 111 144 173 214 273 320
#     4  10  20  35  56  81 107 148 177 221 273 314
#     4  12  19  33  53  80 113 140 175 224 269 331
#     4   9  17  36  60  73 110 147 182 219 268 314
#     4  11  21  31  52  83 110 144 175 216 277 328
#
# _framework density 19.54204
#
# number of rings (size 3 to 8) (size 9 to 14) (size 15 to 20)
#    0.000    1.600    8.000    1.200    0.000    0.000 
#    0.000    9.000    0.000    1.200    0.000    0.000 
#    0.000    0.000    0.000    0.000    0.000    0.000 
#
# Total GULP energy -248005.784528 kJ/mol
# GULP energy per Si atom -12400.289226 kJ/mol
# Density = 1.949756 g / cm^3
# Si number density = 19.542040 Si / 1000 Ang^3
#
#
#
# Elastic Constant Matrix: (Units=GPa)
#
#
# Indices 1 2 3 4 5 6 
#
# 1 26.5735 18.4650 15.4882 0.0191 11.5054 -0.0218
# 2 18.4650 83.7007 44.3330 0.0474 21.9558 -0.0486
# 3 15.4882 44.3330 133.7035 0.0667 11.1963 -0.0497
# 4 0.0191 0.0474 0.0667 40.0143 -0.0452 12.5109
# 5 11.5054 21.9558 11.1963 -0.0452 24.9824 0.0327
# 6 -0.0218 -0.0486 -0.0497 12.5109 0.0327 17.2407
#
#
#
# Elastic Compliance Matrix: (Units=1/GPa)
#
#
# Indices 1 2 3 4 5 6 
#
# 1 0.050302 -0.005092 -0.002674 -0.000073 -0.017493 0.000128
# 2 -0.005092 0.018645 -0.004589 -0.000056 -0.011985 0.000096
# 3 -0.002674 -0.004589 0.009216 -0.000013 0.001134 0.000017
# 4 -0.000073 -0.000056 -0.000013 0.032326 0.000177 -0.023458
# 5 -0.017493 -0.011985 0.001134 0.000177 0.058110 -0.000292
# 6 0.000128 0.000096 0.000017 -0.023458 -0.000292 0.075026
#
#
# Mechanical properties :
#
#
# Convention : Reuss Voigt Hill
#
# Bulk Modulus (GPa) = 18.70779 44.50557 31.60668
# Shear Modulus (GPa) = 17.47326 27.49357 22.48341
#
# Velocity S-wave (km/s) = 2.99346 3.75493 3.39560
# Velocity P-wave (km/s) = 4.64129 6.45159 5.61981
#
# Compressibility (1/GPa) = 0.05345368
#
# Stress axis : x y z
#
# Youngs Moduli (GPa) = 19.87988 53.63360 108.51262
#
# Poissons Ratio (x) = 0.27311 0.29012
# Poissons Ratio (y) = 0.10123 0.49793
# Poissons Ratio (z) = 0.05315 0.24611
#
# Static dielectric constant tensor:
#      x y z
#    x 3.176200 -0.000010 0.205770 
#    y -0.000010 3.716460 0.000050 
#    z 0.205770 0.000050 3.573730 
# 
# 
# High freq. dielectric constant tensor:
#      x y z
#    x 1.703890 0.000000 0.013330 
#    y 0.000000 1.763780 0.000010 
#    z 0.013330 0.000010 1.765150 
# 
# From -- ./inp_files/40432.got.cif
#   From: 2010.06.25/outbox.cif.g09.slc.cpg/sg15_21_cif.got.tgz:40432.got - 2010.06.28 07:06:18.
