data_PCOD8130998
_publ_section_title
;
Structure prediction by ZEFSAII (Michael W. Deem and Ramdas Pophale) SiO2 
 PCOD8130998
Probable space group: C 2/C
;
_chemical_formula_sum "Si O2"
_cell_formula_units_Z 60
_cell_length_a 26.550259
_cell_length_b 16.309491
_cell_length_c 14.519156
_cell_angle_alpha 90.000000
_cell_angle_beta 151.818621
_cell_angle_gamma 90.000000
_cell_volume 2969.174177
_symmetry_space_group_name_H-M "C 2/C"
_symmetry_group_IT_number 15
_symmetry_cell_setting 'monoclinic'
loop_
_space_group_symop_operation_xyz
x,y,z
-x,y,1/2-z
-x,-y,-z
x,-y,1/2+z
1/2+x,1/2+y,z
1/2-x,1/2+y,1/2-z
1/2-x,1/2-y,-z
1/2+x,1/2-y,1/2+z
loop_
_atom_site_type_symbol
_atom_site_label
_atom_site_fract_x
_atom_site_fract_y
_atom_site_fract_z
Si Si1 0.589543 0.005122 0.072012
Si Si2 0.591563 0.309604 0.465280
Si Si3 0.500000 0.994133 0.750000
Si Si4 0.734564 0.059751 0.588076
Si Si5 0.103586 0.102220 0.356615
Si Si6 0.295527 0.427282 0.984404
Si Si7 0.213157 0.653240 0.725825
Si Si8 0.911367 0.930495 0.871605
O O1 0.621812 0.912207 0.101461
O O2 0.682230 0.059963 0.257062
O O3 0.542785 0.047929 0.904003
O O4 0.500000 0.000000 0.000000
O O5 0.500000 0.273507 0.250000
O O6 0.662734 0.350763 0.502777
O O7 0.656976 0.240194 0.623447
O O8 0.555283 0.374194 0.486714
O O9 0.395162 0.944593 0.619380
O O10 0.778091 0.095475 0.562612
O O11 0.772361 0.123275 0.727809
O O12 0.794809 0.972028 0.702735
O O13 0.200593 0.157095 0.552784
O O14 0.091344 0.122643 0.227840
O O15 0.000000 0.123002 0.250000
O O16 0.129037 0.005788 0.407826
O O17 0.000000 0.000000 0.000000
#
# Coordination Sequence:
#
# PCOD8130998 Si02
#       8
#     8   8   4   8   8   8   8   8
#     4  10  19  36  59  84 118 158 207 247 299 369
#     4  12  25  39  60  92 130 161 202 258 317 371
#     4  10  18  30  58  84 116 152 200 250 298 352
#     4  10  20  36  62  89 119 157 206 250 308 366
#     4  10  20  40  68  88 122 161 211 260 306 369
#     4  10  20  37  61  93 117 157 210 261 299 366
#     4  10  24  38  58  91 126 167 199 250 319 373
#     4  11  22  40  69  94 119 161 213 262 309 365
#
# _framework density 20.207639
#
# number of rings (size 3 to 8) (size 9 to 14) (size 15 to 20)
#    0.000    1.600    1.333    6.000    3.733    1.067 
#    0.000    2.667    5.867    0.000    0.000    0.000 
#    0.000    0.000    0.000    0.000    0.000    0.000 
#
# Total GULP energy -371685.684312 kJ/mol
# GULP energy per Si atom -12389.522810 kJ/mol
# Density = 2.016165 g / cm^3
# Si number density = 20.207639 Si / 1000 Ang^3
#
#
#
# Elastic Constant Matrix: (Units=GPa)
#
#
# Indices 1 2 3 4 5 6 
#
# 1 132.5628 29.1597 50.5845 0.0000 -16.7466 0.0000
# 2 29.1597 61.9165 25.6356 0.0000 -3.8108 0.0000
# 3 50.5845 25.6356 104.3085 0.0000 -18.9390 0.0000
# 4 0.0000 0.0000 0.0000 25.0561 0.0000 -6.0434
# 5 -16.7466 -3.8108 -18.9390 0.0000 47.7557 0.0000
# 6 0.0000 0.0000 0.0000 -6.0434 0.0000 15.6453
#
#
#
# Elastic Compliance Matrix: (Units=1/GPa)
#
#
# Indices 1 2 3 4 5 6 
#
# 1 0.009840 -0.002986 -0.003723 0.000000 0.001736 0.000000
# 2 -0.002986 0.018892 -0.003353 0.000000 -0.000869 0.000000
# 3 -0.003723 -0.003353 0.012857 0.000000 0.003526 0.000000
# 4 0.000000 0.000000 0.000000 0.044011 0.000000 0.017000
# 5 0.001736 -0.000869 0.003526 0.000000 0.022877 0.000000
# 6 0.000000 0.000000 0.000000 0.017000 0.000000 0.070484
#
#
# Mechanical properties :
#
#
# Convention : Reuss Voigt Hill
#
# Bulk Modulus (GPa) = 46.58727 56.61637 51.60182
# Shear Modulus (GPa) = 24.24368 30.58529 27.41448
#
# Velocity S-wave (km/s) = 3.46747 3.89466 3.68725
# Velocity P-wave (km/s) = 6.25583 6.95001 6.61204
#
# Compressibility (1/GPa) = 0.02146509
#
# Stress axis : x y z
#
# Youngs Moduli (GPa) = 101.62171 52.93334 77.78140
#
# Poissons Ratio (x) = 0.15806 0.28958
# Poissons Ratio (y) = 0.30345 0.26078
# Poissons Ratio (z) = 0.37834 0.17747
#
# Static dielectric constant tensor:
#      x y z
#    x 4.036790 0.000000 -0.216090 
#    y 0.000000 3.093260 0.000000 
#    z -0.216090 0.000000 4.015740 
# 
# 
# High freq. dielectric constant tensor:
#      x y z
#    x 1.813640 0.000000 -0.010530 
#    y 0.000000 1.725510 0.000000 
#    z -0.010530 0.000000 1.815640 
# 
# From -- ./inp_files/178563.got.cif
#   From: 2010.06.25/outbox.cif.g09.slc.cpg/sg15_90_cif.got.tgz:178563.got - 2010.06.28 07:06:18.
