data_PCOD8130144
_publ_section_title
;
Structure prediction by ZEFSAII (Michael W. Deem and Ramdas Pophale) SiO2 
 PCOD8130144
Probable space group: C 2/C
;
_chemical_formula_sum "Si O2"
_cell_formula_units_Z 64
_cell_length_a 20.741478
_cell_length_b 10.915486
_cell_length_c 16.170875
_cell_angle_alpha 90.000000
_cell_angle_beta 108.161577
_cell_angle_gamma 90.000000
_cell_volume 3478.746422
_symmetry_space_group_name_H-M "C 2/C"
_symmetry_group_IT_number 15
_symmetry_cell_setting 'monoclinic'
loop_
_space_group_symop_operation_xyz
x,y,z
-x,y,1/2-z
-x,-y,-z
x,-y,1/2+z
1/2+x,1/2+y,z
1/2-x,1/2+y,1/2-z
1/2-x,1/2-y,-z
1/2+x,1/2-y,1/2+z
loop_
_atom_site_type_symbol
_atom_site_label
_atom_site_fract_x
_atom_site_fract_y
_atom_site_fract_z
Si Si1 0.641979 0.710064 0.140287
Si Si2 0.690583 0.837897 0.010322
Si Si3 0.324573 0.965215 0.657691
Si Si4 0.671344 0.555512 0.615151
Si Si5 0.713756 0.774570 0.733009
Si Si6 0.077509 0.309846 0.275402
Si Si7 0.855952 0.206944 0.043892
Si Si8 0.725627 0.096293 0.068730
O O1 0.634008 0.768947 0.044839
O O2 0.632593 0.564296 0.130810
O O3 0.717867 0.755051 0.190604
O O4 0.589250 0.752020 0.189231
O O5 0.721914 0.950265 0.075347
O O6 0.750000 0.750000 0.000000
O O7 0.652499 0.898671 0.917320
O O8 0.333673 0.863060 0.732106
O O9 0.247942 0.018430 0.616783
O O10 0.374710 0.073943 0.698727
O O11 0.676252 0.648769 0.694576
O O12 0.623621 0.620383 0.525990
O O13 0.736571 0.849037 0.662648
O O14 0.092250 0.215977 0.357994
O O15 0.000000 0.351004 0.250000
O O16 0.789657 0.135498 0.043000
O O17 0.840062 0.344359 0.003934
#
# Coordination Sequence:
#
# PCOD8130144 Si02
#       8
#     8   8   8   8   8   8   8   8
#     4  11  22  34  53  91 122 144 195 235 291 345
#     4  12  20  30  54  90 124 143 169 240 317 348
#     4  11  20  36  54  89 119 147 195 236 300 351
#     4  10  19  35  57  90 119 141 179 255 313 340
#     4  10  19  30  58  85 117 143 179 245 301 345
#     4  12  24  41  60  79 115 166 205 230 264 349
#     4  10  17  34  56  79 107 150 192 229 285 344
#     4  10  17  29  53  81 115 144 178 236 296 339
#
# _framework density 18.397431999999998
#
# number of rings (size 3 to 8) (size 9 to 14) (size 15 to 20)
#    0.000    1.250    7.500    1.500    1.750    0.000 
#    2.250    1.250    0.000    0.750    0.000    0.000 
#    0.000    0.000    0.000    0.000    0.000    0.000 
#
# Total GULP energy -396524.210450 kJ/mol
# GULP energy per Si atom -12391.381577 kJ/mol
# Density = 1.835556 g / cm^3
# Si number density = 18.397432 Si / 1000 Ang^3
#
#
#
# Elastic Constant Matrix: (Units=GPa)
#
#
# Indices 1 2 3 4 5 6 
#
# 1 46.4633 17.9474 7.6597 0.0000 -5.9757 0.0000
# 2 17.9474 116.2792 15.4087 0.0000 -7.5327 0.0000
# 3 7.6597 15.4087 43.9306 0.0000 -8.0912 0.0000
# 4 0.0000 0.0000 0.0000 21.9886 0.0000 -4.7021
# 5 -5.9757 -7.5327 -8.0912 0.0000 9.8400 0.0000
# 6 0.0000 0.0000 0.0000 -4.7021 0.0000 7.7368
#
#
#
# Elastic Compliance Matrix: (Units=1/GPa)
#
#
# Indices 1 2 3 4 5 6 
#
# 1 0.024305 -0.002851 -0.001086 0.000000 0.011685 0.000000
# 2 -0.002851 0.009573 -0.002157 0.000000 0.003824 0.000000
# 3 -0.001086 -0.002157 0.027439 0.000000 0.020252 0.000000
# 4 0.000000 0.000000 0.000000 0.052272 0.000000 0.031769
# 5 0.011685 0.003824 0.020252 0.000000 0.128303 0.000000
# 6 0.000000 0.000000 0.000000 0.031769 0.000000 0.148561
#
#
# Mechanical properties :
#
#
# Convention : Reuss Voigt Hill
#
# Bulk Modulus (GPa) = 20.35334 32.07828 26.21581
# Shear Modulus (GPa) = 11.93271 18.95690 15.44481
#
# Velocity S-wave (km/s) = 2.54954 3.21348 2.90057
# Velocity P-wave (km/s) = 4.44455 5.58952 5.04959
#
# Compressibility (1/GPa) = 0.04913200
#
# Stress axis : x y z
#
# Youngs Moduli (GPa) = 41.14329 104.45522 36.44450
#
# Poissons Ratio (x) = 0.29776 0.03957
# Poissons Ratio (y) = 0.11728 0.07859
# Poissons Ratio (z) = 0.04467 0.22526
#
# Static dielectric constant tensor:
#      x y z
#    x 2.802620 0.000000 -0.311350 
#    y 0.000000 3.115570 0.000000 
#    z -0.311350 0.000000 3.823250 
# 
# 
# High freq. dielectric constant tensor:
#      x y z
#    x 1.635730 0.000000 -0.033800 
#    y 0.000000 1.731510 0.000000 
#    z -0.033800 0.000000 1.731820 
# 
# From -- ./inp_files/167655.got.cif
#   From: 2010.06.25/outbox.cif.g09.slc.cpg/sg15_84_cif.got.tgz:167655.got - 2010.06.28 07:06:18.
