data_PCOD8130053
_publ_section_title
;
Structure prediction by ZEFSAII (Michael W. Deem and Ramdas Pophale) SiO2 
 PCOD8130053
Probable space group: C 2/C
;
_chemical_formula_sum "Si O2"
_cell_formula_units_Z 48
_cell_length_a 25.536708
_cell_length_b 14.786063
_cell_length_c 8.386720
_cell_angle_alpha 90.000000
_cell_angle_beta 86.355529
_cell_angle_gamma 90.000000
_cell_volume 3160.315493
_symmetry_space_group_name_H-M "C 2/C"
_symmetry_group_IT_number 15
_symmetry_cell_setting 'monoclinic'
loop_
_space_group_symop_operation_xyz
x,y,z
-x,y,1/2-z
-x,-y,-z
x,-y,1/2+z
1/2+x,1/2+y,z
1/2-x,1/2+y,1/2-z
1/2-x,1/2-y,-z
1/2+x,1/2-y,1/2+z
loop_
_atom_site_type_symbol
_atom_site_label
_atom_site_fract_x
_atom_site_fract_y
_atom_site_fract_z
Si Si1 0.901060 0.942389 0.134416
Si Si2 0.798537 0.044048 0.453005
Si Si3 0.942555 0.116678 0.308157
Si Si4 0.241936 0.683932 0.645193
Si Si5 0.658804 0.697526 0.280682
Si Si6 0.823514 0.145509 0.868593
O O1 0.879563 0.872267 0.271124
O O2 0.929756 0.024237 0.217158
O O3 0.851021 0.976272 0.044675
O O4 0.940903 0.896457 0.000595
O O5 0.751485 0.082082 0.574337
O O6 0.810681 0.113655 0.307385
O O7 0.786609 0.055029 0.887867
O O8 0.901685 0.194627 0.262757
O O9 0.000000 0.150886 0.250000
O O10 0.250000 0.750000 0.500000
O O11 0.183973 0.705323 0.725568
O O12 0.286660 0.709297 0.767234
O O13 0.663971 0.693006 0.468805
#
# Coordination Sequence:
#
# PCOD8130053 Si02
#       6
#     8   8   8   8   8   8
#     4  10  17  27  40  59  84 112 154 191 209 247
#     4   9  16  28  44  60  83 114 145 181 215 261
#     4  11  19  28  41  59  86 122 156 186 217 247
#     4   9  19  28  41  64  87 114 145 178 224 267
#     4  10  17  29  40  59  88 113 149 185 217 258
#     4  11  16  28  46  62  83 121 147 180 220 266
#
# _framework density 15.188357999999999
#
# number of rings (size 3 to 8) (size 9 to 14) (size 15 to 20)
#    0.000    2.000    5.000    3.000    0.000    0.000 
#    0.000    0.000    0.000    0.000    0.000    0.000 
#    0.000    1.333    0.000    0.000    0.000    1.167 
#
# Total GULP energy -297342.825539 kJ/mol
# GULP energy per Si atom -12389.284397 kJ/mol
# Density = 1.515379 g / cm^3
# Si number density = 15.188358 Si / 1000 Ang^3
#
#
#
# Elastic Constant Matrix: (Units=GPa)
#
#
# Indices 1 2 3 4 5 6 
#
# 1 92.7558 27.2661 34.3261 0.0000 -19.6578 0.0000
# 2 27.2661 27.1893 18.0651 0.0000 -10.3655 0.0000
# 3 34.3261 18.0651 106.9460 0.0000 -12.5220 0.0000
# 4 0.0000 0.0000 0.0000 19.1382 0.0000 -0.4354
# 5 -19.6578 -10.3655 -12.5220 0.0000 23.7150 0.0000
# 6 0.0000 0.0000 0.0000 -0.4354 0.0000 21.2857
#
#
#
# Elastic Compliance Matrix: (Units=1/GPa)
#
#
# Indices 1 2 3 4 5 6 
#
# 1 0.016921 -0.012578 -0.002460 0.000000 0.007229 0.000000
# 2 -0.012578 0.056792 -0.004125 0.000000 0.012219 0.000000
# 3 -0.002460 -0.004125 0.011072 0.000000 0.002004 0.000000
# 4 0.000000 0.000000 0.000000 0.052276 0.000000 0.001069
# 5 0.007229 0.012219 0.002004 0.000000 0.054559 0.000000
# 6 0.000000 0.000000 0.000000 0.001069 0.000000 0.047002
#
#
# Mechanical properties :
#
#
# Convention : Reuss Voigt Hill
#
# Bulk Modulus (GPa) = 21.52505 42.91174 32.21839
# Shear Modulus (GPa) = 17.09792 22.64338 19.87065
#
# Velocity S-wave (km/s) = 3.35882 3.86533 3.62094
# Velocity P-wave (km/s) = 5.40787 6.94517 6.22417
#
# Compressibility (1/GPa) = 0.04645751
#
# Stress axis : x y z
#
# Youngs Moduli (GPa) = 59.09866 17.60812 90.32186
#
# Poissons Ratio (x) = 0.22148 0.22218
# Poissons Ratio (y) = 0.74335 0.37261
# Poissons Ratio (z) = 0.14538 0.07264
#
# Static dielectric constant tensor:
#      x y z
#    x 3.007580 0.000000 -0.258780 
#    y 0.000000 2.879120 0.000000 
#    z -0.258780 0.000000 3.459690 
# 
# 
# High freq. dielectric constant tensor:
#      x y z
#    x 1.549590 0.000000 -0.003920 
#    y 0.000000 1.527110 0.000000 
#    z -0.003920 0.000000 1.618250 
# 
# From -- ./inp_files/55866.got.cif
#   From: 2010.06.25/outbox.cif.g09.slc.cpg/sg15_28_cif.got.tgz:55866.got - 2010.06.28 07:06:18.
