data_PCOD8130548
_publ_section_title
;
Structure prediction by ZEFSAII (Michael W. Deem and Ramdas Pophale) SiO2 
 PCOD8130548
Probable space group: C 2/C
;
_chemical_formula_sum "Si O2"
_cell_formula_units_Z 56
_cell_length_a 9.823500
_cell_length_b 17.325202
_cell_length_c 17.252611
_cell_angle_alpha 90.000000
_cell_angle_beta 104.275130
_cell_angle_gamma 90.000000
_cell_volume 2845.628630
_symmetry_space_group_name_H-M "C 2/C"
_symmetry_group_IT_number 15
_symmetry_cell_setting 'monoclinic'
loop_
_space_group_symop_operation_xyz
x,y,z
-x,y,1/2-z
-x,-y,-z
x,-y,1/2+z
1/2+x,1/2+y,z
1/2-x,1/2+y,1/2-z
1/2-x,1/2-y,-z
1/2+x,1/2-y,1/2+z
loop_
_atom_site_type_symbol
_atom_site_label
_atom_site_fract_x
_atom_site_fract_y
_atom_site_fract_z
Si Si1 0.198173 0.937338 0.140592
Si Si2 0.584424 0.362961 0.840363
Si Si3 0.162706 0.015352 0.799047
Si Si4 0.350757 0.770730 0.696410
Si Si5 0.153862 0.707681 0.803586
Si Si6 0.389842 0.634020 0.590265
Si Si7 0.669684 0.603852 0.089141
O O1 0.245791 0.966679 0.232611
O O2 0.302490 0.866267 0.137740
O O3 0.043888 0.902260 0.111130
O O4 0.213123 0.013209 0.088721
O O5 0.500000 0.346828 0.750000
O O6 0.697287 0.430821 0.839459
O O7 0.659447 0.280475 0.864697
O O8 0.487346 0.389425 0.898079
O O9 0.203942 0.078071 0.869149
O O10 0.000000 0.016756 0.750000
O O11 0.500000 0.797573 0.750000
O O12 0.261997 0.722764 0.747616
O O13 0.383248 0.718513 0.626021
O O14 0.271230 0.847989 0.659253
O O15 0.000000 0.690364 0.750000
O O16 0.326206 0.639264 0.495723
#
# Coordination Sequence:
#
# PCOD8130548 Si02
#       7
#     8   8   8   8   8   8   8
#     4  11  20  37  61  91 120 162 211 247 294 366
#     4  10  17  34  58  87 116 159 201 245 289 362
#     4   9  15  31  58  85 114 153 207 242 283 351
#     4  12  22  41  65  90 121 164 207 251 299 370
#     4  11  21  37  64  89 118 156 210 251 296 356
#     4  11  21  36  62  95 121 160 203 256 303 360
#     4  12  23  36  63  94 127 153 205 259 310 352
#
# _framework density 19.679309
#
# number of rings (size 3 to 8) (size 9 to 14) (size 15 to 20)
#    0.000    1.143   10.000    1.286    0.000    0.571 
#    0.000    0.714    0.000    0.857    0.000    0.000 
#    0.000    0.000    0.000    0.000    0.000    0.000 
#
# Total GULP energy -346970.920669 kJ/mol
# GULP energy per Si atom -12391.818595 kJ/mol
# Density = 1.963452 g / cm^3
# Si number density = 19.679309 Si / 1000 Ang^3
#
#
#
# Elastic Constant Matrix: (Units=GPa)
#
#
# Indices 1 2 3 4 5 6 
#
# 1 47.8514 15.1987 16.0409 0.0000 8.4482 0.0000
# 2 15.1987 132.7121 13.1330 0.0000 8.9288 0.0000
# 3 16.0409 13.1330 64.3805 0.0000 -8.0859 0.0000
# 4 0.0000 0.0000 0.0000 21.8896 0.0000 -2.2328
# 5 8.4482 8.9288 -8.0859 0.0000 17.3223 0.0000
# 6 0.0000 0.0000 0.0000 -2.2328 0.0000 29.9629
#
#
#
# Elastic Compliance Matrix: (Units=1/GPa)
#
#
# Indices 1 2 3 4 5 6 
#
# 1 0.027080 -0.001130 -0.008607 0.000000 -0.016643 0.000000
# 2 -0.001130 0.008166 -0.001959 0.000000 -0.004572 0.000000
# 3 -0.008607 -0.001959 0.019897 0.000000 0.014495 0.000000
# 4 0.000000 0.000000 0.000000 0.046034 0.000000 0.003430
# 5 -0.016643 -0.004572 0.014495 0.000000 0.074969 0.000000
# 6 0.000000 0.000000 0.000000 0.003430 0.000000 0.033630
#
#
# Mechanical properties :
#
#
# Convention : Reuss Voigt Hill
#
# Bulk Modulus (GPa) = 31.49343 37.07657 34.28500
# Shear Modulus (GPa) = 20.51269 27.20639 23.85954
#
# Velocity S-wave (km/s) = 3.23204 3.72221 3.48576
# Velocity P-wave (km/s) = 5.47414 6.11183 5.80175
#
# Compressibility (1/GPa) = 0.03175265
#
# Stress axis : x y z
#
# Youngs Moduli (GPa) = 36.92704 122.45984 50.25832
#
# Poissons Ratio (x) = 0.13837 0.43258
# Poissons Ratio (y) = 0.04172 0.09843
# Poissons Ratio (z) = 0.31783 0.23984
#
# Static dielectric constant tensor:
#      x y z
#    x 3.374710 0.000000 -0.207640 
#    y 0.000000 4.085170 0.000000 
#    z -0.207640 0.000000 3.398840 
# 
# 
# High freq. dielectric constant tensor:
#      x y z
#    x 1.723440 0.000000 -0.016210 
#    y 0.000000 1.793440 0.000000 
#    z -0.016210 0.000000 1.737910 
# 
# From -- ./inp_files/191057.got.cif
#   From: 2010.06.25/outbox.cif.g09.slc.cpg/sg15_96_cif.got.tgz:191057.got - 2010.06.28 07:06:18.
