data_PCOD8130643
_publ_section_title
;
Structure prediction by ZEFSAII (Michael W. Deem and Ramdas Pophale) SiO2 
 PCOD8130643
Probable space group: C 2/C
;
_chemical_formula_sum "Si O2"
_cell_formula_units_Z 32
_cell_length_a 18.049269
_cell_length_b 10.959015
_cell_length_c 8.870898
_cell_angle_alpha 90.000000
_cell_angle_beta 113.384005
_cell_angle_gamma 90.000000
_cell_volume 1610.563127
_symmetry_space_group_name_H-M "C 2/C"
_symmetry_group_IT_number 15
_symmetry_cell_setting 'monoclinic'
loop_
_space_group_symop_operation_xyz
x,y,z
-x,y,1/2-z
-x,-y,-z
x,-y,1/2+z
1/2+x,1/2+y,z
1/2-x,1/2+y,1/2-z
1/2-x,1/2-y,-z
1/2+x,1/2-y,1/2+z
loop_
_atom_site_type_symbol
_atom_site_label
_atom_site_fract_x
_atom_site_fract_y
_atom_site_fract_z
Si Si1 0.326787 0.492352 0.090911
Si Si2 0.545998 0.098796 0.133196
Si Si3 0.276070 0.117709 0.245369
Si Si4 0.878771 0.832053 0.386760
O O1 0.256288 0.555405 0.129503
O O2 0.388551 0.422000 0.251102
O O3 0.287322 0.397566 0.941149
O O4 0.378089 0.594139 0.042243
O O5 0.500000 0.117516 0.250000
O O6 0.638457 0.054328 0.232576
O O7 0.548867 0.232071 0.051935
O O8 0.500000 0.000000 0.000000
O O9 0.292520 0.261264 0.292907
#
# Coordination Sequence:
#
# PCOD8130643 Si02
#       4
#     8   8   8   8
#     4  10  17  36  51  90 107 138 187 225 295 320
#     4  10  21  38  53  80 110 146 190 219 272 332
#     4   9  19  31  59  78 114 138 181 231 276 329
#     4   9  21  31  58  78 114 145 176 236 274 329
#
# _framework density 19.868825999999999
#
# number of rings (size 3 to 8) (size 9 to 14) (size 15 to 20)
#    1.500    1.000    0.000    3.000    0.000    0.000 
#    0.000    3.750    0.000    0.000    0.000    0.000 
#    0.000    0.000    0.000    0.000    0.000    0.000 
#
# Total GULP energy -198239.292655 kJ/mol
# GULP energy per Si atom -12389.955791 kJ/mol
# Density = 1.982360 g / cm^3
# Si number density = 19.868826 Si / 1000 Ang^3
#
#
#
# Elastic Constant Matrix: (Units=GPa)
#
#
# Indices 1 2 3 4 5 6 
#
# 1 90.7137 50.8739 40.1867 0.0000 -19.6983 0.0000
# 2 50.8739 130.7113 46.5458 0.0000 -18.2927 0.0000
# 3 40.1867 46.5458 63.9897 0.0000 -22.4592 0.0000
# 4 0.0000 0.0000 0.0000 35.9110 0.0000 -1.9274
# 5 -19.6983 -18.2927 -22.4592 0.0000 28.4926 0.0000
# 6 0.0000 0.0000 0.0000 -1.9274 0.0000 40.0147
#
#
#
# Elastic Compliance Matrix: (Units=1/GPa)
#
#
# Indices 1 2 3 4 5 6 
#
# 1 0.016850 -0.003680 -0.006423 0.000000 0.004224 0.000000
# 2 -0.003680 0.011148 -0.005777 0.000000 0.000059 0.000000
# 3 -0.006423 -0.005777 0.029037 0.000000 0.014738 0.000000
# 4 0.000000 0.000000 0.000000 0.027919 0.000000 0.001345
# 5 0.004224 0.000059 0.014738 0.000000 0.049672 0.000000
# 6 0.000000 0.000000 0.000000 0.001345 0.000000 0.025056
#
#
# Mechanical properties :
#
#
# Convention : Reuss Voigt Hill
#
# Bulk Modulus (GPa) = 39.56549 62.29194 50.92871
# Shear Modulus (GPa) = 25.01666 30.73756 27.87711
#
# Velocity S-wave (km/s) = 3.55222 3.93749 3.74980
# Velocity P-wave (km/s) = 6.06473 7.21744 6.66605
#
# Compressibility (1/GPa) = 0.02527455
#
# Stress axis : x y z
#
# Youngs Moduli (GPa) = 59.34713 89.69988 34.43937
#
# Poissons Ratio (x) = 0.33009 0.22120
# Poissons Ratio (y) = 0.21839 0.19897
# Poissons Ratio (z) = 0.38118 0.51823
#
# Static dielectric constant tensor:
#      x y z
#    x 3.217940 0.000000 0.151810 
#    y 0.000000 3.669400 0.000000 
#    z 0.151810 0.000000 2.538270 
# 
# 
# High freq. dielectric constant tensor:
#      x y z
#    x 1.759550 0.000000 -0.028210 
#    y 0.000000 1.777720 0.000000 
#    z -0.028210 0.000000 1.758480 
# 
# From -- ./inp_files/45670.got.cif
#   From: 2010.06.25/outbox.cif.g09.slc.cpg/sg15_23_cif.got.tgz:45670.got - 2010.06.28 07:06:18.
