data_PCOD8130511
_publ_section_title
;
Structure prediction by ZEFSAII (Michael W. Deem and Ramdas Pophale) SiO2 
 PCOD8130511
Probable space group: C 2/C
;
_chemical_formula_sum "Si O2"
_cell_formula_units_Z 56
_cell_length_a 21.004179
_cell_length_b 18.216027
_cell_length_c 12.648135
_cell_angle_alpha 90.000000
_cell_angle_beta 35.784625
_cell_angle_gamma 90.000000
_cell_volume 2829.753951
_symmetry_space_group_name_H-M "C 2/C"
_symmetry_group_IT_number 15
_symmetry_cell_setting 'monoclinic'
loop_
_space_group_symop_operation_xyz
x,y,z
-x,y,1/2-z
-x,-y,-z
x,-y,1/2+z
1/2+x,1/2+y,z
1/2-x,1/2+y,1/2-z
1/2-x,1/2-y,-z
1/2+x,1/2-y,1/2+z
loop_
_atom_site_type_symbol
_atom_site_label
_atom_site_fract_x
_atom_site_fract_y
_atom_site_fract_z
Si Si1 0.719372 0.378173 0.130116
Si Si2 0.180614 0.242556 0.946713
Si Si3 0.539749 0.733696 0.947514
Si Si4 0.344980 0.343865 0.821189
Si Si5 0.374734 0.479755 0.661919
Si Si6 0.622442 0.617194 0.545896
Si Si7 0.868512 0.717198 0.542503
O O1 0.628524 0.315198 0.269514
O O2 0.697552 0.446731 0.237099
O O3 0.708089 0.402543 0.023517
O O4 0.839508 0.343700 0.991991
O O5 0.088886 0.270627 0.987224
O O6 0.225653 0.311647 0.951863
O O7 0.277837 0.202517 0.754231
O O8 0.128033 0.181293 0.095616
O O9 0.436394 0.683482 0.115931
O O10 0.489519 0.793079 0.931343
O O11 0.342867 0.431364 0.808703
O O12 0.500000 0.500000 0.500000
O O13 0.347757 0.435646 0.591489
O O14 0.500000 0.602510 0.750000
O O15 0.641639 0.701577 0.490889
#
# Coordination Sequence:
#
# PCOD8130511 Si02
#       7
#     8   8   8   8   8   8   8
#     4  11  23  35  57  85 115 156 187 232 299 341
#     4   9  19  31  55  82 110 154 190 230 282 325
#     4  10  17  34  53  80 113 143 192 240 272 333
#     4  10  18  34  52  81 119 152 187 226 285 342
#     4  12  21  37  53  87 126 149 182 236 293 366
#     4  12  20  38  58  80 116 154 185 234 293 340
#     4  10  20  37  53  82 115 143 202 239 272 344
#
# _framework density 19.789705999999999
#
# number of rings (size 3 to 8) (size 9 to 14) (size 15 to 20)
#    0.000    1.429    7.143    0.857    0.000    2.286 
#    2.571    0.000    0.000    0.857    0.000    6.000 
#    0.000    0.000    0.000    0.000    0.000    0.000 
#
# Total GULP energy -347026.403749 kJ/mol
# GULP energy per Si atom -12393.800134 kJ/mol
# Density = 1.974466 g / cm^3
# Si number density = 19.789706 Si / 1000 Ang^3
#
#
#
# Elastic Constant Matrix: (Units=GPa)
#
#
# Indices 1 2 3 4 5 6 
#
# 1 166.8069 62.1352 23.3919 0.0000 -10.5728 0.0000
# 2 62.1352 89.2326 23.7838 0.0000 -5.6779 0.0000
# 3 23.3919 23.7838 42.1540 0.0000 3.1504 0.0000
# 4 0.0000 0.0000 0.0000 26.6158 0.0000 0.5408
# 5 -10.5728 -5.6779 3.1504 0.0000 30.7525 0.0000
# 6 0.0000 0.0000 0.0000 0.5408 0.0000 25.6048
#
#
#
# Elastic Compliance Matrix: (Units=1/GPa)
#
#
# Indices 1 2 3 4 5 6 
#
# 1 0.008309 -0.005158 -0.001858 0.000000 0.002095 0.000000
# 2 -0.005158 0.016716 -0.006719 0.000000 0.002001 0.000000
# 3 -0.001858 -0.006719 0.028906 0.000000 -0.004840 0.000000
# 4 0.000000 0.000000 0.000000 0.037588 0.000000 -0.000794
# 5 0.002095 0.002001 -0.004840 0.000000 0.034103 0.000000
# 6 0.000000 0.000000 0.000000 -0.000794 0.000000 0.039072
#
#
# Mechanical properties :
#
#
# Convention : Reuss Voigt Hill
#
# Bulk Modulus (GPa) = 37.78829 57.42392 47.60611
# Shear Modulus (GPa) = 24.87752 29.18679 27.03216
#
# Velocity S-wave (km/s) = 3.54940 3.84454 3.69991
# Velocity P-wave (km/s) = 5.99450 6.98480 6.50851
#
# Compressibility (1/GPa) = 0.02646322
#
# Stress axis : x y z
#
# Youngs Moduli (GPa) = 120.34480 59.82167 34.59481
#
# Poissons Ratio (x) = 0.30854 0.06426
# Poissons Ratio (y) = 0.62070 0.23244
# Poissons Ratio (z) = 0.22355 0.40195
#
# Static dielectric constant tensor:
#      x y z
#    x 4.312450 0.000000 0.039410 
#    y 0.000000 3.494060 0.000000 
#    z 0.039410 0.000000 3.538170 
# 
# 
# High freq. dielectric constant tensor:
#      x y z
#    x 1.793620 0.000000 0.013770 
#    y 0.000000 1.731550 0.000000 
#    z 0.013770 0.000000 1.746990 
# 
# From -- ./inp_files/173780.got.cif
#   From: 2010.06.25/outbox.cif.g09.slc.cpg/sg15_87_cif.got.tgz:173780.got - 2010.06.28 07:06:18.
