data_PCOD8130079
_publ_section_title
;
Structure prediction by ZEFSAII (Michael W. Deem and Ramdas Pophale) SiO2 
 PCOD8130079
Probable space group: C 2/C
;
_chemical_formula_sum "Si O2"
_cell_formula_units_Z 48
_cell_length_a 9.212906
_cell_length_b 19.594679
_cell_length_c 10.646123
_cell_angle_alpha 90.000000
_cell_angle_beta 70.331316
_cell_angle_gamma 90.000000
_cell_volume 1809.747260
_symmetry_space_group_name_H-M "C 2/C"
_symmetry_group_IT_number 15
_symmetry_cell_setting 'monoclinic'
loop_
_space_group_symop_operation_xyz
x,y,z
-x,y,1/2-z
-x,-y,-z
x,-y,1/2+z
1/2+x,1/2+y,z
1/2-x,1/2+y,1/2-z
1/2-x,1/2-y,-z
1/2+x,1/2-y,1/2+z
loop_
_atom_site_type_symbol
_atom_site_label
_atom_site_fract_x
_atom_site_fract_y
_atom_site_fract_z
Si Si1 0.394283 0.794888 0.416400
Si Si2 0.175949 0.444002 0.008484
Si Si3 0.577320 0.704217 0.527644
Si Si4 0.720510 0.023595 0.758274
Si Si5 0.271500 0.678885 0.773417
Si Si6 0.475615 0.416353 0.624498
O O1 0.250000 0.750000 0.500000
O O2 0.390076 0.868059 0.486402
O O3 0.552360 0.762165 0.427384
O O4 0.380729 0.801591 0.266237
O O5 0.126038 0.488179 0.901049
O O6 0.360569 0.440896 0.976060
O O7 0.117990 0.474531 0.159498
O O8 0.417997 0.698017 0.648468
O O9 0.711469 0.717140 0.594207
O O10 0.611973 0.632966 0.446877
O O11 0.767022 0.097883 0.796232
O O12 0.875257 0.982039 0.686382
O O13 0.500000 0.375760 0.750000
#
# Coordination Sequence:
#
# PCOD8130079 Si02
#       6
#     8   8   8   8   8   8
#     4   9  16  31  43  62  96 123 164 188 219 276
#     4  10  18  27  42  67  94 132 144 194 224 284
#     4  10  17  28  44  66  89 131 162 182 226 272
#     4  10  18  26  42  71 103 121 156 176 243 287
#     4   9  18  26  46  69  90 125 148 194 224 276
#     4  10  18  24  40  65  99 130 148 183 223 288
#
# _framework density 26.523042
#
# number of rings (size 3 to 8) (size 9 to 14) (size 15 to 20)
#    0.000    2.333    5.000    1.500    7.000    0.000 
#    0.000    0.000    0.000    1.000   21.667    0.000 
#    0.000  113.333    0.000    0.000    0.000    0.000 
#
# Total GULP energy -297480.530486 kJ/mol
# GULP energy per Si atom -12395.022104 kJ/mol
# Density = 2.646267 g / cm^3
# Si number density = 26.523042 Si / 1000 Ang^3
#
#
#
# Elastic Constant Matrix: (Units=GPa)
#
#
# Indices 1 2 3 4 5 6 
#
# 1 117.4857 38.8559 65.4114 0.0000 19.0392 0.0000
# 2 38.8559 139.7547 100.2338 0.0000 30.7113 0.0000
# 3 65.4114 100.2338 227.1315 0.0000 37.8250 0.0000
# 4 0.0000 0.0000 0.0000 60.6225 0.0000 9.5549
# 5 19.0392 30.7113 37.8250 0.0000 47.5529 0.0000
# 6 0.0000 0.0000 0.0000 9.5549 0.0000 -4.9363
#
#
#
# Elastic Compliance Matrix: (Units=1/GPa)
#
#
# Indices 1 2 3 4 5 6 
#
# 1 0.010366 -0.000825 -0.002327 0.000000 -0.001767 0.000000
# 2 -0.000825 0.011084 -0.004054 0.000000 -0.003604 0.000000
# 3 -0.002327 -0.004054 0.007228 0.000000 -0.002200 0.000000
# 4 0.000000 0.000000 0.000000 0.012640 0.000000 0.024465
# 5 -0.001767 -0.003604 -0.002200 0.000000 0.025814 0.000000
# 6 0.000000 0.000000 0.000000 0.024465 0.000000 -0.155224
#
#
# Mechanical properties :
#
#
# Convention : Reuss Voigt Hill
#
# Bulk Modulus (GPa) = 70.09118 99.26378 84.67748
# Shear Modulus (GPa) = -72.54296 39.30586 -16.61855
#
# Velocity S-wave (km/s) = -5.23548 3.85379 -2.50585
# Velocity P-wave (km/s) = 3.17225 7.57027 4.86034
#
# Compressibility (1/GPa) = 0.01426713
#
# Stress axis : x y z
#
# Youngs Moduli (GPa) = 96.46477 90.21978 138.34707
#
# Poissons Ratio (x) = 0.07442 0.32196
# Poissons Ratio (y) = 0.07957 0.56082
# Poissons Ratio (z) = 0.22449 0.36573
#
# Static dielectric constant tensor:
#      x y z
#    x 5.144160 0.000000 0.664850 
#    y 0.000000 4.675240 0.000000 
#    z 0.664850 0.000000 6.399190 
# 
# 
# High freq. dielectric constant tensor:
#      x y z
#    x 2.090200 0.000000 -0.007150 
#    y 0.000000 2.048370 0.000000 
#    z -0.007150 0.000000 2.110250 
# 
# From -- ./inp_files/88516.got.cif
#   From: 2010.06.25/outbox.cif.g09.slc.cpg/sg15_45_cif.got.tgz:88516.got - 2010.06.28 07:06:18.
