data_PCOD8130471
_publ_section_title
;
Structure prediction by ZEFSAII (Michael W. Deem and Ramdas Pophale) SiO2 
 PCOD8130471
Probable space group: C 2/C
;
_chemical_formula_sum "Si O2"
_cell_formula_units_Z 64
_cell_length_a 19.182203
_cell_length_b 8.958164
_cell_length_c 22.339731
_cell_angle_alpha 90.000000
_cell_angle_beta 117.474734
_cell_angle_gamma 90.000000
_cell_volume 3405.838077
_symmetry_space_group_name_H-M "C 2/C"
_symmetry_group_IT_number 15
_symmetry_cell_setting 'monoclinic'
loop_
_space_group_symop_operation_xyz
x,y,z
-x,y,1/2-z
-x,-y,-z
x,-y,1/2+z
1/2+x,1/2+y,z
1/2-x,1/2+y,1/2-z
1/2-x,1/2-y,-z
1/2+x,1/2-y,1/2+z
loop_
_atom_site_type_symbol
_atom_site_label
_atom_site_fract_x
_atom_site_fract_y
_atom_site_fract_z
Si Si1 0.841058 0.252758 0.441064
Si Si2 0.178199 0.354217 0.858113
Si Si3 0.536670 0.356617 0.324708
Si Si4 0.716290 0.002235 0.493503
Si Si5 0.396413 0.507467 0.038945
Si Si6 0.092389 0.324861 0.506807
Si Si7 0.942239 0.438424 0.777980
Si Si8 0.058067 0.475819 0.093303
O O1 0.767294 0.185866 0.376013
O O2 0.801292 0.345341 0.478598
O O3 0.892429 0.343509 0.415535
O O4 0.897451 0.127357 0.491973
O O5 0.124470 0.209325 0.851054
O O6 0.179805 0.473820 0.913056
O O7 0.143622 0.429738 0.785049
O O8 0.500000 0.435166 0.250000
O O9 0.543012 0.473048 0.382301
O O10 0.477764 0.219330 0.314950
O O11 0.808657 0.968018 0.528755
O O12 0.677339 0.862197 0.512282
O O13 0.427768 0.654054 0.016253
O O14 0.086564 0.364508 0.575859
O O15 0.033810 0.447061 0.454480
O O16 0.930270 0.538361 0.831340
O O17 0.000000 0.507828 0.750000
#
# Coordination Sequence:
#
# PCOD8130471 Si02
#       8
#     8   8   8   8   8   8   8   8
#     4  10  19  32  60  80 115 142 179 218 281 320
#     4   9  15  32  56  84 101 144 180 220 256 333
#     4   9  17  30  54  82 108 138 181 222 268 312
#     4  10  17  33  58  85 109 139 181 225 269 318
#     4  11  19  33  55  87 110 140 184 232 269 322
#     4  10  22  34  55  78 116 142 183 227 274 317
#     4   9  19  34  61  77 100 138 193 222 269 328
#     4  10  22  39  51  79 108 153 180 222 274 334
#
# _framework density 18.791262
#
# number of rings (size 3 to 8) (size 9 to 14) (size 15 to 20)
#    0.000    2.500    2.500    2.625    3.500    0.500 
#    0.000    4.375    2.750    1.500    0.000    0.000 
#    0.000    0.000    0.000    0.000    0.000    0.000 
#
# Total GULP energy -396548.218932 kJ/mol
# GULP energy per Si atom -12392.131842 kJ/mol
# Density = 1.874849 g / cm^3
# Si number density = 18.791262 Si / 1000 Ang^3
#
#
#
# Elastic Constant Matrix: (Units=GPa)
#
#
# Indices 1 2 3 4 5 6 
#
# 1 68.7321 22.0608 46.8747 0.0000 -12.0465 0.0000
# 2 22.0608 73.6317 36.0831 0.0000 -15.7925 0.0000
# 3 46.8747 36.0831 137.9172 0.0000 -6.2150 0.0000
# 4 0.0000 0.0000 0.0000 17.2715 0.0000 -3.3887
# 5 -12.0465 -15.7925 -6.2150 0.0000 31.6202 0.0000
# 6 0.0000 0.0000 0.0000 -3.3887 0.0000 19.0179
#
#
#
# Elastic Compliance Matrix: (Units=1/GPa)
#
#
# Indices 1 2 3 4 5 6 
#
# 1 0.020340 -0.001868 -0.006172 0.000000 0.005603 0.000000
# 2 -0.001868 0.017476 -0.003608 0.000000 0.007308 0.000000
# 3 -0.006172 -0.003608 0.010196 0.000000 -0.002149 0.000000
# 4 0.000000 0.000000 0.000000 0.059996 0.000000 0.010690
# 5 0.005603 0.007308 -0.002149 0.000000 0.036987 0.000000
# 6 0.000000 0.000000 0.000000 0.010690 0.000000 0.054487
#
#
# Mechanical properties :
#
#
# Convention : Reuss Voigt Hill
#
# Bulk Modulus (GPa) = 40.45956 54.47980 47.46968
# Shear Modulus (GPa) = 21.64348 25.26609 23.45478
#
# Velocity S-wave (km/s) = 3.39748 3.67081 3.53678
# Velocity P-wave (km/s) = 6.08015 6.85722 6.48035
#
# Compressibility (1/GPa) = 0.02471604
#
# Stress axis : x y z
#
# Youngs Moduli (GPa) = 49.16433 57.22058 98.08204
#
# Poissons Ratio (x) = 0.10687 0.60535
# Poissons Ratio (y) = 0.09183 0.35390
# Poissons Ratio (z) = 0.30344 0.20646
#
# Static dielectric constant tensor:
#      x y z
#    x 3.366280 0.000000 0.076860 
#    y 0.000000 3.163090 0.000000 
#    z 0.076860 0.000000 3.562210 
# 
# 
# High freq. dielectric constant tensor:
#      x y z
#    x 1.725660 0.000000 0.007100 
#    y 0.000000 1.698490 0.000000 
#    z 0.007100 0.000000 1.728040 
# 
# From -- ./inp_files/279395.got.cif
#   From: 2010.06.25/outbox.cif.g09.slc.cpg/sg15_140_cif.got.tgz:279395.got - 2010.06.28 07:06:18.
