data_PCOD8130238
_publ_section_title
;
Structure prediction by ZEFSAII (Michael W. Deem and Ramdas Pophale) SiO2 
 PCOD8130238
Probable space group: C 2/C
;
_chemical_formula_sum "Si O2"
_cell_formula_units_Z 60
_cell_length_a 9.511783
_cell_length_b 19.424625
_cell_length_c 19.969653
_cell_angle_alpha 90.000000
_cell_angle_beta 58.286996
_cell_angle_gamma 90.000000
_cell_volume 3138.754548
_symmetry_space_group_name_H-M "C 2/C"
_symmetry_group_IT_number 15
_symmetry_cell_setting 'monoclinic'
loop_
_space_group_symop_operation_xyz
x,y,z
-x,y,1/2-z
-x,-y,-z
x,-y,1/2+z
1/2+x,1/2+y,z
1/2-x,1/2+y,1/2-z
1/2-x,1/2-y,-z
1/2+x,1/2-y,1/2+z
loop_
_atom_site_type_symbol
_atom_site_label
_atom_site_fract_x
_atom_site_fract_y
_atom_site_fract_z
Si Si1 0.867072 0.778561 0.336133
Si Si2 0.419923 0.238350 0.096143
Si Si3 0.000000 0.039640 0.250000
Si Si4 0.608499 0.897126 0.070962
Si Si5 0.187101 0.642211 0.688368
Si Si6 0.306651 0.627711 0.400242
Si Si7 0.744690 0.418550 0.189061
Si Si8 0.497891 0.254906 0.573402
O O1 0.845340 0.862803 0.337853
O O2 0.694048 0.744498 0.358212
O O3 0.000000 0.752387 0.250000
O O4 0.924606 0.747457 0.392832
O O5 0.273397 0.285478 0.158014
O O6 0.339608 0.161188 0.109607
O O7 0.490870 0.264929 0.008531
O O8 0.050424 0.087102 0.174733
O O9 0.159774 0.992100 0.216751
O O10 0.700884 0.908258 0.119513
O O11 0.429879 0.934002 0.116051
O O12 0.583364 0.815366 0.073860
O O13 0.718079 0.920770 0.979422
O O14 0.267914 0.607508 0.732139
O O15 0.000000 0.661175 0.750000
O O16 0.403668 0.686624 0.414183
#
# Coordination Sequence:
#
# PCOD8130238 Si02
#       8
#     8   8   4   8   8   8   8   8
#     4  11  21  32  60  83 112 149 188 235 280 323
#     4  11  19  34  56  90 119 141 180 229 292 345
#     4  12  26  38  52  78 120 156 194 230 280 334
#     4   9  18  37  64  88 106 144 193 242 279 333
#     4  10  17  30  64  87 106 136 190 248 274 317
#     4  11  23  36  60  85 121 151 177 230 296 348
#     4  10  21  39  56  81 111 150 204 238 263 322
#     4  10  20  36  56  91 122 139 179 233 292 354
#
# _framework density 19.115863999999998
#
# number of rings (size 3 to 8) (size 9 to 14) (size 15 to 20)
#    0.000    1.600    4.667    1.200    2.800    0.533 
#    0.000    0.667    8.800    0.000    0.000    0.000 
#    0.000    0.000    0.000    0.000    0.000    0.000 
#
# Total GULP energy -371749.291607 kJ/mol
# GULP energy per Si atom -12391.643054 kJ/mol
# Density = 1.907236 g / cm^3
# Si number density = 19.115864 Si / 1000 Ang^3
#
#
#
# Elastic Constant Matrix: (Units=GPa)
#
#
# Indices 1 2 3 4 5 6 
#
# 1 79.1589 20.8594 29.5119 0.0000 2.1632 0.0000
# 2 20.8594 46.2843 27.0539 0.0000 -3.6777 0.0000
# 3 29.5119 27.0539 121.2660 0.0000 -12.8629 0.0000
# 4 0.0000 0.0000 0.0000 11.2516 0.0000 -16.9639
# 5 2.1632 -3.6777 -12.8629 0.0000 36.9435 0.0000
# 6 0.0000 0.0000 0.0000 -16.9639 0.0000 11.1876
#
#
#
# Elastic Compliance Matrix: (Units=1/GPa)
#
#
# Indices 1 2 3 4 5 6 
#
# 1 0.015143 -0.005419 -0.002728 0.000000 -0.002376 0.000000
# 2 -0.005419 0.026796 -0.004509 0.000000 0.001415 0.000000
# 3 -0.002728 -0.004509 0.010265 0.000000 0.003285 0.000000
# 4 0.000000 0.000000 0.000000 -0.069103 0.000000 -0.104782
# 5 -0.002376 0.001415 0.003285 0.000000 0.028492 0.000000
# 6 0.000000 0.000000 0.000000 -0.104782 0.000000 -0.069499
#
#
# Mechanical properties :
#
#
# Convention : Reuss Voigt Hill
#
# Bulk Modulus (GPa) = 37.18732 44.61772 40.90252
# Shear Modulus (GPa) = -211.59497 23.16214 -94.21641
#
# Velocity S-wave (km/s) = -10.53238 3.48468 -7.02809
# Velocity P-wave (km/s) = 11.33191 6.29143 6.66446
#
# Compressibility (1/GPa) = 0.02689089
#
# Stress axis : x y z
#
# Youngs Moduli (GPa) = 66.03795 37.31932 97.42076
#
# Poissons Ratio (x) = 0.20222 0.26580
# Poissons Ratio (y) = 0.35783 0.43930
# Poissons Ratio (z) = 0.18018 0.16828
#
# Static dielectric constant tensor:
#      x y z
#    x 3.742010 0.000000 0.027660 
#    y 0.000000 3.142300 0.000000 
#    z 0.027660 0.000000 4.322720 
# 
# 
# High freq. dielectric constant tensor:
#      x y z
#    x 1.750990 0.000000 -0.008280 
#    y 0.000000 1.690520 0.000000 
#    z -0.008280 0.000000 1.765240 
# 
# From -- ./inp_files/192093.got.cif
#   From: 2010.06.25/outbox.cif.g09.slc.cpg/sg15_97_cif.got.tgz:192093.got - 2010.06.28 07:06:18.
