data_PCOD8130632
_publ_section_title
;
Structure prediction by ZEFSAII (Michael W. Deem and Ramdas Pophale) SiO2 
 PCOD8130632
Probable space group: C 2/C
;
_chemical_formula_sum "Si O2"
_cell_formula_units_Z 56
_cell_length_a 16.838956
_cell_length_b 8.168885
_cell_length_c 30.946843
_cell_angle_alpha 90.000000
_cell_angle_beta 141.989443
_cell_angle_gamma 90.000000
_cell_volume 2621.432486
_symmetry_space_group_name_H-M "C 2/C"
_symmetry_group_IT_number 15
_symmetry_cell_setting 'monoclinic'
loop_
_space_group_symop_operation_xyz
x,y,z
-x,y,1/2-z
-x,-y,-z
x,-y,1/2+z
1/2+x,1/2+y,z
1/2-x,1/2+y,1/2-z
1/2-x,1/2-y,-z
1/2+x,1/2-y,1/2+z
loop_
_atom_site_type_symbol
_atom_site_label
_atom_site_fract_x
_atom_site_fract_y
_atom_site_fract_z
Si Si1 0.510375 0.234583 0.328811
Si Si2 0.213823 0.997284 0.914341
Si Si3 0.818436 0.994646 0.268124
Si Si4 0.453765 0.936886 0.569678
Si Si5 0.388284 0.066870 0.753989
Si Si6 0.975253 0.766559 0.624828
Si Si7 0.222021 0.667862 0.146479
O O1 0.609235 0.369064 0.352225
O O2 0.382710 0.317361 0.293775
O O3 0.578828 0.142504 0.398082
O O4 0.460447 0.102420 0.270814
O O5 0.152442 0.878015 0.924535
O O6 0.264652 0.890861 0.896411
O O7 0.332994 0.092925 0.986460
O O8 0.677537 0.975503 0.227929
O O9 0.808994 0.058942 0.215260
O O10 0.903849 0.115596 0.334544
O O11 0.573738 0.847898 0.597520
O O12 0.466556 0.133803 0.582618
O O13 0.500690 0.192576 0.816350
O O14 0.282126 0.145004 0.675885
#
# Coordination Sequence:
#
# PCOD8130632 Si02
#       7
#     8   8   8   8   8   8   8
#     4  10  20  36  64  91 115 159 203 256 295 354
#     4  11  24  38  56  94 129 158 199 251 309 358
#     4  10  17  35  63  91 112 147 211 258 297 353
#     4  11  20  40  63  84 122 173 208 231 290 385
#     4  10  18  36  64  85 115 151 208 250 302 358
#     4   9  20  34  61  84 118 161 203 246 298 355
#     4  11  22  37  63  89 121 154 200 259 309 347
#
# _framework density 21.362366000000002
#
# number of rings (size 3 to 8) (size 9 to 14) (size 15 to 20)
#    0.000    1.714    4.286    2.143    0.000    5.143 
#    0.000    5.714    0.000    0.857    0.000    0.000 
#    0.000    0.000    0.000    0.000    0.000    0.000 
#
# Total GULP energy -346952.420202 kJ/mol
# GULP energy per Si atom -12391.157864 kJ/mol
# Density = 2.131374 g / cm^3
# Si number density = 21.362366 Si / 1000 Ang^3
#
#
#
# Elastic Constant Matrix: (Units=GPa)
#
#
# Indices 1 2 3 4 5 6 
#
# 1 67.8247 15.0821 25.0385 0.0000 5.8880 0.0000
# 2 15.0821 99.2535 18.8639 0.0001 13.4666 -0.0001
# 3 25.0385 18.8639 62.7845 0.0000 18.6223 0.0000
# 4 0.0000 0.0001 0.0000 29.0321 0.0000 5.8483
# 5 5.8880 13.4666 18.6223 0.0000 28.3978 0.0000
# 6 0.0000 -0.0001 0.0000 5.8483 0.0000 11.3878
#
#
#
# Elastic Compliance Matrix: (Units=1/GPa)
#
#
# Indices 1 2 3 4 5 6 
#
# 1 0.017539 -0.001561 -0.007035 0.000000 0.001717 0.000000
# 2 -0.001561 0.011143 -0.001557 0.000000 -0.003939 0.000000
# 3 -0.007035 -0.001557 0.023028 0.000000 -0.012904 0.000000
# 4 0.000000 0.000000 0.000000 0.038419 0.000000 -0.019730
# 5 0.001717 -0.003939 -0.012904 0.000000 0.045188 0.000000
# 6 0.000000 0.000000 0.000000 -0.019730 0.000000 0.097946
#
#
# Mechanical properties :
#
#
# Convention : Reuss Voigt Hill
#
# Bulk Modulus (GPa) = 31.84254 38.64797 35.24526
# Shear Modulus (GPa) = 18.93677 25.15542 22.04610
#
# Velocity S-wave (km/s) = 2.98057 3.43528 3.21597
# Velocity P-wave (km/s) = 5.17526 5.81943 5.50677
#
# Compressibility (1/GPa) = 0.03140453
#
# Stress axis : x y z
#
# Youngs Moduli (GPa) = 57.01596 89.74381 43.42502
#
# Poissons Ratio (x) = 0.14010 0.30548
# Poissons Ratio (y) = 0.08901 0.06761
# Poissons Ratio (z) = 0.40109 0.13972
#
# Static dielectric constant tensor:
#      x y z
#    x 3.472890 0.000000 0.280160 
#    y 0.000000 4.115120 0.000000 
#    z 0.280160 0.000000 3.678020 
# 
# 
# High freq. dielectric constant tensor:
#      x y z
#    x 1.813200 0.000000 0.025670 
#    y 0.000000 1.849690 0.000000 
#    z 0.025670 0.000000 1.820380 
# 
# From -- ./inp_files/247334.got.cif
#   From: 2010.06.25/outbox.cif.g09.slc.cpg/sg15_124_cif.got.tgz:247334.got - 2010.06.28 07:06:18.
