data_PCOD8130781
_publ_section_title
;
Structure prediction by ZEFSAII (Michael W. Deem and Ramdas Pophale) SiO2 
 PCOD8130781
Probable space group: C 2/C
;
_chemical_formula_sum "Si O2"
_cell_formula_units_Z 64
_cell_length_a 15.013951
_cell_length_b 12.660025
_cell_length_c 18.830655
_cell_angle_alpha 90.000000
_cell_angle_beta 83.311080
_cell_angle_gamma 90.000000
_cell_volume 3554.910887
_symmetry_space_group_name_H-M "C 2/C"
_symmetry_group_IT_number 15
_symmetry_cell_setting 'monoclinic'
loop_
_space_group_symop_operation_xyz
x,y,z
-x,y,1/2-z
-x,-y,-z
x,-y,1/2+z
1/2+x,1/2+y,z
1/2-x,1/2+y,1/2-z
1/2-x,1/2-y,-z
1/2+x,1/2-y,1/2+z
loop_
_atom_site_type_symbol
_atom_site_label
_atom_site_fract_x
_atom_site_fract_y
_atom_site_fract_z
Si Si1 0.739223 0.744850 0.115820
Si Si2 0.154419 0.875055 0.491546
Si Si3 0.633951 0.071774 0.410584
Si Si4 0.273494 0.582524 0.966613
Si Si5 0.640155 0.207837 0.063132
Si Si6 0.437046 0.169002 0.821239
Si Si7 0.470112 0.935256 0.827634
Si Si8 0.520763 0.211241 0.523600
O O1 0.790149 0.851692 0.086040
O O2 0.811101 0.660499 0.139918
O O3 0.659651 0.773211 0.177985
O O4 0.699580 0.688123 0.051042
O O5 0.053869 0.828282 0.496079
O O6 0.155371 0.999163 0.508070
O O7 0.554514 0.030934 0.368355
O O8 0.590733 0.123394 0.486074
O O9 0.698613 0.974240 0.424693
O O10 0.330238 0.672371 0.919341
O O11 0.227899 0.639301 0.038114
O O12 0.589405 0.157322 0.134079
O O13 0.578070 0.199793 0.998804
O O14 0.500000 0.204907 0.750000
O O15 0.483980 0.200210 0.891091
O O16 0.416421 0.043970 0.820417
O O17 0.500000 0.887455 0.750000
#
# Coordination Sequence:
#
# PCOD8130781 Si02
#       8
#     8   8   8   8   8   8   8   8
#     4   8  14  27  46  71  92 116 152 192 234 274
#     4   8  14  26  48  69  92 119 153 195 228 270
#     4   9  17  32  54  70  89 124 161 195 235 282
#     4  10  18  29  48  74  97 121 155 194 239 276
#     4  10  20  31  47  71  99 125 154 195 236 277
#     4  10  18  28  48  73  97 121 154 197 237 274
#     4  10  20  34  49  68  93 125 161 195 234 282
#     4   9  17  31  50  72  94 122 158 194 235 279
#
# _framework density 18.003263
#
# number of rings (size 3 to 8) (size 9 to 14) (size 15 to 20)
#    0.000    2.750    0.000    4.500    0.000    2.500 
#    0.000    5.000    0.000    6.750    0.000    0.000 
#    0.000    0.000    0.000    0.000    0.000    0.000 
#
# Total GULP energy -396549.990820 kJ/mol
# GULP energy per Si atom -12392.187213 kJ/mol
# Density = 1.796229 g / cm^3
# Si number density = 18.003263 Si / 1000 Ang^3
#
#
#
# Elastic Constant Matrix: (Units=GPa)
#
#
# Indices 1 2 3 4 5 6 
#
# 1 55.8153 37.0028 28.1877 0.0000 -20.4661 0.0000
# 2 37.0028 115.5353 33.3948 0.0000 -20.0684 0.0000
# 3 28.1877 33.3948 90.9959 0.0000 -23.5779 0.0000
# 4 0.0000 0.0000 0.0000 17.2087 0.0000 -4.8098
# 5 -20.4661 -20.0684 -23.5779 0.0000 24.2650 0.0000
# 6 0.0000 0.0000 0.0000 -4.8098 0.0000 32.3376
#
#
#
# Elastic Compliance Matrix: (Units=1/GPa)
#
#
# Indices 1 2 3 4 5 6 
#
# 1 0.029390 -0.005622 -0.002436 0.000000 0.017772 0.000000
# 2 -0.005622 0.011481 -0.001658 0.000000 0.003143 0.000000
# 3 -0.002436 -0.001658 0.015323 0.000000 0.011463 0.000000
# 4 0.000000 0.000000 0.000000 0.060631 0.000000 0.009018
# 5 0.017772 0.003143 0.011463 0.000000 0.069940 0.000000
# 6 0.000000 0.000000 0.000000 0.009018 0.000000 0.032265
#
#
# Mechanical properties :
#
#
# Convention : Reuss Voigt Hill
#
# Bulk Modulus (GPa) = 27.20129 51.05748 39.12938
# Shear Modulus (GPa) = 19.94306 25.67967 22.81137
#
# Velocity S-wave (km/s) = 3.33189 3.78085 3.56345
# Velocity P-wave (km/s) = 5.47210 6.89068 6.22195
#
# Compressibility (1/GPa) = 0.03676296
#
# Stress axis : x y z
#
# Youngs Moduli (GPa) = 34.02520 87.10118 65.26282
#
# Poissons Ratio (x) = 0.48965 0.15898
# Poissons Ratio (y) = 0.19128 0.10818
# Poissons Ratio (z) = 0.08289 0.14438
#
# Static dielectric constant tensor:
#      x y z
#    x 3.583470 0.000000 -0.151180 
#    y 0.000000 3.531510 0.000000 
#    z -0.151180 0.000000 2.989660 
# 
# 
# High freq. dielectric constant tensor:
#      x y z
#    x 1.694940 0.000000 -0.014720 
#    y 0.000000 1.696130 0.000000 
#    z -0.014720 0.000000 1.655860 
# 
# From -- ./inp_files/210295.got.cif
#   From: 2010.06.25/outbox.cif.g09.slc.cpg/sg15_106_cif.got.tgz:210295.got - 2010.06.28 07:06:18.
