data_PCOD8130439
_publ_section_title
;
Structure prediction by ZEFSAII (Michael W. Deem and Ramdas Pophale) SiO2 
 PCOD8130439
Probable space group: C 2/C
;
_chemical_formula_sum "Si O2"
_cell_formula_units_Z 48
_cell_length_a 20.712265
_cell_length_b 11.599443
_cell_length_c 13.869332
_cell_angle_alpha 90.000000
_cell_angle_beta 54.976515
_cell_angle_gamma 90.000000
_cell_volume 2728.727026
_symmetry_space_group_name_H-M "C 2/C"
_symmetry_group_IT_number 15
_symmetry_cell_setting 'monoclinic'
loop_
_space_group_symop_operation_xyz
x,y,z
-x,y,1/2-z
-x,-y,-z
x,-y,1/2+z
1/2+x,1/2+y,z
1/2-x,1/2+y,1/2-z
1/2-x,1/2-y,-z
1/2+x,1/2-y,1/2+z
loop_
_atom_site_type_symbol
_atom_site_label
_atom_site_fract_x
_atom_site_fract_y
_atom_site_fract_z
Si Si1 0.339091 0.027163 0.526712
Si Si2 0.186608 0.194084 0.981332
Si Si3 0.880137 0.319408 0.162175
Si Si4 0.248306 0.145492 0.218366
Si Si5 0.540039 0.167423 0.616779
Si Si6 0.212559 0.492869 0.636754
O O1 0.362452 0.138934 0.568295
O O2 0.322631 0.061572 0.430600
O O3 0.260803 0.966768 0.639689
O O4 0.410724 0.937050 0.470583
O O5 0.196386 0.250524 0.866668
O O6 0.204404 0.057989 0.957581
O O7 0.250000 0.250000 0.000000
O O8 0.097227 0.222517 0.090638
O O9 0.840909 0.193452 0.210192
O O10 0.847850 0.413363 0.266805
O O11 0.973108 0.300587 0.096527
O O12 0.272740 0.114566 0.306186
O O13 0.500000 0.128136 0.750000
#
# Coordination Sequence:
#
# PCOD8130439 Si02
#       6
#     8   8   8   8   8   8
#     4  10  19  32  51  74 102 129 160 211 247 288
#     4  10  17  33  52  73 100 128 166 205 242 290
#     4  10  20  32  48  76 103 127 165 201 250 299
#     4   9  19  32  51  74  98 130 166 201 243 296
#     4  11  18  29  51  77  99 126 163 208 250 287
#     4  10  18  33  52  73  99 128 168 203 240 293
#
# _framework density 17.590619
#
# number of rings (size 3 to 8) (size 9 to 14) (size 15 to 20)
#    0.000    2.000    5.000    1.500    0.000    0.667 
#    0.000    0.833    0.000    0.000    0.000    0.000 
#    0.000    0.000    0.000    0.000    0.000    0.000 
#
# Total GULP energy -297446.328524 kJ/mol
# GULP energy per Si atom -12393.597022 kJ/mol
# Density = 1.755058 g / cm^3
# Si number density = 17.590619 Si / 1000 Ang^3
#
#
#
# Elastic Constant Matrix: (Units=GPa)
#
#
# Indices 1 2 3 4 5 6 
#
# 1 127.2648 45.7741 52.7758 0.0000 7.3029 0.0000
# 2 45.7741 40.9871 26.3410 0.0000 -1.8974 0.0000
# 3 52.7758 26.3410 75.2185 0.0000 7.1557 0.0000
# 4 0.0000 0.0000 0.0000 22.1104 0.0000 1.9906
# 5 7.3029 -1.8974 7.1557 0.0000 38.8938 0.0000
# 6 0.0000 0.0000 0.0000 1.9906 0.0000 19.5873
#
#
#
# Elastic Compliance Matrix: (Units=1/GPa)
#
#
# Indices 1 2 3 4 5 6 
#
# 1 0.015196 -0.013397 -0.005737 0.000000 -0.002451 0.000000
# 2 -0.013397 0.043806 -0.006497 0.000000 0.005848 0.000000
# 3 -0.005737 -0.006497 0.019871 0.000000 -0.002895 0.000000
# 4 0.000000 0.000000 0.000000 0.045645 0.000000 -0.004639
# 5 -0.002451 0.005848 -0.002895 0.000000 0.026989 0.000000
# 6 0.000000 0.000000 0.000000 -0.004639 0.000000 0.051525
#
#
# Mechanical properties :
#
#
# Convention : Reuss Voigt Hill
#
# Bulk Modulus (GPa) = 36.21888 54.80579 45.51233
# Shear Modulus (GPa) = 18.97542 24.02360 21.49951
#
# Velocity S-wave (km/s) = 3.28796 3.69955 3.49981
# Velocity P-wave (km/s) = 5.92020 7.03369 6.50083
#
# Compressibility (1/GPa) = 0.02760991
#
# Stress axis : x y z
#
# Youngs Moduli (GPa) = 65.80576 22.82789 50.32540
#
# Poissons Ratio (x) = 0.30583 0.28873
# Poissons Ratio (y) = 0.88162 0.32696
# Poissons Ratio (z) = 0.37755 0.14831
#
# Static dielectric constant tensor:
#      x y z
#    x 3.320840 0.000000 0.000570 
#    y 0.000000 3.043150 0.000000 
#    z 0.000570 0.000000 3.488590 
# 
# 
# High freq. dielectric constant tensor:
#      x y z
#    x 1.672260 0.000000 0.012620 
#    y 0.000000 1.637760 0.000000 
#    z 0.012620 0.000000 1.683280 
# 
# From -- ./inp_files/166991.got.cif
#   From: 2010.06.25/outbox.cif.g09.slc.cpg/sg15_84_cif.got.tgz:166991.got - 2010.06.28 07:06:18.
