data_PCOD8130859
_publ_section_title
;
Structure prediction by ZEFSAII (Michael W. Deem and Ramdas Pophale) SiO2 
 PCOD8130859
Probable space group: C 2/C
;
_chemical_formula_sum "Si O2"
_cell_formula_units_Z 52
_cell_length_a 12.962126
_cell_length_b 17.768890
_cell_length_c 13.917049
_cell_angle_alpha 90.000000
_cell_angle_beta 65.113724
_cell_angle_gamma 90.000000
_cell_volume 2907.771850
_symmetry_space_group_name_H-M "C 2/C"
_symmetry_group_IT_number 15
_symmetry_cell_setting 'monoclinic'
loop_
_space_group_symop_operation_xyz
x,y,z
-x,y,1/2-z
-x,-y,-z
x,-y,1/2+z
1/2+x,1/2+y,z
1/2-x,1/2+y,1/2-z
1/2-x,1/2-y,-z
1/2+x,1/2-y,1/2+z
loop_
_atom_site_type_symbol
_atom_site_label
_atom_site_fract_x
_atom_site_fract_y
_atom_site_fract_z
Si Si1 0.124084 0.982746 0.194037
Si Si2 0.857463 0.872388 0.688092
Si Si3 0.436007 0.255598 0.915079
Si Si4 0.868695 0.010999 0.029123
Si Si5 0.268996 0.765244 0.640888
Si Si6 0.000000 0.627485 0.750000
Si Si7 0.762850 0.597124 0.795006
O O1 0.109492 0.065037 0.246181
O O2 0.000000 0.943005 0.250000
O O3 0.163050 0.984266 0.069221
O O4 0.219839 0.934479 0.210479
O O5 0.824407 0.914321 0.601687
O O6 0.745253 0.827652 0.769364
O O7 0.964103 0.817204 0.626824
O O8 0.328889 0.287217 0.897428
O O9 0.477795 0.178377 0.852341
O O10 0.392548 0.236465 0.040755
O O11 0.809966 0.935531 0.089363
O O12 0.000000 0.000000 0.000000
O O13 0.245840 0.686576 0.701545
O O14 0.893973 0.574394 0.763710
#
# Coordination Sequence:
#
# PCOD8130859 Si02
#       7
#     8   8   8   8   8   4   8
#     4  11  22  35  56  88 119 148 189 238 302 338
#     4  11  20  35  57  87 116 142 193 251 290 341
#     4  10  18  29  53  84 111 141 180 248 293 324
#     4  11  22  35  58  85 117 154 189 246 294 342
#     4  10  20  30  55  83 112 146 189 240 295 331
#     4  10  20  36  54  84 114 150 186 236 292 346
#     4  10  21  37  56  84 118 146 194 236 288 357
#
# _framework density 17.883109000000001
#
# number of rings (size 3 to 8) (size 9 to 14) (size 15 to 20)
#    0.000    1.538    6.154    1.846    6.462    0.000 
#    0.000    1.538    0.000    0.000    2.000    0.000 
#    0.000    0.000    0.000    0.000    0.000    0.000 
#
# Total GULP energy -322287.462930 kJ/mol
# GULP energy per Si atom -12395.671651 kJ/mol
# Density = 1.784241 g / cm^3
# Si number density = 17.883109 Si / 1000 Ang^3
#
#
#
# Elastic Constant Matrix: (Units=GPa)
#
#
# Indices 1 2 3 4 5 6 
#
# 1 88.6710 37.2605 43.2354 0.0000 0.3687 0.0000
# 2 37.2605 71.6361 41.9476 0.0000 -0.4636 0.0000
# 3 43.2354 41.9476 136.7152 0.0000 8.0679 0.0000
# 4 0.0000 0.0000 0.0000 27.5479 0.0000 -5.9387
# 5 0.3687 -0.4636 8.0679 0.0000 31.7137 0.0000
# 6 0.0000 0.0000 0.0000 -5.9387 0.0000 23.8543
#
#
#
# Elastic Compliance Matrix: (Units=1/GPa)
#
#
# Indices 1 2 3 4 5 6 
#
# 1 0.015345 -0.006241 -0.002966 0.000000 0.000485 0.000000
# 2 -0.006241 0.019636 -0.004134 0.000000 0.001411 0.000000
# 3 -0.002966 -0.004134 0.009668 0.000000 -0.002485 0.000000
# 4 0.000000 0.000000 0.000000 0.038359 0.000000 0.009550
# 5 0.000485 0.001411 -0.002485 0.000000 0.032179 0.000000
# 6 0.000000 0.000000 0.000000 0.009550 0.000000 0.044299
#
#
# Mechanical properties :
#
#
# Convention : Reuss Voigt Hill
#
# Bulk Modulus (GPa) = 55.66530 60.21215 57.93872
# Shear Modulus (GPa) = 26.02042 28.26179 27.14110
#
# Velocity S-wave (km/s) = 3.81862 3.97969 3.89999
# Velocity P-wave (km/s) = 7.11599 7.40677 7.26283
#
# Compressibility (1/GPa) = 0.01796451
#
# Stress axis : x y z
#
# Youngs Moduli (GPa) = 65.16956 50.92763 103.43693
#
# Poissons Ratio (x) = 0.31785 0.30683
# Poissons Ratio (y) = 0.40673 0.42764
# Poissons Ratio (z) = 0.19331 0.21055
#
# Static dielectric constant tensor:
#      x y z
#    x 3.136860 0.000000 -0.098990 
#    y 0.000000 3.259420 0.000000 
#    z -0.098990 0.000000 3.682050 
# 
# 
# High freq. dielectric constant tensor:
#      x y z
#    x 1.656480 0.000000 -0.012630 
#    y 0.000000 1.682030 0.000000 
#    z -0.012630 0.000000 1.706020 
# 
# From -- ./inp_files/153882.got.cif
#   From: 2010.06.25/outbox.cif.g09.slc.cpg/sg15_77_cif.got.tgz:153882.got - 2010.06.28 07:06:18.
