data_PCOD8130135
_publ_section_title
;
Structure prediction by ZEFSAII (Michael W. Deem and Ramdas Pophale) SiO2 
 PCOD8130135
Probable space group: C 2/C
;
_chemical_formula_sum "Si O2"
_cell_formula_units_Z 40
_cell_length_a 11.571861
_cell_length_b 24.110683
_cell_length_c 9.462891
_cell_angle_alpha 90.000000
_cell_angle_beta 123.475686
_cell_angle_gamma 90.000000
_cell_volume 2202.242178
_symmetry_space_group_name_H-M "C 2/C"
_symmetry_group_IT_number 15
_symmetry_cell_setting 'monoclinic'
loop_
_space_group_symop_operation_xyz
x,y,z
-x,y,1/2-z
-x,-y,-z
x,-y,1/2+z
1/2+x,1/2+y,z
1/2-x,1/2+y,1/2-z
1/2-x,1/2-y,-z
1/2+x,1/2-y,1/2+z
loop_
_atom_site_type_symbol
_atom_site_label
_atom_site_fract_x
_atom_site_fract_y
_atom_site_fract_z
Si Si1 0.838254 0.327579 0.659423
Si Si2 0.127983 0.878477 0.034313
Si Si3 0.848190 0.203058 0.713169
Si Si4 0.316043 0.597686 0.231245
Si Si5 0.401994 0.479396 0.313248
O O1 0.802680 0.266983 0.698501
O O2 0.759479 0.331517 0.456261
O O3 0.792790 0.376187 0.734497
O O4 0.000000 0.336193 0.750000
O O5 0.152921 0.820233 0.128496
O O6 0.178832 0.925929 0.180101
O O7 0.214134 0.879156 0.946748
O O8 0.967636 0.886363 0.887898
O O9 0.000000 0.197421 0.750000
O O10 0.299257 0.530573 0.207371
O O11 0.500000 0.461226 0.250000
O O12 0.500000 0.500000 0.500000
#
# Coordination Sequence:
#
# PCOD8130135 Si02
#       5
#     8   8   8   8   8
#     4  10  22  36  53  78 112 144 179 221 271 324
#     4  10  19  31  56  86 105 137 180 229 270 309
#     4  10  19  35  58  80 101 144 190 222 262 318
#     4  10  19  33  51  81 116 136 175 226 273 314
#     4  10  17  29  50  87 112 129 171 234 274 307
#
# _framework density 18.163305999999999
#
# number of rings (size 3 to 8) (size 9 to 14) (size 15 to 20)
#    0.000    2.000    6.000    0.600    2.800    0.800 
#    0.000    1.000    0.000    4.800    0.000    0.000 
#    0.000    0.000    0.000    0.000    0.000    0.000 
#
# Total GULP energy -247895.199647 kJ/mol
# GULP energy per Si atom -12394.759982 kJ/mol
# Density = 1.812197 g / cm^3
# Si number density = 18.163306 Si / 1000 Ang^3
#
#
#
# Elastic Constant Matrix: (Units=GPa)
#
#
# Indices 1 2 3 4 5 6 
#
# 1 65.3933 24.0662 28.5465 0.0000 -9.2352 0.0000
# 2 24.0662 75.4137 28.4145 0.0000 -16.1269 0.0000
# 3 28.5465 28.4145 81.9610 0.0000 -16.8415 0.0000
# 4 0.0000 0.0000 0.0000 26.8047 0.0000 -13.5016
# 5 -9.2352 -16.1269 -16.8415 0.0000 32.3872 0.0000
# 6 0.0000 0.0000 0.0000 -13.5016 0.0000 13.7083
#
#
#
# Elastic Compliance Matrix: (Units=1/GPa)
#
#
# Indices 1 2 3 4 5 6 
#
# 1 0.019106 -0.004003 -0.005102 0.000000 0.000802 0.000000
# 2 -0.004003 0.016993 -0.003351 0.000000 0.005578 0.000000
# 3 -0.005102 -0.003351 0.016232 0.000000 0.005318 0.000000
# 4 0.000000 0.000000 0.000000 0.074037 0.000000 0.072920
# 5 0.000802 0.005578 0.005318 0.000000 0.036647 0.000000
# 6 0.000000 0.000000 0.000000 0.072920 0.000000 0.144769
#
#
# Mechanical properties :
#
#
# Convention : Reuss Voigt Hill
#
# Bulk Modulus (GPa) = 36.47100 42.75806 39.61453
# Shear Modulus (GPa) = 14.62689 24.02942 19.32816
#
# Velocity S-wave (km/s) = 2.84086 3.64120 3.26564
# Velocity P-wave (km/s) = 5.55731 6.42416 6.00639
#
# Compressibility (1/GPa) = 0.02741905
#
# Stress axis : x y z
#
# Youngs Moduli (GPa) = 52.34032 58.84777 61.60610
#
# Poissons Ratio (x) = 0.23559 0.31430
# Poissons Ratio (y) = 0.20954 0.20643
# Poissons Ratio (z) = 0.26703 0.19718
#
# Static dielectric constant tensor:
#      x y z
#    x 3.005370 0.000000 -0.233570 
#    y 0.000000 4.403040 0.000000 
#    z -0.233570 0.000000 3.475100 
# 
# 
# High freq. dielectric constant tensor:
#      x y z
#    x 1.661140 0.000000 -0.026730 
#    y 0.000000 1.710400 0.000000 
#    z -0.026730 0.000000 1.703850 
# 
# From -- ./inp_files/31329.got.cif
#   From: 2010.06.25/outbox.cif.g09.slc.cpg/sg15_16_cif.got.tgz:31329.got - 2010.06.28 07:06:18.
