data_PCOD8130664
_publ_section_title
;
Structure prediction by ZEFSAII (Michael W. Deem and Ramdas Pophale) SiO2 
 PCOD8130664
Probable space group: C 2/C
;
_chemical_formula_sum "Si O2"
_cell_formula_units_Z 44
_cell_length_a 16.141904
_cell_length_b 8.814146
_cell_length_c 16.226345
_cell_angle_alpha 90.000000
_cell_angle_beta 90.000000
_cell_angle_gamma 90.000000
_cell_volume 2308.637287
_symmetry_space_group_name_H-M "C 2/C"
_symmetry_group_IT_number 15
_symmetry_cell_setting 'monoclinic'
loop_
_space_group_symop_operation_xyz
x,y,z
-x,y,1/2-z
-x,-y,-z
x,-y,1/2+z
1/2+x,1/2+y,z
1/2-x,1/2+y,1/2-z
1/2-x,1/2-y,-z
1/2+x,1/2-y,1/2+z
loop_
_atom_site_type_symbol
_atom_site_label
_atom_site_fract_x
_atom_site_fract_y
_atom_site_fract_z
Si Si1 0.704783 0.043556 0.594724
Si Si2 0.356498 0.676853 0.677924
Si Si3 0.000000 0.000001 0.250000
Si Si4 0.143502 0.176855 0.177924
Si Si5 0.204783 0.456442 0.905276
Si Si6 0.250000 0.249999 0.675012
O O1 0.800347 0.093905 0.609059
O O2 0.641833 0.145416 0.650403
O O3 0.680350 0.063306 0.500000
O O4 0.697685 0.867227 0.619486
O O5 0.447203 0.605405 0.687502
O O6 0.358167 0.854581 0.650403
O O7 0.314302 0.657783 0.767842
O O8 0.947202 0.105407 0.312497
O O9 0.199653 0.093908 0.109059
O O10 0.185699 0.157785 0.267842
O O11 0.197685 0.632771 0.880513
#
# Coordination Sequence:
#
# PCOD8130664 Si02
#       6
#     8   8   4   8   8   8
#     4  10  19  35  59  86 113 148 192 240 288 343
#     4  10  19  35  56  83 111 151 195 235 278 342
#     4  12  20  36  60  84 116 150 208 236 292 334
#     4  10  19  35  56  83 111 151 195 235 278 342
#     4  10  19  35  59  86 113 148 192 240 288 343
#     4  10  17  36  59  86 108 148 198 234 277 350
#
# _framework density 19.058862000000001
#
# number of rings (size 3 to 8) (size 9 to 14) (size 15 to 20)
#    0.000    2.182    3.636    6.000    0.000    0.000 
#    0.000    7.273    0.000    2.182    0.000    0.000 
#    0.000    0.000    0.000    0.000    0.000    0.000 
#
# Total GULP energy -272716.418285 kJ/mol
# GULP energy per Si atom -12396.200831 kJ/mol
# Density = 1.901548 g / cm^3
# Si number density = 19.058862 Si / 1000 Ang^3
#
#
#
# Elastic Constant Matrix: (Units=GPa)
#
#
# Indices 1 2 3 4 5 6 
#
# 1 94.5819 38.5378 27.6744 0.0000 3.3559 0.0000
# 2 38.5378 118.8786 38.4139 0.0000 0.0119 0.0000
# 3 27.6744 38.4139 98.5433 0.0000 -3.7368 0.0000
# 4 0.0000 0.0000 0.0000 30.6113 0.0000 0.3713
# 5 3.3559 0.0119 -3.7368 0.0000 16.6848 0.0000
# 6 0.0000 0.0000 0.0000 0.3713 0.0000 34.4735
#
#
#
# Elastic Compliance Matrix: (Units=1/GPa)
#
#
# Indices 1 2 3 4 5 6 
#
# 1 0.012751 -0.003362 -0.002388 0.000000 -0.003097 0.000000
# 2 -0.003362 0.010523 -0.003159 0.000000 -0.000039 0.000000
# 3 -0.002388 -0.003159 0.012172 0.000000 0.003209 0.000000
# 4 0.000000 0.000000 0.000000 0.032672 0.000000 -0.000352
# 5 -0.003097 -0.000039 0.003209 0.000000 0.061276 0.000000
# 6 0.000000 0.000000 0.000000 -0.000352 0.000000 0.029012
#
#
# Mechanical properties :
#
#
# Convention : Reuss Voigt Hill
#
# Bulk Modulus (GPa) = 56.72944 57.91736 57.32340
# Shear Modulus (GPa) = 27.45755 30.17909 28.81832
#
# Velocity S-wave (km/s) = 3.79973 3.98360 3.89275
# Velocity P-wave (km/s) = 7.00576 7.18425 7.09556
#
# Compressibility (1/GPa) = 0.01762753
#
# Stress axis : x y z
#
# Youngs Moduli (GPa) = 78.42402 95.03340 82.15798
#
# Poissons Ratio (x) = 0.31947 0.19619
# Poissons Ratio (y) = 0.26364 0.25956
# Poissons Ratio (z) = 0.18727 0.30024
#
# Static dielectric constant tensor:
#      x y z
#    x 3.040030 0.000000 -0.028700 
#    y 0.000000 3.696420 0.000000 
#    z -0.028700 0.000000 3.338510 
# 
# 
# High freq. dielectric constant tensor:
#      x y z
#    x 1.680920 0.000000 -0.004880 
#    y 0.000000 1.763250 0.000000 
#    z -0.004880 0.000000 1.731660 
# 
# From -- ./inp_files/134446.got.cif
#   From: 2010.06.25/outbox.cif.g09.slc.cpg/sg15_68_cif.got.tgz:134446.got - 2010.06.28 07:06:18.
