data_PCOD8130778
_publ_section_title
;
Structure prediction by ZEFSAII (Michael W. Deem and Ramdas Pophale) SiO2 
 PCOD8130778
Probable space group: C 2/C
;
_chemical_formula_sum "Si O2"
_cell_formula_units_Z 56
_cell_length_a 5.376164
_cell_length_b 28.600941
_cell_length_c 17.635006
_cell_angle_alpha 90.000000
_cell_angle_beta 66.897546
_cell_angle_gamma 90.000000
_cell_volume 2494.158582
_symmetry_space_group_name_H-M "C 2/C"
_symmetry_group_IT_number 15
_symmetry_cell_setting 'monoclinic'
loop_
_space_group_symop_operation_xyz
x,y,z
-x,y,1/2-z
-x,-y,-z
x,-y,1/2+z
1/2+x,1/2+y,z
1/2-x,1/2+y,1/2-z
1/2-x,1/2-y,-z
1/2+x,1/2-y,1/2+z
loop_
_atom_site_type_symbol
_atom_site_label
_atom_site_fract_x
_atom_site_fract_y
_atom_site_fract_z
Si Si1 0.196777 0.712548 0.865497
Si Si2 0.403325 0.490432 0.595807
Si Si3 0.526742 0.147027 0.019862
Si Si4 0.496892 0.308983 0.542152
Si Si5 0.283797 0.316138 0.150192
Si Si6 0.310783 0.580983 0.699161
Si Si7 0.057596 0.542679 0.437016
O O1 0.523611 0.713007 0.814634
O O2 0.082516 0.760237 0.911267
O O3 0.038901 0.697720 0.806344
O O4 0.153074 0.669194 0.928921
O O5 0.500000 0.500000 0.500000
O O6 0.417743 0.539818 0.634792
O O7 0.616392 0.456794 0.615106
O O8 0.106112 0.466089 0.622917
O O9 0.217460 0.164928 0.068975
O O10 0.530945 0.091032 0.013077
O O11 0.719604 0.161419 0.067319
O O12 0.634827 0.299110 0.444393
O O13 0.325711 0.371150 0.150935
O O14 0.500000 0.585027 0.750000
O O15 0.000000 0.569050 0.750000
O O16 0.000000 0.500000 0.500000
#
# Coordination Sequence:
#
# PCOD8130778 Si02
#       7
#     8   8   8   8   8   8   8
#     4  10  19  31  53  83 121 156 190 237 305 356
#     4  10  23  38  60  83 119 156 214 256 313 362
#     4  10  18  28  47  74 119 152 186 240 304 369
#     4  10  19  31  51  83 121 160 186 235 309 356
#     4  10  20  32  56  75 115 162 198 232 301 367
#     4  12  26  43  61  87 127 173 213 255 321 394
#     4  10  21  31  52  81 116 149 203 253 313 368
#
# _framework density 22.452463999999999
#
# number of rings (size 3 to 8) (size 9 to 14) (size 15 to 20)
#    0.000    1.714    0.000    6.857   16.000    0.000 
#    0.000    0.000    0.000    0.000    0.000    0.000 
#    0.000  132.571    0.000    0.000    0.000    0.000 
#
# Total GULP energy -346969.097704 kJ/mol
# GULP energy per Si atom -12391.753489 kJ/mol
# Density = 2.240136 g / cm^3
# Si number density = 22.452464 Si / 1000 Ang^3
#
#
#
# Elastic Constant Matrix: (Units=GPa)
#
#
# Indices 1 2 3 4 5 6 
#
# 1 274.1922 62.0757 19.3933 0.0000 10.2118 0.0000
# 2 62.0757 127.8533 9.9546 0.0000 10.1676 0.0000
# 3 19.3933 9.9546 8.8711 0.0000 8.8899 0.0000
# 4 0.0000 0.0000 0.0000 18.5032 0.0000 1.5542
# 5 10.2118 10.1676 8.8899 0.0000 21.0677 0.0000
# 6 0.0000 0.0000 0.0000 1.5542 0.0000 43.6267
#
#
#
# Elastic Compliance Matrix: (Units=1/GPa)
#
#
# Indices 1 2 3 4 5 6 
#
# 1 0.004744 -0.001645 -0.012158 0.000000 0.003625 0.000000
# 2 -0.001645 0.009141 -0.005266 0.000000 -0.001392 0.000000
# 3 -0.012158 -0.005266 0.236963 0.000000 -0.091556 0.000000
# 4 0.000000 0.000000 0.000000 0.054207 0.000000 -0.001931
# 5 0.003625 -0.001392 -0.091556 0.000000 0.085014 0.000000
# 6 0.000000 0.000000 0.000000 -0.001931 0.000000 0.022991
#
#
# Mechanical properties :
#
#
# Convention : Reuss Voigt Hill
#
# Bulk Modulus (GPa) = 4.70123 65.97375 35.33749
# Shear Modulus (GPa) = 9.57668 37.93906 23.75787
#
# Velocity S-wave (km/s) = 2.06750 4.11512 3.25644
# Velocity P-wave (km/s) = 2.79246 7.21294 5.46920
#
# Compressibility (1/GPa) = 0.21271041
#
# Stress axis : x y z
#
# Youngs Moduli (GPa) = 210.77140 109.39806 4.22007
#
# Poissons Ratio (x) = 0.17998 0.05131
# Poissons Ratio (y) = 0.34676 0.02222
# Poissons Ratio (z) = 2.56259 0.57605
#
# Static dielectric constant tensor:
#      x y z
#    x 7.431460 0.000000 -0.263880 
#    y 0.000000 3.907010 0.000000 
#    z -0.263880 0.000000 3.518030 
# 
# 
# High freq. dielectric constant tensor:
#      x y z
#    x 1.948830 0.000000 0.003670 
#    y 0.000000 1.875110 0.000000 
#    z 0.003670 0.000000 1.824800 
# 
# From -- ./inp_files/186118.got.cif
#   From: 2010.06.25/outbox.cif.g09.slc.cpg/sg15_94_cif.got.tgz:186118.got - 2010.06.28 07:06:18.
