data_PCOD8130116
_publ_section_title
;
Structure prediction by ZEFSAII (Michael W. Deem and Ramdas Pophale) SiO2 
 PCOD8130116
Probable space group: C 2/C
;
_chemical_formula_sum "Si O2"
_cell_formula_units_Z 64
_cell_length_a 19.330211
_cell_length_b 10.920530
_cell_length_c 14.634869
_cell_angle_alpha 90.000000
_cell_angle_beta 87.752544
_cell_angle_gamma 90.000000
_cell_volume 3086.988083
_symmetry_space_group_name_H-M "C 2/C"
_symmetry_group_IT_number 15
_symmetry_cell_setting 'monoclinic'
loop_
_space_group_symop_operation_xyz
x,y,z
-x,y,1/2-z
-x,-y,-z
x,-y,1/2+z
1/2+x,1/2+y,z
1/2-x,1/2+y,1/2-z
1/2-x,1/2-y,-z
1/2+x,1/2-y,1/2+z
loop_
_atom_site_type_symbol
_atom_site_label
_atom_site_fract_x
_atom_site_fract_y
_atom_site_fract_z
Si Si1 0.822961 0.452385 0.682399
Si Si2 0.866811 0.210444 0.582750
Si Si3 0.165086 0.794798 0.098449
Si Si4 0.985299 0.747605 0.355050
Si Si5 0.274221 0.619633 0.720917
Si Si6 0.058475 0.486361 0.186139
Si Si7 0.332813 0.833988 0.409717
Si Si8 0.216001 0.434752 0.492207
O O1 0.825005 0.319277 0.637317
O O2 0.752291 0.486746 0.741810
O O3 0.886314 0.458065 0.747369
O O4 0.826984 0.553572 0.600591
O O5 0.833471 0.095548 0.639291
O O6 0.844895 0.218482 0.476779
O O7 0.949465 0.214421 0.586071
O O8 0.082470 0.820293 0.104856
O O9 0.194547 0.797724 0.199636
O O10 0.204767 0.892277 0.031971
O O11 0.176515 0.658568 0.060156
O O12 0.975017 0.601343 0.365553
O O13 0.000000 0.785621 0.250000
O O14 0.208096 0.696675 0.681676
O O15 0.091198 0.390366 0.113888
O O16 0.000000 0.418499 0.250000
O O17 0.282497 0.934275 0.459151
#
# Coordination Sequence:
#
# PCOD8130116 Si02
#       8
#     8   8   8   8   8   8   8   8
#     4   9  18  31  47  73 104 140 168 210 256 305
#     4  11  20  33  51  77 109 136 176 218 257 320
#     4  10  18  33  51  77 103 138 171 219 251 309
#     4  11  18  29  52  77 103 134 173 211 262 312
#     4  10  20  32  51  71 105 139 178 207 258 308
#     4  10  17  29  46  73 109 139 167 197 259 326
#     4  10  21  33  49  77 107 142 170 213 264 313
#     4   9  19  31  50  73 107 132 175 213 257 297
#
# _framework density 20.732182999999999
#
# number of rings (size 3 to 8) (size 9 to 14) (size 15 to 20)
#    0.000    2.000    5.000    0.375    1.750    1.500 
#    0.000    0.000    0.000    0.750    0.000    0.000 
#   18.750    0.000    0.000    0.000    0.000    0.000 
#
# Total GULP energy -396479.927054 kJ/mol
# GULP energy per Si atom -12389.997720 kJ/mol
# Density = 2.068500 g / cm^3
# Si number density = 20.732183 Si / 1000 Ang^3
#
#
#
# Elastic Constant Matrix: (Units=GPa)
#
#
# Indices 1 2 3 4 5 6 
#
# 1 129.5011 12.0658 28.7387 0.0000 -15.7233 0.0000
# 2 12.0658 14.5146 3.0791 0.0000 -5.0384 0.0000
# 3 28.7387 3.0791 63.9849 0.0000 -4.5588 0.0000
# 4 0.0000 0.0000 0.0000 19.5598 0.0000 -5.9938
# 5 -15.7233 -5.0384 -4.5588 0.0000 39.0417 0.0000
# 6 0.0000 0.0000 0.0000 -5.9938 0.0000 28.2604
#
#
#
# Elastic Compliance Matrix: (Units=1/GPa)
#
#
# Indices 1 2 3 4 5 6 
#
# 1 0.009443 -0.006160 -0.003762 0.000000 0.002569 0.000000
# 2 -0.006160 0.076658 -0.000397 0.000000 0.007366 0.000000
# 3 -0.003762 -0.000397 0.017370 0.000000 0.000462 0.000000
# 4 0.000000 0.000000 0.000000 0.054679 0.000000 0.011597
# 5 0.002569 0.007366 0.000462 0.000000 0.027653 0.000000
# 6 0.000000 0.000000 0.000000 0.011597 0.000000 0.037845
#
#
# Mechanical properties :
#
#
# Convention : Reuss Voigt Hill
#
# Bulk Modulus (GPa) = 12.07249 32.86308 22.46778
# Shear Modulus (GPa) = 18.38940 28.31353 23.35146
#
# Velocity S-wave (km/s) = 2.98148 3.69952 3.35974
# Velocity P-wave (km/s) = 4.20571 5.84245 5.09030
#
# Compressibility (1/GPa) = 0.08283293
#
# Stress axis : x y z
#
# Youngs Moduli (GPa) = 105.90409 13.04495 57.56962
#
# Poissons Ratio (x) = 0.08035 0.21656
# Poissons Ratio (y) = 0.65235 0.02288
# Poissons Ratio (z) = 0.39837 0.00518
#
# Static dielectric constant tensor:
#      x y z
#    x 3.930420 0.000000 -0.193140 
#    y 0.000000 3.335050 0.000000 
#    z -0.193140 0.000000 4.107920 
# 
# 
# High freq. dielectric constant tensor:
#      x y z
#    x 1.811980 0.000000 -0.006090 
#    y 0.000000 1.753230 0.000000 
#    z -0.006090 0.000000 1.826020 
# 
# From -- ./inp_files/161948.got.cif
#   From: 2010.06.25/outbox.cif.g09.slc.cpg/sg15_81_cif.got.tgz:161948.got - 2010.06.28 07:06:18.
