data_PCOD8130834
_publ_section_title
;
Structure prediction by ZEFSAII (Michael W. Deem and Ramdas Pophale) SiO2 
 PCOD8130834
Probable space group: C 2/C
;
_chemical_formula_sum "Si O2"
_cell_formula_units_Z 60
_cell_length_a 6.326663
_cell_length_b 23.587555
_cell_length_c 28.294346
_cell_angle_alpha 90.000000
_cell_angle_beta 120.867695
_cell_angle_gamma 90.000000
_cell_volume 3624.297872
_symmetry_space_group_name_H-M "C 2/C"
_symmetry_group_IT_number 15
_symmetry_cell_setting 'monoclinic'
loop_
_space_group_symop_operation_xyz
x,y,z
-x,y,1/2-z
-x,-y,-z
x,-y,1/2+z
1/2+x,1/2+y,z
1/2-x,1/2+y,1/2-z
1/2-x,1/2-y,-z
1/2+x,1/2-y,1/2+z
loop_
_atom_site_type_symbol
_atom_site_label
_atom_site_fract_x
_atom_site_fract_y
_atom_site_fract_z
Si Si1 0.346739 0.402708 0.925955
Si Si2 0.909140 0.286805 0.581647
Si Si3 0.501178 0.582075 0.159652
Si Si4 0.946787 0.477773 0.919723
Si Si5 0.623020 0.082295 0.990210
Si Si6 0.755888 0.174787 0.197159
Si Si7 0.000000 0.609824 0.250000
Si Si8 0.029309 0.289465 0.489941
O O1 0.245473 0.344314 0.934073
O O2 0.439018 0.390053 0.883729
O O3 0.142980 0.452399 0.904947
O O4 0.583050 0.423197 0.982845
O O5 0.726709 0.233376 0.560793
O O6 0.104941 0.280612 0.647413
O O7 0.052205 0.288561 0.548945
O O8 0.330606 0.526430 0.133548
O O9 0.344791 0.625127 0.173013
O O10 0.764710 0.569002 0.214110
O O11 0.998929 0.543589 0.935509
O O12 0.969554 0.439594 0.969487
O O13 0.546928 0.146870 0.972537
O O14 0.562465 0.150416 0.212972
O O15 0.000000 0.202191 0.250000
O O16 0.250000 0.250000 0.500000
#
# Coordination Sequence:
#
# PCOD8130834 Si02
#       8
#     8   8   8   8   8   8   4   8
#     4  11  17  31  50  70 105 133 166 208 252 305
#     4  11  20  33  50  75 106 138 175 210 262 314
#     4  10  18  29  48  75 101 131 159 206 265 310
#     4  10  19  31  49  69 103 135 164 214 246 303
#     4  10  20  32  46  72  99 137 177 201 251 297
#     4  10  20  32  51  75 107 133 168 214 266 318
#     4  10  18  30  50  76 104 132 162 212 270 324
#     4  11  22  33  51  72 107 147 173 212 254 311
#
# _framework density 16.554931
#
# number of rings (size 3 to 8) (size 9 to 14) (size 15 to 20)
#    0.000    1.600    5.333    1.200    0.000    0.000 
#    0.000    0.000    0.000    0.000    1.733    0.000 
#   10.000    0.000    0.000    0.000    0.000    0.000 
#
# Total GULP energy -371845.016673 kJ/mol
# GULP energy per Si atom -12394.833889 kJ/mol
# Density = 1.651725 g / cm^3
# Si number density = 16.554931 Si / 1000 Ang^3
#
#
#
# Elastic Constant Matrix: (Units=GPa)
#
#
# Indices 1 2 3 4 5 6 
#
# 1 105.3543 37.8349 45.4863 0.0000 -0.0620 0.0000
# 2 37.8349 95.6306 39.9811 0.0000 6.8301 0.0000
# 3 45.4863 39.9811 116.7002 0.0000 21.1905 0.0000
# 4 0.0000 0.0000 0.0000 26.2812 0.0000 3.9504
# 5 -0.0620 6.8301 21.1905 0.0000 35.2959 0.0000
# 6 0.0000 0.0000 0.0000 3.9504 0.0000 19.2146
#
#
#
# Elastic Compliance Matrix: (Units=1/GPa)
#
#
# Indices 1 2 3 4 5 6 
#
# 1 0.012588 -0.003401 -0.004337 0.000000 0.003284 0.000000
# 2 -0.003401 0.013125 -0.003040 0.000000 -0.000721 0.000000
# 3 -0.004337 -0.003040 0.012565 0.000000 -0.006963 0.000000
# 4 0.000000 0.000000 0.000000 0.039263 0.000000 -0.008072
# 5 0.003284 -0.000721 -0.006963 0.000000 0.032658 0.000000
# 6 0.000000 0.000000 0.000000 -0.008072 0.000000 0.053703
#
#
# Mechanical properties :
#
#
# Convention : Reuss Voigt Hill
#
# Bulk Modulus (GPa) = 59.80597 62.69884 61.25240
# Shear Modulus (GPa) = 26.17339 29.11721 27.64530
#
# Velocity S-wave (km/s) = 3.98050 4.19838 4.09089
# Velocity P-wave (km/s) = 7.57166 7.83947 7.70673
#
# Compressibility (1/GPa) = 0.01672074
#
# Stress axis : x y z
#
# Youngs Moduli (GPa) = 79.44133 76.19021 79.58335
#
# Poissons Ratio (x) = 0.25915 0.34519
# Poissons Ratio (y) = 0.27021 0.24193
# Poissons Ratio (z) = 0.34457 0.23162
#
# Static dielectric constant tensor:
#      x y z
#    x 3.456130 0.000000 0.151040 
#    y 0.000000 2.865200 0.000000 
#    z 0.151040 0.000000 3.336300 
# 
# 
# High freq. dielectric constant tensor:
#      x y z
#    x 1.665930 0.000000 0.008030 
#    y 0.000000 1.591660 0.000000 
#    z 0.008030 0.000000 1.628770 
# 
# From -- ./inp_files/261915.got.cif
#   From: 2010.06.25/outbox.cif.g09.slc.cpg/sg15_131_cif.got.tgz:261915.got - 2010.06.28 07:06:18.
