data_PCOD8130685
_publ_section_title
;
Structure prediction by ZEFSAII (Michael W. Deem and Ramdas Pophale) SiO2 
 PCOD8130685
Probable space group: C 2/C
;
_chemical_formula_sum "Si O2"
_cell_formula_units_Z 60
_cell_length_a 30.648483
_cell_length_b 19.129000
_cell_length_c 15.538533
_cell_angle_alpha 90.000000
_cell_angle_beta 20.106725
_cell_angle_gamma 90.000000
_cell_volume 3131.692657
_symmetry_space_group_name_H-M "C 2/C"
_symmetry_group_IT_number 15
_symmetry_cell_setting 'monoclinic'
loop_
_space_group_symop_operation_xyz
x,y,z
-x,y,1/2-z
-x,-y,-z
x,-y,1/2+z
1/2+x,1/2+y,z
1/2-x,1/2+y,1/2-z
1/2-x,1/2-y,-z
1/2+x,1/2-y,1/2+z
loop_
_atom_site_type_symbol
_atom_site_label
_atom_site_fract_x
_atom_site_fract_y
_atom_site_fract_z
Si Si1 0.555568 0.065707 0.946262
Si Si2 0.824816 0.202020 0.639617
Si Si3 0.719954 0.008780 0.283534
Si Si4 0.146150 0.344510 0.978774
Si Si5 0.880577 0.605759 0.414030
Si Si6 0.426186 0.640584 0.280531
Si Si7 0.000000 0.018925 0.250000
Si Si8 0.774528 0.332135 0.474009
O O1 0.607674 0.129913 0.792092
O O2 0.667387 0.036576 0.801109
O O3 0.432640 0.096849 0.221768
O O4 0.500000 0.000000 0.000000
O O5 0.783959 0.282339 0.702002
O O6 0.830610 0.161949 0.536103
O O7 0.962143 0.198306 0.432387
O O8 0.720414 0.168024 0.894695
O O9 0.654986 0.084011 0.409588
O O10 0.685021 0.966701 0.434656
O O11 0.870555 0.025092 0.997062
O O12 0.209447 0.348466 0.955541
O O13 0.000000 0.322340 0.250000
O O14 0.000000 0.626833 0.250000
O O15 0.491673 0.566812 0.180108
O O16 0.353648 0.632340 0.324797
O O17 0.750000 0.250000 0.500000
#
# Coordination Sequence:
#
# PCOD8130685 Si02
#       8
#     8   8   8   8   8   8   4   8
#     4  11  23  39  59  91 127 163 202 264 315 364
#     4  10  18  36  61  90 115 158 202 248 308 361
#     4  11  21  38  61  86 118 165 207 247 309 378
#     4  12  23  38  60  92 125 156 203 263 309 372
#     4  10  19  34  61  85 113 155 209 241 297 374
#     4  10  17  36  64  88 110 155 204 252 294 372
#     4  10  18  38  62  80 116 154 212 238 300 374
#     4  12  22  37  63  95 120 156 215 262 310 368
#
# _framework density 19.158968000000002
#
# number of rings (size 3 to 8) (size 9 to 14) (size 15 to 20)
#    0.000    1.333    6.667    3.600    0.000    0.000 
#    1.200    2.000    0.000    5.600    0.000    0.000 
#    0.000    0.000    0.000    0.000    0.000    0.000 
#
# Total GULP energy -371805.135484 kJ/mol
# GULP energy per Si atom -12393.504516 kJ/mol
# Density = 1.911536 g / cm^3
# Si number density = 19.158968 Si / 1000 Ang^3
#
#
#
# Elastic Constant Matrix: (Units=GPa)
#
#
# Indices 1 2 3 4 5 6 
#
# 1 82.7654 19.4054 32.2119 -0.0001 -11.1073 0.0002
# 2 19.4054 115.7353 45.9213 -0.0001 13.4599 0.0001
# 3 32.2119 45.9213 115.1621 0.0000 -0.1802 0.0001
# 4 -0.0001 -0.0001 0.0000 29.8039 0.0001 0.3643
# 5 -11.1073 13.4599 -0.1802 0.0001 26.5322 -0.0001
# 6 0.0002 0.0001 0.0001 0.3643 -0.0001 22.0992
#
#
#
# Elastic Compliance Matrix: (Units=1/GPa)
#
#
# Indices 1 2 3 4 5 6 
#
# 1 0.014814 -0.001997 -0.003336 0.000000 0.007192 0.000000
# 2 -0.001997 0.011316 -0.003964 0.000000 -0.006603 0.000000
# 3 -0.003336 -0.003964 0.011198 0.000000 0.000690 0.000000
# 4 0.000000 0.000000 0.000000 0.033559 0.000000 -0.000553
# 5 0.007192 -0.006603 0.000690 0.000000 0.044055 0.000000
# 6 0.000000 0.000000 0.000000 -0.000553 0.000000 0.045260
#
#
# Mechanical properties :
#
#
# Convention : Reuss Voigt Hill
#
# Bulk Modulus (GPa) = 53.37728 56.52665 54.95196
# Shear Modulus (GPa) = 27.02092 30.09535 28.55814
#
# Velocity S-wave (km/s) = 3.75954 3.96766 3.86500
# Velocity P-wave (km/s) = 6.83858 7.11040 6.97582
#
# Compressibility (1/GPa) = 0.01873456
#
# Stress axis : x y z
#
# Youngs Moduli (GPa) = 67.50340 88.37017 89.29847
#
# Poissons Ratio (x) = 0.17643 0.29792
# Poissons Ratio (y) = 0.13477 0.35400
# Poissons Ratio (z) = 0.22521 0.35032
#
# Static dielectric constant tensor:
#      x y z
#    x 3.577790 0.000000 -0.066980 
#    y 0.000000 3.462110 0.000000 
#    z -0.066980 0.000000 3.691800 
# 
# 
# High freq. dielectric constant tensor:
#      x y z
#    x 1.729070 0.000000 -0.020620 
#    y 0.000000 1.742920 0.000000 
#    z -0.020620 0.000000 1.734050 
# 
# From -- ./inp_files/183070.got.cif
#   From: 2010.06.25/outbox.cif.g09.slc.cpg/sg15_92_cif.got.tgz:183070.got - 2010.06.28 07:06:18.
