data_PCOD8130569
_publ_section_title
;
Structure prediction by ZEFSAII (Michael W. Deem and Ramdas Pophale) SiO2 
 PCOD8130569
Probable space group: C 2/C
;
_chemical_formula_sum "Si O2"
_cell_formula_units_Z 60
_cell_length_a 19.508385
_cell_length_b 8.569547
_cell_length_c 17.199771
_cell_angle_alpha 90.000000
_cell_angle_beta 81.300671
_cell_angle_gamma 90.000000
_cell_volume 2842.343840
_symmetry_space_group_name_H-M "C 2/C"
_symmetry_group_IT_number 15
_symmetry_cell_setting 'monoclinic'
loop_
_space_group_symop_operation_xyz
x,y,z
-x,y,1/2-z
-x,-y,-z
x,-y,1/2+z
1/2+x,1/2+y,z
1/2-x,1/2+y,1/2-z
1/2-x,1/2-y,-z
1/2+x,1/2-y,1/2+z
loop_
_atom_site_type_symbol
_atom_site_label
_atom_site_fract_x
_atom_site_fract_y
_atom_site_fract_z
Si Si1 0.485717 0.172499 0.533916
Si Si2 0.347436 0.053621 0.600730
Si Si3 0.500000 0.883707 0.750000
Si Si4 0.931999 0.242232 0.616640
Si Si5 0.777511 0.577832 0.975146
Si Si6 0.410993 0.131348 0.853222
Si Si7 0.304725 0.454558 0.153763
Si Si8 0.191600 0.257360 0.247628
O O1 0.403267 0.186227 0.563789
O O2 0.512069 0.289921 0.462010
O O3 0.525724 0.206521 0.608684
O O4 0.500000 0.000000 0.500000
O O5 0.316414 0.108081 0.687144
O O6 0.384857 0.888543 0.602644
O O7 0.284320 0.029801 0.550742
O O8 0.439288 0.986747 0.798228
O O9 0.469625 0.769137 0.691072
O O10 0.885189 0.088664 0.632701
O O11 0.854102 0.576629 0.924931
O O12 0.723797 0.493223 0.925919
O O13 0.750000 0.750000 0.000000
O O14 0.375395 0.250631 0.798157
O O15 0.259618 0.303453 0.186699
O O16 0.295528 0.590630 0.217281
#
# Coordination Sequence:
#
# PCOD8130569 Si02
#       8
#     8   8   4   8   8   8   8   8
#     4  10  17  34  61  95 115 154 210 254 297 372
#     4  11  19  37  63  94 122 157 215 259 309 373
#     4  12  20  34  66  96 118 166 206 262 310 378
#     4  11  20  38  63  92 119 162 209 259 311 370
#     4  11  21  35  64  90 122 166 208 258 314 378
#     4  11  19  33  60  93 119 159 208 246 314 371
#     4  11  25  42  59  90 129 166 213 257 320 374
#     4  11  25  39  60  90 128 167 208 266 313 375
#
# _framework density 21.10934
#
# number of rings (size 3 to 8) (size 9 to 14) (size 15 to 20)
#    0.000    1.067    8.000    0.800    3.733    0.533 
#    0.000    2.667    0.000    0.000    0.000    0.000 
#    0.000    0.000    0.000    0.000    0.000    0.000 
#
# Total GULP energy -371951.743245 kJ/mol
# GULP energy per Si atom -12398.391441 kJ/mol
# Density = 2.106129 g / cm^3
# Si number density = 21.109340 Si / 1000 Ang^3
#
#
#
# Elastic Constant Matrix: (Units=GPa)
#
#
# Indices 1 2 3 4 5 6 
#
# 1 91.8494 16.7370 48.6610 0.0000 26.0969 0.0000
# 2 16.7370 37.7581 21.2976 0.0000 17.8339 0.0000
# 3 48.6610 21.2976 134.6353 0.0000 36.8741 0.0000
# 4 0.0000 0.0000 0.0000 19.8910 0.0000 3.3004
# 5 26.0969 17.8339 36.8741 0.0000 53.1215 0.0000
# 6 0.0000 0.0000 0.0000 3.3004 0.0000 28.0634
#
#
#
# Elastic Compliance Matrix: (Units=1/GPa)
#
#
# Indices 1 2 3 4 5 6 
#
# 1 0.014387 -0.002539 -0.003823 0.000000 -0.003562 0.000000
# 2 -0.002539 0.032663 -0.001960 0.000000 -0.008358 0.000000
# 3 -0.003823 -0.001960 0.010402 0.000000 -0.004685 0.000000
# 4 0.000000 0.000000 0.000000 0.051274 0.000000 -0.006030
# 5 -0.003562 -0.008358 -0.004685 0.000000 0.026632 0.000000
# 6 0.000000 0.000000 0.000000 -0.006030 0.000000 0.036343
#
#
# Mechanical properties :
#
#
# Convention : Reuss Voigt Hill
#
# Bulk Modulus (GPa) = 24.50444 48.62600 36.56522
# Shear Modulus (GPa) = 24.75877 32.05168 28.40522
#
# Velocity S-wave (km/s) = 3.42845 3.90085 3.67225
# Velocity P-wave (km/s) = 5.22551 6.58590 5.94475
#
# Compressibility (1/GPa) = 0.04080894
#
# Stress axis : x y z
#
# Youngs Moduli (GPa) = 69.50529 30.61581 96.13308
#
# Poissons Ratio (x) = 0.07772 0.36750
# Poissons Ratio (y) = 0.17645 0.18845
# Poissons Ratio (z) = 0.26570 0.06002
#
# Static dielectric constant tensor:
#      x y z
#    x 4.211110 0.000000 -0.030110 
#    y 0.000000 3.237660 0.000000 
#    z -0.030110 0.000000 4.388160 
# 
# 
# High freq. dielectric constant tensor:
#      x y z
#    x 1.832020 0.000000 0.002670 
#    y 0.000000 1.770080 0.000000 
#    z 0.002670 0.000000 1.855710 
# 
# From -- ./inp_files/209584.got.cif
#   From: 2010.06.25/outbox.cif.g09.slc.cpg/sg15_105_cif.got.tgz:209584.got - 2010.06.28 07:06:18.
