data_PCOD8130121
_publ_section_title
;
Structure prediction by ZEFSAII (Michael W. Deem and Ramdas Pophale) SiO2 
 PCOD8130121
Probable space group: C 2/C
;
_chemical_formula_sum "Si O2"
_cell_formula_units_Z 56
_cell_length_a 16.804248
_cell_length_b 20.962267
_cell_length_c 9.494057
_cell_angle_alpha 90.000000
_cell_angle_beta 59.853041
_cell_angle_gamma 90.000000
_cell_volume 2891.976521
_symmetry_space_group_name_H-M "C 2/C"
_symmetry_group_IT_number 15
_symmetry_cell_setting 'monoclinic'
loop_
_space_group_symop_operation_xyz
x,y,z
-x,y,1/2-z
-x,-y,-z
x,-y,1/2+z
1/2+x,1/2+y,z
1/2-x,1/2+y,1/2-z
1/2-x,1/2-y,-z
1/2+x,1/2-y,1/2+z
loop_
_atom_site_type_symbol
_atom_site_label
_atom_site_fract_x
_atom_site_fract_y
_atom_site_fract_z
Si Si1 0.121306 0.040405 0.773666
Si Si2 0.914960 0.928055 0.508107
Si Si3 0.100503 0.325443 0.641076
Si Si4 0.603240 0.194116 0.688717
Si Si5 0.061110 0.785608 0.969640
Si Si6 0.225453 0.636753 0.794016
Si Si7 0.143166 0.251930 0.862468
O O1 0.127646 0.044253 0.598943
O O2 0.203270 0.079016 0.775787
O O3 0.127651 0.967470 0.822980
O O4 0.025091 0.068570 0.911834
O O5 0.890975 0.853987 0.549854
O O6 0.088893 0.256992 0.577157
O O7 0.165735 0.370823 0.490262
O O8 0.144725 0.311450 0.753305
O O9 0.000000 0.358191 0.750000
O O10 0.500000 0.168962 0.750000
O O11 0.599457 0.256106 0.791874
O O12 0.657901 0.136430 0.717913
O O13 0.657107 0.215634 0.501795
O O14 0.950557 0.789134 0.059946
O O15 0.274156 0.705474 0.749838
#
# Coordination Sequence:
#
# PCOD8130121 Si02
#       7
#     8   8   8   8   8   8   8
#     4  10  22  35  57  78 110 151 190 234 268 331
#     4  10  20  38  52  80 114 150 189 224 280 325
#     4   9  19  31  52  78 111 147 182 228 285 339
#     4   9  20  33  49  80 118 151 182 228 285 339
#     4   9  17  32  52  73 113 158 183 215 282 341
#     4  11  19  33  52  80 110 147 188 230 280 338
#     4  10  17  29  47  77 110 147 188 224 267 335
#
# _framework density 19.36392
#
# number of rings (size 3 to 8) (size 9 to 14) (size 15 to 20)
#    0.000    2.286    1.429    2.571    4.000    2.286 
#    7.714    1.429    0.000    0.000    0.000    3.000 
#    0.000    0.000    0.000    0.000    0.000    0.000 
#
# Total GULP energy -347167.592258 kJ/mol
# GULP energy per Si atom -12398.842581 kJ/mol
# Density = 1.931985 g / cm^3
# Si number density = 19.363920 Si / 1000 Ang^3
#
#
#
# Elastic Constant Matrix: (Units=GPa)
#
#
# Indices 1 2 3 4 5 6 
#
# 1 88.6783 32.5577 39.7321 0.0000 4.8341 0.0000
# 2 32.5577 58.1149 19.6405 0.0000 4.3461 0.0000
# 3 39.7321 19.6405 108.2233 0.0000 14.9829 0.0000
# 4 0.0000 0.0000 0.0000 20.7590 0.0000 -1.8265
# 5 4.8341 4.3461 14.9829 0.0000 32.9918 0.0000
# 6 0.0000 0.0000 0.0000 -1.8265 0.0000 26.8013
#
#
#
# Elastic Compliance Matrix: (Units=1/GPa)
#
#
# Indices 1 2 3 4 5 6 
#
# 1 0.016065 -0.007487 -0.004642 0.000000 0.000740 0.000000
# 2 -0.007487 0.021849 -0.001035 0.000000 -0.001311 0.000000
# 3 -0.004642 -0.001035 0.011758 0.000000 -0.004523 0.000000
# 4 0.000000 0.000000 0.000000 0.048462 0.000000 0.003303
# 5 0.000740 -0.001311 -0.004523 0.000000 0.032429 0.000000
# 6 0.000000 0.000000 0.000000 0.003303 0.000000 0.037537
#
#
# Mechanical properties :
#
#
# Convention : Reuss Voigt Hill
#
# Bulk Modulus (GPa) = 42.83463 48.76413 45.79938
# Shear Modulus (GPa) = 24.72685 26.98285 25.85485
#
# Velocity S-wave (km/s) = 3.57733 3.73696 3.65801
# Velocity P-wave (km/s) = 6.26354 6.62250 6.44552
#
# Compressibility (1/GPa) = 0.02334559
#
# Stress axis : x y z
#
# Youngs Moduli (GPa) = 62.24828 45.76784 85.04592
#
# Poissons Ratio (x) = 0.34265 0.39475
# Poissons Ratio (y) = 0.46603 0.08804
# Poissons Ratio (z) = 0.28893 0.04738
#
# Static dielectric constant tensor:
#      x y z
#    x 3.799130 0.000000 0.088680 
#    y 0.000000 3.048170 0.000000 
#    z 0.088680 0.000000 3.689910 
# 
# 
# High freq. dielectric constant tensor:
#      x y z
#    x 1.761780 0.000000 0.006280 
#    y 0.000000 1.694890 0.000000 
#    z 0.006280 0.000000 1.761430 
# 
# From -- ./inp_files/50097.got.cif
#   From: 2010.06.25/outbox.cif.g09.slc.cpg/sg15_26_cif.got.tgz:50097.got - 2010.06.28 07:06:18.
