data_PCOD8130562
_publ_section_title
;
Structure prediction by ZEFSAII (Michael W. Deem and Ramdas Pophale) SiO2 
 PCOD8130562
Probable space group: C 2/C
;
_chemical_formula_sum "Si O2"
_cell_formula_units_Z 48
_cell_length_a 9.947018
_cell_length_b 17.149941
_cell_length_c 13.067057
_cell_angle_alpha 90.000000
_cell_angle_beta 104.962218
_cell_angle_gamma 90.000000
_cell_volume 2153.543916
_symmetry_space_group_name_H-M "C 2/C"
_symmetry_group_IT_number 15
_symmetry_cell_setting 'monoclinic'
loop_
_space_group_symop_operation_xyz
x,y,z
-x,y,1/2-z
-x,-y,-z
x,-y,1/2+z
1/2+x,1/2+y,z
1/2-x,1/2+y,1/2-z
1/2-x,1/2-y,-z
1/2+x,1/2-y,1/2+z
loop_
_atom_site_type_symbol
_atom_site_label
_atom_site_fract_x
_atom_site_fract_y
_atom_site_fract_z
Si Si1 0.627359 0.427776 0.355872
Si Si2 0.843398 0.418763 0.237053
Si Si3 0.830015 0.693606 0.437397
Si Si4 0.818420 0.067531 0.991582
Si Si5 0.944027 0.807833 0.000517
Si Si6 0.856167 0.764779 0.769684
O O1 0.500000 0.428387 0.250000
O O2 0.775160 0.444574 0.330852
O O3 0.611884 0.493837 0.439093
O O4 0.634028 0.343751 0.415656
O O5 0.841840 0.325631 0.238264
O O6 0.000000 0.450747 0.250000
O O7 0.740146 0.454570 0.131331
O O8 0.750000 0.750000 0.500000
O O9 0.815433 0.605241 0.476052
O O10 0.768878 0.692310 0.311422
O O11 0.988611 0.723304 0.460269
O O12 0.938271 0.131355 0.008749
O O13 0.841972 0.789349 0.885567
O O14 0.000000 0.796134 0.750000
#
# Coordination Sequence:
#
# PCOD8130562 Si02
#       6
#     8   8   8   8   8   8
#     4  12  26  41  67 100 139 175 221 292 343 400
#     4  11  24  44  64  91 132 182 222 270 346 417
#     4  10  17  34  60  95 125 169 215 273 325 395
#     4  11  22  39  65  98 133 175 224 271 344 414
#     4  11  22  39  63 100 132 162 231 288 335 384
#     4  11  18  33  64  89 124 172 218 266 330 397
#
# _framework density 22.288843
#
# number of rings (size 3 to 8) (size 9 to 14) (size 15 to 20)
#    0.000    1.000    8.333    1.500    2.333    1.333 
#    0.000    0.000    0.000    3.000    0.000    0.000 
#    0.000    0.000    0.000    0.000    0.000    0.000 
#
# Total GULP energy -297427.074758 kJ/mol
# GULP energy per Si atom -12392.794782 kJ/mol
# Density = 2.223811 g / cm^3
# Si number density = 22.288843 Si / 1000 Ang^3
#
#
#
# Elastic Constant Matrix: (Units=GPa)
#
#
# Indices 1 2 3 4 5 6 
#
# 1 74.6464 2.9902 36.2978 0.0000 -14.4903 0.0000
# 2 2.9902 32.9615 20.0110 0.0000 -1.7511 0.0000
# 3 36.2978 20.0110 175.1534 0.0000 14.2734 0.0000
# 4 0.0000 0.0000 0.0000 38.4994 0.0000 -6.8956
# 5 -14.4903 -1.7511 14.2734 0.0000 21.5932 0.0000
# 6 0.0000 0.0000 0.0000 -6.8956 0.0000 17.8178
#
#
#
# Elastic Compliance Matrix: (Units=1/GPa)
#
#
# Indices 1 2 3 4 5 6 
#
# 1 0.019350 0.002599 -0.005689 0.000000 0.016956 0.000000
# 2 0.002599 0.033555 -0.005006 0.000000 0.007774 0.000000
# 3 -0.005689 -0.005006 0.008249 0.000000 -0.009676 0.000000
# 4 0.000000 0.000000 0.000000 0.027909 0.000000 0.010801
# 5 0.016956 0.007774 -0.009676 0.000000 0.064716 0.000000
# 6 0.000000 0.000000 0.000000 0.010801 0.000000 0.060304
#
#
# Mechanical properties :
#
#
# Convention : Reuss Voigt Hill
#
# Bulk Modulus (GPa) = 22.24074 44.59549 33.41811
# Shear Modulus (GPa) = 20.38652 30.47956 25.43304
#
# Velocity S-wave (km/s) = 3.02760 3.70196 3.38163
# Velocity P-wave (km/s) = 4.71401 6.19064 5.50209
#
# Compressibility (1/GPa) = 0.04496254
#
# Stress axis : x y z
#
# Youngs Moduli (GPa) = 51.67925 29.80216 121.23322
#
# Poissons Ratio (x) = -0.07746 0.68966
# Poissons Ratio (y) = -0.13432 0.60685
# Poissons Ratio (z) = 0.29399 0.14918
#
# Static dielectric constant tensor:
#      x y z
#    x 4.127960 0.000000 -0.044190 
#    y 0.000000 4.052640 0.000000 
#    z -0.044190 0.000000 4.211300 
# 
# 
# High freq. dielectric constant tensor:
#      x y z
#    x 1.854250 0.000000 0.003200 
#    y 0.000000 1.846650 0.000000 
#    z 0.003200 0.000000 1.892280 
# 
# From -- ./inp_files/87852.got.cif
#   From: 2010.06.25/outbox.cif.g09.slc.cpg/sg15_44_cif.got.tgz:87852.got - 2010.06.28 07:06:18.
