data_PCOD8130915
_publ_section_title
;
Structure prediction by ZEFSAII (Michael W. Deem and Ramdas Pophale) SiO2 
 PCOD8130915
Probable space group: C 2/C
;
_chemical_formula_sum "Si O2"
_cell_formula_units_Z 64
_cell_length_a 11.107782
_cell_length_b 18.905414
_cell_length_c 16.949583
_cell_angle_alpha 90.000000
_cell_angle_beta 85.757117
_cell_angle_gamma 90.000000
_cell_volume 3549.610407
_symmetry_space_group_name_H-M "C 2/C"
_symmetry_group_IT_number 15
_symmetry_cell_setting 'monoclinic'
loop_
_space_group_symop_operation_xyz
x,y,z
-x,y,1/2-z
-x,-y,-z
x,-y,1/2+z
1/2+x,1/2+y,z
1/2-x,1/2+y,1/2-z
1/2-x,1/2-y,-z
1/2+x,1/2-y,1/2+z
loop_
_atom_site_type_symbol
_atom_site_label
_atom_site_fract_x
_atom_site_fract_y
_atom_site_fract_z
Si Si1 0.841616 0.401353 0.333678
Si Si2 0.466625 0.292329 0.833906
Si Si3 0.407227 0.141016 0.661254
Si Si4 0.463526 0.403490 0.545599
Si Si5 0.391998 0.450145 0.104151
Si Si6 0.215452 0.821490 0.047453
Si Si7 0.491419 0.688189 0.661319
Si Si8 0.738348 0.735561 0.908460
O O1 0.827700 0.379968 0.241737
O O2 0.748488 0.463705 0.363012
O O3 0.789106 0.342041 0.393587
O O4 0.981733 0.415992 0.350000
O O5 0.500000 0.330891 0.750000
O O6 0.529759 0.216085 0.827834
O O7 0.519412 0.334670 0.903716
O O8 0.322127 0.288442 0.852951
O O9 0.329972 0.142484 0.585266
O O10 0.580279 0.415835 0.483775
O O11 0.449566 0.471917 0.601937
O O12 0.342581 0.384565 0.501969
O O13 0.453541 0.395155 0.162443
O O14 0.121543 0.797628 0.118333
O O15 0.250000 0.750000 0.000000
O O16 0.500000 0.714903 0.750000
O O17 0.398433 0.738115 0.617015
O O18 0.750000 0.750000 0.000000
#
# Coordination Sequence:
#
# PCOD8130915 Si02
#       8
#     8   8   8   8   8   8   8   8
#     4   9  17  32  54  76 101 138 179 231 253 320
#     4  11  19  32  52  78 112 134 174 222 276 330
#     4  10  18  31  52  83 103 136 183 220 271 323
#     4  10  21  35  52  80 107 142 176 226 271 331
#     4   9  19  37  54  74 106 140 186 224 266 317
#     4  11  20  31  51  78 113 139 173 220 278 327
#     4  10  21  33  53  79 107 144 183 228 272 322
#     4  10  18  30  50  77 107 136 177 221 273 326
#
# _framework density 18.030148000000001
#
# number of rings (size 3 to 8) (size 9 to 14) (size 15 to 20)
#    0.000    2.000    3.750    3.750    1.750    0.500 
#    0.000    1.875    0.000    0.000    9.750    0.000 
#    0.000    0.000    0.000    0.000    0.000    0.000 
#
# Total GULP energy -396423.266306 kJ/mol
# GULP energy per Si atom -12388.227072 kJ/mol
# Density = 1.798911 g / cm^3
# Si number density = 18.030148 Si / 1000 Ang^3
#
#
#
# Elastic Constant Matrix: (Units=GPa)
#
#
# Indices 1 2 3 4 5 6 
#
# 1 100.2780 16.8099 40.1360 0.0000 -3.2747 0.0000
# 2 16.8099 36.1497 20.5709 0.0000 -5.6548 0.0000
# 3 40.1360 20.5709 81.3178 0.0000 -6.0216 0.0000
# 4 0.0000 0.0000 0.0000 20.7164 0.0000 -3.9570
# 5 -3.2747 -5.6548 -6.0216 0.0000 39.3230 0.0000
# 6 0.0000 0.0000 0.0000 -3.9570 0.0000 15.7119
#
#
#
# Elastic Compliance Matrix: (Units=1/GPa)
#
#
# Indices 1 2 3 4 5 6 
#
# 1 0.012654 -0.002748 -0.005565 0.000000 -0.000194 0.000000
# 2 -0.002748 0.033376 -0.006826 0.000000 0.003526 0.000000
# 3 -0.005565 -0.006826 0.016855 0.000000 0.001136 0.000000
# 4 0.000000 0.000000 0.000000 0.050710 0.000000 0.012771
# 5 -0.000194 0.003526 0.001136 0.000000 0.026095 0.000000
# 6 0.000000 0.000000 0.000000 0.012771 0.000000 0.066863
#
#
# Mechanical properties :
#
#
# Convention : Reuss Voigt Hill
#
# Bulk Modulus (GPa) = 30.66719 41.41989 36.04354
# Shear Modulus (GPa) = 20.18574 24.49882 22.34228
#
# Velocity S-wave (km/s) = 3.34960 3.69015 3.52399
# Velocity P-wave (km/s) = 5.65735 6.41706 6.04914
#
# Compressibility (1/GPa) = 0.03260814
#
# Stress axis : x y z
#
# Youngs Moduli (GPa) = 79.02725 29.96142 59.32999
#
# Poissons Ratio (x) = 0.08233 0.33016
# Poissons Ratio (y) = 0.21715 0.40498
# Poissons Ratio (z) = 0.43977 0.20451
#
# Static dielectric constant tensor:
#      x y z
#    x 3.756460 0.000000 -0.269250 
#    y 0.000000 3.098730 0.000000 
#    z -0.269250 0.000000 3.539020 
# 
# 
# High freq. dielectric constant tensor:
#      x y z
#    x 1.703080 0.000000 -0.016200 
#    y 0.000000 1.651070 0.000000 
#    z -0.016200 0.000000 1.708080 
# 
# From -- ./inp_files/199171.got.cif
#   From: 2010.06.25/outbox.cif.g09.slc.cpg/sg15_100_cif.got.tgz:199171.got - 2010.06.28 07:06:18.
