data_PCOD8130829
_publ_section_title
;
Structure prediction by ZEFSAII (Michael W. Deem and Ramdas Pophale) SiO2 
 PCOD8130829
Probable space group: C 2/C
;
_chemical_formula_sum "Si O2"
_cell_formula_units_Z 48
_cell_length_a 15.718181
_cell_length_b 8.014485
_cell_length_c 27.675793
_cell_angle_alpha 90.000000
_cell_angle_beta 148.419958
_cell_angle_gamma 90.000000
_cell_volume 1825.793214
_symmetry_space_group_name_H-M "C 2/C"
_symmetry_group_IT_number 15
_symmetry_cell_setting 'monoclinic'
loop_
_space_group_symop_operation_xyz
x,y,z
-x,y,1/2-z
-x,-y,-z
x,-y,1/2+z
1/2+x,1/2+y,z
1/2-x,1/2+y,1/2-z
1/2-x,1/2-y,-z
1/2+x,1/2-y,1/2+z
loop_
_atom_site_type_symbol
_atom_site_label
_atom_site_fract_x
_atom_site_fract_y
_atom_site_fract_z
Si Si1 0.453933 0.975868 0.616904
Si Si2 0.157557 0.605829 0.793229
Si Si3 0.469964 0.785970 0.936564
Si Si4 0.853222 0.774132 0.883096
Si Si5 0.472131 0.355829 0.293229
Si Si6 0.089727 0.035970 0.436564
O O1 0.505276 0.944268 0.586248
O O2 0.438353 0.808212 0.642082
O O3 0.280908 0.068532 0.534361
O O4 0.592787 0.092527 0.706976
O O5 0.278311 0.763675 0.856057
O O6 0.262108 0.441788 0.857918
O O7 0.000000 0.627865 0.750000
O O8 0.534373 0.625000 0.939582
O O9 0.572176 0.818532 0.034361
O O10 0.721860 0.657473 0.793024
O O11 0.996532 0.805732 0.913752
O O12 0.500000 0.377865 0.250000
O O13 0.539861 0.513675 0.356057
#
# Coordination Sequence:
#
# PCOD8130829 Si02
#       6
#     8   8   8   8   8   8
#     4  10  18  29  47  78 109 138 177 225 272 320
#     4  10  18  29  47  77 108 138 177 220 267 322
#     4  10  18  29  48  78 109 140 175 226 273 317
#     4  10  18  29  47  78 109 138 177 225 272 320
#     4  10  18  29  47  77 108 138 177 220 267 322
#     4  10  18  29  48  78 109 140 175 226 273 317
#
# _framework density 26.289943000000001
#
# number of rings (size 3 to 8) (size 9 to 14) (size 15 to 20)
#    0.000    2.000    0.000   10.000    0.000    0.000 
#    0.000    0.000    0.000    0.000    0.000  345.333 
#    0.000    0.000    0.000    0.000    0.000    0.000 
#
# Total GULP energy -297653.609780 kJ/mol
# GULP energy per Si atom -12402.233741 kJ/mol
# Density = 2.623011 g / cm^3
# Si number density = 26.289943 Si / 1000 Ang^3
#
#
#
# Elastic Constant Matrix: (Units=GPa)
#
#
# Indices 1 2 3 4 5 6 
#
# 1 130.5642 6.4210 75.3550 -0.0001 -2.2508 0.0000
# 2 6.4210 22.2641 31.6370 0.0001 -0.8152 -0.0004
# 3 75.3550 31.6370 211.9589 0.0000 -0.3806 0.0000
# 4 -0.0001 0.0001 0.0000 8.2660 -0.0001 0.5124
# 5 -2.2508 -0.8152 -0.3806 -0.0001 62.3545 0.0001
# 6 0.0000 -0.0004 0.0000 0.5124 0.0001 24.1127
#
#
#
# Elastic Compliance Matrix: (Units=1/GPa)
#
#
# Indices 1 2 3 4 5 6 
#
# 1 0.009769 0.002704 -0.003876 0.000000 0.000364 0.000000
# 2 0.002704 0.057784 -0.009585 -0.000001 0.000795 0.000001
# 3 -0.003876 -0.009585 0.007526 0.000000 -0.000219 0.000000
# 4 0.000000 -0.000001 0.000000 0.121137 0.000000 -0.002574
# 5 0.000364 0.000795 -0.000219 0.000000 0.016060 0.000000
# 6 0.000000 0.000001 0.000000 -0.002574 0.000000 0.041527
#
#
# Mechanical properties :
#
#
# Convention : Reuss Voigt Hill
#
# Bulk Modulus (GPa) = 18.66862 65.73479 42.20171
# Shear Modulus (GPa) = 17.05480 35.70493 26.37987
#
# Velocity S-wave (km/s) = 2.54976 3.68927 3.17112
# Velocity P-wave (km/s) = 3.97301 6.57310 5.43095
#
# Compressibility (1/GPa) = 0.05356583
#
# Stress axis : x y z
#
# Youngs Moduli (GPa) = 102.35964 17.30570 132.87027
#
# Poissons Ratio (x) = -0.04679 0.51502
# Poissons Ratio (y) = -0.27675 1.27352
# Poissons Ratio (z) = 0.39676 0.16587
#
# Static dielectric constant tensor:
#      x y z
#    x 4.817330 0.000000 -0.009820 
#    y 0.000000 4.495220 0.000000 
#    z -0.009820 0.000000 5.121110 
# 
# 
# High freq. dielectric constant tensor:
#      x y z
#    x 2.057260 0.000000 -0.000580 
#    y 0.000000 2.015460 0.000000 
#    z -0.000580 0.000000 2.075350 
# 
# From -- ./inp_files/296195.got.cif
#   From: 2010.06.25/outbox.cif.g09.slc.cpg/sg15_149_cif.got.tgz:296195.got - 2010.06.28 07:06:18.
