data_PCOD8130398
_publ_section_title
;
Structure prediction by ZEFSAII (Michael W. Deem and Ramdas Pophale) SiO2 
 PCOD8130398
Probable space group: C 2/C
;
_chemical_formula_sum "Si O2"
_cell_formula_units_Z 56
_cell_length_a 11.170473
_cell_length_b 22.041945
_cell_length_c 16.717067
_cell_angle_alpha 90.000000
_cell_angle_beta 131.475025
_cell_angle_gamma 90.000000
_cell_volume 3083.934279
_symmetry_space_group_name_H-M "C 2/C"
_symmetry_group_IT_number 15
_symmetry_cell_setting 'monoclinic'
loop_
_space_group_symop_operation_xyz
x,y,z
-x,y,1/2-z
-x,-y,-z
x,-y,1/2+z
1/2+x,1/2+y,z
1/2-x,1/2+y,1/2-z
1/2-x,1/2-y,-z
1/2+x,1/2-y,1/2+z
loop_
_atom_site_type_symbol
_atom_site_label
_atom_site_fract_x
_atom_site_fract_y
_atom_site_fract_z
Si Si1 0.832576 0.433286 0.938556
Si Si2 0.313073 0.065666 0.897342
Si Si3 0.737622 0.309161 0.844255
Si Si4 0.137986 0.821266 0.372371
Si Si5 0.501753 0.112188 0.844910
Si Si6 0.952720 0.244412 0.516367
Si Si7 0.039504 0.755592 0.883936
O O1 0.748711 0.496952 0.879116
O O2 0.727981 0.381507 0.850195
O O3 0.849809 0.420702 0.042771
O O4 0.013525 0.431187 0.982049
O O5 0.184088 0.108375 0.883483
O O6 0.338078 0.087196 0.815227
O O7 0.707402 0.276835 0.918224
O O8 0.602149 0.288526 0.725316
O O9 0.912958 0.290465 0.889658
O O10 0.075994 0.810390 0.435001
O O11 0.291005 0.779678 0.423744
O O12 0.000000 0.802209 0.250000
O O13 0.500000 0.096536 0.750000
O O14 0.513644 0.183672 0.866342
O O15 0.023812 0.217856 0.466007
#
# Coordination Sequence:
#
# PCOD8130398 Si02
#       7
#     8   8   8   8   8   8   8
#     4   9  19  36  60  74 112 152 188 228 282 345
#     4   9  19  39  55  76 108 151 196 225 276 339
#     4  11  20  35  58  82 121 146 185 239 301 331
#     4  11  22  37  56  81 115 160 193 231 282 350
#     4  10  17  32  56  89 107 136 191 238 282 339
#     4  11  21  34  56  83 119 145 192 239 289 340
#     4  11  21  32  55  94 118 144 185 244 299 342
#
# _framework density 18.158622999999999
#
# number of rings (size 3 to 8) (size 9 to 14) (size 15 to 20)
#    0.857    0.857    5.714    1.286    0.000    0.000 
#    2.571    1.429    0.000    0.857    0.000    0.000 
#    0.000    0.000    0.000    0.000    0.000    0.000 
#
# Total GULP energy -346940.658519 kJ/mol
# GULP energy per Si atom -12390.737804 kJ/mol
# Density = 1.811729 g / cm^3
# Si number density = 18.158623 Si / 1000 Ang^3
#
#
#
# Elastic Constant Matrix: (Units=GPa)
#
#
# Indices 1 2 3 4 5 6 
#
# 1 100.1730 58.4489 46.5147 0.0001 -11.2950 0.0001
# 2 58.4489 146.4236 44.0144 0.0000 -14.2308 0.0000
# 3 46.5147 44.0144 57.1367 0.0003 -6.0954 0.0002
# 4 0.0001 0.0000 0.0003 19.4499 0.0001 1.4771
# 5 -11.2950 -14.2308 -6.0954 0.0001 31.1365 0.0001
# 6 0.0001 0.0000 0.0002 1.4771 0.0001 22.7400
#
#
#
# Elastic Compliance Matrix: (Units=1/GPa)
#
#
# Indices 1 2 3 4 5 6 
#
# 1 0.017512 -0.003299 -0.011437 0.000000 0.002606 0.000000
# 2 -0.003299 0.009751 -0.004573 0.000000 0.002365 0.000000
# 3 -0.011437 -0.004573 0.030303 0.000000 -0.000307 0.000000
# 4 0.000000 0.000000 0.000000 0.051669 0.000000 -0.003356
# 5 0.002606 0.002365 -0.000307 0.000000 0.034083 0.000000
# 6 0.000000 0.000000 0.000000 -0.003356 0.000000 0.044193
#
#
# Mechanical properties :
#
#
# Convention : Reuss Voigt Hill
#
# Bulk Modulus (GPa) = 52.77925 66.85437 59.81681
# Shear Modulus (GPa) = 21.51027 24.98230 23.24628
#
# Velocity S-wave (km/s) = 3.44550 3.71318 3.58184
# Velocity P-wave (km/s) = 6.70503 7.43508 7.07947
#
# Compressibility (1/GPa) = 0.01894684
#
# Stress axis : x y z
#
# Youngs Moduli (GPa) = 57.10233 102.55298 32.99985
#
# Poissons Ratio (x) = 0.33835 0.37743
# Poissons Ratio (y) = 0.18840 0.15092
# Poissons Ratio (z) = 0.65309 0.46901
#
# Static dielectric constant tensor:
#      x y z
#    x 3.534030 0.000000 -0.059530 
#    y 0.000000 3.247940 0.000000 
#    z -0.059530 0.000000 3.297010 
# 
# 
# High freq. dielectric constant tensor:
#      x y z
#    x 1.694120 0.000000 0.006250 
#    y 0.000000 1.689560 0.000000 
#    z 0.006250 0.000000 1.696530 
# 
# From -- ./inp_files/200212.got.cif
#   From: 2010.06.25/outbox.cif.g09.slc.cpg/sg15_101_cif.got.tgz:200212.got - 2010.06.28 07:06:18.
