data_PCOD8130771
_publ_section_title
;
Structure prediction by ZEFSAII (Michael W. Deem and Ramdas Pophale) SiO2 
 PCOD8130771
Probable space group: C 2/C
;
_chemical_formula_sum "Si O2"
_cell_formula_units_Z 48
_cell_length_a 20.047703
_cell_length_b 26.736665
_cell_length_c 13.824041
_cell_angle_alpha 90.000000
_cell_angle_beta 160.564392
_cell_angle_gamma 90.000000
_cell_volume 2465.592804
_symmetry_space_group_name_H-M "C 2/C"
_symmetry_group_IT_number 15
_symmetry_cell_setting 'monoclinic'
loop_
_space_group_symop_operation_xyz
x,y,z
-x,y,1/2-z
-x,-y,-z
x,-y,1/2+z
1/2+x,1/2+y,z
1/2-x,1/2+y,1/2-z
1/2-x,1/2-y,-z
1/2+x,1/2-y,1/2+z
loop_
_atom_site_type_symbol
_atom_site_label
_atom_site_fract_x
_atom_site_fract_y
_atom_site_fract_z
Si Si1 0.176355 0.711152 0.567959
Si Si2 0.595720 0.044912 0.258264
Si Si3 0.870158 0.312518 0.801861
Si Si4 0.262906 0.909310 0.740653
Si Si5 0.170939 0.135210 0.861811
Si Si6 0.732486 0.492675 0.836636
O O1 0.302810 0.761272 0.760240
O O2 0.322550 0.667556 0.727841
O O3 0.085598 0.694219 0.546146
O O4 0.000000 0.720991 0.250000
O O5 0.664745 0.050394 0.241657
O O6 0.643231 0.096748 0.378979
O O7 0.713949 0.999850 0.476625
O O8 0.359026 0.033201 0.945838
O O9 0.888430 0.357471 0.905732
O O10 0.696996 0.327160 0.487899
O O11 0.292049 0.936446 0.883461
O O12 0.030546 0.896564 0.405235
O O13 0.500000 0.500000 0.500000
#
# Coordination Sequence:
#
# PCOD8130771 Si02
#       6
#     8   8   8   8   8   8
#     4  10  18  28  44  72 102 138 175 202 259 320
#     4  10  22  37  50  74 107 137 179 225 262 308
#     4  10  19  28  46  69 104 138 174 212 252 322
#     4  11  21  35  52  74 103 145 182 216 268 311
#     4  10  19  30  51  70 105 141 172 211 261 321
#     4  11  23  34  54  74  99 142 188 221 267 315
#
# _framework density 19.467935000000001
#
# number of rings (size 3 to 8) (size 9 to 14) (size 15 to 20)
#    0.000    1.667    1.667    6.500   11.667    0.000 
#    0.000    0.000    0.000    0.000    0.000    0.000 
#    0.000   21.333    0.000    0.000    0.000    8.167 
#
# Total GULP energy -297380.146302 kJ/mol
# GULP energy per Si atom -12390.839429 kJ/mol
# Density = 1.942363 g / cm^3
# Si number density = 19.467935 Si / 1000 Ang^3
#
#
#
# Elastic Constant Matrix: (Units=GPa)
#
#
# Indices 1 2 3 4 5 6 
#
# 1 58.9866 42.6895 22.0934 0.0000 14.3813 0.0000
# 2 42.6895 114.2710 19.9537 0.0002 7.5525 0.0000
# 3 22.0934 19.9537 69.5386 0.0004 24.4056 -0.0001
# 4 0.0000 0.0002 0.0004 26.6198 0.0000 9.7092
# 5 14.3813 7.5525 24.4056 0.0000 29.1652 -0.0001
# 6 0.0000 0.0000 -0.0001 9.7092 -0.0001 47.3034
#
#
#
# Elastic Compliance Matrix: (Units=1/GPa)
#
#
# Indices 1 2 3 4 5 6 
#
# 1 0.026470 -0.008822 -0.002972 0.000000 -0.008281 0.000000
# 2 -0.008822 0.012154 -0.001567 0.000000 0.002514 0.000000
# 3 -0.002972 -0.001567 0.021404 0.000000 -0.016039 0.000000
# 4 0.000000 0.000000 0.000000 0.040606 0.000000 -0.008335
# 5 -0.008281 0.002514 -0.016039 0.000000 0.051141 0.000000
# 6 0.000000 0.000000 0.000000 -0.008335 0.000000 0.022851
#
#
# Mechanical properties :
#
#
# Convention : Reuss Voigt Hill
#
# Bulk Modulus (GPa) = 30.02556 45.80773 37.91664
# Shear Modulus (GPa) = 23.53482 31.15499 27.34491
#
# Velocity S-wave (km/s) = 3.48070 4.00474 3.75188
# Velocity P-wave (km/s) = 5.62230 6.70559 6.18769
#
# Compressibility (1/GPa) = 0.03330496
#
# Stress axis : x y z
#
# Youngs Moduli (GPa) = 37.77870 82.27429 46.72082
#
# Poissons Ratio (x) = 0.72586 0.13886
# Poissons Ratio (y) = 0.33330 0.07321
# Poissons Ratio (z) = 0.11228 0.12893
#
# Static dielectric constant tensor:
#      x y z
#    x 3.649240 0.000000 0.434450 
#    y 0.000000 4.006840 0.000000 
#    z 0.434450 0.000000 3.172000 
# 
# 
# High freq. dielectric constant tensor:
#      x y z
#    x 1.743140 0.000000 0.056450 
#    y 0.000000 1.769550 0.000000 
#    z 0.056450 0.000000 1.705090 
# 
# From -- ./inp_files/169809.got.cif
#   From: 2010.06.25/outbox.cif.g09.slc.cpg/sg15_85_cif.got.tgz:169809.got - 2010.06.28 07:06:18.
