data_PCOD8130168
_publ_section_title
;
Structure prediction by ZEFSAII (Michael W. Deem and Ramdas Pophale) SiO2 
 PCOD8130168
Probable space group: C 2/C
;
_chemical_formula_sum "Si O2"
_cell_formula_units_Z 64
_cell_length_a 16.223873
_cell_length_b 12.966489
_cell_length_c 16.646122
_cell_angle_alpha 90.000000
_cell_angle_beta 82.141473
_cell_angle_gamma 90.000000
_cell_volume 3468.902884
_symmetry_space_group_name_H-M "C 2/C"
_symmetry_group_IT_number 15
_symmetry_cell_setting 'monoclinic'
loop_
_space_group_symop_operation_xyz
x,y,z
-x,y,1/2-z
-x,-y,-z
x,-y,1/2+z
1/2+x,1/2+y,z
1/2-x,1/2+y,1/2-z
1/2-x,1/2-y,-z
1/2+x,1/2-y,1/2+z
loop_
_atom_site_type_symbol
_atom_site_label
_atom_site_fract_x
_atom_site_fract_y
_atom_site_fract_z
Si Si1 0.859106 0.119116 0.623199
Si Si2 0.757731 0.109174 0.482599
Si Si3 0.802152 0.055342 0.859198
Si Si4 0.646786 0.778610 0.105460
Si Si5 0.001109 0.866727 0.907524
Si Si6 0.267255 0.790095 0.250921
Si Si7 0.954317 0.904795 0.427644
Si Si8 0.154762 0.083205 0.289891
O O1 0.834854 0.129298 0.533758
O O2 0.819294 0.203828 0.687803
O O3 0.957874 0.127983 0.622893
O O4 0.821743 0.006781 0.651225
O O5 0.669365 0.128558 0.540030
O O6 0.777728 0.195153 0.412787
O O7 0.754986 0.997165 0.441247
O O8 0.735638 0.124945 0.819919
O O9 0.876456 0.129595 0.882716
O O10 0.844531 0.965220 0.799521
O O11 0.556013 0.732981 0.100589
O O12 0.656141 0.815196 0.197358
O O13 0.062292 0.875373 0.823068
O O14 0.054823 0.854170 0.982660
O O15 0.946692 0.969961 0.930272
O O16 0.279153 0.676476 0.211775
#
# Coordination Sequence:
#
# PCOD8130168 Si02
#       8
#     8   8   8   8   8   8   8   8
#     4   9  19  32  52  74 103 132 170 205 250 313
#     4  10  17  32  52  74  99 136 173 206 239 296
#     4  11  20  32  50  75 111 136 160 211 263 307
#     4  10  18  31  53  74 100 135 178 204 236 304
#     4  10  18  30  52  76 103 129 164 213 256 307
#     4  10  21  32  45  75 106 140 166 201 253 308
#     4  10  17  30  48  78 104 130 158 203 271 313
#     4  10  20  32  47  75 107 134 165 207 263 309
#
# _framework density 18.449638
#
# number of rings (size 3 to 8) (size 9 to 14) (size 15 to 20)
#    0.000    2.000    3.750    1.500    0.000    7.000 
#    0.000    2.500    0.000    0.750    0.000   24.500 
#    0.000    0.000    0.000    0.000    0.000    0.000 
#
# Total GULP energy -396504.308821 kJ/mol
# GULP energy per Si atom -12390.759651 kJ/mol
# Density = 1.840765 g / cm^3
# Si number density = 18.449638 Si / 1000 Ang^3
#
#
#
# Elastic Constant Matrix: (Units=GPa)
#
#
# Indices 1 2 3 4 5 6 
#
# 1 82.2043 49.2271 38.5849 0.0000 7.9370 0.0000
# 2 49.2271 59.7444 34.2960 0.0000 2.0688 0.0000
# 3 38.5849 34.2960 67.2935 0.0000 11.9451 0.0000
# 4 0.0000 0.0000 0.0000 32.3356 0.0000 -1.6147
# 5 7.9370 2.0688 11.9451 0.0000 27.8703 0.0000
# 6 0.0000 0.0000 0.0000 -1.6147 0.0000 30.3772
#
#
#
# Elastic Compliance Matrix: (Units=1/GPa)
#
#
# Indices 1 2 3 4 5 6 
#
# 1 0.025771 -0.018402 -0.004695 0.000000 -0.003961 0.000000
# 2 -0.018402 0.037156 -0.009553 0.000000 0.006577 0.000000
# 3 -0.004695 -0.009553 0.023874 0.000000 -0.008186 0.000000
# 4 0.000000 0.000000 0.000000 0.031008 0.000000 0.001648
# 5 -0.003961 0.006577 -0.008186 0.000000 0.040029 0.000000
# 6 0.000000 0.000000 0.000000 0.001648 0.000000 0.033007
#
#
# Mechanical properties :
#
#
# Convention : Reuss Voigt Hill
#
# Bulk Modulus (GPa) = 46.50750 50.38422 48.44586
# Shear Modulus (GPa) = 18.98895 23.92557 21.45726
#
# Velocity S-wave (km/s) = 3.21164 3.60502 3.41400
# Velocity P-wave (km/s) = 6.24623 6.68555 6.46962
#
# Compressibility (1/GPa) = 0.02150191
#
# Stress axis : x y z
#
# Youngs Moduli (GPa) = 38.80390 26.91331 41.88672
#
# Poissons Ratio (x) = 0.49525 0.19665
# Poissons Ratio (y) = 0.71406 0.40014
# Poissons Ratio (z) = 0.18218 0.25710
#
# Static dielectric constant tensor:
#      x y z
#    x 3.126430 0.000000 -0.003350 
#    y 0.000000 3.194550 0.000000 
#    z -0.003350 0.000000 3.682650 
# 
# 
# High freq. dielectric constant tensor:
#      x y z
#    x 1.680490 0.000000 0.001900 
#    y 0.000000 1.671950 0.000000 
#    z 0.001900 0.000000 1.738050 
# 
# From -- ./inp_files/210291.got.cif
#   From: 2010.06.25/outbox.cif.g09.slc.cpg/sg15_106_cif.got.tgz:210291.got - 2010.06.28 07:06:18.
