data_PCOD8130002
_publ_section_title
;
Structure prediction by ZEFSAII (Michael W. Deem and Ramdas Pophale) SiO2 
 PCOD8130002
Probable space group: C 2/C
;
_chemical_formula_sum "Si O2"
_cell_formula_units_Z 52
_cell_length_a 32.635395
_cell_length_b 17.660725
_cell_length_c 15.694607
_cell_angle_alpha 90.000000
_cell_angle_beta 17.305475
_cell_angle_gamma 90.000000
_cell_volume 2690.824269
_symmetry_space_group_name_H-M "C 2/C"
_symmetry_group_IT_number 15
_symmetry_cell_setting 'monoclinic'
loop_
_space_group_symop_operation_xyz
x,y,z
-x,y,1/2-z
-x,-y,-z
x,-y,1/2+z
1/2+x,1/2+y,z
1/2-x,1/2+y,1/2-z
1/2-x,1/2-y,-z
1/2+x,1/2-y,1/2+z
loop_
_atom_site_type_symbol
_atom_site_label
_atom_site_fract_x
_atom_site_fract_y
_atom_site_fract_z
Si Si1 0.400058 0.451523 0.577894
Si Si2 0.754360 0.652393 0.746501
Si Si3 0.157526 0.817273 0.926212
Si Si4 0.931685 0.469144 0.969972
Si Si5 0.288838 0.583771 0.021954
Si Si6 0.000000 0.068713 0.250000
Si Si7 0.201760 0.572109 0.017244
O O1 0.331602 0.375231 0.675100
O O2 0.408847 0.513175 0.486621
O O3 0.293130 0.494708 0.851640
O O4 0.552018 0.438676 0.314463
O O5 0.756012 0.741690 0.761271
O O6 0.882497 0.614167 0.539163
O O7 0.754981 0.629632 0.644335
O O8 0.612145 0.623207 0.072167
O O9 0.215913 0.852139 0.897229
O O10 0.000000 0.793673 0.250000
O O11 0.000000 0.508973 0.750000
O O12 0.045858 0.457245 0.815934
O O13 0.800667 0.514121 0.264886
O O14 0.220390 0.615393 0.070597
#
# Coordination Sequence:
#
# PCOD8130002 Si02
#       7
#     8   8   8   8   8   4   8
#     4  10  18  36  57  81 106 145 194 222 264 326
#     4  10  20  35  54  79 108 142 185 227 277 322
#     4  10  19  33  56  80 106 144 182 230 269 324
#     4  10  19  35  55  77 106 145 183 225 268 331
#     4  11  19  34  55  81 110 143 181 232 276 322
#     4  10  16  36  58  76 104 142 192 222 260 324
#     4  10  21  32  55  83 109 141 181 231 278 328
#
# _framework density 19.324933999999999
#
# number of rings (size 3 to 8) (size 9 to 14) (size 15 to 20)
#    0.000    1.846    3.846    4.154    0.000    0.615 
#    4.154    0.000    0.000    0.923    0.000    0.000 
#    0.000    0.000    0.000    0.000    0.000    0.000 
#
# Total GULP energy -322115.356939 kJ/mol
# GULP energy per Si atom -12389.052190 kJ/mol
# Density = 1.928095 g / cm^3
# Si number density = 19.324934 Si / 1000 Ang^3
#
#
#
# Elastic Constant Matrix: (Units=GPa)
#
#
# Indices 1 2 3 4 5 6 
#
# 1 102.4079 28.3089 25.0720 -0.0008 -22.3660 0.0007
# 2 28.3089 109.8359 32.4633 -0.0003 -11.3443 0.0005
# 3 25.0720 32.4633 64.2935 0.0001 -19.9833 0.0002
# 4 -0.0008 -0.0003 0.0001 20.1424 0.0003 -5.8278
# 5 -22.3660 -11.3443 -19.9833 0.0003 24.2733 -0.0006
# 6 0.0007 0.0005 0.0002 -5.8278 -0.0006 14.4695
#
#
#
# Elastic Compliance Matrix: (Units=1/GPa)
#
#
# Indices 1 2 3 4 5 6 
#
# 1 0.012726 -0.001995 -0.000807 0.000000 0.010129 0.000000
# 2 -0.001995 0.011024 -0.005051 0.000000 -0.000844 0.000000
# 3 -0.000807 -0.005051 0.023456 0.000000 0.016206 0.000000
# 4 0.000000 0.000000 0.000000 0.056195 0.000000 0.022633
# 5 0.010129 -0.000844 0.016206 0.000000 0.063478 0.000002
# 6 0.000000 0.000000 0.000000 0.022633 0.000002 0.078227
#
#
# Mechanical properties :
#
#
# Convention : Reuss Voigt Hill
#
# Bulk Modulus (GPa) = 31.74573 49.80284 40.77429
# Shear Modulus (GPa) = 18.42889 24.48990 21.45939
#
# Velocity S-wave (km/s) = 3.09144 3.56373 3.33596
# Velocity P-wave (km/s) = 5.40423 6.53918 5.99861
#
# Compressibility (1/GPa) = 0.03150030
#
# Stress axis : x y z
#
# Youngs Moduli (GPa) = 78.57750 90.70799 42.63355
#
# Poissons Ratio (x) = 0.18099 0.03440
# Poissons Ratio (y) = 0.15679 0.21533
# Poissons Ratio (z) = 0.06340 0.45815
#
# Static dielectric constant tensor:
#      x y z
#    x 3.898790 0.000000 0.947970 
#    y 0.000000 3.287250 0.000000 
#    z 0.947970 0.000000 6.316340 
# 
# 
# High freq. dielectric constant tensor:
#      x y z
#    x 1.739790 0.000000 -0.024810 
#    y 0.000000 1.728430 0.000000 
#    z -0.024810 0.000000 1.754490 
# 
# From -- ./inp_files/182834.got.cif
#   From: 2010.06.25/outbox.cif.g09.slc.cpg/sg15_92_cif.got.tgz:182834.got - 2010.06.28 07:06:18.
