data_PCOD8130384
_publ_section_title
;
Structure prediction by ZEFSAII (Michael W. Deem and Ramdas Pophale) SiO2 
 PCOD8130384
Probable space group: C 2/C
;
_chemical_formula_sum "Si O2"
_cell_formula_units_Z 56
_cell_length_a 16.902704
_cell_length_b 9.654775
_cell_length_c 22.059729
_cell_angle_alpha 90.000000
_cell_angle_beta 125.369040
_cell_angle_gamma 90.000000
_cell_volume 2935.559564
_symmetry_space_group_name_H-M "C 2/C"
_symmetry_group_IT_number 15
_symmetry_cell_setting 'monoclinic'
loop_
_space_group_symop_operation_xyz
x,y,z
-x,y,1/2-z
-x,-y,-z
x,-y,1/2+z
1/2+x,1/2+y,z
1/2-x,1/2+y,1/2-z
1/2-x,1/2-y,-z
1/2+x,1/2-y,1/2+z
loop_
_atom_site_type_symbol
_atom_site_label
_atom_site_fract_x
_atom_site_fract_y
_atom_site_fract_z
Si Si1 0.527943 0.172905 0.631758
Si Si2 0.283573 0.151816 0.181413
Si Si3 0.713429 0.054431 0.647766
Si Si4 0.575482 0.122699 0.029780
Si Si5 0.438589 0.751074 0.848387
Si Si6 0.126934 0.047130 0.194482
Si Si7 0.062944 0.561338 0.334444
O O1 0.621691 0.081391 0.653169
O O2 0.451762 0.205617 0.543355
O O3 0.561331 0.317225 0.676175
O O4 0.467022 0.090130 0.655466
O O5 0.250218 0.299004 0.139318
O O6 0.352284 0.178850 0.270577
O O7 0.189912 0.065067 0.161041
O O8 0.328146 0.066823 0.144219
O O9 0.799554 0.970937 0.717583
O O10 0.679515 0.957217 0.576536
O O11 0.575977 0.225441 0.086884
O O12 0.500000 0.000000 0.000000
O O13 0.442444 0.586178 0.840742
O O14 0.541525 0.821312 0.875828
O O15 0.000000 0.609468 0.250000
#
# Coordination Sequence:
#
# PCOD8130384 Si02
#       7
#     8   8   8   8   8   8   8
#     4  10  20  33  55  81 107 144 181 215 270 331
#     4   9  18  31  55  82 108 133 182 227 269 307
#     4   9  16  32  53  81 105 141 181 226 257 314
#     4  10  17  32  55  80 108 141 185 213 262 327
#     4  10  18  32  56  79 104 142 179 223 261 316
#     4  10  19  33  56  84 106 132 188 230 261 300
#     4  10  18  34  52  79 107 140 177 220 268 324
#
# _framework density 19.076430999999999
#
# number of rings (size 3 to 8) (size 9 to 14) (size 15 to 20)
#    0.000    2.286    4.286    0.857    0.000    0.571 
#    0.000    4.286    0.000    0.857    0.000    0.000 
#    0.000    0.000    0.000    0.000    0.000    0.000 
#
# Total GULP energy -346888.209531 kJ/mol
# GULP energy per Si atom -12388.864626 kJ/mol
# Density = 1.903301 g / cm^3
# Si number density = 19.076431 Si / 1000 Ang^3
#
#
#
# Elastic Constant Matrix: (Units=GPa)
#
#
# Indices 1 2 3 4 5 6 
#
# 1 87.0124 47.7066 10.1862 0.0000 -6.0848 0.0000
# 2 47.7066 123.6303 40.6539 0.0000 3.0628 0.0000
# 3 10.1862 40.6539 79.3470 0.0000 5.8195 0.0000
# 4 0.0000 0.0000 0.0000 24.4134 0.0000 0.9124
# 5 -6.0848 3.0628 5.8195 0.0000 14.5525 0.0000
# 6 0.0000 0.0000 0.0000 0.9124 0.0000 27.7136
#
#
#
# Elastic Compliance Matrix: (Units=1/GPa)
#
#
# Indices 1 2 3 4 5 6 
#
# 1 0.015430 -0.006383 0.000740 0.000000 0.007500 0.000000
# 2 -0.006383 0.012368 -0.005286 0.000000 -0.003158 0.000000
# 3 0.000740 -0.005286 0.015569 0.000000 -0.004804 0.000000
# 4 0.000000 0.000000 0.000000 0.041012 0.000000 -0.001350
# 5 0.007500 -0.003158 -0.004804 0.000000 0.074439 0.000000
# 6 0.000000 0.000000 0.000000 -0.001350 0.000000 0.036128
#
#
# Mechanical properties :
#
#
# Convention : Reuss Voigt Hill
#
# Bulk Modulus (GPa) = 46.49436 54.12037 50.30736
# Shear Modulus (GPa) = 22.32410 26.09875 24.21142
#
# Velocity S-wave (km/s) = 3.42460 3.70282 3.56642
# Velocity P-wave (km/s) = 6.32951 6.83469 6.58695
#
# Compressibility (1/GPa) = 0.02150798
#
# Stress axis : x y z
#
# Youngs Moduli (GPa) = 64.80786 80.85244 64.23220
#
# Poissons Ratio (x) = 0.51610 -0.04751
# Poissons Ratio (y) = 0.41368 0.33952
# Poissons Ratio (z) = -0.04793 0.42737
#
# Static dielectric constant tensor:
#      x y z
#    x 3.473610 0.000000 0.091190 
#    y 0.000000 3.460580 0.000000 
#    z 0.091190 0.000000 3.856710 
# 
# 
# High freq. dielectric constant tensor:
#      x y z
#    x 1.705490 0.000000 0.004660 
#    y 0.000000 1.739770 0.000000 
#    z 0.004660 0.000000 1.725190 
# 
# From -- ./inp_files/279416.got.cif
#   From: 2010.06.25/outbox.cif.g09.slc.cpg/sg15_140_cif.got.tgz:279416.got - 2010.06.28 07:06:18.
