data_PCOD8130644
_publ_section_title
;
Structure prediction by ZEFSAII (Michael W. Deem and Ramdas Pophale) SiO2 
 PCOD8130644
Probable space group: C 2/C
;
_chemical_formula_sum "Si O2"
_cell_formula_units_Z 64
_cell_length_a 22.350580
_cell_length_b 9.087898
_cell_length_c 24.192499
_cell_angle_alpha 90.000000
_cell_angle_beta 48.813244
_cell_angle_gamma 90.000000
_cell_volume 3698.096402
_symmetry_space_group_name_H-M "C 2/C"
_symmetry_group_IT_number 15
_symmetry_cell_setting 'monoclinic'
loop_
_space_group_symop_operation_xyz
x,y,z
-x,y,1/2-z
-x,-y,-z
x,-y,1/2+z
1/2+x,1/2+y,z
1/2-x,1/2+y,1/2-z
1/2-x,1/2-y,-z
1/2+x,1/2-y,1/2+z
loop_
_atom_site_type_symbol
_atom_site_label
_atom_site_fract_x
_atom_site_fract_y
_atom_site_fract_z
Si Si1 0.977182 0.372819 0.439672
Si Si2 0.372007 0.680516 0.440526
Si Si3 0.421487 0.414815 0.476868
Si Si4 0.921727 0.854552 0.066343
Si Si5 0.755693 0.853525 0.917603
Si Si6 0.266575 0.806395 0.694142
Si Si7 0.147392 0.387046 0.466164
Si Si8 0.338773 0.107197 0.668397
O O1 0.940210 0.305510 0.405112
O O2 0.960541 0.256618 0.498459
O O3 0.935778 0.524696 0.482568
O O4 0.068654 0.405289 0.373122
O O5 0.406536 0.521569 0.434666
O O6 0.302295 0.723350 0.526359
O O7 0.339306 0.666211 0.398154
O O8 0.515071 0.375391 0.422596
O O9 0.401132 0.491856 0.548170
O O10 0.366721 0.271790 0.497808
O O11 0.842338 0.798047 0.142830
O O12 0.770383 0.838029 0.843669
O O13 0.715181 0.013693 0.954998
O O14 0.198416 0.735183 0.772271
O O15 0.294675 0.954100 0.707871
O O16 0.173223 0.354480 0.388097
#
# Coordination Sequence:
#
# PCOD8130644 Si02
#       8
#     8   8   8   8   8   8   8   8
#     4  10  17  36  55  77 101 145 182 211 257 319
#     4   9  18  32  55  74  98 140 185 213 255 304
#     4  10  18  26  52  81 103 132 172 228 253 307
#     4  10  18  32  50  76 111 132 172 217 262 305
#     4   9  18  36  50  71 106 142 173 217 257 318
#     4  11  22  35  50  80 109 137 167 219 269 321
#     4  10  18  31  53  77 108 137 174 221 269 309
#     4  11  22  31  52  77 110 139 170 212 274 323
#
# _framework density 17.3062
#
# number of rings (size 3 to 8) (size 9 to 14) (size 15 to 20)
#    0.000    2.000    6.250    1.125    1.750    0.500 
#    0.000    0.625    0.000    0.000    0.000    3.500 
#    0.000    0.000    0.000    0.000    0.000    0.000 
#
# Total GULP energy -396678.175589 kJ/mol
# GULP energy per Si atom -12396.192987 kJ/mol
# Density = 1.726681 g / cm^3
# Si number density = 17.306200 Si / 1000 Ang^3
#
#
#
# Elastic Constant Matrix: (Units=GPa)
#
#
# Indices 1 2 3 4 5 6 
#
# 1 102.7243 24.6110 28.3991 0.0003 7.0422 0.0009
# 2 24.6110 91.8350 26.9957 0.0004 3.2762 0.0013
# 3 28.3991 26.9957 64.9140 0.0000 -6.5900 0.0003
# 4 0.0003 0.0004 0.0000 24.6007 -0.0001 -3.7393
# 5 7.0422 3.2762 -6.5900 -0.0001 11.6858 -0.0002
# 6 0.0009 0.0013 0.0003 -3.7393 -0.0002 21.7823
#
#
#
# Elastic Compliance Matrix: (Units=1/GPa)
#
#
# Indices 1 2 3 4 5 6 
#
# 1 0.012399 -0.001183 -0.006000 0.000000 -0.010524 0.000000
# 2 -0.001183 0.013046 -0.005523 0.000000 -0.006059 -0.000001
# 3 -0.006000 -0.005523 0.022117 0.000000 0.017637 0.000000
# 4 0.000000 0.000000 0.000000 0.041738 0.000001 0.007165
# 5 -0.010524 -0.006059 0.017637 0.000001 0.103561 0.000001
# 6 0.000000 -0.000001 0.000000 0.007165 0.000001 0.047139
#
#
# Mechanical properties :
#
#
# Convention : Reuss Voigt Hill
#
# Bulk Modulus (GPa) = 45.14951 46.60944 45.87947
# Shear Modulus (GPa) = 18.32872 23.57824 20.95348
#
# Velocity S-wave (km/s) = 3.25789 3.69510 3.48336
# Velocity P-wave (km/s) = 6.34800 6.72277 6.53807
#
# Compressibility (1/GPa) = 0.02214864
#
# Stress axis : x y z
#
# Youngs Moduli (GPa) = 80.65384 76.65281 45.21336
#
# Poissons Ratio (x) = 0.09071 0.27130
# Poissons Ratio (y) = 0.09545 0.24970
# Poissons Ratio (z) = 0.48396 0.42333
#
# Static dielectric constant tensor:
#      x y z
#    x 3.338270 0.000000 -0.091260 
#    y 0.000000 3.451970 0.000000 
#    z -0.091260 0.000000 2.781020 
# 
# 
# High freq. dielectric constant tensor:
#      x y z
#    x 1.664270 0.000000 -0.012160 
#    y 0.000000 1.681810 0.000000 
#    z -0.012160 0.000000 1.621160 
# 
# From -- ./inp_files/281507.got.cif
#   From: 2010.06.25/outbox.cif.g09.slc.cpg/sg15_141_cif.got.tgz:281507.got - 2010.06.28 07:06:18.
