data_PCOD8130311
_publ_section_title
;
Structure prediction by ZEFSAII (Michael W. Deem and Ramdas Pophale) SiO2 
 PCOD8130311
Probable space group: C 2/C
;
_chemical_formula_sum "Si O2"
_cell_formula_units_Z 64
_cell_length_a 24.717447
_cell_length_b 8.971307
_cell_length_c 15.133288
_cell_angle_alpha 90.000000
_cell_angle_beta 89.996992
_cell_angle_gamma 90.000000
_cell_volume 3355.773396
_symmetry_space_group_name_H-M "C 2/C"
_symmetry_group_IT_number 15
_symmetry_cell_setting 'monoclinic'
loop_
_space_group_symop_operation_xyz
x,y,z
-x,y,1/2-z
-x,-y,-z
x,-y,1/2+z
1/2+x,1/2+y,z
1/2-x,1/2+y,1/2-z
1/2-x,1/2-y,-z
1/2+x,1/2-y,1/2+z
loop_
_atom_site_type_symbol
_atom_site_label
_atom_site_fract_x
_atom_site_fract_y
_atom_site_fract_z
Si Si1 0.385363 0.425669 0.591340
Si Si2 0.999999 0.104429 0.353650
Si Si3 0.385359 0.574595 0.408645
Si Si4 0.999959 0.568811 0.595125
Si Si5 0.383208 0.071052 0.595040
Si Si6 0.809998 0.928403 0.750019
Si Si7 0.383294 0.070767 0.904637
Si Si8 0.194136 0.575596 0.750109
O O1 0.445376 0.483932 0.620126
O O2 0.367998 0.500348 0.500056
O O3 0.383302 0.248263 0.583637
O O4 0.342818 0.481334 0.664079
O O5 0.000011 0.253528 0.411346
O O6 0.000000 0.144707 0.250000
O O7 0.945357 0.016141 0.379890
O O8 0.342786 0.518726 0.336005
O O9 0.383343 0.752033 0.416082
O O10 0.941974 0.520233 0.637159
O O11 0.000000 0.500000 0.500000
O O12 0.057880 0.520076 0.637325
O O13 0.337329 0.018419 0.662849
O O14 0.371369 0.000195 0.499813
O O15 0.801665 0.752391 0.750007
O O16 0.752908 0.007641 0.749986
O O17 0.337496 0.018121 0.836697
#
# Coordination Sequence:
#
# PCOD8130311 Si02
#       8
#     8   8   8   8   8   8   8   8
#     4  10  20  35  57  83 109 141 177 223 271 321
#     4  10  17  31  58  84 110 144 179 216 268 332
#     4  10  20  35  57  83 109 141 177 223 271 321
#     4   8  16  29  52  83 110 133 169 216 261 317
#     4   9  19  35  55  82 109 139 178 218 269 326
#     4  10  22  39  53  79 105 142 189 224 266 322
#     4   9  19  35  55  82 109 139 178 218 269 326
#     4  10  22  37  57  75 107 144 185 226 266 316
#
# _framework density 19.071608999999999
#
# number of rings (size 3 to 8) (size 9 to 14) (size 15 to 20)
#    0.000    2.500    1.250    0.375    5.250    3.000 
#    0.000    5.000    0.000    0.000    0.000    0.000 
#    0.000    0.000    0.000    0.000    0.000    0.000 
#
# Total GULP energy -396486.276029 kJ/mol
# GULP energy per Si atom -12390.196126 kJ/mol
# Density = 1.902820 g / cm^3
# Si number density = 19.071609 Si / 1000 Ang^3
#
#
#
# Elastic Constant Matrix: (Units=GPa)
#
#
# Indices 1 2 3 4 5 6 
#
# 1 203.1498 33.6782 95.5548 0.0000 0.2795 0.0000
# 2 33.6782 24.0577 39.2668 0.0000 0.0701 0.0000
# 3 95.5548 39.2668 154.6266 0.0000 0.3177 0.0000
# 4 0.0000 0.0000 0.0000 29.0735 0.0000 -0.0195
# 5 0.2795 0.0701 0.3177 0.0000 24.6988 0.0000
# 6 0.0000 0.0000 0.0000 -0.0195 0.0000 27.0214
#
#
#
# Elastic Compliance Matrix: (Units=1/GPa)
#
#
# Indices 1 2 3 4 5 6 
#
# 1 0.007256 -0.004849 -0.003253 0.000000 -0.000027 0.000000
# 2 -0.004849 0.074232 -0.015855 0.000000 0.000048 0.000000
# 3 -0.003253 -0.015855 0.012504 0.000000 -0.000079 0.000000
# 4 0.000000 0.000000 0.000000 0.034396 0.000000 0.000025
# 5 -0.000027 0.000048 -0.000079 0.000000 0.040489 0.000000
# 6 0.000000 0.000000 0.000000 0.000025 0.000000 0.037008
#
#
# Mechanical properties :
#
#
# Convention : Reuss Voigt Hill
#
# Bulk Modulus (GPa) = 21.70149 79.87043 50.78596
# Shear Modulus (GPa) = 18.57649 30.38103 24.47876
#
# Velocity S-wave (km/s) = 3.12435 3.99557 3.58651
# Velocity P-wave (km/s) = 4.94156 7.95338 6.62100
#
# Compressibility (1/GPa) = 0.04607979
#
# Stress axis : x y z
#
# Youngs Moduli (GPa) = 137.80982 13.47122 79.97595
#
# Poissons Ratio (x) = 0.06532 0.26015
# Poissons Ratio (y) = 0.66821 1.26799
# Poissons Ratio (z) = 0.44827 0.21358
#
# Static dielectric constant tensor:
#      x y z
#    x 3.966880 0.000000 0.000550 
#    y 0.000000 3.121790 0.000000 
#    z 0.000550 0.000000 3.565640 
# 
# 
# High freq. dielectric constant tensor:
#      x y z
#    x 1.760080 0.000000 0.000020 
#    y 0.000000 1.704740 0.000000 
#    z 0.000020 0.000000 1.742440 
# 
# From -- ./inp_files/172402.got.cif
#   From: 2010.06.25/outbox.cif.g09.slc.cpg/sg15_87_cif.got.tgz:172402.got - 2010.06.28 07:06:18.
