data_PCOD8130797
_publ_section_title
;
Structure prediction by ZEFSAII (Michael W. Deem and Ramdas Pophale) SiO2 
 PCOD8130797
Probable space group: C 2/C
;
_chemical_formula_sum "Si O2"
_cell_formula_units_Z 48
_cell_length_a 13.630352
_cell_length_b 18.756067
_cell_length_c 10.696562
_cell_angle_alpha 90.000000
_cell_angle_beta 73.982613
_cell_angle_gamma 90.000000
_cell_volume 2628.432840
_symmetry_space_group_name_H-M "C 2/C"
_symmetry_group_IT_number 15
_symmetry_cell_setting 'monoclinic'
loop_
_space_group_symop_operation_xyz
x,y,z
-x,y,1/2-z
-x,-y,-z
x,-y,1/2+z
1/2+x,1/2+y,z
1/2-x,1/2+y,1/2-z
1/2-x,1/2-y,-z
1/2+x,1/2-y,1/2+z
loop_
_atom_site_type_symbol
_atom_site_label
_atom_site_fract_x
_atom_site_fract_y
_atom_site_fract_z
Si Si1 0.885824 0.699543 0.742635
Si Si2 0.409848 0.945866 0.621059
Si Si3 0.383286 0.906205 0.033075
Si Si4 0.882349 0.136204 0.267145
Si Si5 0.231834 0.402291 0.041307
Si Si6 0.254574 0.553740 0.126791
O O1 0.877913 0.668841 0.605199
O O2 0.859263 0.782269 0.742249
O O3 0.799394 0.664034 0.860798
O O4 0.000000 0.686214 0.750000
O O5 0.522367 0.912010 0.598856
O O6 0.368987 0.924229 0.498663
O O7 0.338146 0.917907 0.755123
O O8 0.407272 0.032249 0.627387
O O9 0.274360 0.917440 0.001401
O O10 0.822601 0.116735 0.414625
O O11 0.854164 0.088460 0.155232
O O12 0.000000 0.121350 0.250000
O O13 0.268388 0.468244 0.115863
#
# Coordination Sequence:
#
# PCOD8130797 Si02
#       6
#     8   8   8   8   8   8
#     4  11  20  35  57  86 117 146 177 223 291 349
#     4   9  17  29  50  87 116 138 172 221 283 341
#     4  10  18  28  54  83 118 145 166 225 285 340
#     4  10  24  40  55  77 109 154 197 234 268 316
#     4  10  19  35  59  81 107 146 193 229 273 326
#     4  10  20  34  55  84 110 144 192 229 274 326
#
# _framework density 18.261832999999999
#
# number of rings (size 3 to 8) (size 9 to 14) (size 15 to 20)
#    0.000    2.000    3.333    1.000    0.000    1.333 
#    0.000    0.000    0.000    0.000    0.000    0.000 
#    0.000    0.000    0.000    0.000    0.000    0.000 
#
# Total GULP energy -297505.044310 kJ/mol
# GULP energy per Si atom -12396.043513 kJ/mol
# Density = 1.822027 g / cm^3
# Si number density = 18.261833 Si / 1000 Ang^3
#
#
#
# Elastic Constant Matrix: (Units=GPa)
#
#
# Indices 1 2 3 4 5 6 
#
# 1 95.3749 53.1379 29.1005 0.0000 3.5584 0.0000
# 2 53.1379 104.2451 37.3699 0.0000 6.0376 0.0000
# 3 29.1005 37.3699 61.4962 0.0000 -0.5409 0.0000
# 4 0.0000 0.0000 0.0000 28.8001 0.0000 2.4858
# 5 3.5584 6.0376 -0.5409 0.0000 24.3453 0.0000
# 6 0.0000 0.0000 0.0000 2.4858 0.0000 25.7683
#
#
#
# Elastic Compliance Matrix: (Units=1/GPa)
#
#
# Indices 1 2 3 4 5 6 
#
# 1 0.015119 -0.006522 -0.003197 0.000000 -0.000663 0.000000
# 2 -0.006522 0.015334 -0.006258 0.000000 -0.002989 0.000000
# 3 -0.003197 -0.006258 0.021599 0.000000 0.002499 0.000000
# 4 0.000000 0.000000 0.000000 0.035014 0.000000 -0.003378
# 5 -0.000663 -0.002989 0.002499 0.000000 0.041969 0.000000
# 6 0.000000 0.000000 0.000000 -0.003378 0.000000 0.039133
#
#
# Mechanical properties :
#
#
# Convention : Reuss Voigt Hill
#
# Bulk Modulus (GPa) = 49.75747 55.59253 52.67500
# Shear Modulus (GPa) = 24.17549 25.21660 24.69605
#
# Velocity S-wave (km/s) = 3.64239 3.71999 3.68140
# Velocity P-wave (km/s) = 6.70784 6.99708 6.85399
#
# Compressibility (1/GPa) = 0.02009748
#
# Stress axis : x y z
#
# Youngs Moduli (GPa) = 66.14204 65.21485 46.29902
#
# Poissons Ratio (x) = 0.42535 0.14801
# Poissons Ratio (y) = 0.43140 0.28974
# Poissons Ratio (z) = 0.21144 0.40811
#
# Static dielectric constant tensor:
#      x y z
#    x 3.278570 0.000000 0.046930 
#    y 0.000000 3.274370 0.000000 
#    z 0.046930 0.000000 3.296110 
# 
# 
# High freq. dielectric constant tensor:
#      x y z
#    x 1.693110 0.000000 0.002870 
#    y 0.000000 1.694280 0.000000 
#    z 0.002870 0.000000 1.707270 
# 
# From -- ./inp_files/88409.got.cif
#   From: 2010.06.25/outbox.cif.g09.slc.cpg/sg15_45_cif.got.tgz:88409.got - 2010.06.28 07:06:18.
