data_PCOD8130179
_publ_section_title
;
Structure prediction by ZEFSAII (Michael W. Deem and Ramdas Pophale) SiO2 
 PCOD8130179
Probable space group: C 2/C
;
_chemical_formula_sum "Si O2"
_cell_formula_units_Z 64
_cell_length_a 9.171207
_cell_length_b 27.182047
_cell_length_c 13.803130
_cell_angle_alpha 90.000000
_cell_angle_beta 93.536398
_cell_angle_gamma 90.000000
_cell_volume 3434.460041
_symmetry_space_group_name_H-M "C 2/C"
_symmetry_group_IT_number 15
_symmetry_cell_setting 'monoclinic'
loop_
_space_group_symop_operation_xyz
x,y,z
-x,y,1/2-z
-x,-y,-z
x,-y,1/2+z
1/2+x,1/2+y,z
1/2-x,1/2+y,1/2-z
1/2-x,1/2-y,-z
1/2+x,1/2-y,1/2+z
loop_
_atom_site_type_symbol
_atom_site_label
_atom_site_fract_x
_atom_site_fract_y
_atom_site_fract_z
Si Si1 0.700241 0.929344 0.334248
Si Si2 0.901247 0.851709 0.432842
Si Si3 0.653092 0.734676 0.722129
Si Si4 0.391855 0.094760 0.877239
Si Si5 0.437169 0.490120 0.850141
Si Si6 0.648458 0.275817 0.919726
Si Si7 0.415021 0.797836 0.345164
Si Si8 0.122533 0.932052 0.470768
O O1 0.776493 0.891863 0.411254
O O2 0.698300 0.905562 0.227406
O O3 0.538046 0.937622 0.370252
O O4 0.784491 0.980967 0.332915
O O5 0.891042 0.809718 0.351290
O O6 0.884461 0.830132 0.541285
O O7 0.056137 0.879547 0.435667
O O8 0.500000 0.758964 0.750000
O O9 0.758478 0.775608 0.676353
O O10 0.745374 0.715341 0.818116
O O11 0.425655 0.151606 0.906467
O O12 0.295912 0.070626 0.958418
O O13 0.500000 0.471446 0.750000
O O14 0.408216 0.442992 0.917360
O O15 0.559084 0.524671 0.902181
O O16 0.495819 0.246231 0.904809
O O17 0.750000 0.250000 0.000000
O O18 0.500000 0.809087 0.250000
#
# Coordination Sequence:
#
# PCOD8130179 Si02
#       8
#     8   8   8   8   8   8   8   8
#     4  10  19  30  57  79 112 138 168 232 285 318
#     4  10  19  35  52  76 107 147 181 221 271 327
#     4  10  18  30  51  77 101 139 184 234 273 309
#     4  11  17  31  52  91 106 131 181 227 279 323
#     4  10  20  38  54  79 111 141 177 229 275 331
#     4   9  19  33  49  73 110 146 175 220 276 325
#     4  10  17  30  51  77 110 140 180 225 271 325
#     4  10  22  33  58  82 103 143 188 223 272 334
#
# _framework density 18.634661999999999
#
# number of rings (size 3 to 8) (size 9 to 14) (size 15 to 20)
#    0.000    2.000    3.750    2.250    0.000    0.500 
#    0.000    8.750    0.000    0.000    0.000    0.000 
#    0.000    0.000    0.000    0.000    0.000    0.000 
#
# Total GULP energy -396676.858089 kJ/mol
# GULP energy per Si atom -12396.151815 kJ/mol
# Density = 1.859225 g / cm^3
# Si number density = 18.634662 Si / 1000 Ang^3
#
#
#
# Elastic Constant Matrix: (Units=GPa)
#
#
# Indices 1 2 3 4 5 6 
#
# 1 129.0492 30.8278 40.4454 0.0000 -9.2917 0.0000
# 2 30.8278 51.8964 30.1485 0.0000 -3.2597 0.0000
# 3 40.4454 30.1485 76.8887 0.0000 -7.8662 0.0000
# 4 0.0000 0.0000 0.0000 26.6396 0.0000 -0.4641
# 5 -9.2917 -3.2597 -7.8662 0.0000 26.8595 0.0000
# 6 0.0000 0.0000 0.0000 -0.4641 0.0000 11.5623
#
#
#
# Elastic Compliance Matrix: (Units=1/GPa)
#
#
# Indices 1 2 3 4 5 6 
#
# 1 0.009883 -0.003683 -0.003557 0.000000 0.001930 0.000000
# 2 -0.003683 0.026326 -0.008442 0.000000 -0.000551 0.000000
# 3 -0.003557 -0.008442 0.018511 0.000000 0.003166 0.000000
# 4 0.000000 0.000000 0.000000 0.037564 0.000000 0.001508
# 5 0.001930 -0.000551 0.003166 0.000000 0.038759 0.000000
# 6 0.000000 0.000000 0.000000 0.001508 0.000000 0.086549
#
#
# Mechanical properties :
#
#
# Convention : Reuss Voigt Hill
#
# Bulk Modulus (GPa) = 42.81463 51.18639 47.00051
# Shear Modulus (GPa) = 19.47493 23.43978 21.45736
#
# Velocity S-wave (km/s) = 3.23629 3.55048 3.39702
# Velocity P-wave (km/s) = 6.08198 6.65852 6.37677
#
# Compressibility (1/GPa) = 0.02335650
#
# Stress axis : x y z
#
# Youngs Moduli (GPa) = 101.18891 37.98459 54.02231
#
# Poissons Ratio (x) = 0.13989 0.19215
# Poissons Ratio (y) = 0.37267 0.45605
# Poissons Ratio (z) = 0.35992 0.32066
#
# Static dielectric constant tensor:
#      x y z
#    x 3.658320 0.000000 -0.047320 
#    y 0.000000 2.715150 0.000000 
#    z -0.047320 0.000000 3.756270 
# 
# 
# High freq. dielectric constant tensor:
#      x y z
#    x 1.734610 0.000000 0.004450 
#    y 0.000000 1.689370 0.000000 
#    z 0.004450 0.000000 1.700120 
# 
# From -- ./inp_files/138636.got.cif
#   From: 2010.06.25/outbox.cif.g09.slc.cpg/sg15_70_cif.got.tgz:138636.got - 2010.06.28 07:06:18.
