data_PCOD8130067
_publ_section_title
;
Structure prediction by ZEFSAII (Michael W. Deem and Ramdas Pophale) SiO2 
 PCOD8130067
Probable space group: C 2/C
;
_chemical_formula_sum "Si O2"
_cell_formula_units_Z 52
_cell_length_a 18.394591
_cell_length_b 17.524945
_cell_length_c 8.588513
_cell_angle_alpha 90.000000
_cell_angle_beta 73.831817
_cell_angle_gamma 90.000000
_cell_volume 2659.125553
_symmetry_space_group_name_H-M "C 2/C"
_symmetry_group_IT_number 15
_symmetry_cell_setting 'monoclinic'
loop_
_space_group_symop_operation_xyz
x,y,z
-x,y,1/2-z
-x,-y,-z
x,-y,1/2+z
1/2+x,1/2+y,z
1/2-x,1/2+y,1/2-z
1/2-x,1/2-y,-z
1/2+x,1/2-y,1/2+z
loop_
_atom_site_type_symbol
_atom_site_label
_atom_site_fract_x
_atom_site_fract_y
_atom_site_fract_z
Si Si1 0.932729 0.100338 0.499653
Si Si2 0.619627 0.071810 0.046494
Si Si3 0.500000 0.976468 0.250000
Si Si4 0.713562 0.036873 0.269676
Si Si5 0.766524 0.096611 0.538558
Si Si6 0.000000 0.025807 0.750000
Si Si7 0.000000 0.220035 0.250000
Si Si8 0.115743 0.654351 0.766873
O O1 0.847324 0.132132 0.535815
O O2 0.951164 0.080209 0.666708
O O3 0.988213 0.167786 0.408983
O O4 0.942559 0.025636 0.385118
O O5 0.654262 0.084832 0.198821
O O6 0.535610 0.034681 0.101748
O O7 0.620002 0.153053 0.953795
O O8 0.671009 0.014039 0.920106
O O9 0.429675 0.924557 0.238508
O O10 0.763610 0.092046 0.350565
O O11 0.764949 0.985707 0.125310
O O12 0.698028 0.150593 0.638274
O O13 0.074019 0.271238 0.231288
#
# Coordination Sequence:
#
# PCOD8130067 Si02
#       8
#     8   8   4   8   8   4   4   8
#     4  10  20  39  65  85 108 134 174 230 281 334
#     4  10  17  27  47  73 111 148 183 223 259 308
#     4  11  16  29  51  72 113 154 186 226 261 312
#     4   9  17  29  45  84 113 129 177 231 276 311
#     4  10  18  32  55  82 111 142 175 227 277 321
#     4   9  20  39  67  94 101 126 174 234 293 324
#     4  10  24  40  52  74 114 154 188 216 262 330
#     4  10  21  33  50  75 114 152 187 218 264 317
#
# _framework density 19.555301
#
# number of rings (size 3 to 8) (size 9 to 14) (size 15 to 20)
#    0.000    2.154    4.615    1.385    0.000    0.615 
#    0.000    2.308    0.000    1.846    0.000    0.000 
#    0.000    0.000    0.000    0.000    0.000    0.000 
#
# Total GULP energy -322187.223152 kJ/mol
# GULP energy per Si atom -12391.816275 kJ/mol
# Density = 1.951079 g / cm^3
# Si number density = 19.555301 Si / 1000 Ang^3
#
#
#
# Elastic Constant Matrix: (Units=GPa)
#
#
# Indices 1 2 3 4 5 6 
#
# 1 118.4949 28.9438 44.8735 0.0000 8.7743 0.0000
# 2 28.9438 63.9633 30.1360 0.0000 9.7864 0.0000
# 3 44.8735 30.1360 101.7438 0.0000 22.9142 0.0000
# 4 0.0000 0.0000 0.0000 9.5528 0.0000 0.2228
# 5 8.7743 9.7864 22.9142 0.0000 35.6108 0.0000
# 6 0.0000 0.0000 0.0000 0.2228 0.0000 17.4480
#
#
#
# Elastic Compliance Matrix: (Units=1/GPa)
#
#
# Indices 1 2 3 4 5 6 
#
# 1 0.010628 -0.003064 -0.003952 0.000000 0.000767 0.000000
# 2 -0.003064 0.019151 -0.003866 0.000000 -0.002020 0.000000
# 3 -0.003952 -0.003866 0.014336 0.000000 -0.007188 0.000000
# 4 0.000000 0.000000 0.000000 0.104713 0.000000 -0.001337
# 5 0.000767 -0.002020 -0.007188 0.000000 0.033073 0.000000
# 6 0.000000 0.000000 0.000000 -0.001337 0.000000 0.057330
#
#
# Mechanical properties :
#
#
# Convention : Reuss Voigt Hill
#
# Bulk Modulus (GPa) = 44.74388 54.67873 49.71131
# Shear Modulus (GPa) = 18.62575 24.53889 21.58232
#
# Velocity S-wave (km/s) = 3.08955 3.54622 3.32574
# Velocity P-wave (km/s) = 5.97139 6.69249 6.34219
#
# Compressibility (1/GPa) = 0.02234942
#
# Stress axis : x y z
#
# Youngs Moduli (GPa) = 94.09458 52.21626 69.75580
#
# Poissons Ratio (x) = 0.16000 0.27570
# Poissons Ratio (y) = 0.28833 0.26967
# Poissons Ratio (z) = 0.37189 0.20187
#
# Static dielectric constant tensor:
#      x y z
#    x 3.766370 0.000000 0.389690 
#    y 0.000000 3.201300 0.000000 
#    z 0.389690 0.000000 4.005990 
# 
# 
# High freq. dielectric constant tensor:
#      x y z
#    x 1.764640 0.000000 0.003240 
#    y 0.000000 1.705830 0.000000 
#    z 0.003240 0.000000 1.772460 
# 
# From -- ./inp_files/56068.got.cif
#   From: 2010.06.25/outbox.cif.g09.slc.cpg/sg15_29_cif.got.tgz:56068.got - 2010.06.28 07:06:18.
