data_PCOD8130743
_publ_section_title
;
Structure prediction by ZEFSAII (Michael W. Deem and Ramdas Pophale) SiO2 
 PCOD8130743
Probable space group: C 2/C
;
_chemical_formula_sum "Si O2"
_cell_formula_units_Z 64
_cell_length_a 27.928545
_cell_length_b 17.930805
_cell_length_c 9.151292
_cell_angle_alpha 90.000000
_cell_angle_beta 109.127387
_cell_angle_gamma 90.000000
_cell_volume 4329.790675
_symmetry_space_group_name_H-M "C 2/C"
_symmetry_group_IT_number 15
_symmetry_cell_setting 'monoclinic'
loop_
_space_group_symop_operation_xyz
x,y,z
-x,y,1/2-z
-x,-y,-z
x,-y,1/2+z
1/2+x,1/2+y,z
1/2-x,1/2+y,1/2-z
1/2-x,1/2-y,-z
1/2+x,1/2-y,1/2+z
loop_
_atom_site_type_symbol
_atom_site_label
_atom_site_fract_x
_atom_site_fract_y
_atom_site_fract_z
Si Si1 0.646798 0.820760 0.065225
Si Si2 0.756151 0.578130 0.836025
Si Si3 0.853202 0.320762 0.771632
Si Si4 0.057426 0.424820 0.978086
Si Si5 0.299571 0.699557 0.214489
Si Si6 0.256151 0.078128 0.176276
Si Si7 0.299571 0.300441 0.384654
Si Si8 0.942574 0.575178 0.363234
O O1 0.690797 0.880675 0.136314
O O2 0.654630 0.746484 0.168595
O O3 0.645679 0.796132 0.895677
O O4 0.593830 0.857345 0.062705
O O5 0.759731 0.500002 0.759728
O O6 0.710321 0.625469 0.719665
O O7 0.744383 0.566316 0.994382
O O8 0.809203 0.380677 0.754721
O O9 0.845371 0.246486 0.859341
O O10 0.906170 0.357347 0.875044
O O11 0.063340 0.440595 0.813341
O O12 0.000000 0.402786 0.963230
O O13 0.074683 0.499999 0.074685
O O14 0.289678 0.625465 0.299016
O O15 0.250000 0.749999 0.167636
O O16 0.314349 0.677089 0.064349
#
# Coordination Sequence:
#
# PCOD8130743 Si02
#       8
#     8   8   8   8   8   8   8   8
#     4   9  17  28  41  57  79 108 138 167 201 237
#     4  10  18  27  40  58  81 107 135 166 199 237
#     4   9  17  28  41  57  79 108 138 167 201 237
#     4   9  17  28  41  58  81 108 138 171 203 234
#     4   9  17  28  41  57  77 102 133 167 201 238
#     4  10  18  27  40  58  81 107 135 166 199 237
#     4   9  17  28  41  57  77 102 133 167 201 238
#     4   9  17  28  41  58  81 108 138 171 203 234
#
# _framework density 14.781316
#
# number of rings (size 3 to 8) (size 9 to 14) (size 15 to 20)
#    0.000    2.750    0.000    2.250    0.000    5.000 
#    0.000    0.000    0.000    0.000    0.000    0.000 
#    0.000    1.000    0.000    2.750    0.000    4.000 
#
# Total GULP energy -396793.811986 kJ/mol
# GULP energy per Si atom -12399.806625 kJ/mol
# Density = 1.474767 g / cm^3
# Si number density = 14.781316 Si / 1000 Ang^3
#
#
#
# Elastic Constant Matrix: (Units=GPa)
#
#
# Indices 1 2 3 4 5 6 
#
# 1 64.7009 31.6201 35.1015 0.0000 -1.0273 0.0000
# 2 31.6201 54.0675 44.6882 0.0000 -4.9842 0.0000
# 3 35.1015 44.6882 86.8388 0.0000 -7.4159 0.0000
# 4 0.0000 0.0000 0.0000 30.4334 0.0000 -2.7392
# 5 -1.0273 -4.9842 -7.4159 0.0000 18.5822 0.0000
# 6 0.0000 0.0000 0.0000 -2.7392 0.0000 23.2510
#
#
#
# Elastic Compliance Matrix: (Units=1/GPa)
#
#
# Indices 1 2 3 4 5 6 
#
# 1 0.022597 -0.009977 -0.004267 0.000000 -0.003130 0.000000
# 2 -0.009977 0.036669 -0.014540 0.000000 0.003481 0.000000
# 3 -0.004267 -0.014540 0.021088 0.000000 0.004280 0.000000
# 4 0.000000 0.000000 0.000000 0.033211 0.000000 0.003913
# 5 -0.003130 0.003481 0.004280 0.000000 0.056284 0.000000
# 6 0.000000 0.000000 0.000000 0.003913 0.000000 0.043470
#
#
# Mechanical properties :
#
#
# Convention : Reuss Voigt Hill
#
# Bulk Modulus (GPa) = 43.88657 47.60298 45.74478
# Shear Modulus (GPa) = 17.95448 20.73313 19.34380
#
# Velocity S-wave (km/s) = 3.48900 3.74927 3.62147
# Velocity P-wave (km/s) = 6.78129 7.14265 6.96431
#
# Compressibility (1/GPa) = 0.02278601
#
# Stress axis : x y z
#
# Youngs Moduli (GPa) = 44.25403 27.27113 47.41942
#
# Poissons Ratio (x) = 0.27208 0.20234
# Poissons Ratio (y) = 0.44152 0.68948
# Poissons Ratio (z) = 0.18883 0.39652
#
# Static dielectric constant tensor:
#      x y z
#    x 2.805930 0.000000 -0.068930 
#    y 0.000000 2.790920 0.000000 
#    z -0.068930 0.000000 2.986690 
# 
# 
# High freq. dielectric constant tensor:
#      x y z
#    x 1.537570 0.000000 -0.013740 
#    y 0.000000 1.550390 0.000000 
#    z -0.013740 0.000000 1.573600 
# 
# From -- ./inp_files/70304.got.cif
#   From: 2010.06.25/outbox.cif.g09.slc.cpg/sg15_36_cif.got.tgz:70304.got - 2010.06.28 07:06:18.
