data_PCOD8130013
_publ_section_title
;
Structure prediction by ZEFSAII (Michael W. Deem and Ramdas Pophale) SiO2 
 PCOD8130013
Probable space group: C 2/C
;
_chemical_formula_sum "Si O2"
_cell_formula_units_Z 44
_cell_length_a 21.321915
_cell_length_b 8.378653
_cell_length_c 15.618555
_cell_angle_alpha 90.000000
_cell_angle_beta 128.311449
_cell_angle_gamma 90.000000
_cell_volume 2189.367320
_symmetry_space_group_name_H-M "C 2/C"
_symmetry_group_IT_number 15
_symmetry_cell_setting 'monoclinic'
loop_
_space_group_symop_operation_xyz
x,y,z
-x,y,1/2-z
-x,-y,-z
x,-y,1/2+z
1/2+x,1/2+y,z
1/2-x,1/2+y,1/2-z
1/2-x,1/2-y,-z
1/2+x,1/2-y,1/2+z
loop_
_atom_site_type_symbol
_atom_site_label
_atom_site_fract_x
_atom_site_fract_y
_atom_site_fract_z
Si Si1 0.827787 0.584538 0.565576
Si Si2 0.656857 0.563049 0.466977
Si Si3 0.970883 0.613732 0.130215
Si Si4 0.930981 0.117096 0.473058
Si Si5 0.575781 0.830521 0.189277
Si Si6 0.000000 0.896643 0.750000
O O1 0.740024 0.503260 0.495723
O O2 0.831944 0.746295 0.513352
O O3 0.881895 0.456752 0.562689
O O4 0.853133 0.631798 0.684339
O O5 0.641877 0.484729 0.547700
O O6 0.582510 0.509402 0.341040
O O7 0.971987 0.778984 0.081682
O O8 0.000000 0.646985 0.250000
O O9 0.029751 0.494221 0.128497
O O10 0.894506 0.236476 0.370171
O O11 0.000000 0.000000 0.500000
O O12 0.509721 0.716269 0.176067
#
# Coordination Sequence:
#
# PCOD8130013 Si02
#       6
#     8   8   8   8   8   4
#     4   9  19  40  60  79 113 159 195 227 282 349
#     4  10  20  35  61  86 113 149 193 234 291 333
#     4  10  20  37  61  82 110 155 197 228 282 348
#     4  12  23  33  56  90 119 144 192 247 287 332
#     4  10  18  38  59  81 113 152 192 233 284 340
#     4  10  16  36  62  80 112 154 190 226 284 348
#
# _framework density 20.097131000000001
#
# number of rings (size 3 to 8) (size 9 to 14) (size 15 to 20)
#    0.000    1.818    6.364    0.545    1.273    0.727 
#    0.000    9.091    0.000    0.000    0.000    0.000 
#    0.000    0.000    0.000    0.000    0.000    0.000 
#
# Total GULP energy -272627.943920 kJ/mol
# GULP energy per Si atom -12392.179269 kJ/mol
# Density = 2.005139 g / cm^3
# Si number density = 20.097131 Si / 1000 Ang^3
#
#
#
# Elastic Constant Matrix: (Units=GPa)
#
#
# Indices 1 2 3 4 5 6 
#
# 1 117.9196 63.6660 45.6328 0.0000 9.1121 0.0000
# 2 63.6660 96.9224 39.3693 0.0000 -11.2383 0.0000
# 3 45.6328 39.3693 68.0731 0.0000 4.4559 0.0000
# 4 0.0000 0.0000 0.0000 36.2190 0.0000 -17.5611
# 5 9.1121 -11.2383 4.4559 0.0000 38.3552 0.0000
# 6 0.0000 0.0000 0.0000 -17.5611 0.0000 38.0504
#
#
#
# Elastic Compliance Matrix: (Units=1/GPa)
#
#
# Indices 1 2 3 4 5 6 
#
# 1 0.015679 -0.008957 -0.004952 0.000000 -0.005774 0.000000
# 2 -0.008957 0.019581 -0.005879 0.000000 0.008548 0.000000
# 3 -0.004952 -0.005879 0.021610 0.000000 -0.003057 0.000000
# 4 0.000000 0.000000 0.000000 0.035569 0.000000 0.016416
# 5 -0.005774 0.008548 -0.003057 0.000000 0.030304 0.000000
# 6 0.000000 0.000000 0.000000 0.016416 0.000000 0.033857
#
#
# Mechanical properties :
#
#
# Convention : Reuss Voigt Hill
#
# Bulk Modulus (GPa) = 57.82895 64.47234 61.15065
# Shear Modulus (GPa) = 24.75966 31.47473 28.11719
#
# Velocity S-wave (km/s) = 3.51379 3.96173 3.74447
# Velocity P-wave (km/s) = 6.73049 7.28540 7.01344
#
# Compressibility (1/GPa) = 0.01729238
#
# Stress axis : x y z
#
# Youngs Moduli (GPa) = 63.77961 51.07108 46.27456
#
# Poissons Ratio (x) = 0.45745 0.22916
# Poissons Ratio (y) = 0.57128 0.27206
# Poissons Ratio (z) = 0.31585 0.30026
#
# Static dielectric constant tensor:
#      x y z
#    x 3.796340 0.000000 -0.093820 
#    y 0.000000 3.623200 0.000000 
#    z -0.093820 0.000000 3.600770 
# 
# 
# High freq. dielectric constant tensor:
#      x y z
#    x 1.775540 0.000000 0.001000 
#    y 0.000000 1.780980 0.000000 
#    z 0.001000 0.000000 1.765110 
# 
# From -- ./inp_files/159192.got.cif
#   From: 2010.06.25/outbox.cif.g09.slc.cpg/sg15_80_cif.got.tgz:159192.got - 2010.06.28 07:06:18.
