data_PCOD8130641
_publ_section_title
;
Structure prediction by ZEFSAII (Michael W. Deem and Ramdas Pophale) SiO2 
 PCOD8130641
Probable space group: C 2/C
;
_chemical_formula_sum "Si O2"
_cell_formula_units_Z 56
_cell_length_a 11.046983
_cell_length_b 15.594653
_cell_length_c 17.134258
_cell_angle_alpha 90.000000
_cell_angle_beta 64.683639
_cell_angle_gamma 90.000000
_cell_volume 2668.296872
_symmetry_space_group_name_H-M "C 2/C"
_symmetry_group_IT_number 15
_symmetry_cell_setting 'monoclinic'
loop_
_space_group_symop_operation_xyz
x,y,z
-x,y,1/2-z
-x,-y,-z
x,-y,1/2+z
1/2+x,1/2+y,z
1/2-x,1/2+y,1/2-z
1/2-x,1/2-y,-z
1/2+x,1/2-y,1/2+z
loop_
_atom_site_type_symbol
_atom_site_label
_atom_site_fract_x
_atom_site_fract_y
_atom_site_fract_z
Si Si1 0.019846 0.334201 0.990090
Si Si2 0.775137 0.117289 0.166439
Si Si3 0.737329 0.583784 0.591173
Si Si4 0.843856 0.013693 0.537325
Si Si5 0.635473 0.244425 0.096165
Si Si6 0.734517 0.406889 0.651815
Si Si7 0.076079 0.826759 0.564859
O O1 0.127986 0.404692 0.935442
O O2 0.996021 0.279228 0.917024
O O3 0.090400 0.272145 0.035039
O O4 0.889008 0.380784 0.061057
O O5 0.771213 0.017313 0.137670
O O6 0.661633 0.173965 0.155737
O O7 0.748886 0.124252 0.264965
O O8 0.918974 0.153615 0.101710
O O9 0.722346 0.548969 0.507937
O O10 0.631047 0.660901 0.636365
O O11 0.696605 0.507848 0.662032
O O12 0.829971 0.113760 0.517942
O O13 0.000000 0.000000 0.500000
O O14 0.750000 0.250000 0.000000
O O15 0.623455 0.346320 0.640597
#
# Coordination Sequence:
#
# PCOD8130641 Si02
#       7
#     8   8   8   8   8   8   8
#     4  11  20  39  64  87 117 162 203 238 292 370
#     4  11  19  38  60  87 121 153 195 253 308 335
#     4  10  19  39  61  85 113 163 203 231 297 364
#     4   9  17  32  60  84 109 148 201 240 276 356
#     4  10  17  35  68  85 105 160 206 235 287 359
#     4  11  25  35  58  92 126 151 193 256 304 347
#     4  10  20  38  61  84 118 163 202 235 294 366
#
# _framework density 20.987171
#
# number of rings (size 3 to 8) (size 9 to 14) (size 15 to 20)
#    0.000    1.714    5.714    2.143    0.000    0.571 
#    2.571    0.000    6.286    0.000    0.000    0.000 
#    0.000    0.000    0.000    0.000    0.000    0.000 
#
# Total GULP energy -346926.475122 kJ/mol
# GULP energy per Si atom -12390.231254 kJ/mol
# Density = 2.093940 g / cm^3
# Si number density = 20.987171 Si / 1000 Ang^3
#
#
#
# Elastic Constant Matrix: (Units=GPa)
#
#
# Indices 1 2 3 4 5 6 
#
# 1 59.6338 23.5443 9.9808 0.0000 20.7935 0.0000
# 2 23.5443 103.5103 34.2794 0.0000 14.6866 0.0000
# 3 9.9808 34.2794 69.8148 0.0000 26.2871 0.0000
# 4 0.0000 0.0000 0.0000 19.7712 0.0000 7.5072
# 5 20.7935 14.6866 26.2871 0.0000 29.9889 0.0000
# 6 0.0000 0.0000 0.0000 7.5072 0.0000 34.5811
#
#
#
# Elastic Compliance Matrix: (Units=1/GPa)
#
#
# Indices 1 2 3 4 5 6 
#
# 1 0.024771 -0.004906 0.006612 0.000000 -0.020569 0.000000
# 2 -0.004906 0.012529 -0.006599 0.000000 0.003050 0.000000
# 3 0.006612 -0.006599 0.025566 0.000000 -0.023763 0.000000
# 4 0.000000 0.000000 0.000000 0.055122 0.000000 -0.011967
# 5 -0.020569 0.003050 -0.023763 0.000000 0.066944 0.000000
# 6 0.000000 0.000000 0.000000 -0.011967 0.000000 0.031515
#
#
# Mechanical properties :
#
#
# Convention : Reuss Voigt Hill
#
# Bulk Modulus (GPa) = 18.83885 40.95197 29.89541
# Shear Modulus (GPa) = 20.49790 27.87853 24.18822
#
# Velocity S-wave (km/s) = 3.12859 3.64862 3.39857
# Velocity P-wave (km/s) = 4.69538 6.10779 5.44756
#
# Compressibility (1/GPa) = 0.05308179
#
# Stress axis : x y z
#
# Youngs Moduli (GPa) = 40.36906 79.81234 39.11463
#
# Poissons Ratio (x) = 0.39154 -0.25864
# Poissons Ratio (y) = 0.19804 0.25812
# Poissons Ratio (z) = -0.26693 0.52668
#
# Static dielectric constant tensor:
#      x y z
#    x 3.943990 0.000000 0.215650 
#    y 0.000000 4.355610 0.000000 
#    z 0.215650 0.000000 3.321660 
# 
# 
# High freq. dielectric constant tensor:
#      x y z
#    x 1.827540 0.000000 0.024040 
#    y 0.000000 1.826980 0.000000 
#    z 0.024040 0.000000 1.775720 
# 
# From -- ./inp_files/197770.got.cif
#   From: 2010.06.25/outbox.cif.g09.slc.cpg/sg15_99_cif.got.tgz:197770.got - 2010.06.28 07:06:18.
