data_PCOD8130138
_publ_section_title
;
Structure prediction by ZEFSAII (Michael W. Deem and Ramdas Pophale) SiO2 
 PCOD8130138
Probable space group: C 2/C
;
_chemical_formula_sum "Si O2"
_cell_formula_units_Z 64
_cell_length_a 9.198179
_cell_length_b 19.616438
_cell_length_c 18.845016
_cell_angle_alpha 90.000000
_cell_angle_beta 93.280484
_cell_angle_gamma 90.000000
_cell_volume 3394.738173
_symmetry_space_group_name_H-M "C 2/C"
_symmetry_group_IT_number 15
_symmetry_cell_setting 'monoclinic'
loop_
_space_group_symop_operation_xyz
x,y,z
-x,y,1/2-z
-x,-y,-z
x,-y,1/2+z
1/2+x,1/2+y,z
1/2-x,1/2+y,1/2-z
1/2-x,1/2-y,-z
1/2+x,1/2-y,1/2+z
loop_
_atom_site_type_symbol
_atom_site_label
_atom_site_fract_x
_atom_site_fract_y
_atom_site_fract_z
Si Si1 0.029531 0.672110 0.412097
Si Si2 0.081813 0.917494 0.430176
Si Si3 0.243007 0.051832 0.076634
Si Si4 0.984784 0.041787 0.168430
Si Si5 0.722292 0.354233 0.898627
Si Si6 0.746571 0.402696 0.052157
Si Si7 0.558310 0.782505 0.433868
Si Si8 0.241538 0.220740 0.919492
O O1 0.123365 0.603597 0.425444
O O2 0.131011 0.728187 0.375291
O O3 0.879688 0.658703 0.364667
O O4 0.974727 0.704021 0.484668
O O5 0.129609 0.943713 0.508524
O O6 0.187895 0.856362 0.411086
O O7 0.918358 0.889295 0.428210
O O8 0.090190 0.978624 0.374207
O O9 0.144041 0.062661 0.143478
O O10 0.307909 0.975615 0.079523
O O11 0.880782 0.107717 0.159821
O O12 0.000000 0.020349 0.250000
O O13 0.648459 0.285900 0.925881
O O14 0.755198 0.401671 0.967252
O O15 0.847004 0.345681 0.092705
O O16 0.402651 0.776531 0.389265
O O17 0.250000 0.250000 0.000000
#
# Coordination Sequence:
#
# PCOD8130138 Si02
#       8
#     8   8   8   8   8   8   8   8
#     4  10  20  30  53  90 117 143 175 235 292 332
#     4  11  18  35  57  82 113 145 188 240 284 337
#     4  11  19  35  57  83 114 143 187 240 286 335
#     4  11  24  39  57  79 112 155 193 228 281 343
#     4  11  19  33  53  80 116 146 186 229 282 334
#     4  10  18  29  50  82 109 143 175 234 279 331
#     4  10  19  29  50  84 121 141 174 229 289 330
#     4  10  17  29  51  84 121 141 174 232 289 335
#
# _framework density 18.852705
#
# number of rings (size 3 to 8) (size 9 to 14) (size 15 to 20)
#    0.000    1.500    5.000    5.250    0.000    3.000 
#    0.000    0.625    0.000    9.000    0.000    0.000 
#    0.000    0.000    0.000    0.000    0.000    0.000 
#
# Total GULP energy -396635.640902 kJ/mol
# GULP energy per Si atom -12394.863778 kJ/mol
# Density = 1.880980 g / cm^3
# Si number density = 18.852705 Si / 1000 Ang^3
#
#
#
# Elastic Constant Matrix: (Units=GPa)
#
#
# Indices 1 2 3 4 5 6 
#
# 1 142.6713 67.2903 21.7783 0.0000 -5.2878 0.0000
# 2 67.2903 121.6478 25.0127 0.0000 1.7501 0.0000
# 3 21.7783 25.0127 55.9829 0.0000 -3.1503 0.0000
# 4 0.0000 0.0000 0.0000 7.4831 0.0000 1.6552
# 5 -5.2878 1.7501 -3.1503 0.0000 5.6270 0.0000
# 6 0.0000 0.0000 0.0000 1.6552 0.0000 46.3780
#
#
#
# Elastic Compliance Matrix: (Units=1/GPa)
#
#
# Indices 1 2 3 4 5 6 
#
# 1 0.010191 -0.005620 -0.000843 0.000000 0.010852 0.000000
# 2 -0.005620 0.012304 -0.003948 0.000000 -0.011318 0.000000
# 3 -0.000843 -0.003948 0.020629 0.000000 0.011985 0.000000
# 4 0.000000 0.000000 0.000000 0.134697 0.000000 -0.004807
# 5 0.010852 -0.011318 0.011985 0.000000 0.198143 0.000000
# 6 0.000000 0.000000 0.000000 -0.004807 0.000000 0.021733
#
#
# Mechanical properties :
#
#
# Convention : Reuss Voigt Hill
#
# Bulk Modulus (GPa) = 44.83875 60.94053 52.88964
# Shear Modulus (GPa) = 11.73842 25.64568 18.69205
#
# Velocity S-wave (km/s) = 2.49798 3.69225 3.15219
# Velocity P-wave (km/s) = 5.67056 7.11138 6.43144
#
# Compressibility (1/GPa) = 0.02230214
#
# Stress axis : x y z
#
# Youngs Moduli (GPa) = 98.13025 81.27664 48.47608
#
# Poissons Ratio (x) = 0.45676 0.04085
# Poissons Ratio (y) = 0.55147 0.19138
# Poissons Ratio (z) = 0.08270 0.32087
#
# Static dielectric constant tensor:
#      x y z
#    x 4.390170 0.000000 0.052210 
#    y 0.000000 3.792260 0.000000 
#    z 0.052210 0.000000 2.760700 
# 
# 
# High freq. dielectric constant tensor:
#      x y z
#    x 1.756240 0.000000 -0.001290 
#    y 0.000000 1.753250 0.000000 
#    z -0.001290 0.000000 1.643800 
# 
# From -- ./inp_files/192177.got.cif
#   From: 2010.06.25/outbox.cif.g09.slc.cpg/sg15_97_cif.got.tgz:192177.got - 2010.06.28 07:06:18.
