data_PCOD8130646
_publ_section_title
;
Structure prediction by ZEFSAII (Michael W. Deem and Ramdas Pophale) SiO2 
 PCOD8130646
Probable space group: C 2/C
;
_chemical_formula_sum "Si O2"
_cell_formula_units_Z 64
_cell_length_a 8.916045
_cell_length_b 21.424907
_cell_length_c 22.899550
_cell_angle_alpha 90.000000
_cell_angle_beta 50.134228
_cell_angle_gamma 90.000000
_cell_volume 3357.560208
_symmetry_space_group_name_H-M "C 2/C"
_symmetry_group_IT_number 15
_symmetry_cell_setting 'monoclinic'
loop_
_space_group_symop_operation_xyz
x,y,z
-x,y,1/2-z
-x,-y,-z
x,-y,1/2+z
1/2+x,1/2+y,z
1/2-x,1/2+y,1/2-z
1/2-x,1/2-y,-z
1/2+x,1/2-y,1/2+z
loop_
_atom_site_type_symbol
_atom_site_label
_atom_site_fract_x
_atom_site_fract_y
_atom_site_fract_z
Si Si1 0.627817 0.207232 0.476244
Si Si2 0.897899 0.182942 0.060073
Si Si3 0.829619 0.910658 0.959126
Si Si4 0.190632 0.067801 0.170717
Si Si5 0.742267 0.345078 0.028709
Si Si6 0.451795 0.267354 0.327868
Si Si7 0.089472 0.478018 0.537539
Si Si8 0.208114 0.210473 0.181913
O O1 0.572060 0.266406 0.531472
O O2 0.675318 0.146124 0.502307
O O3 0.446594 0.190714 0.478495
O O4 0.787885 0.225268 0.388298
O O5 0.698579 0.208551 0.137793
O O6 0.961245 0.115133 0.069134
O O7 0.883329 0.180727 0.993847
O O8 0.860789 0.931520 0.884915
O O9 0.739601 0.967098 0.021001
O O10 0.402407 0.033077 0.127540
O O11 0.222065 0.136223 0.189715
O O12 0.000000 0.036245 0.250000
O O13 0.634579 0.328072 0.116677
O O14 0.778123 0.417944 0.008533
O O15 0.500000 0.288241 0.250000
O O16 0.641048 0.245616 0.314763
O O17 0.000000 0.500000 0.500000
O O18 0.000000 0.238010 0.250000
#
# Coordination Sequence:
#
# PCOD8130646 Si02
#       8
#     8   8   8   8   8   8   8   8
#     4  10  17  36  56  78 113 148 186 224 285 338
#     4  11  21  35  59  85 120 144 186 242 292 337
#     4  10  21  33  56  91 107 149 198 238 271 332
#     4   9  18  32  57  81 114 147 193 236 289 325
#     4  11  19  39  59  79 113 156 184 233 291 339
#     4  11  23  35  54  90 117 148 186 234 298 345
#     4  10  18  37  60  79 111 150 203 237 265 344
#     4  10  18  33  54  80 113 148 184 228 287 346
#
# _framework density 19.061461000000001
#
# number of rings (size 3 to 8) (size 9 to 14) (size 15 to 20)
#    0.000    1.750    6.250    1.125    5.250    0.500 
#    0.000    2.500    0.000    0.000    0.000    0.000 
#    0.000    0.000    0.000    0.000    0.000    0.000 
#
# Total GULP energy -396484.179894 kJ/mol
# GULP energy per Si atom -12390.130622 kJ/mol
# Density = 1.901808 g / cm^3
# Si number density = 19.061461 Si / 1000 Ang^3
#
#
#
# Elastic Constant Matrix: (Units=GPa)
#
#
# Indices 1 2 3 4 5 6 
#
# 1 43.2005 33.4271 39.1789 0.0000 -12.0965 0.0000
# 2 33.4271 98.7456 49.6221 0.0000 -13.8273 0.0000
# 3 39.1789 49.6221 121.9497 -0.0001 -14.9814 0.0001
# 4 0.0000 0.0000 -0.0001 21.6486 0.0001 -4.9275
# 5 -12.0965 -13.8273 -14.9814 0.0001 32.4710 -0.0001
# 6 0.0000 0.0000 0.0001 -4.9275 -0.0001 30.7309
#
#
#
# Elastic Compliance Matrix: (Units=1/GPa)
#
#
# Indices 1 2 3 4 5 6 
#
# 1 0.038932 -0.007952 -0.008381 0.000000 0.007250 0.000000
# 2 -0.007952 0.014679 -0.003195 0.000000 0.001814 0.000000
# 3 -0.008381 -0.003195 0.012342 0.000000 0.001211 0.000000
# 4 0.000000 0.000000 0.000000 0.047942 0.000000 0.007687
# 5 0.007250 0.001814 0.001211 0.000000 0.034829 0.000000
# 6 0.000000 0.000000 0.000000 0.007687 0.000000 0.033773
#
#
# Mechanical properties :
#
#
# Convention : Reuss Voigt Hill
#
# Bulk Modulus (GPa) = 37.18133 56.48357 46.83245
# Shear Modulus (GPa) = 21.69017 26.41462 24.05239
#
# Velocity S-wave (km/s) = 3.37695 3.72662 3.55608
# Velocity P-wave (km/s) = 5.89520 6.94360 6.44077
#
# Compressibility (1/GPa) = 0.02689522
#
# Stress axis : x y z
#
# Youngs Moduli (GPa) = 25.68568 68.12603 81.02600
#
# Poissons Ratio (x) = 0.54175 0.67910
# Poissons Ratio (y) = 0.20426 0.25889
# Poissons Ratio (z) = 0.21528 0.21767
#
# Static dielectric constant tensor:
#      x y z
#    x 3.486640 0.000000 -0.417170 
#    y 0.000000 5.505010 0.000000 
#    z -0.417170 0.000000 3.562650 
# 
# 
# High freq. dielectric constant tensor:
#      x y z
#    x 1.741180 0.000000 -0.017380 
#    y 0.000000 1.723380 0.000000 
#    z -0.017380 0.000000 1.727620 
# 
# From -- ./inp_files/266088.got.cif
#   From: 2010.06.25/outbox.cif.g09.slc.cpg/sg15_134_cif.got.tgz:266088.got - 2010.06.28 07:06:18.
