data_PCOD8130287
_publ_section_title
;
Structure prediction by ZEFSAII (Michael W. Deem and Ramdas Pophale) SiO2 
 PCOD8130287
Probable space group: C 2/C
;
_chemical_formula_sum "Si O2"
_cell_formula_units_Z 56
_cell_length_a 17.099363
_cell_length_b 24.898931
_cell_length_c 8.731094
_cell_angle_alpha 90.000000
_cell_angle_beta 51.221862
_cell_angle_gamma 90.000000
_cell_volume 2897.932823
_symmetry_space_group_name_H-M "C 2/C"
_symmetry_group_IT_number 15
_symmetry_cell_setting 'monoclinic'
loop_
_space_group_symop_operation_xyz
x,y,z
-x,y,1/2-z
-x,-y,-z
x,-y,1/2+z
1/2+x,1/2+y,z
1/2-x,1/2+y,1/2-z
1/2-x,1/2-y,-z
1/2+x,1/2-y,1/2+z
loop_
_atom_site_type_symbol
_atom_site_label
_atom_site_fract_x
_atom_site_fract_y
_atom_site_fract_z
Si Si1 0.645886 0.701641 0.482088
Si Si2 0.099677 0.095264 0.709349
Si Si3 0.453820 0.121830 0.138009
Si Si4 0.091043 0.459714 0.365383
Si Si5 0.522612 0.671736 0.048882
Si Si6 0.132158 0.733658 0.298597
Si Si7 0.197308 0.541135 0.048978
O O1 0.649914 0.644144 0.557272
O O2 0.571633 0.696822 0.428996
O O3 0.754797 0.719362 0.294657
O O4 0.611774 0.745592 0.650056
O O5 0.181953 0.047787 0.606906
O O6 0.000000 0.072592 0.750000
O O7 0.068128 0.117968 0.915129
O O8 0.500000 0.123955 0.250000
O O9 0.432225 0.180256 0.099160
O O10 0.353443 0.084762 0.274435
O O11 0.534075 0.097439 0.916182
O O12 0.163450 0.480595 0.140755
O O13 0.162090 0.452223 0.421449
O O14 0.000000 0.500000 0.500000
O O15 0.500000 0.655138 0.250000
O O16 0.602679 0.720090 0.954658
#
# Coordination Sequence:
#
# PCOD8130287 Si02
#       7
#     8   8   8   8   8   8   8
#     4   9  18  32  55  80 106 147 193 227 259 321
#     4   9  18  36  59  77  99 147 195 227 265 328
#     4   9  16  28  53  81 107 140 181 218 265 333
#     4   9  19  33  54  80 111 138 170 227 281 330
#     4  10  21  35  50  76 120 146 176 235 284 318
#     4  10  17  31  55  80 107 147 193 220 261 330
#     4  10  18  35  56  78 107 141 179 225 280 330
#
# _framework density 19.324119
#
# number of rings (size 3 to 8) (size 9 to 14) (size 15 to 20)
#    0.000    2.571    1.429    3.429    0.000    0.571 
#    0.000    6.429    3.143    0.000    0.000    0.000 
#    0.000    0.000    0.000    0.000    0.000    0.000 
#
# Total GULP energy -346870.742987 kJ/mol
# GULP energy per Si atom -12388.240821 kJ/mol
# Density = 1.928014 g / cm^3
# Si number density = 19.324119 Si / 1000 Ang^3
#
#
#
# Elastic Constant Matrix: (Units=GPa)
#
#
# Indices 1 2 3 4 5 6 
#
# 1 83.4117 15.4835 45.8014 0.0000 -23.2471 0.0000
# 2 15.4835 61.8603 35.2279 0.0000 -16.8581 0.0000
# 3 45.8014 35.2279 99.9448 0.0000 -13.8222 0.0000
# 4 0.0000 0.0000 0.0000 32.7921 0.0000 -15.0776
# 5 -23.2471 -16.8581 -13.8222 0.0000 28.8175 0.0000
# 6 0.0000 0.0000 0.0000 -15.0776 0.0000 25.5426
#
#
#
# Elastic Compliance Matrix: (Units=1/GPa)
#
#
# Indices 1 2 3 4 5 6 
#
# 1 0.019893 0.003696 -0.008462 0.000000 0.014151 0.000000
# 2 0.003696 0.023361 -0.008167 0.000000 0.012730 0.000000
# 3 -0.008462 -0.008167 0.016234 0.000000 -0.003818 0.000000
# 4 0.000000 0.000000 0.000000 0.041855 0.000000 0.024707
# 5 0.014151 0.012730 -0.003818 0.000000 0.051733 0.000000
# 6 0.000000 0.000000 0.000000 0.024707 0.000000 0.053734
#
#
# Mechanical properties :
#
#
# Convention : Reuss Voigt Hill
#
# Bulk Modulus (GPa) = 29.74276 48.69361 39.21819
# Shear Modulus (GPa) = 20.50155 27.34404 23.92279
#
# Velocity S-wave (km/s) = 3.26073 3.76576 3.52231
# Velocity P-wave (km/s) = 5.44072 6.64537 6.07299
#
# Compressibility (1/GPa) = 0.03362163
#
# Stress axis : x y z
#
# Youngs Moduli (GPa) = 50.26853 42.80717 61.59828
#
# Poissons Ratio (x) = -0.15823 0.52125
# Poissons Ratio (y) = -0.18580 0.50309
# Poissons Ratio (z) = 0.42538 0.34962
#
# Static dielectric constant tensor:
#      x y z
#    x 3.416570 0.000000 -0.249630 
#    y 0.000000 3.812090 0.000000 
#    z -0.249630 0.000000 3.431420 
# 
# 
# High freq. dielectric constant tensor:
#      x y z
#    x 1.746930 0.000000 -0.020760 
#    y 0.000000 1.735510 0.000000 
#    z -0.020760 0.000000 1.725960 
# 
# From -- ./inp_files/52001.got.cif
#   From: 2010.06.25/outbox.cif.g09.slc.cpg/sg15_27_cif.got.tgz:52001.got - 2010.06.28 07:06:18.
