data_PCOD8130212
_publ_section_title
;
Structure prediction by ZEFSAII (Michael W. Deem and Ramdas Pophale) SiO2 
 PCOD8130212
Probable space group: C 2/C
;
_chemical_formula_sum "Si O2"
_cell_formula_units_Z 64
_cell_length_a 9.284547
_cell_length_b 19.177600
_cell_length_c 26.734405
_cell_angle_alpha 90.000000
_cell_angle_beta 48.695995
_cell_angle_gamma 90.000000
_cell_volume 3575.950364
_symmetry_space_group_name_H-M "C 2/C"
_symmetry_group_IT_number 15
_symmetry_cell_setting 'monoclinic'
loop_
_space_group_symop_operation_xyz
x,y,z
-x,y,1/2-z
-x,-y,-z
x,-y,1/2+z
1/2+x,1/2+y,z
1/2-x,1/2+y,1/2-z
1/2-x,1/2-y,-z
1/2+x,1/2-y,1/2+z
loop_
_atom_site_type_symbol
_atom_site_label
_atom_site_fract_x
_atom_site_fract_y
_atom_site_fract_z
Si Si1 0.105143 0.570965 0.845058
Si Si2 0.186056 0.250577 0.456686
Si Si3 0.750594 0.495089 0.598393
Si Si4 0.888854 0.179362 0.823081
Si Si5 0.334076 0.598535 0.034745
Si Si6 0.553872 0.891710 0.512057
Si Si7 0.862762 0.947243 0.194730
Si Si8 0.792907 0.961312 0.099723
O O1 0.140401 0.508219 0.874991
O O2 0.196558 0.642650 0.844952
O O3 0.197672 0.542132 0.772872
O O4 0.876231 0.578872 0.891070
O O5 0.250000 0.250000 0.500000
O O6 0.346133 0.265183 0.376862
O O7 0.097993 0.175395 0.461736
O O8 0.039606 0.316216 0.488277
O O9 0.795819 0.558726 0.550821
O O10 0.520773 0.489909 0.658179
O O11 0.838148 0.422405 0.558227
O O12 0.000000 0.214139 0.750000
O O13 0.024263 0.122568 0.817567
O O14 0.289784 0.544742 0.089792
O O15 0.138087 0.612201 0.048851
O O16 0.501609 0.568358 0.962080
O O17 0.758457 0.945218 0.165569
#
# Coordination Sequence:
#
# PCOD8130212 Si02
#       8
#     8   8   8   8   8   8   8   8
#     4  10  19  31  54  77 106 134 180 221 261 320
#     4  10  18  33  54  81 104 141 186 222 261 330
#     4  10  17  30  54  79 100 128 176 222 264 299
#     4   9  18  35  57  81 104 136 185 230 263 312
#     4  10  21  32  51  74 109 140 172 218 273 321
#     4  10  17  30  54  79 102 132 175 222 264 308
#     4  10  18  32  53  80 101 139 175 218 267 321
#     4  11  20  35  49  78 110 137 172 224 276 321
#
# _framework density 17.89734
#
# number of rings (size 3 to 8) (size 9 to 14) (size 15 to 20)
#    0.000    2.000    5.000    2.250    0.000    0.000 
#    0.000    1.875    0.000    0.000    0.000    1.750 
#    0.000    0.000    0.000    0.000    0.000    0.000 
#
# Total GULP energy -396427.178844 kJ/mol
# GULP energy per Si atom -12388.349339 kJ/mol
# Density = 1.785660 g / cm^3
# Si number density = 17.897340 Si / 1000 Ang^3
#
#
#
# Elastic Constant Matrix: (Units=GPa)
#
#
# Indices 1 2 3 4 5 6 
#
# 1 66.4555 12.5896 14.4384 0.0017 8.6957 -0.0021
# 2 12.5896 103.4532 22.8060 0.0011 3.2361 -0.0017
# 3 14.4384 22.8060 80.2786 -0.0020 19.8418 -0.0032
# 4 0.0017 0.0011 -0.0020 20.4500 -0.0040 0.8551
# 5 8.6957 3.2361 19.8418 -0.0040 31.5657 0.0025
# 6 -0.0021 -0.0017 -0.0032 0.8551 0.0025 14.5324
#
#
#
# Elastic Compliance Matrix: (Units=1/GPa)
#
#
# Indices 1 2 3 4 5 6 
#
# 1 0.016117 -0.001491 -0.001676 -0.000002 -0.003234 0.000002
# 2 -0.001491 0.010473 -0.003011 -0.000001 0.001230 0.000000
# 3 -0.001676 -0.003011 0.015892 0.000000 -0.009219 0.000005
# 4 -0.000002 -0.000001 0.000000 0.049020 0.000007 -0.002884
# 5 -0.003234 0.001230 -0.009219 0.000007 0.038240 -0.000009
# 6 0.000002 0.000000 0.000005 -0.002884 -0.000009 0.068982
#
#
# Mechanical properties :
#
#
# Convention : Reuss Voigt Hill
#
# Bulk Modulus (GPa) = 33.19312 38.87280 36.03296
# Shear Modulus (GPa) = 22.61196 26.66650 24.63923
#
# Velocity S-wave (km/s) = 3.55833 3.86420 3.71441
# Velocity P-wave (km/s) = 5.95558 6.45573 6.21069
#
# Compressibility (1/GPa) = 0.03012673
#
# Stress axis : x y z
#
# Youngs Moduli (GPa) = 62.04496 95.48429 62.92446
#
# Poissons Ratio (x) = 0.14234 0.10546
# Poissons Ratio (y) = 0.09249 0.18947
# Poissons Ratio (z) = 0.10399 0.28751
#
# Static dielectric constant tensor:
#      x y z
#    x 3.163250 0.000000 0.174510 
#    y 0.000000 3.322990 0.000000 
#    z 0.174510 0.000000 3.572050 
# 
# 
# High freq. dielectric constant tensor:
#      x y z
#    x 1.679380 0.000000 0.014260 
#    y 0.000000 1.661410 0.000000 
#    z 0.014260 0.000000 1.698710 
# 
# From -- ./inp_files/289985.got.cif
#   From: 2010.06.25/outbox.cif.g09.slc.cpg/sg15_145_cif.got.tgz:289985.got - 2010.06.28 07:06:18.
