data_PCOD8130976
_publ_section_title
;
Structure prediction by ZEFSAII (Michael W. Deem and Ramdas Pophale) SiO2 
 PCOD8130976
Probable space group: C 2/C
;
_chemical_formula_sum "Si O2"
_cell_formula_units_Z 64
_cell_length_a 9.518386
_cell_length_b 17.687135
_cell_length_c 21.000986
_cell_angle_alpha 90.000000
_cell_angle_beta 108.517197
_cell_angle_gamma 90.000000
_cell_volume 3352.535892
_symmetry_space_group_name_H-M "C 2/C"
_symmetry_group_IT_number 15
_symmetry_cell_setting 'monoclinic'
loop_
_space_group_symop_operation_xyz
x,y,z
-x,y,1/2-z
-x,-y,-z
x,-y,1/2+z
1/2+x,1/2+y,z
1/2-x,1/2+y,1/2-z
1/2-x,1/2-y,-z
1/2+x,1/2-y,1/2+z
loop_
_atom_site_type_symbol
_atom_site_label
_atom_site_fract_x
_atom_site_fract_y
_atom_site_fract_z
Si Si1 0.922972 0.072633 0.678172
Si Si2 0.618991 0.409480 0.573424
Si Si3 0.790104 0.674284 0.422384
Si Si4 0.824920 0.336124 0.074612
Si Si5 0.528995 0.400662 0.823484
Si Si6 0.929763 0.413698 0.557086
Si Si7 0.903744 0.431396 0.406860
Si Si8 0.555027 0.582970 0.570210
O O1 0.744800 0.071775 0.656507
O O2 0.000000 0.113808 0.750000
O O3 0.973115 0.114792 0.621155
O O4 0.993860 0.989502 0.686670
O O5 0.581364 0.369522 0.636080
O O6 0.793737 0.401063 0.585697
O O7 0.550548 0.493044 0.566381
O O8 0.527260 0.374346 0.500792
O O9 0.775762 0.657406 0.494524
O O10 0.717682 0.756201 0.399401
O O11 0.696611 0.613932 0.369126
O O12 0.960402 0.659544 0.424784
O O13 0.727528 0.396539 0.098408
O O14 0.996365 0.361036 0.104365
O O15 0.500000 0.361872 0.750000
O O16 0.866188 0.423920 0.476494
O O17 0.013747 0.489179 0.591865
#
# Coordination Sequence:
#
# PCOD8130976 Si02
#       8
#     8   8   8   8   8   8   8   8
#     4  10  20  34  54  81 113 146 183 234 287 338
#     4  10  18  30  55  84 105 138 190 234 278 332
#     4  10  20  35  53  80 115 147 183 228 282 339
#     4  10  20  34  55  83 113 142 184 238 280 332
#     4  10  20  35  55  78 111 151 185 224 286 343
#     4  10  18  30  55  84 110 142 188 238 278 328
#     4  10  18  31  54  84 111 142 188 233 286 329
#     4  10  18  31  53  81 108 138 183 235 286 325
#
# _framework density 19.090026000000002
#
# number of rings (size 3 to 8) (size 9 to 14) (size 15 to 20)
#    0.000    2.000    5.000    0.000    0.000    0.000 
#    0.000    4.375    0.000    0.000    0.000    0.000 
#    0.000    0.000    0.000    0.000    0.000    0.000 
#
# Total GULP energy -396507.974265 kJ/mol
# GULP energy per Si atom -12390.874196 kJ/mol
# Density = 1.904658 g / cm^3
# Si number density = 19.090026 Si / 1000 Ang^3
#
#
#
# Elastic Constant Matrix: (Units=GPa)
#
#
# Indices 1 2 3 4 5 6 
#
# 1 139.1191 13.5705 76.5439 0.0000 -0.4066 0.0000
# 2 13.5705 32.7732 20.8481 0.0000 -2.9284 0.0000
# 3 76.5439 20.8481 100.7405 0.0000 -4.8347 0.0000
# 4 0.0000 0.0000 0.0000 10.3485 0.0000 4.3591
# 5 -0.4066 -2.9284 -4.8347 0.0000 29.5961 0.0000
# 6 0.0000 0.0000 0.0000 4.3591 0.0000 25.9332
#
#
#
# Elastic Compliance Matrix: (Units=1/GPa)
#
#
# Indices 1 2 3 4 5 6 
#
# 1 0.012430 0.000902 -0.009695 0.000000 -0.001324 0.000000
# 2 0.000902 0.035361 -0.007897 0.000000 0.002221 0.000000
# 3 -0.009695 -0.007897 0.019032 0.000000 0.002195 0.000000
# 4 0.000000 0.000000 0.000000 0.103995 0.000000 -0.017481
# 5 -0.001324 0.002221 0.002195 0.000000 0.034348 0.000000
# 6 0.000000 0.000000 0.000000 -0.017481 0.000000 0.041499
#
#
# Mechanical properties :
#
#
# Convention : Reuss Voigt Hill
#
# Bulk Modulus (GPa) = 29.90030 54.95089 42.42559
# Shear Modulus (GPa) = 17.17070 23.95360 20.56215
#
# Velocity S-wave (km/s) = 3.00235 3.54612 3.28550
# Velocity P-wave (km/s) = 5.26456 6.75383 6.05516
#
# Compressibility (1/GPa) = 0.03344448
#
# Stress axis : x y z
#
# Youngs Moduli (GPa) = 80.44749 28.27976 52.54206
#
# Poissons Ratio (x) = -0.02551 0.50940
# Poissons Ratio (y) = -0.07255 0.41490
# Poissons Ratio (z) = 0.77994 0.22331
#
# Static dielectric constant tensor:
#      x y z
#    x 3.546740 0.000000 -0.174850 
#    y 0.000000 3.186700 0.000000 
#    z -0.174850 0.000000 3.596200 
# 
# 
# High freq. dielectric constant tensor:
#      x y z
#    x 1.751340 0.000000 0.001620 
#    y 0.000000 1.697850 0.000000 
#    z 0.001620 0.000000 1.719780 
# 
# From -- ./inp_files/233901.got.cif
#   From: 2010.06.25/outbox.cif.g09.slc.cpg/sg15_117_cif.got.tgz:233901.got - 2010.06.28 07:06:18.
