data_PCOD8130517
_publ_section_title
;
Structure prediction by ZEFSAII (Michael W. Deem and Ramdas Pophale) SiO2 
 PCOD8130517
Probable space group: C 2/C
;
_chemical_formula_sum "Si O2"
_cell_formula_units_Z 40
_cell_length_a 10.025131
_cell_length_b 16.510415
_cell_length_c 18.260366
_cell_angle_alpha 90.000000
_cell_angle_beta 135.459918
_cell_angle_gamma 90.000000
_cell_volume 2119.962964
_symmetry_space_group_name_H-M "C 2/C"
_symmetry_group_IT_number 15
_symmetry_cell_setting 'monoclinic'
loop_
_space_group_symop_operation_xyz
x,y,z
-x,y,1/2-z
-x,-y,-z
x,-y,1/2+z
1/2+x,1/2+y,z
1/2-x,1/2+y,1/2-z
1/2-x,1/2-y,-z
1/2+x,1/2-y,1/2+z
loop_
_atom_site_type_symbol
_atom_site_label
_atom_site_fract_x
_atom_site_fract_y
_atom_site_fract_z
Si Si1 0.933096 0.023602 0.305788
Si Si2 0.613793 0.436567 0.494870
Si Si3 0.023681 0.829564 0.941421
Si Si4 0.485426 0.995852 0.330090
Si Si5 0.454691 0.186571 0.648760
O O1 0.706429 0.037638 0.216839
O O2 0.000000 0.019845 0.250000
O O3 0.998765 0.939741 0.372599
O O4 0.034333 0.097683 0.387059
O O5 0.500000 0.500000 0.500000
O O6 0.604922 0.351932 0.536923
O O7 0.831260 0.461021 0.562863
O O8 0.945931 0.750455 0.868094
O O9 0.229257 0.810239 0.053561
O O10 0.500000 0.007869 0.250000
O O11 0.471026 0.901590 0.344888
O O12 0.500000 0.209781 0.750000
#
# Coordination Sequence:
#
# PCOD8130517 Si02
#       5
#     8   8   8   8   8
#     4  11  22  35  57  87 118 149 201 249 290 345
#     4  10  17  34  55  84 112 151 199 236 292 354
#     4  10  19  35  57  86 118 150 195 244 294 350
#     4  11  18  34  62  84 111 160 197 234 296 353
#     4  10  19  32  57  89 117 151 197 246 293 345
#
# _framework density 18.868252999999999
#
# number of rings (size 3 to 8) (size 9 to 14) (size 15 to 20)
#    0.000    1.600    8.000    1.800    0.000    0.800 
#    0.000    0.000    4.400    1.200    0.000    0.000 
#    0.000    0.000    0.000    0.000    0.000    0.000 
#
# Total GULP energy -247856.222807 kJ/mol
# GULP energy per Si atom -12392.811140 kJ/mol
# Density = 1.882531 g / cm^3
# Si number density = 18.868253 Si / 1000 Ang^3
#
#
#
# Elastic Constant Matrix: (Units=GPa)
#
#
# Indices 1 2 3 4 5 6 
#
# 1 119.5437 41.3059 60.0581 0.0000 -2.3039 0.0000
# 2 41.3059 63.2575 29.6181 0.0000 -5.1237 0.0000
# 3 60.0581 29.6181 112.8339 0.0000 3.5238 0.0000
# 4 0.0000 0.0000 0.0000 28.6676 0.0000 -7.6380
# 5 -2.3039 -5.1237 3.5238 0.0000 34.3781 0.0000
# 6 0.0000 0.0000 0.0000 -7.6380 0.0000 26.1521
#
#
#
# Elastic Compliance Matrix: (Units=1/GPa)
#
#
# Indices 1 2 3 4 5 6 
#
# 1 0.013199 -0.006016 -0.005463 0.000000 0.000548 0.000000
# 2 -0.006016 0.021120 -0.002435 0.000000 0.002994 0.000000
# 3 -0.005463 -0.002435 0.012472 0.000000 -0.002007 0.000000
# 4 0.000000 0.000000 0.000000 0.037826 0.000000 0.011047
# 5 0.000548 0.002994 -0.002007 0.000000 0.029777 0.000000
# 6 0.000000 0.000000 0.000000 0.011047 0.000000 0.041464
#
#
# Mechanical properties :
#
#
# Convention : Reuss Voigt Hill
#
# Bulk Modulus (GPa) = 52.73756 61.95547 57.34651
# Shear Modulus (GPa) = 26.31457 28.81644 27.56551
#
# Velocity S-wave (km/s) = 3.73855 3.91224 3.82638
# Velocity P-wave (km/s) = 6.82984 7.30168 7.06970
#
# Compressibility (1/GPa) = 0.01896182
#
# Stress axis : x y z
#
# Youngs Moduli (GPa) = 75.76105 47.34945 80.17668
#
# Poissons Ratio (x) = 0.28488 0.43804
# Poissons Ratio (y) = 0.45581 0.19522
# Poissons Ratio (z) = 0.41392 0.11529
#
# Static dielectric constant tensor:
#      x y z
#    x 3.169970 0.000000 -0.359860 
#    y 0.000000 3.638450 0.000000 
#    z -0.359860 0.000000 3.666030 
# 
# 
# High freq. dielectric constant tensor:
#      x y z
#    x 1.704630 0.000000 -0.001540 
#    y 0.000000 1.705290 0.000000 
#    z -0.001540 0.000000 1.752800 
# 
# From -- ./inp_files/239411.got.cif
#   From: 2010.06.25/outbox.cif.g09.slc.cpg/sg15_120_cif.got.tgz:239411.got - 2010.06.28 07:06:18.
