data_PCOD8130090
_publ_section_title
;
Structure prediction by ZEFSAII (Michael W. Deem and Ramdas Pophale) SiO2 
 PCOD8130090
Probable space group: C 2/C
;
_chemical_formula_sum "Si O2"
_cell_formula_units_Z 40
_cell_length_a 18.798586
_cell_length_b 20.774317
_cell_length_c 11.281714
_cell_angle_alpha 90.000000
_cell_angle_beta 25.484510
_cell_angle_gamma 90.000000
_cell_volume 1895.680438
_symmetry_space_group_name_H-M "C 2/C"
_symmetry_group_IT_number 15
_symmetry_cell_setting 'monoclinic'
loop_
_space_group_symop_operation_xyz
x,y,z
-x,y,1/2-z
-x,-y,-z
x,-y,1/2+z
1/2+x,1/2+y,z
1/2-x,1/2+y,1/2-z
1/2-x,1/2-y,-z
1/2+x,1/2-y,1/2+z
loop_
_atom_site_type_symbol
_atom_site_label
_atom_site_fract_x
_atom_site_fract_y
_atom_site_fract_z
Si Si1 0.133498 0.482934 0.650098
Si Si2 0.654361 0.189516 0.930086
Si Si3 0.529095 0.103855 0.914050
Si Si4 0.209612 0.836504 0.846327
Si Si5 0.118328 0.120688 0.741713
O O1 0.080938 0.446515 0.847693
O O2 0.311238 0.452128 0.347722
O O3 0.000000 0.467639 0.750000
O O4 0.148984 0.559896 0.650781
O O5 0.500000 0.177197 0.250000
O O6 0.633683 0.151302 0.838482
O O7 0.674779 0.263243 0.863290
O O8 0.821509 0.164449 0.739735
O O9 0.397537 0.143637 0.031162
O O10 0.185254 0.843758 0.023612
O O11 0.081169 0.881218 0.965324
#
# Coordination Sequence:
#
# PCOD8130090 Si02
#       5
#     8   8   8   8   8
#     4  10  18  34  51  66 101 134 171 194 233 298
#     4  12  16  29  49  75 105 130 153 197 253 303
#     4  10  20  31  51  75  95 135 167 194 242 299
#     4  10  19  27  47  78 106 122 155 202 254 295
#     4  10  17  28  47  72 103 133 151 197 253 289
#
# _framework density 21.100603
#
# number of rings (size 3 to 8) (size 9 to 14) (size 15 to 20)
#    0.000    1.600    8.000    1.800    0.000    0.000 
#    0.000    1.000    8.800    1.200    0.000    0.000 
#    0.000    0.000    0.000    0.000    0.000    0.000 
#
# Total GULP energy -247910.456794 kJ/mol
# GULP energy per Si atom -12395.522840 kJ/mol
# Density = 2.105258 g / cm^3
# Si number density = 21.100603 Si / 1000 Ang^3
#
#
#
# Elastic Constant Matrix: (Units=GPa)
#
#
# Indices 1 2 3 4 5 6 
#
# 1 99.6683 58.3753 48.8395 0.0003 -53.7831 -0.0003
# 2 58.3753 142.9762 43.8423 -0.0111 -23.6498 0.0023
# 3 48.8395 43.8423 37.9080 -0.0071 -26.3385 0.0006
# 4 0.0003 -0.0111 -0.0071 6.9658 -0.0010 -5.0317
# 5 -53.7831 -23.6498 -26.3385 -0.0010 32.5386 0.0001
# 6 -0.0003 0.0023 0.0006 -5.0317 0.0001 38.7829
#
#
#
# Elastic Compliance Matrix: (Units=1/GPa)
#
#
# Indices 1 2 3 4 5 6 
#
# 1 0.131279 -0.016793 -0.016976 -0.000022 0.191044 -0.000001
# 2 -0.016793 0.013383 -0.014556 0.000003 -0.029813 0.000000
# 3 -0.016976 -0.014556 0.087386 0.000078 0.032096 0.000009
# 4 -0.000022 0.000003 0.000078 0.158404 0.000032 0.020552
# 5 0.191044 -0.029813 0.032096 0.000032 0.350821 0.000006
# 6 -0.000001 0.000000 0.000009 0.020552 0.000006 0.028451
#
#
# Mechanical properties :
#
#
# Convention : Reuss Voigt Hill
#
# Bulk Modulus (GPa) = 7.38569 64.74075 36.06322
# Shear Modulus (GPa) = 5.48543 24.29047 14.88795
#
# Velocity S-wave (km/s) = 1.61409 3.39658 2.65914
# Velocity P-wave (km/s) = 2.64226 6.79197 5.15327
#
# Compressibility (1/GPa) = 0.13539705
#
# Stress axis : x y z
#
# Youngs Moduli (GPa) = 7.61738 74.72351 11.44350
#
# Poissons Ratio (x) = 1.25484 0.19426
# Poissons Ratio (y) = 0.12792 0.16657
# Poissons Ratio (z) = 0.12931 1.08768
#
# Static dielectric constant tensor:
#      x y z
#    x 3.787490 -0.000010 -0.434020 
#    y -0.000010 4.146950 0.000000 
#    z -0.434020 0.000000 3.617990 
# 
# 
# High freq. dielectric constant tensor:
#      x y z
#    x 1.826920 0.000000 -0.037280 
#    y 0.000000 1.832600 0.000000 
#    z -0.037280 0.000000 1.764300 
# 
# From -- ./inp_files/30304.got.cif
#   From: 2010.06.25/outbox.cif.g09.slc.cpg/sg15_16_cif.got.tgz:30304.got - 2010.06.28 07:06:18.
