data_PCOD8130638
_publ_section_title
;
Structure prediction by ZEFSAII (Michael W. Deem and Ramdas Pophale) SiO2 
 PCOD8130638
Probable space group: C 2/C
;
_chemical_formula_sum "Si O2"
_cell_formula_units_Z 64
_cell_length_a 9.401121
_cell_length_b 21.139252
_cell_length_c 22.304133
_cell_angle_alpha 90.000000
_cell_angle_beta 46.991374
_cell_angle_gamma 90.000000
_cell_volume 3241.313870
_symmetry_space_group_name_H-M "C 2/C"
_symmetry_group_IT_number 15
_symmetry_cell_setting 'monoclinic'
loop_
_space_group_symop_operation_xyz
x,y,z
-x,y,1/2-z
-x,-y,-z
x,-y,1/2+z
1/2+x,1/2+y,z
1/2-x,1/2+y,1/2-z
1/2-x,1/2-y,-z
1/2+x,1/2-y,1/2+z
loop_
_atom_site_type_symbol
_atom_site_label
_atom_site_fract_x
_atom_site_fract_y
_atom_site_fract_z
Si Si1 0.919808 0.374729 0.209473
Si Si2 0.700445 0.131504 0.221969
Si Si3 0.106481 0.597510 0.381713
Si Si4 0.911570 0.939633 0.885788
Si Si5 0.064704 0.456667 0.068338
Si Si6 0.975157 0.070781 0.688958
Si Si7 0.172846 0.637213 0.946693
Si Si8 0.774493 0.775499 0.317350
O O1 0.744173 0.423366 0.269936
O O2 0.845324 0.310872 0.199837
O O3 0.000000 0.353390 0.250000
O O4 0.076128 0.414776 0.125659
O O5 0.500000 0.105410 0.250000
O O6 0.674565 0.129090 0.300777
O O7 0.746582 0.201317 0.185327
O O8 0.890676 0.092630 0.147215
O O9 0.285363 0.603626 0.377019
O O10 0.027318 0.526101 0.395107
O O11 0.935640 0.642537 0.458328
O O12 0.783595 0.961006 0.979893
O O13 0.970006 0.998199 0.828519
O O14 0.926279 0.420463 0.061557
O O15 0.000000 0.095085 0.750000
O O16 0.106120 0.114206 0.607600
O O17 0.176874 0.703402 0.909012
O O18 0.000000 0.795482 0.250000
#
# Coordination Sequence:
#
# PCOD8130638 Si02
#       8
#     8   8   8   8   8   8   8   8
#     4  11  22  35  56  90 119 151 200 255 307 353
#     4  11  26  42  56  85 129 170 193 241 314 371
#     4  11  20  38  64  92 119 152 210 250 297 361
#     4  11  21  37  62  90 120 158 203 247 301 363
#     4  10  19  36  59  94 124 149 195 261 303 356
#     4  12  17  33  63  89 112 154 196 243 305 352
#     4  10  17  35  66  93 107 148 215 260 281 339
#     4  10  20  42  64  77 113 164 213 249 287 358
#
# _framework density 19.745077999999999
#
# number of rings (size 3 to 8) (size 9 to 14) (size 15 to 20)
#    0.000    1.250    6.250    2.625    0.000    3.000 
#    2.250   10.625    0.000    0.000    0.000    0.000 
#    0.000    0.000    0.000    0.000    0.000    0.000 
#
# Total GULP energy -396674.897734 kJ/mol
# GULP energy per Si atom -12396.090554 kJ/mol
# Density = 1.970014 g / cm^3
# Si number density = 19.745078 Si / 1000 Ang^3
#
#
#
# Elastic Constant Matrix: (Units=GPa)
#
#
# Indices 1 2 3 4 5 6 
#
# 1 89.7374 20.6237 25.1998 0.0005 -8.7258 0.0006
# 2 20.6237 76.9673 32.6959 0.0002 -6.8630 0.0000
# 3 25.1998 32.6959 84.8058 0.0004 -18.2042 0.0001
# 4 0.0005 0.0002 0.0004 29.0690 -0.0002 -3.5169
# 5 -8.7258 -6.8630 -18.2042 -0.0002 27.1759 -0.0003
# 6 0.0006 0.0000 0.0001 -3.5169 -0.0003 21.8522
#
#
#
# Elastic Compliance Matrix: (Units=1/GPa)
#
#
# Indices 1 2 3 4 5 6 
#
# 1 0.012512 -0.002125 -0.002513 0.000000 0.001798 0.000000
# 2 -0.002125 0.015898 -0.005586 0.000000 -0.000409 0.000000
# 3 -0.002513 -0.005586 0.016603 0.000000 0.008904 0.000000
# 4 0.000000 0.000000 0.000000 0.035084 0.000000 0.005646
# 5 0.001798 -0.000409 0.008904 0.000000 0.043236 0.000000
# 6 0.000000 0.000000 0.000000 0.005646 0.000000 0.046671
#
#
# Mechanical properties :
#
#
# Convention : Reuss Voigt Hill
#
# Bulk Modulus (GPa) = 40.70551 45.39436 43.04994
# Shear Modulus (GPa) = 25.17104 27.15217 26.16160
#
# Velocity S-wave (km/s) = 3.57431 3.71231 3.64396
# Velocity P-wave (km/s) = 6.13959 6.43545 6.28926
#
# Compressibility (1/GPa) = 0.02456670
#
# Stress axis : x y z
#
# Youngs Moduli (GPa) = 79.92034 62.89982 60.22905
#
# Poissons Ratio (x) = 0.13366 0.15135
# Poissons Ratio (y) = 0.16983 0.33643
# Poissons Ratio (z) = 0.20083 0.35134
#
# Static dielectric constant tensor:
#      x y z
#    x 3.589190 0.000000 -0.271830 
#    y 0.000000 3.414800 0.000000 
#    z -0.271830 0.000000 4.017630 
# 
# 
# High freq. dielectric constant tensor:
#      x y z
#    x 1.744630 0.000000 -0.015750 
#    y 0.000000 1.755330 0.000000 
#    z -0.015750 0.000000 1.781060 
# 
# From -- ./inp_files/234439.got.cif
#   From: 2010.06.25/outbox.cif.g09.slc.cpg/sg15_118_cif.got.tgz:234439.got - 2010.06.28 07:06:18.
