data_PCOD8130723
_publ_section_title
;
Structure prediction by ZEFSAII (Michael W. Deem and Ramdas Pophale) SiO2 
 PCOD8130723
Probable space group: C 2/C
;
_chemical_formula_sum "Si O2"
_cell_formula_units_Z 48
_cell_length_a 11.513831
_cell_length_b 16.333599
_cell_length_c 13.074666
_cell_angle_alpha 90.000000
_cell_angle_beta 113.958177
_cell_angle_gamma 90.000000
_cell_volume 2247.002266
_symmetry_space_group_name_H-M "C 2/C"
_symmetry_group_IT_number 15
_symmetry_cell_setting 'monoclinic'
loop_
_space_group_symop_operation_xyz
x,y,z
-x,y,1/2-z
-x,-y,-z
x,-y,1/2+z
1/2+x,1/2+y,z
1/2-x,1/2+y,1/2-z
1/2-x,1/2-y,-z
1/2+x,1/2-y,1/2+z
loop_
_atom_site_type_symbol
_atom_site_label
_atom_site_fract_x
_atom_site_fract_y
_atom_site_fract_z
Si Si1 0.263847 0.110464 0.403665
Si Si2 0.844380 0.240672 0.276283
Si Si3 0.857450 0.045529 0.714219
Si Si4 0.010252 0.729827 0.015232
Si Si5 0.794396 0.868814 0.384408
Si Si6 0.867952 0.772268 0.150072
O O1 0.160979 0.165250 0.304916
O O2 0.407832 0.145659 0.445763
O O3 0.225223 0.105368 0.507634
O O4 0.251196 0.017787 0.360382
O O5 0.977251 0.251098 0.384676
O O6 0.829465 0.325163 0.207939
O O7 0.737970 0.224028 0.324497
O O8 0.834781 0.055361 0.828009
O O9 0.839172 0.129939 0.644314
O O10 0.000000 0.010584 0.750000
O O11 0.881302 0.733022 0.039554
O O12 0.095104 0.802386 0.089033
O O13 0.000000 0.751634 0.250000
#
# Coordination Sequence:
#
# PCOD8130723 Si02
#       6
#     8   8   8   8   8   8
#     4  11  24  36  59  94 124 157 206 260 307 368
#     4  10  21  36  63  92 120 164 208 249 311 363
#     4  10  21  40  62  85 126 164 207 251 311 364
#     4  11  20  38  64  91 123 162 206 258 304 363
#     4  10  22  40  58  87 126 162 201 256 308 371
#     4  10  17  40  64  86 125 165 206 253 299 365
#
# _framework density 21.361792999999999
#
# number of rings (size 3 to 8) (size 9 to 14) (size 15 to 20)
#    0.000    1.667    6.667    2.500    2.333    4.000 
#    0.000    3.333    0.000    4.000    0.000    0.000 
#    0.000    0.000    0.000    0.000    0.000    0.000 
#
# Total GULP energy -297435.423741 kJ/mol
# GULP energy per Si atom -12393.142656 kJ/mol
# Density = 2.131317 g / cm^3
# Si number density = 21.361793 Si / 1000 Ang^3
#
#
#
# Elastic Constant Matrix: (Units=GPa)
#
#
# Indices 1 2 3 4 5 6 
#
# 1 86.7704 45.9348 38.0124 0.0000 -27.4774 0.0000
# 2 45.9348 81.4977 52.7964 0.0000 -13.3886 0.0000
# 3 38.0124 52.7964 150.6973 0.0000 -17.6308 0.0000
# 4 0.0000 0.0000 0.0000 31.0611 0.0000 0.0907
# 5 -27.4774 -13.3886 -17.6308 0.0000 36.0974 0.0000
# 6 0.0000 0.0000 0.0000 0.0907 0.0000 19.8324
#
#
#
# Elastic Compliance Matrix: (Units=1/GPa)
#
#
# Indices 1 2 3 4 5 6 
#
# 1 0.020374 -0.009193 -0.000533 0.000000 0.011838 0.000000
# 2 -0.009193 0.020415 -0.005055 0.000000 -0.001895 0.000000
# 3 -0.000533 -0.005055 0.008776 0.000000 0.002005 0.000000
# 4 0.000000 0.000000 0.000000 0.032195 0.000000 -0.000147
# 5 0.011838 -0.001895 0.002005 0.000000 0.036991 0.000000
# 6 0.000000 0.000000 0.000000 -0.000147 0.000000 0.050423
#
#
# Mechanical properties :
#
#
# Convention : Reuss Voigt Hill
#
# Bulk Modulus (GPa) = 49.99504 65.82804 57.91154
# Shear Modulus (GPa) = 24.34217 29.54631 26.94424
#
# Velocity S-wave (km/s) = 3.37934 3.72309 3.55537
# Velocity P-wave (km/s) = 6.21943 7.02599 6.63498
#
# Compressibility (1/GPa) = 0.02000198
#
# Stress axis : x y z
#
# Youngs Moduli (GPa) = 49.08289 48.98258 113.94581
#
# Poissons Ratio (x) = 0.45029 0.06078
# Poissons Ratio (y) = 0.45122 0.57603
# Poissons Ratio (z) = 0.02618 0.24762
#
# Static dielectric constant tensor:
#      x y z
#    x 3.878600 0.000000 -0.074170 
#    y 0.000000 3.501600 0.000000 
#    z -0.074170 0.000000 4.187590 
# 
# 
# High freq. dielectric constant tensor:
#      x y z
#    x 1.835240 0.000000 -0.009070 
#    y 0.000000 1.795760 0.000000 
#    z -0.009070 0.000000 1.861980 
# 
# From -- ./inp_files/87883.got.cif
#   From: 2010.06.25/outbox.cif.g09.slc.cpg/sg15_44_cif.got.tgz:87883.got - 2010.06.28 07:06:18.
