data_PCOD8130986
_publ_section_title
;
Structure prediction by ZEFSAII (Michael W. Deem and Ramdas Pophale) SiO2 
 PCOD8130986
Probable space group: C 2/C
;
_chemical_formula_sum "Si O2"
_cell_formula_units_Z 40
_cell_length_a 15.584239
_cell_length_b 11.817326
_cell_length_c 25.213699
_cell_angle_alpha 90.000000
_cell_angle_beta 28.075814
_cell_angle_gamma 90.000000
_cell_volume 2185.393906
_symmetry_space_group_name_H-M "C 2/C"
_symmetry_group_IT_number 15
_symmetry_cell_setting 'monoclinic'
loop_
_space_group_symop_operation_xyz
x,y,z
-x,y,1/2-z
-x,-y,-z
x,-y,1/2+z
1/2+x,1/2+y,z
1/2-x,1/2+y,1/2-z
1/2-x,1/2-y,-z
1/2+x,1/2-y,1/2+z
loop_
_atom_site_type_symbol
_atom_site_label
_atom_site_fract_x
_atom_site_fract_y
_atom_site_fract_z
Si Si1 0.116944 0.730260 0.492536
Si Si2 0.153817 0.157844 0.588225
Si Si3 0.254160 0.643041 0.842575
Si Si4 0.338062 0.592839 0.452569
Si Si5 0.849548 0.098940 0.289764
O O1 0.171418 0.642975 0.509330
O O2 0.166724 0.858084 0.484641
O O3 0.232409 0.702971 0.376378
O O4 0.903994 0.717972 0.596868
O O5 0.250000 0.250000 0.500000
O O6 0.256994 0.154484 0.587909
O O7 0.942284 0.187483 0.714261
O O8 0.170824 0.041923 0.545339
O O9 0.223883 0.509751 0.845171
O O10 0.533578 0.640097 0.324173
O O11 0.000000 0.051505 0.250000
#
# Coordination Sequence:
#
# PCOD8130986 Si02
#       5
#     8   8   8   8   8
#     4  10  18  30  56  82 107 130 177 229 271 307
#     4  10  20  37  56  71 109 147 181 220 261 318
#     4  10  18  34  54  81  97 144 191 212 257 332
#     4   9  19  34  51  82 110 136 175 224 270 316
#     4   9  15  31  53  73 108 140 177 220 260 325
#
# _framework density 18.303336000000002
#
# number of rings (size 3 to 8) (size 9 to 14) (size 15 to 20)
#    0.000    2.400    6.000    0.600    0.000    1.600 
#    3.600    1.000   22.000    0.000    0.000    0.000 
#    0.000    0.000    0.000    0.000    0.000    0.000 
#
# Total GULP energy -247877.691367 kJ/mol
# GULP energy per Si atom -12393.884568 kJ/mol
# Density = 1.826168 g / cm^3
# Si number density = 18.303336 Si / 1000 Ang^3
#
#
#
# Elastic Constant Matrix: (Units=GPa)
#
#
# Indices 1 2 3 4 5 6 
#
# 1 69.0802 44.0327 43.3860 0.0001 -11.7385 -0.0021
# 2 44.0327 104.4607 59.5872 0.0003 7.4881 0.0019
# 3 43.3860 59.5872 95.7108 -0.0173 4.8524 0.0116
# 4 0.0001 0.0003 -0.0173 30.7422 0.0068 7.0493
# 5 -11.7385 7.4881 4.8524 0.0068 28.7486 -0.0040
# 6 -0.0021 0.0019 0.0116 7.0493 -0.0040 24.0492
#
#
#
# Elastic Compliance Matrix: (Units=1/GPa)
#
#
# Indices 1 2 3 4 5 6 
#
# 1 0.026980 -0.007773 -0.008122 -0.000011 0.014412 0.000012
# 2 -0.007773 0.017240 -0.006880 -0.000003 -0.006503 0.000001
# 3 -0.008122 -0.006880 0.018650 0.000015 -0.004672 -0.000014
# 4 -0.000011 -0.000003 0.000015 0.034873 -0.000016 -0.010222
# 5 0.014412 -0.006503 -0.004672 -0.000016 0.043151 0.000016
# 6 0.000012 0.000001 -0.000014 -0.010222 0.000016 0.044578
#
#
# Mechanical properties :
#
#
# Convention : Reuss Voigt Hill
#
# Bulk Modulus (GPa) = 57.73363 62.58484 60.15924
# Shear Modulus (GPa) = 21.11526 24.85771 22.98649
#
# Velocity S-wave (km/s) = 3.40020 3.68924 3.54766
# Velocity P-wave (km/s) = 6.85757 7.23980 7.05127
#
# Compressibility (1/GPa) = 0.01732093
#
# Stress axis : x y z
#
# Youngs Moduli (GPa) = 37.06395 58.00348 53.61966
#
# Poissons Ratio (x) = 0.45088 0.43547
# Poissons Ratio (y) = 0.28811 0.36891
# Poissons Ratio (z) = 0.30102 0.39907
#
# Static dielectric constant tensor:
#      x y z
#    x 3.181610 0.000010 0.066260 
#    y 0.000010 3.139640 0.000030 
#    z 0.066260 0.000030 3.496540 
# 
# 
# High freq. dielectric constant tensor:
#      x y z
#    x 1.687500 0.000000 -0.006100 
#    y 0.000000 1.685000 0.000000 
#    z -0.006100 0.000000 1.712010 
# 
# From -- ./inp_files/151259.got.cif
#   From: 2010.06.25/outbox.cif.g09.slc.cpg/sg15_76_cif.got.tgz:151259.got - 2010.06.28 07:06:18.
