data_PCOD8130752
_publ_section_title
;
Structure prediction by ZEFSAII (Michael W. Deem and Ramdas Pophale) SiO2 
 PCOD8130752
Probable space group: C 2/C
;
_chemical_formula_sum "Si O2"
_cell_formula_units_Z 56
_cell_length_a 11.012354
_cell_length_b 23.531080
_cell_length_c 13.550053
_cell_angle_alpha 90.000000
_cell_angle_beta 105.489401
_cell_angle_gamma 90.000000
_cell_volume 3383.730814
_symmetry_space_group_name_H-M "C 2/C"
_symmetry_group_IT_number 15
_symmetry_cell_setting 'monoclinic'
loop_
_space_group_symop_operation_xyz
x,y,z
-x,y,1/2-z
-x,-y,-z
x,-y,1/2+z
1/2+x,1/2+y,z
1/2-x,1/2+y,1/2-z
1/2-x,1/2-y,-z
1/2+x,1/2-y,1/2+z
loop_
_atom_site_type_symbol
_atom_site_label
_atom_site_fract_x
_atom_site_fract_y
_atom_site_fract_z
Si Si1 0.826438 0.572452 0.788188
Si Si2 0.785778 0.811873 0.471852
Si Si3 0.250820 0.013742 0.420112
Si Si4 0.565037 0.557779 0.983944
Si Si5 0.952167 0.889615 0.633669
Si Si6 0.095004 0.590262 0.909215
Si Si7 0.908521 0.140511 0.813059
O O1 0.797900 0.510323 0.826166
O O2 0.856464 0.561523 0.680654
O O3 0.709581 0.615269 0.772999
O O4 0.944967 0.599385 0.873256
O O5 0.750000 0.750000 0.500000
O O6 0.873446 0.837108 0.575631
O O7 0.658059 0.848263 0.435765
O O8 0.860071 0.813011 0.382578
O O9 0.203797 0.958587 0.473874
O O10 0.134003 0.054820 0.374731
O O11 0.365656 0.046870 0.496138
O O12 0.567909 0.597126 0.083160
O O13 0.500000 0.500000 0.000000
O O14 0.480127 0.588799 0.882791
O O15 0.000000 0.870353 0.750000
O O16 0.000000 0.168803 0.750000
#
# Coordination Sequence:
#
# PCOD8130752 Si02
#       7
#     8   8   8   8   8   8   8
#     4  10  18  30  49  71 104 138 163 196 238 305
#     4   9  19  38  55  69  98 132 167 224 261 287
#     4  10  18  27  48  70 108 137 155 195 247 292
#     4   9  17  26  43  73 107 133 156 197 247 288
#     4   9  19  29  46  77 101 124 170 205 241 303
#     4   9  20  33  45  76 101 131 179 195 235 310
#     4  10  18  31  51  80  98 127 176 213 254 298
#
# _framework density 16.549779999999998
#
# number of rings (size 3 to 8) (size 9 to 14) (size 15 to 20)
#    0.000    2.571    1.429    3.000    6.000    0.000 
#    5.143    0.000    0.000    2.571    7.429    0.000 
#    0.000    0.000    0.000    0.000    0.000    0.000 
#
# Total GULP energy -347022.960714 kJ/mol
# GULP energy per Si atom -12393.677168 kJ/mol
# Density = 1.651211 g / cm^3
# Si number density = 16.549780 Si / 1000 Ang^3
#
#
#
# Elastic Constant Matrix: (Units=GPa)
#
#
# Indices 1 2 3 4 5 6 
#
# 1 79.9818 41.1665 44.9805 0.0000 -2.0483 0.0000
# 2 41.1665 95.6297 47.6554 0.0000 -11.8978 0.0000
# 3 44.9805 47.6554 105.9527 0.0000 -0.6762 0.0000
# 4 0.0000 0.0000 0.0000 16.9424 0.0000 -6.8274
# 5 -2.0483 -11.8978 -0.6762 0.0000 23.6354 0.0000
# 6 0.0000 0.0000 0.0000 -6.8274 0.0000 16.0072
#
#
#
# Elastic Compliance Matrix: (Units=1/GPa)
#
#
# Indices 1 2 3 4 5 6 
#
# 1 0.018223 -0.005339 -0.005343 0.000000 -0.001261 0.000000
# 2 -0.005339 0.016161 -0.004954 0.000000 0.007531 0.000000
# 3 -0.005343 -0.004954 0.013919 0.000000 -0.002559 0.000000
# 4 0.000000 0.000000 0.000000 0.071274 0.000000 0.030400
# 5 -0.001261 0.007531 -0.002559 0.000000 0.045918 0.000000
# 6 0.000000 0.000000 0.000000 0.030400 0.000000 0.075438
#
#
# Mechanical properties :
#
#
# Convention : Reuss Voigt Hill
#
# Bulk Modulus (GPa) = 58.71922 61.01879 59.86900
# Shear Modulus (GPa) = 17.99319 21.16777 19.58048
#
# Velocity S-wave (km/s) = 3.30087 3.58024 3.44339
# Velocity P-wave (km/s) = 7.07708 7.35124 7.21546
#
# Compressibility (1/GPa) = 0.01703020
#
# Stress axis : x y z
#
# Youngs Moduli (GPa) = 54.87434 61.87657 71.84670
#
# Poissons Ratio (x) = 0.33036 0.38389
# Poissons Ratio (y) = 0.29298 0.35595
# Poissons Ratio (z) = 0.29320 0.30656
#
# Static dielectric constant tensor:
#      x y z
#    x 3.394980 0.000000 -0.089850 
#    y 0.000000 2.744800 0.000000 
#    z -0.089850 0.000000 3.238970 
# 
# 
# High freq. dielectric constant tensor:
#      x y z
#    x 1.635970 0.000000 -0.004580 
#    y 0.000000 1.595990 0.000000 
#    z -0.004580 0.000000 1.643860 
# 
# From -- ./inp_files/90409.got.cif
#   From: 2010.06.25/outbox.cif.g09.slc.cpg/sg15_46_cif.got.tgz:90409.got - 2010.06.28 07:06:18.
