data_PCOD8130300
_publ_section_title
;
Structure prediction by ZEFSAII (Michael W. Deem and Ramdas Pophale) SiO2 
 PCOD8130300
Probable space group: C 2/C
;
_chemical_formula_sum "Si O2"
_cell_formula_units_Z 64
_cell_length_a 16.614666
_cell_length_b 12.048902
_cell_length_c 18.986624
_cell_angle_alpha 90.000000
_cell_angle_beta 128.880292
_cell_angle_gamma 90.000000
_cell_volume 2958.847884
_symmetry_space_group_name_H-M "C 2/C"
_symmetry_group_IT_number 15
_symmetry_cell_setting 'monoclinic'
loop_
_space_group_symop_operation_xyz
x,y,z
-x,y,1/2-z
-x,-y,-z
x,-y,1/2+z
1/2+x,1/2+y,z
1/2-x,1/2+y,1/2-z
1/2-x,1/2-y,-z
1/2+x,1/2-y,1/2+z
loop_
_atom_site_type_symbol
_atom_site_label
_atom_site_fract_x
_atom_site_fract_y
_atom_site_fract_z
Si Si1 0.493549 0.723664 0.858277
Si Si2 0.765906 0.691268 0.620749
Si Si3 0.624802 0.345938 0.916990
Si Si4 0.249813 0.046261 0.167318
Si Si5 0.233411 0.010732 0.882331
Si Si6 0.849431 0.639184 0.357571
Si Si7 0.671568 0.748903 0.856677
Si Si8 0.929839 0.982557 0.832525
O O1 0.461063 0.801421 0.907262
O O2 0.605811 0.760667 0.892445
O O3 0.405854 0.736986 0.750911
O O4 0.497340 0.593871 0.880063
O O5 0.665797 0.694095 0.514969
O O6 0.863389 0.746387 0.633635
O O7 0.793896 0.567458 0.659280
O O8 0.735372 0.764229 0.672543
O O9 0.694297 0.451470 0.931625
O O10 0.505330 0.379266 0.858966
O O11 0.323668 0.075525 0.272114
O O12 0.256545 0.142876 0.112065
O O13 0.131654 0.035744 0.128232
O O14 0.246725 0.141695 0.902483
O O15 0.147227 0.989862 0.775204
O O16 0.341641 0.952906 0.916151
#
# Coordination Sequence:
#
# PCOD8130300 Si02
#       8
#     8   8   8   8   8   8   8   8
#     4   9  15  29  51  77 103 137 183 219 268 319
#     4  10  21  37  52  84 114 146 179 224 287 335
#     4  10  20  34  57  79 116 147 178 227 280 327
#     4  10  20  33  54  79 115 136 180 235 273 324
#     4   9  17  31  55  80 107 142 184 224 275 322
#     4   9  18  32  55  74 108 141 178 229 269 316
#     4   9  17  29  51  77 108 139 174 226 271 320
#     4  10  17  31  56  84 104 136 189 235 261 318
#
# _framework density 21.630040999999999
#
# number of rings (size 3 to 8) (size 9 to 14) (size 15 to 20)
#    0.000    2.500    2.500    0.375    1.750    0.500 
#    0.000    1.875   22.000    0.000    0.000    5.250 
#    0.000    0.000    0.000    0.000    0.000    0.000 
#
# Total GULP energy -396619.400067 kJ/mol
# GULP energy per Si atom -12394.356252 kJ/mol
# Density = 2.158081 g / cm^3
# Si number density = 21.630041 Si / 1000 Ang^3
#
#
#
# Elastic Constant Matrix: (Units=GPa)
#
#
# Indices 1 2 3 4 5 6 
#
# 1 144.5476 73.5554 7.4618 0.0000 -7.4927 0.0000
# 2 73.5554 168.0361 11.2888 0.0000 -9.6170 0.0000
# 3 7.4618 11.2888 19.9273 0.0000 -5.0891 0.0000
# 4 0.0000 0.0000 0.0000 14.3557 0.0000 -5.8261
# 5 -7.4927 -9.6170 -5.0891 0.0000 11.4451 0.0000
# 6 0.0000 0.0000 0.0000 -5.8261 0.0000 45.7327
#
#
#
# Elastic Compliance Matrix: (Units=1/GPa)
#
#
# Indices 1 2 3 4 5 6 
#
# 1 0.008986 -0.003752 -0.000612 0.000000 0.002459 0.000000
# 2 -0.003752 0.007929 -0.002270 0.000000 0.003197 0.000000
# 3 -0.000612 -0.002270 0.057655 0.000000 0.023328 0.000000
# 4 0.000000 0.000000 0.000000 0.073457 0.000000 0.009358
# 5 0.002459 0.003197 0.023328 0.000000 0.102042 0.000000
# 6 0.000000 0.000000 0.000000 0.009358 0.000000 0.023058
#
#
# Mechanical properties :
#
#
# Convention : Reuss Voigt Hill
#
# Bulk Modulus (GPa) = 16.31252 57.45810 36.88531
# Shear Modulus (GPa) = 16.29568 30.32036 23.30802
#
# Velocity S-wave (km/s) = 2.74776 3.74808 3.28621
# Velocity P-wave (km/s) = 4.19820 6.73443 5.61148
#
# Compressibility (1/GPa) = 0.06130261
#
# Stress axis : x y z
#
# Youngs Moduli (GPa) = 111.27999 126.12088 17.34445
#
# Poissons Ratio (x) = 0.47319 0.01061
# Poissons Ratio (y) = 0.41751 0.03938
# Poissons Ratio (z) = 0.06807 0.28635
#
# Static dielectric constant tensor:
#      x y z
#    x 4.220010 0.000000 -0.323750 
#    y 0.000000 4.225500 0.000000 
#    z -0.323750 0.000000 3.249610 
# 
# 
# High freq. dielectric constant tensor:
#      x y z
#    x 1.853930 0.000000 -0.030630 
#    y 0.000000 1.859090 0.000000 
#    z -0.030630 0.000000 1.790440 
# 
# From -- ./inp_files/276940.got.cif
#   From: 2010.06.25/outbox.cif.g09.slc.cpg/sg15_139_cif.got.tgz:276940.got - 2010.06.28 07:06:18.
