data_PCOD8130268
_publ_section_title
;
Structure prediction by ZEFSAII (Michael W. Deem and Ramdas Pophale) SiO2 
 PCOD8130268
Probable space group: C 2/C
;
_chemical_formula_sum "Si O2"
_cell_formula_units_Z 56
_cell_length_a 10.115907
_cell_length_b 16.572701
_cell_length_c 21.337179
_cell_angle_alpha 90.000000
_cell_angle_beta 125.091320
_cell_angle_gamma 90.000000
_cell_volume 2926.942166
_symmetry_space_group_name_H-M "C 2/C"
_symmetry_group_IT_number 15
_symmetry_cell_setting 'monoclinic'
loop_
_space_group_symop_operation_xyz
x,y,z
-x,y,1/2-z
-x,-y,-z
x,-y,1/2+z
1/2+x,1/2+y,z
1/2-x,1/2+y,1/2-z
1/2-x,1/2-y,-z
1/2+x,1/2-y,1/2+z
loop_
_atom_site_type_symbol
_atom_site_label
_atom_site_fract_x
_atom_site_fract_y
_atom_site_fract_z
Si Si1 0.175622 0.355075 0.304981
Si Si2 0.395246 0.499683 0.631693
Si Si3 0.896794 0.211819 0.963793
Si Si4 0.418388 0.013137 0.622095
Si Si5 0.115394 0.930068 0.503298
Si Si6 0.727967 0.529724 0.770019
Si Si7 0.183595 0.627291 0.009389
O O1 0.297477 0.293808 0.371615
O O2 0.153860 0.435282 0.340825
O O3 0.246849 0.383355 0.257241
O O4 0.000000 0.312515 0.250000
O O5 0.384510 0.561368 0.571358
O O6 0.584969 0.479150 0.696977
O O7 0.319506 0.545107 0.670859
O O8 0.297012 0.417882 0.590767
O O9 0.928808 0.306745 0.985622
O O10 0.061291 0.160627 0.004465
O O11 0.798374 0.173659 0.993383
O O12 0.599754 0.982234 0.686320
O O13 0.426725 0.065195 0.559665
O O14 0.296832 0.938500 0.579368
O O15 0.000000 0.000000 0.500000
#
# Coordination Sequence:
#
# PCOD8130268 Si02
#       7
#     8   8   8   8   8   8   8
#     4   9  16  29  49  76 102 135 181 223 272 327
#     4  10  19  32  51  78 107 138 181 241 278 322
#     4  10  17  31  52  75 107 145 178 218 285 338
#     4   9  18  31  53  78 106 137 184 241 272 326
#     4  11  16  30  53  78 107 140 186 233 270 328
#     4  10  19  31  51  78 108 141 183 237 282 324
#     4   9  19  31  50  78 109 138 179 229 281 327
#
# _framework density 19.132594000000001
#
# number of rings (size 3 to 8) (size 9 to 14) (size 15 to 20)
#    0.000    2.286    5.714    0.000    0.000    2.286 
#    2.571    0.000    0.000    3.429    0.000    2.000 
#    0.000    0.000    0.000    0.000    0.000    0.000 
#
# Total GULP energy -346960.640557 kJ/mol
# GULP energy per Si atom -12391.451448 kJ/mol
# Density = 1.908905 g / cm^3
# Si number density = 19.132594 Si / 1000 Ang^3
#
#
#
# Elastic Constant Matrix: (Units=GPa)
#
#
# Indices 1 2 3 4 5 6 
#
# 1 70.8740 29.4939 35.3059 0.0000 3.2129 0.0000
# 2 29.4939 78.2394 23.2766 0.0000 7.6007 0.0000
# 3 35.3059 23.2766 89.7539 0.0000 5.7562 0.0000
# 4 0.0000 0.0000 0.0000 16.4872 0.0000 0.3531
# 5 3.2129 7.6007 5.7562 0.0000 39.4963 0.0000
# 6 0.0000 0.0000 0.0000 0.3531 0.0000 28.1041
#
#
#
# Elastic Compliance Matrix: (Units=1/GPa)
#
#
# Indices 1 2 3 4 5 6 
#
# 1 0.019515 -0.005530 -0.006268 0.000000 0.000390 0.000000
# 2 -0.005530 0.015602 -0.001723 0.000000 -0.002302 0.000000
# 3 -0.006268 -0.001723 0.014132 0.000000 -0.001218 0.000000
# 4 0.000000 0.000000 0.000000 0.060669 0.000000 -0.000762
# 5 0.000390 -0.002302 -0.001218 0.000000 0.025908 0.000000
# 6 0.000000 0.000000 0.000000 -0.000762 0.000000 0.035592
#
#
# Mechanical properties :
#
#
# Convention : Reuss Voigt Hill
#
# Bulk Modulus (GPa) = 45.02901 46.11333 45.57117
# Shear Modulus (GPa) = 24.28807 26.87025 25.57916
#
# Velocity S-wave (km/s) = 3.56681 3.75163 3.66039
# Velocity P-wave (km/s) = 6.36783 6.55138 6.46026
#
# Compressibility (1/GPa) = 0.02220791
#
# Stress axis : x y z
#
# Youngs Moduli (GPa) = 51.24184 64.09349 70.76120
#
# Poissons Ratio (x) = 0.35444 0.44350
# Poissons Ratio (y) = 0.28337 0.12195
# Poissons Ratio (z) = 0.32116 0.11046
#
# Static dielectric constant tensor:
#      x y z
#    x 3.582010 0.000000 0.009140 
#    y 0.000000 3.263320 0.000000 
#    z 0.009140 0.000000 3.956520 
# 
# 
# High freq. dielectric constant tensor:
#      x y z
#    x 1.738120 0.000000 -0.002580 
#    y 0.000000 1.679310 0.000000 
#    z -0.002580 0.000000 1.764730 
# 
# From -- ./inp_files/232800.got.cif
#   From: 2010.06.25/outbox.cif.g09.slc.cpg/sg15_117_cif.got.tgz:232800.got - 2010.06.28 07:06:18.
