data_PCOD8130702
_publ_section_title
;
Structure prediction by ZEFSAII (Michael W. Deem and Ramdas Pophale) SiO2 
 PCOD8130702
Probable space group: C 2/C
;
_chemical_formula_sum "Si O2"
_cell_formula_units_Z 48
_cell_length_a 19.194217
_cell_length_b 14.102560
_cell_length_c 13.791517
_cell_angle_alpha 90.000000
_cell_angle_beta 34.213112
_cell_angle_gamma 90.000000
_cell_volume 2099.072050
_symmetry_space_group_name_H-M "C 2/C"
_symmetry_group_IT_number 15
_symmetry_cell_setting 'monoclinic'
loop_
_space_group_symop_operation_xyz
x,y,z
-x,y,1/2-z
-x,-y,-z
x,-y,1/2+z
1/2+x,1/2+y,z
1/2-x,1/2+y,1/2-z
1/2-x,1/2-y,-z
1/2+x,1/2-y,1/2+z
loop_
_atom_site_type_symbol
_atom_site_label
_atom_site_fract_x
_atom_site_fract_y
_atom_site_fract_z
Si Si1 0.944929 0.103155 0.548959
Si Si2 0.249139 0.415902 0.122164
Si Si3 0.859287 0.531166 0.938894
Si Si4 0.428647 0.218194 0.558478
Si Si5 0.114965 0.430347 0.875059
Si Si6 0.269942 0.825863 0.063138
O O1 0.881086 0.110457 0.516175
O O2 0.854398 0.134872 0.741306
O O3 0.059381 0.175633 0.415348
O O4 0.000000 0.000000 0.500000
O O5 0.239207 0.413473 0.017099
O O6 0.147046 0.343710 0.278852
O O7 0.220969 0.525430 0.185355
O O8 0.000000 0.557288 0.750000
O O9 0.830507 0.569368 0.079067
O O10 0.842230 0.418813 0.943667
O O11 0.569172 0.172848 0.390605
O O12 0.360883 0.225551 0.533984
O O13 0.000000 0.500000 0.000000
O O14 0.250000 0.750000 0.000000
#
# Coordination Sequence:
#
# PCOD8130702 Si02
#       6
#     8   8   8   8   8   8
#     4  11  26  46  64  93 143 191 218 281 361 412
#     4  10  22  40  65 100 127 180 225 280 348 409
#     4  12  20  38  72  98 134 168 228 290 342 405
#     4  10  21  42  65  93 131 180 227 279 343 414
#     4  10  17  37  64  95 130 163 225 281 339 403
#     4  11  26  40  66 110 133 172 235 289 349 413
#
# _framework density 22.867248
#
# number of rings (size 3 to 8) (size 9 to 14) (size 15 to 20)
#    0.000    1.333    8.333    0.000    7.000    1.333 
#    0.000    0.833    3.667    0.000    0.000    0.000 
#    0.000    0.000    0.000    0.000    0.000    0.000 
#
# Total GULP energy -297455.953475 kJ/mol
# GULP energy per Si atom -12393.998061 kJ/mol
# Density = 2.281520 g / cm^3
# Si number density = 22.867248 Si / 1000 Ang^3
#
#
#
# Elastic Constant Matrix: (Units=GPa)
#
#
# Indices 1 2 3 4 5 6 
#
# 1 220.2916 68.5107 36.4018 0.0000 4.7305 0.0000
# 2 68.5107 139.4933 19.1816 0.0000 -17.9745 0.0000
# 3 36.4018 19.1816 32.1767 0.0000 -2.3865 0.0000
# 4 0.0000 0.0000 0.0000 17.0053 0.0000 -3.6597
# 5 4.7305 -17.9745 -2.3865 0.0000 25.2638 0.0000
# 6 0.0000 0.0000 0.0000 -3.6597 0.0000 51.4845
#
#
#
# Elastic Compliance Matrix: (Units=1/GPa)
#
#
# Indices 1 2 3 4 5 6 
#
# 1 0.006490 -0.002865 -0.005917 0.000000 -0.003813 0.000000
# 2 -0.002865 0.009802 -0.002059 0.000000 0.007316 0.000000
# 3 -0.005917 -0.002059 0.039249 0.000000 0.003350 0.000000
# 4 0.000000 0.000000 0.000000 0.059719 0.000000 0.004245
# 5 -0.003813 0.007316 0.003350 0.000000 0.045818 0.000000
# 6 0.000000 0.000000 0.000000 0.004245 0.000000 0.019725
#
#
# Mechanical properties :
#
#
# Convention : Reuss Voigt Hill
#
# Bulk Modulus (GPa) = 29.53553 71.12775 50.33164
# Shear Modulus (GPa) = 23.38955 36.60856 29.99906
#
# Velocity S-wave (km/s) = 3.20166 4.00549 3.62592
# Velocity P-wave (km/s) = 5.15864 7.25011 6.29189
#
# Compressibility (1/GPa) = 0.03385753
#
# Stress axis : x y z
#
# Youngs Moduli (GPa) = 154.07964 102.02164 25.47867
#
# Poissons Ratio (x) = 0.29231 0.15076
# Poissons Ratio (y) = 0.44147 0.05247
# Poissons Ratio (z) = 0.91171 0.21008
#
# Static dielectric constant tensor:
#      x y z
#    x 4.755340 0.000000 -0.031740 
#    y 0.000000 2.477430 0.000000 
#    z -0.031740 0.000000 3.916490 
# 
# 
# High freq. dielectric constant tensor:
#      x y z
#    x 1.921400 0.000000 -0.008140 
#    y 0.000000 1.901220 0.000000 
#    z -0.008140 0.000000 1.863960 
# 
# From -- ./inp_files/162138.got.cif
#   From: 2010.06.25/outbox.cif.g09.slc.cpg/sg15_82_cif.got.tgz:162138.got - 2010.06.28 07:06:18.
