data_PCOD8130780
_publ_section_title
;
Structure prediction by ZEFSAII (Michael W. Deem and Ramdas Pophale) SiO2 
 PCOD8130780
Probable space group: C 2/C
;
_chemical_formula_sum "Si O2"
_cell_formula_units_Z 52
_cell_length_a 17.890758
_cell_length_b 27.807493
_cell_length_c 13.069014
_cell_angle_alpha 90.000000
_cell_angle_beta 156.249231
_cell_angle_gamma 90.000000
_cell_volume 2618.657065
_symmetry_space_group_name_H-M "C 2/C"
_symmetry_group_IT_number 15
_symmetry_cell_setting 'monoclinic'
loop_
_space_group_symop_operation_xyz
x,y,z
-x,y,1/2-z
-x,-y,-z
x,-y,1/2+z
1/2+x,1/2+y,z
1/2-x,1/2+y,1/2-z
1/2-x,1/2-y,-z
1/2+x,1/2-y,1/2+z
loop_
_atom_site_type_symbol
_atom_site_label
_atom_site_fract_x
_atom_site_fract_y
_atom_site_fract_z
Si Si1 0.228447 0.819784 0.309608
Si Si2 0.000000 0.973189 0.250000
Si Si3 0.711420 0.919957 0.037057
Si Si4 0.086797 0.037245 0.532850
Si Si5 0.048302 0.864504 0.693372
Si Si6 0.172025 0.292703 0.533702
Si Si7 0.504230 0.769304 0.988874
O O1 0.255985 0.862205 0.426532
O O2 0.430138 0.802819 0.522058
O O3 0.115851 0.774004 0.212973
O O4 0.115458 0.838174 0.070769
O O5 0.142493 0.941701 0.361147
O O6 0.131750 0.007307 0.485923
O O7 0.740090 0.939197 0.189664
O O8 0.500000 0.933753 0.750000
O O9 0.940678 0.079263 0.321902
O O10 0.000000 0.000000 0.500000
O O11 0.246895 0.841913 0.912081
O O12 0.000000 0.857209 0.750000
O O13 0.324961 0.250667 0.728480
O O14 0.115189 0.301254 0.581367
O O15 0.000000 0.274716 0.250000
#
# Coordination Sequence:
#
# PCOD8130780 Si02
#       7
#     8   4   8   8   8   8   8
#     4   9  19  36  54  81 116 152 196 244 287 343
#     4  10  20  42  70  88 118 160 188 246 320 356
#     4  10  22  41  62  93 121 152 202 249 293 358
#     4   9  19  38  63  85 116 152 192 239 301 365
#     4  10  18  31  53  78 117 149 187 245 297 348
#     4  10  18  28  47  80 112 153 196 235 293 353
#     4   9  18  33  51  72 115 159 193 239 287 341
#
# _framework density 19.857507999999999
#
# number of rings (size 3 to 8) (size 9 to 14) (size 15 to 20)
#    0.000    2.462    0.769    1.385    0.000    4.923 
#   13.846    3.846    0.000    0.000    0.000    0.000 
#    0.000    0.000    0.000    0.000    0.000    0.000 
#
# Total GULP energy -322169.721682 kJ/mol
# GULP energy per Si atom -12391.143142 kJ/mol
# Density = 1.981231 g / cm^3
# Si number density = 19.857508 Si / 1000 Ang^3
#
#
#
# Elastic Constant Matrix: (Units=GPa)
#
#
# Indices 1 2 3 4 5 6 
#
# 1 105.3593 62.8026 41.4713 0.0000 11.6466 0.0000
# 2 62.8026 114.9938 30.1781 0.0000 8.7034 0.0000
# 3 41.4713 30.1781 81.4184 0.0001 8.9332 0.0000
# 4 0.0000 0.0000 0.0001 8.9176 0.0000 -0.1756
# 5 11.6466 8.7034 8.9332 0.0000 27.0672 0.0000
# 6 0.0000 0.0000 0.0000 -0.1756 0.0000 38.3859
#
#
#
# Elastic Compliance Matrix: (Units=1/GPa)
#
#
# Indices 1 2 3 4 5 6 
#
# 1 0.016199 -0.007250 -0.005245 0.000000 -0.002908 0.000000
# 2 -0.007250 0.012983 -0.001041 0.000000 -0.000711 0.000000
# 3 -0.005245 -0.001041 0.015621 0.000000 -0.002564 0.000000
# 4 0.000000 0.000000 0.000000 0.112148 0.000000 0.000513
# 5 -0.002908 -0.000711 -0.002564 0.000000 0.039271 0.000000
# 6 0.000000 0.000000 0.000000 0.000513 0.000000 0.026054
#
#
# Mechanical properties :
#
#
# Convention : Reuss Voigt Hill
#
# Bulk Modulus (GPa) = 56.40015 63.40840 59.90427
# Shear Modulus (GPa) = 19.58798 26.02876 22.80837
#
# Velocity S-wave (km/s) = 3.14415 3.62439 3.39278
# Velocity P-wave (km/s) = 6.45329 7.03676 6.75133
#
# Compressibility (1/GPa) = 0.01773045
#
# Stress axis : x y z
#
# Youngs Moduli (GPa) = 61.73212 77.02428 64.01700
#
# Poissons Ratio (x) = 0.55846 0.33575
# Poissons Ratio (y) = 0.44759 0.06664
# Poissons Ratio (z) = 0.32376 0.08019
#
# Static dielectric constant tensor:
#      x y z
#    x 3.747150 0.000000 -0.036540 
#    y 0.000000 4.009960 0.000000 
#    z -0.036540 0.000000 3.818520 
# 
# 
# High freq. dielectric constant tensor:
#      x y z
#    x 1.765020 0.000000 -0.006470 
#    y 0.000000 1.779340 0.000000 
#    z -0.006470 0.000000 1.759030 
# 
# From -- ./inp_files/169872.got.cif
#   From: 2010.06.25/outbox.cif.g09.slc.cpg/sg15_85_cif.got.tgz:169872.got - 2010.06.28 07:06:18.
