data_PCOD8130957
_publ_section_title
;
Structure prediction by ZEFSAII (Michael W. Deem and Ramdas Pophale) SiO2 
 PCOD8130957
Probable space group: C 2/C
;
_chemical_formula_sum "Si O2"
_cell_formula_units_Z 56
_cell_length_a 20.948924
_cell_length_b 9.033199
_cell_length_c 15.885670
_cell_angle_alpha 90.000000
_cell_angle_beta 101.954657
_cell_angle_gamma 90.000000
_cell_volume 2940.939848
_symmetry_space_group_name_H-M "C 2/C"
_symmetry_group_IT_number 15
_symmetry_cell_setting 'monoclinic'
loop_
_space_group_symop_operation_xyz
x,y,z
-x,y,1/2-z
-x,-y,-z
x,-y,1/2+z
1/2+x,1/2+y,z
1/2-x,1/2+y,1/2-z
1/2-x,1/2-y,-z
1/2+x,1/2-y,1/2+z
loop_
_atom_site_type_symbol
_atom_site_label
_atom_site_fract_x
_atom_site_fract_y
_atom_site_fract_z
Si Si1 0.654942 0.412030 0.053559
Si Si2 0.697026 0.909539 0.183946
Si Si3 0.677512 0.765863 0.715692
Si Si4 0.391854 0.574065 0.686203
Si Si5 0.265929 0.590582 0.540623
Si Si6 0.600909 0.348669 0.668103
Si Si7 0.969772 0.936915 0.575822
O O1 0.668610 0.269220 0.114486
O O2 0.630861 0.549964 0.102981
O O3 0.722842 0.465364 0.028205
O O4 0.599856 0.364317 0.969004
O O5 0.759339 0.821620 0.234745
O O6 0.708414 0.953812 0.089293
O O7 0.632208 0.813068 0.175530
O O8 0.687114 0.060220 0.233576
O O9 0.612508 0.711490 0.749002
O O10 0.333987 0.599770 0.606248
O O11 0.384823 0.421927 0.737327
O O12 0.456847 0.562767 0.645348
O O13 0.250000 0.750000 0.500000
O O14 0.523093 0.325996 0.630817
O O15 0.000000 0.000000 0.500000
#
# Coordination Sequence:
#
# PCOD8130957 Si02
#       7
#     8   8   8   8   8   8   8
#     4   9  18  34  53  81 111 147 190 234 286 340
#     4  11  21  34  54  84 114 157 189 234 294 344
#     4  10  21  35  55  81 119 149 193 238 284 352
#     4   9  19  33  56  81 107 145 189 230 282 340
#     4  10  18  30  54  79 115 147 185 228 287 346
#     4  10  18  34  55  80 108 144 195 239 278 341
#     4   9  18  33  59  81 103 140 189 240 284 339
#
# _framework density 19.041532
#
# number of rings (size 3 to 8) (size 9 to 14) (size 15 to 20)
#    0.000    2.286    1.429    3.000    2.000    0.571 
#    0.000    0.714    0.000   10.286    0.000    0.000 
#    0.000    0.000    0.000    0.000    0.000    0.000 
#
# Total GULP energy -346879.433256 kJ/mol
# GULP energy per Si atom -12388.551188 kJ/mol
# Density = 1.899819 g / cm^3
# Si number density = 19.041532 Si / 1000 Ang^3
#
#
#
# Elastic Constant Matrix: (Units=GPa)
#
#
# Indices 1 2 3 4 5 6 
#
# 1 103.5911 54.3435 46.7540 0.0000 -10.6197 0.0000
# 2 54.3435 110.5376 36.0609 0.0000 -0.8736 0.0000
# 3 46.7540 36.0609 92.6422 0.0000 -6.1259 0.0000
# 4 0.0000 0.0000 0.0000 24.1520 0.0000 1.5877
# 5 -10.6197 -0.8736 -6.1259 0.0000 37.9331 0.0000
# 6 0.0000 0.0000 0.0000 1.5877 0.0000 27.7727
#
#
#
# Elastic Compliance Matrix: (Units=1/GPa)
#
#
# Indices 1 2 3 4 5 6 
#
# 1 0.015453 -0.005840 -0.005305 0.000000 0.003335 0.000000
# 2 -0.005840 0.012576 -0.002059 0.000000 -0.001678 0.000000
# 3 -0.005305 -0.002059 0.014325 0.000000 0.000781 0.000000
# 4 0.000000 0.000000 0.000000 0.041561 0.000000 -0.002376
# 5 0.003335 -0.001678 0.000781 0.000000 0.027383 0.000000
# 6 0.000000 0.000000 0.000000 -0.002376 0.000000 0.036142
#
#
# Mechanical properties :
#
#
# Convention : Reuss Voigt Hill
#
# Bulk Modulus (GPa) = 62.71196 64.56529 63.63862
# Shear Modulus (GPa) = 27.90735 29.27906 28.59320
#
# Velocity S-wave (km/s) = 3.83247 3.92553 3.87928
# Velocity P-wave (km/s) = 7.25187 7.38428 7.31838
#
# Compressibility (1/GPa) = 0.01594592
#
# Stress axis : x y z
#
# Youngs Moduli (GPa) = 64.71086 79.51434 69.81022
#
# Poissons Ratio (x) = 0.46439 0.37035
# Poissons Ratio (y) = 0.37793 0.14373
# Poissons Ratio (z) = 0.34329 0.16371
#
# Static dielectric constant tensor:
#      x y z
#    x 4.004250 0.000000 -0.209260 
#    y 0.000000 3.157560 0.000000 
#    z -0.209260 0.000000 4.042690 
# 
# 
# High freq. dielectric constant tensor:
#      x y z
#    x 1.733530 0.000000 -0.010290 
#    y 0.000000 1.692680 0.000000 
#    z -0.010290 0.000000 1.762720 
# 
# From -- ./inp_files/213446.got.cif
#   From: 2010.06.25/outbox.cif.g09.slc.cpg/sg15_107_cif.got.tgz:213446.got - 2010.06.28 07:06:18.
