data_PCOD8130468
_publ_section_title
;
Structure prediction by ZEFSAII (Michael W. Deem and Ramdas Pophale) SiO2 
 PCOD8130468
Probable space group: C 2/C
;
_chemical_formula_sum "Si O2"
_cell_formula_units_Z 52
_cell_length_a 21.004623
_cell_length_b 10.106671
_cell_length_c 14.240951
_cell_angle_alpha 90.000000
_cell_angle_beta 119.639534
_cell_angle_gamma 90.000000
_cell_volume 2627.596632
_symmetry_space_group_name_H-M "C 2/C"
_symmetry_group_IT_number 15
_symmetry_cell_setting 'monoclinic'
loop_
_space_group_symop_operation_xyz
x,y,z
-x,y,1/2-z
-x,-y,-z
x,-y,1/2+z
1/2+x,1/2+y,z
1/2-x,1/2+y,1/2-z
1/2-x,1/2-y,-z
1/2+x,1/2-y,1/2+z
loop_
_atom_site_type_symbol
_atom_site_label
_atom_site_fract_x
_atom_site_fract_y
_atom_site_fract_z
Si Si1 0.120718 0.255103 0.891245
Si Si2 0.156766 0.723830 0.621357
Si Si3 0.031087 0.496842 0.364983
Si Si4 0.679446 0.288068 0.232539
Si Si5 0.000000 0.939438 0.250000
Si Si6 0.907504 0.561751 0.407616
Si Si7 0.430249 0.478843 0.881131
O O1 0.090275 0.403871 0.863472
O O2 0.169711 0.222354 0.837082
O O3 0.054145 0.152250 0.849943
O O4 0.168920 0.241082 0.020597
O O5 0.234875 0.692703 0.726399
O O6 0.108590 0.593851 0.600953
O O7 0.112818 0.843116 0.636176
O O8 0.065847 0.396976 0.467199
O O9 0.000000 0.419595 0.250000
O O10 0.970370 0.585643 0.375868
O O11 0.661476 0.149797 0.168758
O O12 0.628242 0.401262 0.149882
O O13 0.042589 0.029507 0.206428
O O14 0.500000 0.500000 0.000000
#
# Coordination Sequence:
#
# PCOD8130468 Si02
#       7
#     8   8   8   8   4   8   8
#     4  10  18  34  63  89 113 152 210 248 292 353
#     4  11  23  39  59  91 125 158 196 245 313 364
#     4  10  17  33  57  89 112 142 195 255 282 335
#     4  11  22  40  62  87 123 160 198 252 299 362
#     4  10  18  36  60  92 116 158 204 252 298 354
#     4  10  22  34  61  88 116 153 198 241 301 350
#     4  11  23  39  65  89 123 160 205 254 298 361
#
# _framework density 19.789947999999999
#
# number of rings (size 3 to 8) (size 9 to 14) (size 15 to 20)
#    0.000    1.538    3.846    2.308    4.308    0.000 
#    1.385    0.000    0.000    1.846    0.000    0.000 
#    0.000    0.000    0.000    0.000    0.000    0.000 
#
# Total GULP energy -322280.970616 kJ/mol
# GULP energy per Si atom -12395.421947 kJ/mol
# Density = 1.974491 g / cm^3
# Si number density = 19.789948 Si / 1000 Ang^3
#
#
#
# Elastic Constant Matrix: (Units=GPa)
#
#
# Indices 1 2 3 4 5 6 
#
# 1 71.9140 24.5484 34.9240 0.0000 16.5370 0.0000
# 2 24.5484 81.5510 34.7383 0.0000 2.6648 0.0000
# 3 34.9240 34.7383 118.1822 0.0000 6.9530 0.0000
# 4 0.0000 0.0000 0.0000 29.4076 0.0000 2.9183
# 5 16.5370 2.6648 6.9530 0.0000 37.2834 0.0000
# 6 0.0000 0.0000 0.0000 2.9183 0.0000 25.2731
#
#
#
# Elastic Compliance Matrix: (Units=1/GPa)
#
#
# Indices 1 2 3 4 5 6 
#
# 1 0.018817 -0.003704 -0.004041 0.000000 -0.007328 0.000000
# 2 -0.003704 0.014748 -0.003312 0.000000 0.001206 0.000000
# 3 -0.004041 -0.003312 0.010626 0.000000 0.000047 0.000000
# 4 0.000000 0.000000 0.000000 0.034399 0.000000 -0.003972
# 5 -0.007328 0.001206 0.000047 0.000000 0.029977 0.000000
# 6 0.000000 0.000000 0.000000 -0.003972 0.000000 0.040026
#
#
# Mechanical properties :
#
#
# Convention : Reuss Voigt Hill
#
# Bulk Modulus (GPa) = 45.29059 51.11873 48.20466
# Shear Modulus (GPa) = 28.07942 30.22194 29.15068
#
# Velocity S-wave (km/s) = 3.77088 3.91210 3.84214
# Velocity P-wave (km/s) = 6.47261 6.80388 6.64031
#
# Compressibility (1/GPa) = 0.02207964
#
# Stress axis : x y z
#
# Youngs Moduli (GPa) = 53.14254 67.80415 94.10635
#
# Poissons Ratio (x) = 0.25112 0.38028
# Poissons Ratio (y) = 0.19682 0.31164
# Poissons Ratio (z) = 0.21475 0.22454
#
# Static dielectric constant tensor:
#      x y z
#    x 3.449250 0.000000 0.001780 
#    y 0.000000 3.304870 0.000000 
#    z 0.001780 0.000000 3.877240 
# 
# 
# High freq. dielectric constant tensor:
#      x y z
#    x 1.763580 0.000000 0.002790 
#    y 0.000000 1.746090 0.000000 
#    z 0.002790 0.000000 1.787710 
# 
# From -- ./inp_files/111508.got.cif
#   From: 2010.06.25/outbox.cif.g09.slc.cpg/sg15_56_cif.got.tgz:111508.got - 2010.06.28 07:06:18.
