data_PCOD8130959
_publ_section_title
;
Structure prediction by ZEFSAII (Michael W. Deem and Ramdas Pophale) SiO2 
 PCOD8130959
Probable space group: C 2/C
;
_chemical_formula_sum "Si O2"
_cell_formula_units_Z 60
_cell_length_a 9.080938
_cell_length_b 25.126293
_cell_length_c 18.056527
_cell_angle_alpha 90.000000
_cell_angle_beta 55.968671
_cell_angle_gamma 90.000000
_cell_volume 3414.344164
_symmetry_space_group_name_H-M "C 2/C"
_symmetry_group_IT_number 15
_symmetry_cell_setting 'monoclinic'
loop_
_space_group_symop_operation_xyz
x,y,z
-x,y,1/2-z
-x,-y,-z
x,-y,1/2+z
1/2+x,1/2+y,z
1/2-x,1/2+y,1/2-z
1/2-x,1/2-y,-z
1/2+x,1/2-y,1/2+z
loop_
_atom_site_type_symbol
_atom_site_label
_atom_site_fract_x
_atom_site_fract_y
_atom_site_fract_z
Si Si1 0.818677 0.240229 0.561650
Si Si2 0.009358 0.340188 0.575048
Si Si3 0.659327 0.545411 0.256777
Si Si4 0.000000 0.244641 0.250000
Si Si5 0.226386 0.836975 0.770548
Si Si6 0.001400 0.461577 0.570410
Si Si7 0.351724 0.461460 0.568696
Si Si8 0.632601 0.658608 0.459614
O O1 0.750000 0.250000 0.500000
O O2 0.654800 0.223148 0.662191
O O3 0.909539 0.296663 0.554313
O O4 0.959192 0.192732 0.525706
O O5 0.984158 0.399812 0.549056
O O6 0.220686 0.329031 0.518521
O O7 0.924827 0.335843 0.681211
O O8 0.500000 0.522966 0.250000
O O9 0.636903 0.608735 0.268044
O O10 0.668140 0.525163 0.338771
O O11 0.835599 0.524031 0.168226
O O12 0.901558 0.210040 0.217186
O O13 0.236902 0.829005 0.854840
O O14 0.171184 0.471337 0.574478
O O15 0.000000 0.500000 0.500000
O O16 0.500000 0.500000 0.500000
O O17 0.424054 0.402727 0.529416
#
# Coordination Sequence:
#
# PCOD8130959 Si02
#       8
#     8   8   8   4   8   8   8   8
#     4  11  21  33  55  78 109 139 180 218 266 321
#     4   9  20  33  53  80 109 137 176 222 269 318
#     4  10  18  30  54  81 108 137 174 223 273 316
#     4  10  18  32  48  80 110 132 174 220 262 304
#     4   9  16  29  52  79 106 132 173 222 266 308
#     4  10  20  35  55  81 110 141 178 225 275 324
#     4  10  21  35  55  79 108 141 185 226 267 319
#     4  10  19  34  54  78 106 143 175 219 271 317
#
# _framework density 17.572921999999998
#
# number of rings (size 3 to 8) (size 9 to 14) (size 15 to 20)
#    0.000    2.133    2.000    2.000    0.000    4.267 
#    0.000    0.000    5.867    0.000    0.000    0.000 
#    0.000    0.000    0.000    0.000    0.000    0.000 
#
# Total GULP energy -371727.088295 kJ/mol
# GULP energy per Si atom -12390.902943 kJ/mol
# Density = 1.753293 g / cm^3
# Si number density = 17.572922 Si / 1000 Ang^3
#
#
#
# Elastic Constant Matrix: (Units=GPa)
#
#
# Indices 1 2 3 4 5 6 
#
# 1 124.8179 55.2037 70.1055 0.0000 -5.4680 0.0000
# 2 55.2037 81.6865 70.5441 0.0000 -5.9968 0.0000
# 3 70.1055 70.5441 134.6729 0.0000 -7.2106 0.0000
# 4 0.0000 0.0000 0.0000 30.7509 0.0000 0.7942
# 5 -5.4680 -5.9968 -7.2106 0.0000 32.6082 0.0000
# 6 0.0000 0.0000 0.0000 0.7942 0.0000 13.3739
#
#
#
# Elastic Compliance Matrix: (Units=1/GPa)
#
#
# Indices 1 2 3 4 5 6 
#
# 1 0.012396 -0.005106 -0.003762 0.000000 0.000308 0.000000
# 2 -0.005106 0.024534 -0.010117 0.000000 0.001418 0.000000
# 3 -0.003762 -0.010117 0.014724 0.000000 0.000764 0.000000
# 4 0.000000 0.000000 0.000000 0.032569 0.000000 -0.001934
# 5 0.000308 0.001418 0.000764 0.000000 0.031149 0.000000
# 6 0.000000 0.000000 0.000000 -0.001934 0.000000 0.074887
#
#
# Mechanical properties :
#
#
# Convention : Reuss Voigt Hill
#
# Bulk Modulus (GPa) = 73.07839 81.43153 77.25496
# Shear Modulus (GPa) = 21.47838 25.03487 23.25663
#
# Velocity S-wave (km/s) = 3.49985 3.77852 3.64185
# Velocity P-wave (km/s) = 7.61630 8.09173 7.85761
#
# Compressibility (1/GPa) = 0.01368394
#
# Stress axis : x y z
#
# Youngs Moduli (GPa) = 80.66876 40.75958 67.91475
#
# Poissons Ratio (x) = 0.20812 0.25549
# Poissons Ratio (y) = 0.41190 0.68712
# Poissons Ratio (z) = 0.30347 0.41238
#
# Static dielectric constant tensor:
#      x y z
#    x 3.067980 0.000000 0.074340 
#    y 0.000000 3.144490 0.000000 
#    z 0.074340 0.000000 3.201130 
# 
# 
# High freq. dielectric constant tensor:
#      x y z
#    x 1.696200 0.000000 -0.006700 
#    y 0.000000 1.652870 0.000000 
#    z -0.006700 0.000000 1.677230 
# 
# From -- ./inp_files/137397.got.cif
#   From: 2010.06.25/outbox.cif.g09.slc.cpg/sg15_69_cif.got.tgz:137397.got - 2010.06.28 07:06:18.
