data_PCOD8130578
_publ_section_title
;
Structure prediction by ZEFSAII (Michael W. Deem and Ramdas Pophale) SiO2 
 PCOD8130578
Probable space group: C 2/C
;
_chemical_formula_sum "Si O2"
_cell_formula_units_Z 56
_cell_length_a 7.392449
_cell_length_b 23.049055
_cell_length_c 13.069173
_cell_angle_alpha 90.000000
_cell_angle_beta 100.466202
_cell_angle_gamma 90.000000
_cell_volume 2189.793154
_symmetry_space_group_name_H-M "C 2/C"
_symmetry_group_IT_number 15
_symmetry_cell_setting 'monoclinic'
loop_
_space_group_symop_operation_xyz
x,y,z
-x,y,1/2-z
-x,-y,-z
x,-y,1/2+z
1/2+x,1/2+y,z
1/2-x,1/2+y,1/2-z
1/2-x,1/2-y,-z
1/2+x,1/2-y,1/2+z
loop_
_atom_site_type_symbol
_atom_site_label
_atom_site_fract_x
_atom_site_fract_y
_atom_site_fract_z
Si Si1 0.309716 0.575083 0.428598
Si Si2 0.309153 0.986010 0.766065
Si Si3 0.420847 0.086708 0.904604
Si Si4 0.344135 0.198083 0.141130
Si Si5 0.713516 0.588100 0.449590
Si Si6 0.810565 0.205213 0.166940
Si Si7 0.977072 0.716209 0.944454
O O1 0.320510 0.522930 0.345940
O O2 0.194450 0.557307 0.515532
O O3 0.215352 0.631257 0.368941
O O4 0.518457 0.583996 0.485794
O O5 0.500000 0.956018 0.750000
O O6 0.224931 0.953686 0.853880
O O7 0.349726 0.054059 0.795465
O O8 0.393806 0.155914 0.891610
O O9 0.634361 0.073142 0.949503
O O10 0.361879 0.211605 0.266862
O O11 0.173039 0.234892 0.085580
O O12 0.508340 0.210804 0.072466
O O13 0.739389 0.653996 0.415935
O O14 0.157535 0.263864 0.398059
O O15 0.000000 0.191299 0.250000
#
# Coordination Sequence:
#
# PCOD8130578 Si02
#       7
#     8   8   8   8   8   8   8
#     4  11  22  45  72 100 136 184 243 299 351 420
#     4  12  25  45  69  99 140 184 245 295 351 423
#     4  11  27  44  66 107 143 188 233 298 369 434
#     4   9  17  35  65 100 130 178 237 287 346 427
#     4  12  22  42  71 100 137 176 244 302 344 421
#     4  10  17  34  66 100 130 185 240 281 355 422
#     4   9  19  36  62  98 143 176 222 297 364 422
#
# _framework density 25.573191999999999
#
# number of rings (size 3 to 8) (size 9 to 14) (size 15 to 20)
#    0.000    1.429    5.714    0.857    0.000    2.857 
#    2.571    0.000    0.000    0.000    0.000    0.000 
#    0.000    0.000    0.000    0.143    0.000    0.000 
#
# Total GULP energy -347026.031119 kJ/mol
# GULP energy per Si atom -12393.786826 kJ/mol
# Density = 2.551499 g / cm^3
# Si number density = 25.573192 Si / 1000 Ang^3
#
#
#
# Elastic Constant Matrix: (Units=GPa)
#
#
# Indices 1 2 3 4 5 6 
#
# 1 120.1384 37.4667 57.8707 0.0000 -20.4726 0.0000
# 2 37.4667 124.8157 76.6253 0.0000 -14.3546 0.0000
# 3 57.8707 76.6253 119.2424 0.0000 -15.3863 0.0000
# 4 0.0000 0.0000 0.0000 42.9298 0.0000 -0.0494
# 5 -20.4726 -14.3546 -15.3863 0.0000 27.9073 0.0000
# 6 0.0000 0.0000 0.0000 -0.0494 0.0000 34.2455
#
#
#
# Elastic Compliance Matrix: (Units=1/GPa)
#
#
# Indices 1 2 3 4 5 6 
#
# 1 0.011699 0.000307 -0.005111 0.000000 0.005923 0.000000
# 2 0.000307 0.013376 -0.008427 0.000000 0.002459 0.000000
# 3 -0.005111 -0.008427 0.016406 0.000000 0.000961 0.000000
# 4 0.000000 0.000000 0.000000 0.023294 0.000000 0.000034
# 5 0.005923 0.002459 0.000961 0.000000 0.041973 0.000000
# 6 0.000000 0.000000 0.000000 0.000034 0.000000 0.029201
#
#
# Mechanical properties :
#
#
# Convention : Reuss Voigt Hill
#
# Bulk Modulus (GPa) = 66.58191 78.68019 72.63105
# Shear Modulus (GPa) = 29.86560 33.83209 31.84885
#
# Velocity S-wave (km/s) = 3.42109 3.64119 3.53285
# Velocity P-wave (km/s) = 6.45736 6.96499 6.71597
#
# Compressibility (1/GPa) = 0.01501909
#
# Stress axis : x y z
#
# Youngs Moduli (GPa) = 85.47619 74.76129 60.95365
#
# Poissons Ratio (x) = -0.02294 0.31152
# Poissons Ratio (y) = -0.02623 0.51366
# Poissons Ratio (z) = 0.43686 0.63001
#
# Static dielectric constant tensor:
#      x y z
#    x 5.082180 0.000000 -0.456330 
#    y 0.000000 4.586530 0.000000 
#    z -0.456330 0.000000 5.172410 
# 
# 
# High freq. dielectric constant tensor:
#      x y z
#    x 2.047310 0.000000 -0.010870 
#    y 0.000000 2.009110 0.000000 
#    z -0.010870 0.000000 2.031900 
# 
# From -- ./inp_files/136438.got.cif
#   From: 2010.06.25/outbox.cif.g09.slc.cpg/sg15_69_cif.got.tgz:136438.got - 2010.06.28 07:06:18.
