data_PCOD8130123
_publ_section_title
;
Structure prediction by ZEFSAII (Michael W. Deem and Ramdas Pophale) SiO2 
 PCOD8130123
Probable space group: C 2/C
;
_chemical_formula_sum "Si O2"
_cell_formula_units_Z 52
_cell_length_a 21.985105
_cell_length_b 9.400808
_cell_length_c 15.072073
_cell_angle_alpha 90.000000
_cell_angle_beta 109.313948
_cell_angle_gamma 90.000000
_cell_volume 2939.747897
_symmetry_space_group_name_H-M "C 2/C"
_symmetry_group_IT_number 15
_symmetry_cell_setting 'monoclinic'
loop_
_space_group_symop_operation_xyz
x,y,z
-x,y,1/2-z
-x,-y,-z
x,-y,1/2+z
1/2+x,1/2+y,z
1/2-x,1/2+y,1/2-z
1/2-x,1/2-y,-z
1/2+x,1/2-y,1/2+z
loop_
_atom_site_type_symbol
_atom_site_label
_atom_site_fract_x
_atom_site_fract_y
_atom_site_fract_z
Si Si1 0.327474 0.447255 0.430689
Si Si2 0.180074 0.138857 0.236551
Si Si3 0.383509 0.373111 0.624698
Si Si4 0.822899 0.631279 0.372870
Si Si5 0.000000 0.291512 0.250000
Si Si6 0.313729 0.086950 0.566098
Si Si7 0.883551 0.562552 0.767267
O O1 0.338605 0.572961 0.366754
O O2 0.378671 0.474705 0.536388
O O3 0.341098 0.296201 0.390832
O O4 0.256951 0.454957 0.437849
O O5 0.136829 0.057373 0.290964
O O6 0.254963 0.113094 0.291105
O O7 0.163067 0.306261 0.227248
O O8 0.454350 0.305134 0.665713
O O9 0.326290 0.256181 0.581006
O O10 0.824014 0.547383 0.467721
O O11 0.877273 0.561103 0.336446
O O12 0.957746 0.387159 0.296884
O O13 0.362977 0.008701 0.658113
#
# Coordination Sequence:
#
# PCOD8130123 Si02
#       7
#     8   8   8   8   4   8   8
#     4  11  17  29  50  75  99 125 163 198 248 290
#     4  10  17  29  48  75  99 126 159 201 248 286
#     4   9  17  32  49  69  96 133 169 192 227 305
#     4  11  16  29  50  76  98 125 160 205 246 288
#     4   8  18  36  52  66  94 142 168 190 232 288
#     4   9  16  28  48  71  98 127 159 189 244 299
#     4  10  20  33  50  71 101 127 166 201 236 293
#
# _framework density 17.688593000000001
#
# number of rings (size 3 to 8) (size 9 to 14) (size 15 to 20)
#    0.000    2.462    6.154    0.923    0.000    0.000 
#    0.000   12.308    0.000    3.692    0.000    0.000 
#    0.000    0.000    0.000    0.000    0.000    0.000 
#
# Total GULP energy -322170.257382 kJ/mol
# GULP energy per Si atom -12391.163745 kJ/mol
# Density = 1.764833 g / cm^3
# Si number density = 17.688593 Si / 1000 Ang^3
#
#
#
# Elastic Constant Matrix: (Units=GPa)
#
#
# Indices 1 2 3 4 5 6 
#
# 1 82.3606 4.8460 11.5406 0.0000 4.2086 0.0000
# 2 4.8460 18.8028 4.5998 0.0000 -2.6745 0.0000
# 3 11.5406 4.5998 55.8794 0.0000 -8.8690 0.0000
# 4 0.0000 0.0000 0.0000 30.1590 0.0000 -8.0647
# 5 4.2086 -2.6745 -8.8690 0.0000 20.8193 0.0000
# 6 0.0000 0.0000 0.0000 -8.0647 0.0000 16.9563
#
#
#
# Elastic Compliance Matrix: (Units=1/GPa)
#
#
# Indices 1 2 3 4 5 6 
#
# 1 0.012989 -0.003207 -0.003111 0.000000 -0.004363 0.000000
# 2 -0.003207 0.055648 -0.002875 0.000000 0.006572 0.000000
# 3 -0.003111 -0.002875 0.020181 0.000000 0.008856 0.000000
# 4 0.000000 0.000000 0.000000 0.037989 0.000000 0.018068
# 5 -0.004363 0.006572 0.008856 0.000000 0.053531 0.000000
# 6 0.000000 0.000000 0.000000 0.018068 0.000000 0.067569
#
#
# Mechanical properties :
#
#
# Convention : Reuss Voigt Hill
#
# Bulk Modulus (GPa) = 14.19828 22.11283 18.15555
# Shear Modulus (GPa) = 17.25495 22.65734 19.95615
#
# Velocity S-wave (km/s) = 3.12666 3.58285 3.36250
# Velocity P-wave (km/s) = 4.59118 5.44464 5.03602
#
# Compressibility (1/GPa) = 0.07043109
#
# Stress axis : x y z
#
# Youngs Moduli (GPa) = 76.98627 17.96997 49.55259
#
# Poissons Ratio (x) = 0.05763 0.15417
# Poissons Ratio (y) = 0.24691 0.14248
# Poissons Ratio (z) = 0.23952 0.05167
#
# Static dielectric constant tensor:
#      x y z
#    x 3.078570 0.000000 -0.064470 
#    y 0.000000 2.826890 0.000000 
#    z -0.064470 0.000000 3.822250 
# 
# 
# High freq. dielectric constant tensor:
#      x y z
#    x 1.665480 0.000000 -0.003480 
#    y 0.000000 1.628630 0.000000 
#    z -0.003480 0.000000 1.704190 
# 
# From -- ./inp_files/166934.got.cif
#   From: 2010.06.25/outbox.cif.g09.slc.cpg/sg15_84_cif.got.tgz:166934.got - 2010.06.28 07:06:18.
