data_PCOD8130366
_publ_section_title
;
Structure prediction by ZEFSAII (Michael W. Deem and Ramdas Pophale) SiO2 
 PCOD8130366
Probable space group: C 2/C
;
_chemical_formula_sum "Si O2"
_cell_formula_units_Z 60
_cell_length_a 10.747134
_cell_length_b 25.806297
_cell_length_c 16.643725
_cell_angle_alpha 90.000000
_cell_angle_beta 43.078971
_cell_angle_gamma 90.000000
_cell_volume 3152.776900
_symmetry_space_group_name_H-M "C 2/C"
_symmetry_group_IT_number 15
_symmetry_cell_setting 'monoclinic'
loop_
_space_group_symop_operation_xyz
x,y,z
-x,y,1/2-z
-x,-y,-z
x,-y,1/2+z
1/2+x,1/2+y,z
1/2-x,1/2+y,1/2-z
1/2-x,1/2-y,-z
1/2+x,1/2-y,1/2+z
loop_
_atom_site_type_symbol
_atom_site_label
_atom_site_fract_x
_atom_site_fract_y
_atom_site_fract_z
Si Si1 0.958391 0.660809 0.096185
Si Si2 0.500000 0.908476 0.250000
Si Si3 0.855477 0.147564 0.977998
Si Si4 0.702144 0.492068 0.370098
Si Si5 0.408611 0.732987 0.705204
Si Si6 0.815854 0.605530 0.298696
Si Si7 0.106786 0.931849 0.272967
Si Si8 0.395882 0.849408 0.137955
O O1 0.883049 0.713429 0.171010
O O2 0.825549 0.616712 0.198254
O O3 0.166626 0.649953 0.020054
O O4 0.946217 0.659024 0.004290
O O5 0.322900 0.945136 0.351875
O O6 0.475210 0.870554 0.185062
O O7 0.958277 0.200824 0.914922
O O8 0.969774 0.098712 0.894780
O O9 0.838953 0.138802 0.082159
O O10 0.500000 0.500000 0.500000
O O11 0.807415 0.545589 0.326253
O O12 0.691561 0.479592 0.280684
O O13 0.500000 0.739713 0.750000
O O14 0.212361 0.704792 0.801900
O O15 0.000000 0.628081 0.250000
O O16 0.258158 0.892513 0.168039
O O17 0.000000 0.957248 0.250000
#
# Coordination Sequence:
#
# PCOD8130366 Si02
#       8
#     8   4   8   8   8   8   8   8
#     4  11  21  33  56  86 126 151 187 258 308 349
#     4  10  24  44  62  86 114 166 214 244 296 370
#     4  10  17  32  53  81 126 148 187 238 299 365
#     4  11  21  39  63  84 118 159 205 250 301 360
#     4  11  20  33  59  92 118 156 197 243 307 369
#     4  10  21  34  52  88 122 156 189 243 298 356
#     4  10  18  34  57  83 111 152 196 247 298 364
#     4  10  21  39  58  82 118 156 200 244 301 356
#
# _framework density 19.030843000000001
#
# number of rings (size 3 to 8) (size 9 to 14) (size 15 to 20)
#    0.000    1.600    4.667    2.400    1.867    0.000 
#    2.400    2.000    0.000    0.000    0.000    0.000 
#    0.000    0.000    0.000    0.000    0.000    0.000 
#
# Total GULP energy -371687.189915 kJ/mol
# GULP energy per Si atom -12389.572997 kJ/mol
# Density = 1.898753 g / cm^3
# Si number density = 19.030843 Si / 1000 Ang^3
#
#
#
# Elastic Constant Matrix: (Units=GPa)
#
#
# Indices 1 2 3 4 5 6 
#
# 1 80.6834 26.3189 36.2380 0.0000 15.1622 0.0000
# 2 26.3189 80.1526 46.0847 0.0000 15.1651 0.0000
# 3 36.2380 46.0847 120.3504 0.0001 24.6400 0.0000
# 4 0.0000 0.0000 0.0001 -19.1732 0.0000 14.2977
# 5 15.1622 15.1651 24.6400 0.0000 27.6651 0.0000
# 6 0.0000 0.0000 0.0000 14.2977 0.0000 16.0217
#
#
#
# Elastic Compliance Matrix: (Units=1/GPa)
#
#
# Indices 1 2 3 4 5 6 
#
# 1 0.015309 -0.002628 -0.002667 0.000000 -0.004574 0.000000
# 2 -0.002628 0.016830 -0.004965 0.000000 -0.003364 0.000000
# 3 -0.002667 -0.004965 0.012422 0.000000 -0.006881 0.000000
# 4 0.000000 0.000000 0.000000 -0.031316 0.000000 0.027946
# 5 -0.004574 -0.003364 -0.006881 0.000000 0.046626 0.000000
# 6 0.000000 0.000000 0.000000 0.027946 0.000000 0.037476
#
#
# Mechanical properties :
#
#
# Convention : Reuss Voigt Hill
#
# Bulk Modulus (GPa) = 41.59408 55.38553 48.48980
# Shear Modulus (GPa) = 39.72076 16.40570 28.06323
#
# Velocity S-wave (km/s) = 4.57352 2.93927 3.84424
# Velocity P-wave (km/s) = 7.05642 6.37850 6.72601
#
# Compressibility (1/GPa) = 0.02404188
#
# Stress axis : x y z
#
# Youngs Moduli (GPa) = 65.32225 59.41769 80.50394
#
# Poissons Ratio (x) = 0.15615 0.21467
# Poissons Ratio (y) = 0.17167 0.39967
# Poissons Ratio (z) = 0.17419 0.29499
#
# Static dielectric constant tensor:
#      x y z
#    x 3.358040 0.000000 0.163150 
#    y 0.000000 3.476610 0.000000 
#    z 0.163150 0.000000 3.842680 
# 
# 
# High freq. dielectric constant tensor:
#      x y z
#    x 1.697990 0.000000 0.011650 
#    y 0.000000 1.739570 0.000000 
#    z 0.011650 0.000000 1.752470 
# 
# From -- ./inp_files/174979.got.cif
#   From: 2010.06.25/outbox.cif.g09.slc.cpg/sg15_88_cif.got.tgz:174979.got - 2010.06.28 07:06:18.
