data_PCOD8130197
_publ_section_title
;
Structure prediction by ZEFSAII (Michael W. Deem and Ramdas Pophale) SiO2 
 PCOD8130197
Probable space group: C 2/C
;
_chemical_formula_sum "Si O2"
_cell_formula_units_Z 52
_cell_length_a 13.703525
_cell_length_b 25.228873
_cell_length_c 9.659819
_cell_angle_alpha 90.000000
_cell_angle_beta 124.071116
_cell_angle_gamma 90.000000
_cell_volume 2766.363646
_symmetry_space_group_name_H-M "C 2/C"
_symmetry_group_IT_number 15
_symmetry_cell_setting 'monoclinic'
loop_
_space_group_symop_operation_xyz
x,y,z
-x,y,1/2-z
-x,-y,-z
x,-y,1/2+z
1/2+x,1/2+y,z
1/2-x,1/2+y,1/2-z
1/2-x,1/2-y,-z
1/2+x,1/2-y,1/2+z
loop_
_atom_site_type_symbol
_atom_site_label
_atom_site_fract_x
_atom_site_fract_y
_atom_site_fract_z
Si Si1 0.804594 0.942908 0.229351
Si Si2 0.585429 0.452840 0.704907
Si Si3 0.025717 0.840730 0.564195
Si Si4 0.306108 0.693464 0.070413
Si Si5 0.500000 0.370650 0.250000
Si Si6 0.578213 0.005780 0.428335
Si Si7 0.712866 0.909818 0.444311
O O1 0.887040 0.906256 0.200361
O O2 0.752579 0.912083 0.316975
O O3 0.870081 0.995655 0.345302
O O4 0.698062 0.961935 0.045399
O O5 0.500000 0.478228 0.750000
O O6 0.523550 0.405925 0.568373
O O7 0.689346 0.425161 0.868162
O O8 0.135258 0.812885 0.729981
O O9 0.905485 0.819137 0.534558
O O10 0.032126 0.831186 0.404023
O O11 0.250000 0.750000 0.000000
O O12 0.196048 0.652788 0.963220
O O13 0.500000 0.035924 0.250000
O O14 0.601210 0.946610 0.385246
O O15 0.500000 0.000000 0.500000
#
# Coordination Sequence:
#
# PCOD8130197 Si02
#       7
#     8   8   8   8   4   8   8
#     4  11  22  31  59  92 123 167 191 234 319 370
#     4  10  17  30  52  82 129 149 187 231 292 363
#     4  10  21  37  56  92 122 151 185 262 307 359
#     4  10  20  41  64  83 112 152 211 253 305 358
#     4  12  22  34  62  94 130 142 190 254 332 370
#     4  11  23  39  53  79 126 172 207 240 279 361
#     4  10  20  36  56  87 115 156 207 248 288 352
#
# _framework density 18.797239000000001
#
# number of rings (size 3 to 8) (size 9 to 14) (size 15 to 20)
#    0.000    1.538    6.923    0.000    4.308    2.462 
#    2.769    0.769    0.000    0.000    2.000    0.000 
#    0.000    0.000    0.000    0.000    0.000    0.000 
#
# Total GULP energy -322141.960299 kJ/mol
# GULP energy per Si atom -12390.075396 kJ/mol
# Density = 1.875446 g / cm^3
# Si number density = 18.797239 Si / 1000 Ang^3
#
#
#
# Elastic Constant Matrix: (Units=GPa)
#
#
# Indices 1 2 3 4 5 6 
#
# 1 93.0885 30.5093 44.2558 0.0000 -8.3159 0.0000
# 2 30.5093 108.2833 45.9509 0.0000 2.5170 0.0000
# 3 44.2558 45.9509 98.1973 0.0000 -23.5889 0.0000
# 4 0.0000 0.0000 0.0000 22.5935 0.0000 4.7035
# 5 -8.3159 2.5170 -23.5889 0.0000 29.0135 0.0000
# 6 0.0000 0.0000 0.0000 4.7035 0.0000 17.7225
#
#
#
# Elastic Compliance Matrix: (Units=1/GPa)
#
#
# Indices 1 2 3 4 5 6 
#
# 1 0.013887 -0.001488 -0.005686 0.000000 -0.000513 0.000000
# 2 -0.001488 0.012832 -0.007088 0.000000 -0.007303 0.000000
# 3 -0.005686 -0.007088 0.019659 0.000000 0.014968 0.000000
# 4 0.000000 0.000000 0.000000 0.046849 0.000000 -0.012434
# 5 -0.000513 -0.007303 0.014968 0.000000 0.047123 0.000000
# 6 0.000000 0.000000 0.000000 -0.012434 0.000000 0.059725
#
#
# Mechanical properties :
#
#
# Convention : Reuss Voigt Hill
#
# Bulk Modulus (GPa) = 56.01028 60.11124 58.06076
# Shear Modulus (GPa) = 21.31735 25.78944 23.55340
#
# Velocity S-wave (km/s) = 3.37125 3.70804 3.54365
# Velocity P-wave (km/s) = 6.70936 7.09795 6.90639
#
# Compressibility (1/GPa) = 0.01785387
#
# Stress axis : x y z
#
# Youngs Moduli (GPa) = 72.00750 77.93000 50.86824
#
# Poissons Ratio (x) = 0.11597 0.28922
# Poissons Ratio (y) = 0.10716 0.36057
# Poissons Ratio (z) = 0.40942 0.55239
#
# Static dielectric constant tensor:
#      x y z
#    x 3.395560 0.000000 0.073760 
#    y 0.000000 3.464730 0.000000 
#    z 0.073760 0.000000 3.599710 
# 
# 
# High freq. dielectric constant tensor:
#      x y z
#    x 1.720380 0.000000 0.003870 
#    y 0.000000 1.695170 0.000000 
#    z 0.003870 0.000000 1.743850 
# 
# From -- ./inp_files/42327.got.cif
#   From: 2010.06.25/outbox.cif.g09.slc.cpg/sg15_22_cif.got.tgz:42327.got - 2010.06.28 07:06:18.
