data_PCOD8130246
_publ_section_title
;
Structure prediction by ZEFSAII (Michael W. Deem and Ramdas Pophale) SiO2 
 PCOD8130246
Probable space group: C 2/C
;
_chemical_formula_sum "Si O2"
_cell_formula_units_Z 64
_cell_length_a 11.605888
_cell_length_b 19.837127
_cell_length_c 17.365776
_cell_angle_alpha 90.000000
_cell_angle_beta 116.303449
_cell_angle_gamma 90.000000
_cell_volume 3584.116703
_symmetry_space_group_name_H-M "C 2/C"
_symmetry_group_IT_number 15
_symmetry_cell_setting 'monoclinic'
loop_
_space_group_symop_operation_xyz
x,y,z
-x,y,1/2-z
-x,-y,-z
x,-y,1/2+z
1/2+x,1/2+y,z
1/2-x,1/2+y,1/2-z
1/2-x,1/2-y,-z
1/2+x,1/2-y,1/2+z
loop_
_atom_site_type_symbol
_atom_site_label
_atom_site_fract_x
_atom_site_fract_y
_atom_site_fract_z
Si Si1 0.111533 0.478154 0.221741
Si Si2 0.867533 0.625288 0.901267
Si Si3 0.487711 0.397638 0.485075
Si Si4 0.380472 0.213187 0.109945
Si Si5 0.106602 0.235115 0.056111
Si Si6 0.571290 0.357503 0.344261
Si Si7 0.446646 0.073118 0.083110
Si Si8 0.289992 0.505158 0.408712
O O1 0.132241 0.409927 0.180902
O O2 0.239188 0.498569 0.306008
O O3 0.000000 0.465724 0.250000
O O4 0.075078 0.534716 0.147680
O O5 0.925631 0.700448 0.899535
O O6 0.722746 0.630718 0.889292
O O7 0.949509 0.586473 0.991851
O O8 0.494240 0.321496 0.522678
O O9 0.516525 0.393772 0.403044
O O10 0.348159 0.432518 0.454527
O O11 0.594674 0.441599 0.559987
O O12 0.244969 0.201289 0.114963
O O13 0.458658 0.276832 0.167030
O O14 0.451789 0.141388 0.136183
O O15 0.364508 0.227647 0.015435
O O16 0.500000 0.390459 0.250000
O O17 0.321373 0.027896 0.065831
#
# Coordination Sequence:
#
# PCOD8130246 Si02
#       8
#     8   8   8   8   8   8   8   8
#     4  10  22  33  48  72  97 132 166 208 247 288
#     4  10  18  33  50  73  96 129 169 203 249 291
#     4  10  17  31  49  72 101 135 163 192 246 302
#     4   8  14  26  43  71  99 118 154 195 248 290
#     4   8  14  27  49  68  93 124 155 199 235 291
#     4  10  18  27  47  75 106 130 158 204 243 292
#     4  10  17  33  51  71  99 130 165 204 247 293
#     4  10  19  30  48  72 104 131 163 195 241 302
#
# _framework density 17.856560999999999
#
# number of rings (size 3 to 8) (size 9 to 14) (size 15 to 20)
#    0.000    2.500    2.500    2.625    0.000    1.500 
#    0.000    0.000    0.000    3.000    3.250    0.000 
#    0.000    0.000    0.000    0.000    0.000    0.000 
#
# Total GULP energy -396441.889325 kJ/mol
# GULP energy per Si atom -12388.809041 kJ/mol
# Density = 1.781592 g / cm^3
# Si number density = 17.856561 Si / 1000 Ang^3
#
#
#
# Elastic Constant Matrix: (Units=GPa)
#
#
# Indices 1 2 3 4 5 6 
#
# 1 24.8556 25.8377 14.9138 0.0000 4.5477 0.0000
# 2 25.8377 111.0086 38.2959 0.0000 4.2283 0.0000
# 3 14.9138 38.2959 101.1166 0.0000 7.2910 0.0000
# 4 0.0000 0.0000 0.0000 18.4579 0.0000 -4.6170
# 5 4.5477 4.2283 7.2910 0.0000 24.0782 0.0000
# 6 0.0000 0.0000 0.0000 -4.6170 0.0000 20.0181
#
#
#
# Elastic Compliance Matrix: (Units=1/GPa)
#
#
# Indices 1 2 3 4 5 6 
#
# 1 0.055536 -0.011505 -0.003295 0.000000 -0.007471 0.000000
# 2 -0.011505 0.012755 -0.003199 0.000000 0.000902 0.000000
# 3 -0.003295 -0.003199 0.011758 0.000000 -0.002376 0.000000
# 4 0.000000 0.000000 0.000000 0.057494 0.000000 0.013260
# 5 -0.007471 0.000902 -0.002376 0.000000 0.043504 0.000000
# 6 0.000000 0.000000 0.000000 0.013260 0.000000 0.053013
#
#
# Mechanical properties :
#
#
# Convention : Reuss Voigt Hill
#
# Bulk Modulus (GPa) = 22.70054 43.89728 33.29891
# Shear Modulus (GPa) = 17.55971 23.03974 20.29973
#
# Velocity S-wave (km/s) = 3.13928 3.59593 3.37534
# Velocity P-wave (km/s) = 5.08728 6.47129 5.82057
#
# Compressibility (1/GPa) = 0.04405182
#
# Stress axis : x y z
#
# Youngs Moduli (GPa) = 18.00635 78.39847 85.04499
#
# Poissons Ratio (x) = 0.90196 0.28023
# Poissons Ratio (y) = 0.20716 0.27206
# Poissons Ratio (z) = 0.05933 0.25080
#
# Static dielectric constant tensor:
#      x y z
#    x 2.881880 0.000000 0.124390 
#    y 0.000000 3.668660 0.000000 
#    z 0.124390 0.000000 3.412230 
# 
# 
# High freq. dielectric constant tensor:
#      x y z
#    x 1.635070 0.000000 0.014770 
#    y 0.000000 1.702100 0.000000 
#    z 0.014770 0.000000 1.690190 
# 
# From -- ./inp_files/199995.got.cif
#   From: 2010.06.25/outbox.cif.g09.slc.cpg/sg15_100_cif.got.tgz:199995.got - 2010.06.28 07:06:18.
