data_PCOD8130961
_publ_section_title
;
Structure prediction by ZEFSAII (Michael W. Deem and Ramdas Pophale) SiO2 
 PCOD8130961
Probable space group: C 2/C
;
_chemical_formula_sum "Si O2"
_cell_formula_units_Z 52
_cell_length_a 8.462167
_cell_length_b 19.752805
_cell_length_c 21.591822
_cell_angle_alpha 90.000000
_cell_angle_beta 45.638875
_cell_angle_gamma 90.000000
_cell_volume 2580.320484
_symmetry_space_group_name_H-M "C 2/C"
_symmetry_group_IT_number 15
_symmetry_cell_setting 'monoclinic'
loop_
_space_group_symop_operation_xyz
x,y,z
-x,y,1/2-z
-x,-y,-z
x,-y,1/2+z
1/2+x,1/2+y,z
1/2-x,1/2+y,1/2-z
1/2-x,1/2-y,-z
1/2+x,1/2-y,1/2+z
loop_
_atom_site_type_symbol
_atom_site_label
_atom_site_fract_x
_atom_site_fract_y
_atom_site_fract_z
Si Si1 0.012236 0.854544 0.355501
Si Si2 0.472224 0.994142 0.103997
Si Si3 0.397912 0.231146 0.712979
Si Si4 0.269115 0.886230 0.408205
Si Si5 0.850499 0.184420 0.442339
Si Si6 0.457627 0.112697 0.497712
Si Si7 0.500000 0.459604 0.250000
O O1 0.139669 0.788860 0.292974
O O2 0.125657 0.882173 0.386274
O O3 0.755338 0.837376 0.439835
O O4 0.013215 0.915086 0.307398
O O5 0.628927 0.962354 0.114675
O O6 0.217329 0.006554 0.192726
O O7 0.565298 0.066932 0.057730
O O8 0.475427 0.937339 0.050423
O O9 0.500000 0.254388 0.750000
O O10 0.523298 0.164927 0.652479
O O11 0.426359 0.293257 0.656023
O O12 0.115278 0.869201 0.510933
O O13 0.750000 0.250000 0.500000
O O14 0.677930 0.157943 0.437466
#
# Coordination Sequence:
#
# PCOD8130961 Si02
#       7
#     8   8   8   8   8   8   4
#     4  10  19  31  56  83 111 141 196 245 278 347
#     4   9  17  32  52  78 111 143 182 232 291 348
#     4   9  17  32  53  79 102 144 194 237 276 337
#     4   9  17  32  53  80 111 143 186 233 294 348
#     4   9  18  34  54  74 108 150 190 236 287 335
#     4   9  19  33  51  80 111 142 188 233 285 355
#     4  10  18  30  54  84 108 146 190 236 284 344
#
# _framework density 20.152536999999999
#
# number of rings (size 3 to 8) (size 9 to 14) (size 15 to 20)
#    0.000    2.769    1.538    0.000    2.154    0.615 
#    1.385    6.923    0.000    0.000    0.000    0.000 
#    0.000    0.000    0.000    0.000    0.000    0.000 
#
# Total GULP energy -322126.357492 kJ/mol
# GULP energy per Si atom -12389.475288 kJ/mol
# Density = 2.010667 g / cm^3
# Si number density = 20.152537 Si / 1000 Ang^3
#
#
#
# Elastic Constant Matrix: (Units=GPa)
#
#
# Indices 1 2 3 4 5 6 
#
# 1 87.8705 30.3538 42.3217 0.0019 1.1745 0.0011
# 2 30.3538 54.5049 40.2548 0.0006 -3.3317 0.0002
# 3 42.3217 40.2548 112.3974 -0.0010 -7.4605 0.0001
# 4 0.0019 0.0006 -0.0010 20.7228 -0.0005 -3.7856
# 5 1.1745 -3.3317 -7.4605 -0.0005 29.4738 -0.0010
# 6 0.0011 0.0002 0.0001 -3.7856 -0.0010 22.8713
#
#
#
# Elastic Compliance Matrix: (Units=1/GPa)
#
#
# Indices 1 2 3 4 5 6 
#
# 1 0.015254 -0.005819 -0.003808 -0.000002 -0.002229 -0.000001
# 2 -0.005819 0.027175 -0.007447 -0.000001 0.001419 0.000000
# 3 -0.003808 -0.007447 0.013173 0.000001 0.002644 0.000001
# 4 -0.000002 -0.000001 0.000001 0.049760 0.000001 0.008236
# 5 -0.002229 0.001419 0.002644 0.000001 0.034847 0.000002
# 6 -0.000001 0.000000 0.000001 0.008236 0.000002 0.045086
#
#
# Mechanical properties :
#
#
# Convention : Reuss Voigt Hill
#
# Bulk Modulus (GPa) = 46.61100 53.40370 50.00735
# Shear Modulus (GPa) = 22.06578 24.06977 23.06777
#
# Velocity S-wave (km/s) = 3.31257 3.45973 3.38695
# Velocity P-wave (km/s) = 6.14900 6.52050 6.33747
#
# Compressibility (1/GPa) = 0.02145416
#
# Stress axis : x y z
#
# Youngs Moduli (GPa) = 65.55550 36.79916 75.91059
#
# Poissons Ratio (x) = 0.21414 0.28904
# Poissons Ratio (y) = 0.38148 0.56532
# Poissons Ratio (z) = 0.24961 0.27405
#
# Static dielectric constant tensor:
#      x y z
#    x 3.682080 0.000000 0.066240 
#    y 0.000000 3.460570 0.000000 
#    z 0.066240 0.000000 4.229180 
# 
# 
# High freq. dielectric constant tensor:
#      x y z
#    x 1.773500 0.000000 0.008070 
#    y 0.000000 1.744500 0.000000 
#    z 0.008070 0.000000 1.786940 
# 
# From -- ./inp_files/135992.got.cif
#   From: 2010.06.25/outbox.cif.g09.slc.cpg/sg15_68_cif.got.tgz:135992.got - 2010.06.28 07:06:18.
