data_PCOD8130387
_publ_section_title
;
Structure prediction by ZEFSAII (Michael W. Deem and Ramdas Pophale) SiO2 
 PCOD8130387
Probable space group: C 2/C
;
_chemical_formula_sum "Si O2"
_cell_formula_units_Z 64
_cell_length_a 13.900248
_cell_length_b 13.068723
_cell_length_c 27.788665
_cell_angle_alpha 90.000000
_cell_angle_beta 140.015908
_cell_angle_gamma 90.000000
_cell_volume 3243.748235
_symmetry_space_group_name_H-M "C 2/C"
_symmetry_group_IT_number 15
_symmetry_cell_setting 'monoclinic'
loop_
_space_group_symop_operation_xyz
x,y,z
-x,y,1/2-z
-x,-y,-z
x,-y,1/2+z
1/2+x,1/2+y,z
1/2-x,1/2+y,1/2-z
1/2-x,1/2-y,-z
1/2+x,1/2-y,1/2+z
loop_
_atom_site_type_symbol
_atom_site_label
_atom_site_fract_x
_atom_site_fract_y
_atom_site_fract_z
Si Si1 0.170911 0.501473 0.803017
Si Si2 0.712721 0.368650 0.072787
Si Si3 0.328458 0.687184 0.182243
Si Si4 0.932255 0.608050 0.577351
Si Si5 0.454404 0.234156 0.965654
Si Si6 0.164746 0.734811 0.296071
Si Si7 0.700071 0.171441 0.741615
Si Si8 0.542589 0.931942 0.561468
O O1 0.265864 0.528828 0.887197
O O2 0.186051 0.384570 0.792841
O O3 0.236700 0.566671 0.783788
O O4 0.000000 0.531813 0.750000
O O5 0.801699 0.273306 0.131204
O O6 0.769380 0.390549 0.039910
O O7 0.534525 0.344405 0.001708
O O8 0.500000 0.649671 0.250000
O O9 0.288698 0.733036 0.218781
O O10 0.221598 0.588347 0.133512
O O11 0.036262 0.661632 0.656592
O O12 0.983912 0.490192 0.586745
O O13 0.937856 0.672573 0.530400
O O14 0.284064 0.237525 0.883180
O O15 0.459960 0.177071 0.019902
O O16 0.184548 0.806036 0.257162
O O17 0.000000 0.760569 0.250000
O O18 0.500000 0.000000 0.500000
#
# Coordination Sequence:
#
# PCOD8130387 Si02
#       8
#     8   8   8   8   8   8   8   8
#     4  10  19  35  59  85 112 148 190 236 288 349
#     4  10  17  32  58  84 111 140 189 244 288 334
#     4  10  18  33  57  87 114 144 187 248 286 334
#     4  10  17  32  55  82 116 147 186 232 288 348
#     4   9  20  36  53  80 114 152 191 233 290 342
#     4  10  23  39  58  79 115 159 192 235 285 350
#     4  10  19  34  58  87 114 141 194 239 294 330
#     4   9  20  34  51  79 120 162 183 225 290 349
#
# _framework density 19.730260999999999
#
# number of rings (size 3 to 8) (size 9 to 14) (size 15 to 20)
#    0.000    2.250    2.500    1.125    1.750    0.500 
#    0.000    6.875    0.000    7.500    0.000    0.000 
#    0.000    0.000    0.000    0.000    0.000    0.000 
#
# Total GULP energy -396578.418430 kJ/mol
# GULP energy per Si atom -12393.075576 kJ/mol
# Density = 1.968535 g / cm^3
# Si number density = 19.730261 Si / 1000 Ang^3
#
#
#
# Elastic Constant Matrix: (Units=GPa)
#
#
# Indices 1 2 3 4 5 6 
#
# 1 84.2273 47.4900 48.3807 0.0000 9.1291 0.0000
# 2 47.4900 71.5022 27.6536 0.0000 7.9770 0.0000
# 3 48.3807 27.6536 107.8739 0.0000 12.3912 0.0000
# 4 0.0000 0.0000 0.0000 30.7171 0.0000 0.4051
# 5 9.1291 7.9770 12.3912 0.0000 26.5454 0.0000
# 6 0.0000 0.0000 0.0000 0.4051 0.0000 25.5063
#
#
#
# Elastic Compliance Matrix: (Units=1/GPa)
#
#
# Indices 1 2 3 4 5 6 
#
# 1 0.023053 -0.012491 -0.007035 0.000000 -0.000891 0.000000
# 2 -0.012491 0.022517 0.000120 0.000000 -0.002527 0.000000
# 3 -0.007035 0.000120 0.012807 0.000000 -0.003595 0.000000
# 4 0.000000 0.000000 0.000000 0.032562 0.000000 -0.000517
# 5 -0.000891 -0.002527 -0.003595 0.000000 0.040415 0.000000
# 6 0.000000 0.000000 0.000000 -0.000517 0.000000 0.039214
#
#
# Mechanical properties :
#
#
# Convention : Reuss Voigt Hill
#
# Bulk Modulus (GPa) = 51.10878 56.73913 53.92396
# Shear Modulus (GPa) = 23.15866 25.89235 24.52551
#
# Velocity S-wave (km/s) = 3.42974 3.62652 3.52950
# Velocity P-wave (km/s) = 6.45323 6.80848 6.63323
#
# Compressibility (1/GPa) = 0.01956611
#
# Stress axis : x y z
#
# Youngs Moduli (GPa) = 43.37874 44.41028 78.08082
#
# Poissons Ratio (x) = 0.55473 0.54927
# Poissons Ratio (y) = 0.54185 -0.00937
# Poissons Ratio (z) = 0.30515 -0.00533
#
# Static dielectric constant tensor:
#      x y z
#    x 3.646040 0.000000 -0.207140 
#    y 0.000000 3.725890 0.000000 
#    z -0.207140 0.000000 3.641520 
# 
# 
# High freq. dielectric constant tensor:
#      x y z
#    x 1.747810 0.000000 -0.015570 
#    y 0.000000 1.757910 0.000000 
#    z -0.015570 0.000000 1.770530 
# 
# From -- ./inp_files/293088.got.cif
#   From: 2010.06.25/outbox.cif.g09.slc.cpg/sg15_147_cif.got.tgz:293088.got - 2010.06.28 07:06:18.
