data_PCOD8130286
_publ_section_title
;
Structure prediction by ZEFSAII (Michael W. Deem and Ramdas Pophale) SiO2 
 PCOD8130286
Probable space group: C 2/C
;
_chemical_formula_sum "Si O2"
_cell_formula_units_Z 44
_cell_length_a 8.935043
_cell_length_b 18.136588
_cell_length_c 20.678040
_cell_angle_alpha 90.000000
_cell_angle_beta 45.685473
_cell_angle_gamma 90.000000
_cell_volume 2397.622092
_symmetry_space_group_name_H-M "C 2/C"
_symmetry_group_IT_number 15
_symmetry_cell_setting 'monoclinic'
loop_
_space_group_symop_operation_xyz
x,y,z
-x,y,1/2-z
-x,-y,-z
x,-y,1/2+z
1/2+x,1/2+y,z
1/2-x,1/2+y,1/2-z
1/2-x,1/2-y,-z
1/2+x,1/2-y,1/2+z
loop_
_atom_site_type_symbol
_atom_site_label
_atom_site_fract_x
_atom_site_fract_y
_atom_site_fract_z
Si Si1 0.000000 0.415955 0.750000
Si Si2 0.168769 0.146149 0.752995
Si Si3 0.820288 0.809917 0.892188
Si Si4 0.643098 0.146278 0.574734
Si Si5 0.707933 0.811348 0.782582
Si Si6 0.275438 0.942817 0.335286
O O1 0.041426 0.365813 0.799936
O O2 0.202129 0.468150 0.674098
O O3 0.394664 0.134025 0.652258
O O4 0.139222 0.228182 0.789039
O O5 0.121901 0.089086 0.826374
O O6 0.000000 0.127782 0.750000
O O7 0.787030 0.724331 0.917473
O O8 0.704983 0.827230 0.859739
O O9 0.065005 0.828203 0.815288
O O10 0.715612 0.860797 0.978600
O O11 0.771875 0.084861 0.577498
O O12 0.500000 0.904667 0.250000
#
# Coordination Sequence:
#
# PCOD8130286 Si02
#       6
#     4   8   8   8   8   8
#     4  10  20  34  52  76 108 138 168 214 272 302
#     4  10  17  31  55  77 100 132 180 216 252 302
#     4   9  18  31  56  76 105 137 176 215 253 315
#     4   9  16  33  54  80  99 137 178 215 256 302
#     4  10  18  33  51  80 105 137 172 214 262 309
#     4   8  17  33  53  68 101 139 168 207 257 312
#
# _framework density 18.351514999999999
#
# number of rings (size 3 to 8) (size 9 to 14) (size 15 to 20)
#    0.545    2.182    2.727    0.000    0.000    0.000 
#    3.273    4.545    0.000    0.000    0.000    0.000 
#    0.000    0.000    0.000    0.000    0.000    0.000 
#
# Total GULP energy -272669.978202 kJ/mol
# GULP energy per Si atom -12394.089918 kJ/mol
# Density = 1.830975 g / cm^3
# Si number density = 18.351515 Si / 1000 Ang^3
#
#
#
# Elastic Constant Matrix: (Units=GPa)
#
#
# Indices 1 2 3 4 5 6 
#
# 1 116.8941 46.0690 38.0941 0.0002 36.6829 -0.0003
# 2 46.0690 85.5478 26.7507 0.0032 19.1368 -0.0027
# 3 38.0941 26.7507 94.6176 -0.0011 29.0844 0.0002
# 4 0.0002 0.0032 -0.0011 12.0434 0.0013 9.6956
# 5 36.6829 19.1368 29.0844 0.0013 27.9279 -0.0039
# 6 -0.0003 -0.0027 0.0002 9.6956 -0.0039 30.2565
#
#
#
# Elastic Compliance Matrix: (Units=1/GPa)
#
#
# Indices 1 2 3 4 5 6 
#
# 1 0.015976 -0.004666 0.000522 0.000007 -0.018330 -0.000005
# 2 -0.004666 0.015308 -0.001631 -0.000006 -0.002662 0.000003
# 3 0.000522 -0.001631 0.015719 0.000007 -0.015937 -0.000005
# 4 0.000007 -0.000006 0.000007 0.111901 -0.000023 -0.035858
# 5 -0.018330 -0.002662 -0.015937 -0.000023 0.078304 0.000017
# 6 -0.000005 0.000003 -0.000005 -0.035858 0.000017 0.044541
#
#
# Mechanical properties :
#
#
# Convention : Reuss Voigt Hill
#
# Bulk Modulus (GPa) = 28.20765 57.65414 42.93090
# Shear Modulus (GPa) = 16.38717 26.45526 21.42122
#
# Velocity S-wave (km/s) = 2.99149 3.80094 3.42024
# Velocity P-wave (km/s) = 5.22839 7.12374 6.24835
#
# Compressibility (1/GPa) = 0.03545137
#
# Stress axis : x y z
#
# Youngs Moduli (GPa) = 62.59438 65.32719 63.61753
#
# Poissons Ratio (x) = 0.30482 -0.03318
# Poissons Ratio (y) = 0.29207 0.10376
# Poissons Ratio (z) = -0.03265 0.10655
#
# Static dielectric constant tensor:
#      x y z
#    x 3.237820 0.000000 0.258430 
#    y 0.000000 3.139920 0.000000 
#    z 0.258430 0.000000 3.299310 
# 
# 
# High freq. dielectric constant tensor:
#      x y z
#    x 1.702100 0.000000 0.029930 
#    y 0.000000 1.695480 0.000000 
#    z 0.029930 0.000000 1.691150 
# 
# From -- ./inp_files/135416.got.cif
#   From: 2010.06.25/outbox.cif.g09.slc.cpg/sg15_68_cif.got.tgz:135416.got - 2010.06.28 07:06:18.
