data_PCOD8130202
_publ_section_title
;
Structure prediction by ZEFSAII (Michael W. Deem and Ramdas Pophale) SiO2 
 PCOD8130202
Probable space group: C 2/C
;
_chemical_formula_sum "Si O2"
_cell_formula_units_Z 64
_cell_length_a 19.086238
_cell_length_b 13.513594
_cell_length_c 19.677467
_cell_angle_alpha 90.000000
_cell_angle_beta 134.803811
_cell_angle_gamma 90.000000
_cell_volume 3601.035504
_symmetry_space_group_name_H-M "C 2/C"
_symmetry_group_IT_number 15
_symmetry_cell_setting 'monoclinic'
loop_
_space_group_symop_operation_xyz
x,y,z
-x,y,1/2-z
-x,-y,-z
x,-y,1/2+z
1/2+x,1/2+y,z
1/2-x,1/2+y,1/2-z
1/2-x,1/2-y,-z
1/2+x,1/2-y,1/2+z
loop_
_atom_site_type_symbol
_atom_site_label
_atom_site_fract_x
_atom_site_fract_y
_atom_site_fract_z
Si Si1 0.998180 0.304207 0.930534
Si Si2 0.624673 0.811398 0.143611
Si Si3 0.061386 0.189264 0.728905
Si Si4 0.645882 0.905634 0.814436
Si Si5 0.771956 0.365375 0.762561
Si Si6 0.484720 0.092388 0.811298
Si Si7 0.263943 0.540656 0.670839
Si Si8 0.643579 0.960653 0.961904
O O1 0.002149 0.209137 0.882911
O O2 0.885645 0.343596 0.861917
O O3 0.066335 0.386612 0.943252
O O4 0.042103 0.272348 0.033850
O O5 0.710701 0.734710 0.217382
O O6 0.576365 0.835989 0.182590
O O7 0.671033 0.911285 0.145704
O O8 0.105161 0.294155 0.782709
O O9 0.141698 0.109926 0.761259
O O10 0.000000 0.144602 0.750000
O O11 0.731280 0.914216 0.815426
O O12 0.685026 0.922118 0.917559
O O13 0.563312 0.985724 0.739061
O O14 0.717669 0.436444 0.779282
O O15 0.500000 0.149424 0.750000
O O16 0.589955 0.066869 0.917395
O O17 0.238118 0.523564 0.574200
#
# Coordination Sequence:
#
# PCOD8130202 Si02
#       8
#     8   8   8   8   8   8   8   8
#     4  10  19  33  55  82 110 135 174 229 270 313
#     4  11  21  34  58  81 104 147 181 216 274 316
#     4  11  19  35  51  77 119 146 166 215 274 327
#     4  10  17  30  53  80 111 134 164 228 276 305
#     4  11  21  36  53  80 116 136 181 227 257 325
#     4  10  18  33  56  81 107 136 176 230 272 305
#     4  11  22  33  55  82 106 147 178 217 273 321
#     4  10  18  31  55  86 110 127 178 231 279 314
#
# _framework density 17.772665
#
# number of rings (size 3 to 8) (size 9 to 14) (size 15 to 20)
#    0.000    1.500    7.500    1.125    0.000    3.500 
#    0.000    1.250    0.000    8.250    0.000    0.000 
#    0.000    0.000    0.000    0.000    0.000    0.000 
#
# Total GULP energy -396599.763704 kJ/mol
# GULP energy per Si atom -12393.742616 kJ/mol
# Density = 1.773221 g / cm^3
# Si number density = 17.772665 Si / 1000 Ang^3
#
#
#
# Elastic Constant Matrix: (Units=GPa)
#
#
# Indices 1 2 3 4 5 6 
#
# 1 82.3513 20.4160 37.6010 0.0000 -14.2973 0.0000
# 2 20.4160 39.6671 28.0309 0.0000 -5.3458 0.0000
# 3 37.6010 28.0309 82.2915 0.0000 -18.5968 0.0000
# 4 0.0000 0.0000 0.0000 10.8050 0.0000 4.7429
# 5 -14.2973 -5.3458 -18.5968 0.0000 23.2198 0.0000
# 6 0.0000 0.0000 0.0000 4.7429 0.0000 26.3131
#
#
#
# Elastic Compliance Matrix: (Units=1/GPa)
#
#
# Indices 1 2 3 4 5 6 
#
# 1 0.016308 -0.004290 -0.004816 0.000000 0.005197 0.000000
# 2 -0.004290 0.034387 -0.010453 0.000000 -0.003096 0.000000
# 3 -0.004816 -0.010453 0.020389 0.000000 0.010958 0.000000
# 4 0.000000 0.000000 0.000000 0.100502 0.000000 -0.018115
# 5 0.005197 -0.003096 0.010958 0.000000 0.054330 0.000000
# 6 0.000000 0.000000 0.000000 -0.018115 0.000000 0.041269
#
#
# Mechanical properties :
#
#
# Convention : Reuss Voigt Hill
#
# Bulk Modulus (GPa) = 31.28220 41.82287 36.55253
# Shear Modulus (GPa) = 15.77499 19.95171 17.86335
#
# Velocity S-wave (km/s) = 2.98249 3.35417 3.17377
# Velocity P-wave (km/s) = 5.43138 6.21159 5.83454
#
# Compressibility (1/GPa) = 0.03196706
#
# Stress axis : x y z
#
# Youngs Moduli (GPa) = 61.32095 29.08081 49.04536
#
# Poissons Ratio (x) = 0.12475 0.23619
# Poissons Ratio (y) = 0.26306 0.51266
# Poissons Ratio (z) = 0.29531 0.30398
#
# Static dielectric constant tensor:
#      x y z
#    x 3.468570 0.000000 -0.345390 
#    y 0.000000 2.936180 0.000000 
#    z -0.345390 0.000000 3.425200 
# 
# 
# High freq. dielectric constant tensor:
#      x y z
#    x 1.687930 0.000000 -0.023780 
#    y 0.000000 1.649640 0.000000 
#    z -0.023780 0.000000 1.680830 
# 
# From -- ./inp_files/252586.got.cif
#   From: 2010.06.25/outbox.cif.g09.slc.cpg/sg15_127_cif.got.tgz:252586.got - 2010.06.28 07:06:18.
