data_PCOD8130754
_publ_section_title
;
Structure prediction by ZEFSAII (Michael W. Deem and Ramdas Pophale) SiO2 
 PCOD8130754
Probable space group: C 2/C
;
_chemical_formula_sum "Si O2"
_cell_formula_units_Z 48
_cell_length_a 26.201777
_cell_length_b 11.763231
_cell_length_c 19.244187
_cell_angle_alpha 90.000000
_cell_angle_beta 18.190903
_cell_angle_gamma 90.000000
_cell_volume 1851.687519
_symmetry_space_group_name_H-M "C 2/C"
_symmetry_group_IT_number 15
_symmetry_cell_setting 'monoclinic'
loop_
_space_group_symop_operation_xyz
x,y,z
-x,y,1/2-z
-x,-y,-z
x,-y,1/2+z
1/2+x,1/2+y,z
1/2-x,1/2+y,1/2-z
1/2-x,1/2-y,-z
1/2+x,1/2-y,1/2+z
loop_
_atom_site_type_symbol
_atom_site_label
_atom_site_fract_x
_atom_site_fract_y
_atom_site_fract_z
Si Si1 0.523470 0.121721 0.134728
Si Si2 0.072594 0.665578 0.447697
Si Si3 0.214293 0.580108 0.752059
Si Si4 0.392412 0.870727 0.447028
Si Si5 0.683860 0.291349 0.171254
Si Si6 0.054044 0.974414 0.852579
O O1 0.640377 0.137245 0.916927
O O2 0.622166 0.176180 0.073801
O O3 0.503086 0.987260 0.172988
O O4 0.353597 0.189257 0.335704
O O5 0.174788 0.553190 0.298047
O O6 0.115678 0.702689 0.471242
O O7 0.124880 0.761278 0.325669
O O8 0.875805 0.642261 0.696031
O O9 0.410988 0.591711 0.496236
O O10 0.500000 0.804394 0.250000
O O11 0.211916 0.893704 0.651317
O O12 0.590498 0.405515 0.267837
O O13 0.000000 0.000000 0.000000
#
# Coordination Sequence:
#
# PCOD8130754 Si02
#       6
#     8   8   8   8   8   8
#     4   9  18  30  49  80 105 133 167 214 262 298
#     4   9  17  30  51  77 104 130 174 216 259 297
#     4   9  16  30  50  77 102 131 171 221 253 298
#     4  10  21  36  52  73 110 146 172 200 265 326
#     4  10  18  27  51  81 103 124 171 228 252 286
#     4  11  18  33  52  81 102 135 178 213 256 302
#
# _framework density 25.922301999999998
#
# number of rings (size 3 to 8) (size 9 to 14) (size 15 to 20)
#    0.000    2.333    5.000    2.000    0.000    0.000 
#    0.000    4.167    0.000    1.000    0.000    0.000 
#    0.000    0.000    0.000    0.000    0.000    0.000 
#
# Total GULP energy -297482.035563 kJ/mol
# GULP energy per Si atom -12395.084815 kJ/mol
# Density = 2.586330 g / cm^3
# Si number density = 25.922302 Si / 1000 Ang^3
#
#
#
# Elastic Constant Matrix: (Units=GPa)
#
#
# Indices 1 2 3 4 5 6 
#
# 1 99.8075 5.5983 17.9692 -0.0009 -17.1912 0.0007
# 2 5.5983 67.2324 1.4172 0.0016 -16.6832 0.0006
# 3 17.9692 1.4172 119.3606 0.0010 -37.9609 0.0011
# 4 -0.0009 0.0016 0.0010 9.3017 0.0003 -3.4162
# 5 -17.1912 -16.6832 -37.9609 0.0003 47.9864 -0.0009
# 6 0.0007 0.0006 0.0011 -3.4162 -0.0009 28.0169
#
#
#
# Elastic Compliance Matrix: (Units=1/GPa)
#
#
# Indices 1 2 3 4 5 6 
#
# 1 0.010703 -0.000035 -0.000528 0.000001 0.003404 0.000000
# 2 -0.000035 0.016701 0.002204 -0.000003 0.007537 -0.000001
# 3 -0.000528 0.002204 0.011511 -0.000002 0.009683 0.000000
# 4 0.000001 -0.000003 -0.000002 0.112547 -0.000003 0.013723
# 5 0.003404 0.007537 0.009683 -0.000003 0.032339 0.000000
# 6 0.000000 -0.000001 0.000000 0.013723 0.000000 0.037366
#
#
# Mechanical properties :
#
#
# Convention : Reuss Voigt Hill
#
# Bulk Modulus (GPa) = 23.69937 37.37444 30.53690
# Shear Modulus (GPa) = 21.55634 34.48874 28.02254
#
# Velocity S-wave (km/s) = 2.88683 3.65151 3.29145
# Velocity P-wave (km/s) = 4.50267 5.67690 5.12354
#
# Compressibility (1/GPa) = 0.04219521
#
# Stress axis : x y z
#
# Youngs Moduli (GPa) = 93.43427 59.87834 86.87452
#
# Poissons Ratio (x) = 0.00212 0.04589
# Poissons Ratio (y) = 0.00330 -0.19148
# Poissons Ratio (z) = 0.04935 -0.13198
#
# Static dielectric constant tensor:
#      x y z
#    x 5.352370 0.000000 -0.670960 
#    y 0.000000 4.530200 0.000000 
#    z -0.670960 0.000000 5.343330 
# 
# 
# High freq. dielectric constant tensor:
#      x y z
#    x 2.036470 0.000000 -0.014860 
#    y 0.000000 2.027140 0.000000 
#    z -0.014860 0.000000 2.035970 
# 
# From -- ./inp_files/257729.got.cif
#   From: 2010.06.25/outbox.cif.g09.slc.cpg/sg15_129_cif.got.tgz:257729.got - 2010.06.28 07:06:18.
