data_PCOD8130012
_publ_section_title
;
Structure prediction by ZEFSAII (Michael W. Deem and Ramdas Pophale) SiO2 
 PCOD8130012
Probable space group: C 2/C
;
_chemical_formula_sum "Si O2"
_cell_formula_units_Z 56
_cell_length_a 10.734220
_cell_length_b 15.273726
_cell_length_c 23.750192
_cell_angle_alpha 90.000000
_cell_angle_beta 136.579932
_cell_angle_gamma 90.000000
_cell_volume 2676.427386
_symmetry_space_group_name_H-M "C 2/C"
_symmetry_group_IT_number 15
_symmetry_cell_setting 'monoclinic'
loop_
_space_group_symop_operation_xyz
x,y,z
-x,y,1/2-z
-x,-y,-z
x,-y,1/2+z
1/2+x,1/2+y,z
1/2-x,1/2+y,1/2-z
1/2-x,1/2-y,-z
1/2+x,1/2-y,1/2+z
loop_
_atom_site_type_symbol
_atom_site_label
_atom_site_fract_x
_atom_site_fract_y
_atom_site_fract_z
Si Si1 0.882116 0.445765 0.901835
Si Si2 0.362390 0.553743 0.071732
Si Si3 0.454566 0.638146 0.580103
Si Si4 0.114756 0.710301 0.522941
Si Si5 0.029806 0.626407 0.920924
Si Si6 0.850146 0.674559 0.748653
Si Si7 0.629971 0.370909 0.738679
O O1 0.728738 0.460436 0.897579
O O2 0.794313 0.434333 0.810887
O O3 0.001224 0.532893 0.942450
O O4 0.999267 0.359037 0.949461
O O5 0.388642 0.461541 0.048115
O O6 0.552498 0.596443 0.153219
O O7 0.251276 0.624828 0.996161
O O8 0.327788 0.688043 0.584455
O O9 0.436277 0.692241 0.515617
O O10 0.660951 0.630360 0.669230
O O11 0.059079 0.703184 0.570376
O O12 0.943089 0.625836 0.831631
O O13 0.801566 0.772886 0.749986
O O14 0.000000 0.667262 0.750000
O O15 0.500000 0.365783 0.750000
#
# Coordination Sequence:
#
# PCOD8130012 Si02
#       7
#     8   8   8   8   8   8   8
#     4  10  16  36  60  92 121 146 202 250 307 358
#     4  10  19  34  62  95 113 154 206 255 297 364
#     4  11  20  38  62  90 129 155 196 251 327 362
#     4  10  20  35  64  94 123 154 191 261 318 365
#     4  11  21  37  63  91 121 153 210 254 299 374
#     4  11  25  41  57  83 121 170 206 250 311 371
#     4   9  19  34  56  81 116 156 203 252 289 348
#
# _framework density 20.923414999999999
#
# number of rings (size 3 to 8) (size 9 to 14) (size 15 to 20)
#    0.000    1.714    4.286    1.714    2.000    1.143 
#    0.000    0.714    3.143    0.000    0.000    0.000 
#    0.000    0.000    0.000    0.000    0.000    0.000 
#
# Total GULP energy -346988.990440 kJ/mol
# GULP energy per Si atom -12392.463944 kJ/mol
# Density = 2.087579 g / cm^3
# Si number density = 20.923415 Si / 1000 Ang^3
#
#
#
# Elastic Constant Matrix: (Units=GPa)
#
#
# Indices 1 2 3 4 5 6 
#
# 1 58.9133 33.0821 40.2799 0.0000 2.6058 0.0000
# 2 33.0821 75.3641 11.7315 0.0000 -5.1639 0.0000
# 3 40.2799 11.7315 124.8524 0.0000 9.3357 0.0000
# 4 0.0000 0.0000 0.0000 37.0184 0.0000 -2.9525
# 5 2.6058 -5.1639 9.3357 0.0000 25.1459 0.0000
# 6 0.0000 0.0000 0.0000 -2.9525 0.0000 27.2004
#
#
#
# Elastic Compliance Matrix: (Units=1/GPa)
#
#
# Indices 1 2 3 4 5 6 
#
# 1 0.029242 -0.011733 -0.008151 0.000000 -0.002414 0.000000
# 2 -0.011733 0.018450 0.001725 0.000000 0.004364 0.000000
# 3 -0.008151 0.001725 0.010684 0.000000 -0.002768 0.000000
# 4 0.000000 0.000000 0.000000 0.027250 0.000000 0.002958
# 5 -0.002414 0.004364 -0.002768 0.000000 0.041942 0.000000
# 6 0.000000 0.000000 0.000000 0.002958 0.000000 0.037085
#
#
# Mechanical properties :
#
#
# Convention : Reuss Voigt Hill
#
# Bulk Modulus (GPa) = 45.33387 47.70188 46.51788
# Shear Modulus (GPa) = 24.00116 29.47534 26.73825
#
# Velocity S-wave (km/s) = 3.39055 3.75737 3.57867
# Velocity P-wave (km/s) = 6.08617 6.45535 6.27348
#
# Compressibility (1/GPa) = 0.02205856
#
# Stress axis : x y z
#
# Youngs Moduli (GPa) = 34.19682 54.20152 93.59741
#
# Poissons Ratio (x) = 0.63594 0.76294
# Poissons Ratio (y) = 0.40123 -0.16149
# Poissons Ratio (z) = 0.27875 -0.09352
#
# Static dielectric constant tensor:
#      x y z
#    x 3.475550 0.000000 0.184650 
#    y 0.000000 3.744310 0.000000 
#    z 0.184650 0.000000 4.058400 
# 
# 
# High freq. dielectric constant tensor:
#      x y z
#    x 1.777340 0.000000 0.014860 
#    y 0.000000 1.816260 0.000000 
#    z 0.014860 0.000000 1.834160 
# 
# From -- ./inp_files/197968.got.cif
#   From: 2010.06.25/outbox.cif.g09.slc.cpg/sg15_99_cif.got.tgz:197968.got - 2010.06.28 07:06:18.
