data_PCOD8130413
_publ_section_title
;
Structure prediction by ZEFSAII (Michael W. Deem and Ramdas Pophale) SiO2 
 PCOD8130413
Probable space group: C 2/C
;
_chemical_formula_sum "Si O2"
_cell_formula_units_Z 60
_cell_length_a 11.835200
_cell_length_b 15.408428
_cell_length_c 18.008484
_cell_angle_alpha 90.000000
_cell_angle_beta 114.914289
_cell_angle_gamma 90.000000
_cell_volume 2978.442080
_symmetry_space_group_name_H-M "C 2/C"
_symmetry_group_IT_number 15
_symmetry_cell_setting 'monoclinic'
loop_
_space_group_symop_operation_xyz
x,y,z
-x,y,1/2-z
-x,-y,-z
x,-y,1/2+z
1/2+x,1/2+y,z
1/2-x,1/2+y,1/2-z
1/2-x,1/2-y,-z
1/2+x,1/2-y,1/2+z
loop_
_atom_site_type_symbol
_atom_site_label
_atom_site_fract_x
_atom_site_fract_y
_atom_site_fract_z
Si Si1 0.077708 0.596043 0.428940
Si Si2 0.922466 0.282246 0.799631
Si Si3 0.566396 0.043187 0.693404
Si Si4 0.159864 0.852235 0.557848
Si Si5 0.216140 0.096127 0.224916
Si Si6 0.169837 0.657596 0.599642
Si Si7 0.500000 0.470404 0.750000
Si Si8 0.941136 0.881600 0.126816
O O1 0.195430 0.639853 0.421455
O O2 0.109410 0.588644 0.524927
O O3 0.965542 0.663374 0.383674
O O4 0.040104 0.502106 0.386733
O O5 0.777452 0.306844 0.745590
O O6 0.000000 0.315743 0.750000
O O7 0.942078 0.180472 0.820768
O O8 0.500000 0.075951 0.750000
O O9 0.623500 0.127145 0.667743
O O10 0.677120 0.976496 0.742740
O O11 0.138517 0.909498 0.626147
O O12 0.122487 0.752847 0.564195
O O13 0.076855 0.888202 0.466840
O O14 0.121267 0.087514 0.267301
O O15 0.319942 0.656173 0.635615
O O16 0.525411 0.525243 0.831340
#
# Coordination Sequence:
#
# PCOD8130413 Si02
#       8
#     8   8   8   8   8   8   4   8
#     4  10  17  32  58  93 124 152 201 254 306 344
#     4  11  17  34  63  94 114 155 199 258 298 356
#     4  11  21  37  58  93 127 169 197 251 308 368
#     4  11  20  38  60  88 123 163 200 255 305 360
#     4  11  23  39  60  85 127 162 204 247 314 364
#     4  11  20  34  59  97 123 155 205 263 294 362
#     4  12  26  42  60  92 122 162 206 254 308 370
#     4  11  21  36  63  90 118 152 213 255 301 351
#
# _framework density 20.144759000000001
#
# number of rings (size 3 to 8) (size 9 to 14) (size 15 to 20)
#    0.000    1.067    7.333    2.000    0.000    0.533 
#    1.200    0.000    0.000    0.800    0.000    0.000 
#    0.000    0.000    0.000    0.000    0.000    0.000 
#
# Total GULP energy -371956.220761 kJ/mol
# GULP energy per Si atom -12398.540692 kJ/mol
# Density = 2.009891 g / cm^3
# Si number density = 20.144759 Si / 1000 Ang^3
#
#
#
# Elastic Constant Matrix: (Units=GPa)
#
#
# Indices 1 2 3 4 5 6 
#
# 1 91.3641 41.5044 44.6021 0.0000 -11.6557 0.0000
# 2 41.5044 66.4579 43.5263 0.0000 -7.7751 0.0000
# 3 44.6021 43.5263 120.3080 0.0000 -1.9857 0.0000
# 4 0.0000 0.0000 0.0000 24.8122 0.0000 -4.1544
# 5 -11.6557 -7.7751 -1.9857 0.0000 25.6911 0.0000
# 6 0.0000 0.0000 0.0000 -4.1544 0.0000 26.1996
#
#
#
# Elastic Compliance Matrix: (Units=1/GPa)
#
#
# Indices 1 2 3 4 5 6 
#
# 1 0.016687 -0.007652 -0.003336 0.000000 0.004997 0.000000
# 2 -0.007652 0.024014 -0.005796 0.000000 0.003348 0.000000
# 3 -0.003336 -0.005796 0.011606 0.000000 -0.002370 0.000000
# 4 0.000000 0.000000 0.000000 0.041402 0.000000 0.006565
# 5 0.004997 0.003348 -0.002370 0.000000 0.042021 0.000000
# 6 0.000000 0.000000 0.000000 0.006565 0.000000 0.039210
#
#
# Mechanical properties :
#
#
# Convention : Reuss Voigt Hill
#
# Bulk Modulus (GPa) = 53.36133 59.71064 56.53598
# Shear Modulus (GPa) = 23.28248 25.24039 24.26143
#
# Velocity S-wave (km/s) = 3.40333 3.54354 3.47415
# Velocity P-wave (km/s) = 6.47997 6.81523 6.64971
#
# Compressibility (1/GPa) = 0.01874016
#
# Stress axis : x y z
#
# Youngs Moduli (GPa) = 59.92574 41.64289 86.16026
#
# Poissons Ratio (x) = 0.31867 0.28739
# Poissons Ratio (y) = 0.45857 0.49936
# Poissons Ratio (z) = 0.19988 0.24135
#
# Static dielectric constant tensor:
#      x y z
#    x 3.443110 0.000000 0.075930 
#    y 0.000000 3.370840 0.000000 
#    z 0.075930 0.000000 4.009230 
# 
# 
# High freq. dielectric constant tensor:
#      x y z
#    x 1.751320 0.000000 0.010270 
#    y 0.000000 1.762680 0.000000 
#    z 0.010270 0.000000 1.806280 
# 
# From -- ./inp_files/146129.got.cif
#   From: 2010.06.25/outbox.cif.g09.slc.cpg/sg15_74_cif.got.tgz:146129.got - 2010.06.28 07:06:18.
