data_PCOD8130362
_publ_section_title
;
Structure prediction by ZEFSAII (Michael W. Deem and Ramdas Pophale) SiO2 
 PCOD8130362
Probable space group: C 2/C
;
_chemical_formula_sum "Si O2"
_cell_formula_units_Z 64
_cell_length_a 23.355295
_cell_length_b 11.686796
_cell_length_c 28.771392
_cell_angle_alpha 90.000000
_cell_angle_beta 27.561414
_cell_angle_gamma 90.000000
_cell_volume 3633.627154
_symmetry_space_group_name_H-M "C 2/C"
_symmetry_group_IT_number 15
_symmetry_cell_setting 'monoclinic'
loop_
_space_group_symop_operation_xyz
x,y,z
-x,y,1/2-z
-x,-y,-z
x,-y,1/2+z
1/2+x,1/2+y,z
1/2-x,1/2+y,1/2-z
1/2-x,1/2-y,-z
1/2+x,1/2-y,1/2+z
loop_
_atom_site_type_symbol
_atom_site_label
_atom_site_fract_x
_atom_site_fract_y
_atom_site_fract_z
Si Si1 0.143412 0.338898 0.441890
Si Si2 0.825332 0.997897 0.755948
Si Si3 0.637481 0.186157 0.356286
Si Si4 0.109383 0.941323 0.392299
Si Si5 0.985039 0.325265 0.708078
Si Si6 0.974131 0.057928 0.820455
Si Si7 0.281412 0.863199 0.006225
Si Si8 0.259791 0.860892 0.814332
O O1 0.225319 0.414335 0.348322
O O2 0.210817 0.342269 0.443749
O O3 0.144625 0.210800 0.418807
O O4 0.998455 0.375640 0.546915
O O5 0.897420 0.040992 0.658261
O O6 0.941634 0.977594 0.707189
O O7 0.744800 0.883591 0.805638
O O8 0.625388 0.307378 0.391451
O O9 0.679267 0.205717 0.273110
O O10 0.230419 0.009717 0.321459
O O11 0.000000 0.000000 0.500000
O O12 0.853338 0.371879 0.789089
O O13 0.000000 0.356287 0.750000
O O14 0.990976 0.189612 0.694279
O O15 0.083699 0.400444 0.607869
O O16 0.000000 0.019529 0.750000
O O17 0.824275 0.044764 0.932292
O O18 0.250000 0.750000 0.000000
#
# Coordination Sequence:
#
# PCOD8130362 Si02
#       8
#     8   8   8   8   8   8   8   8
#     4  12  19  36  57  82 120 148 191 240 295 350
#     4  11  23  36  58  85 116 152 190 242 294 348
#     4  11  23  38  54  83 116 154 198 234 287 348
#     4  11  23  37  57  82 114 157 195 236 289 342
#     4  10  18  31  49  79 113 145 182 231 297 346
#     4  10  17  32  53  80 114 140 183 234 290 343
#     4  10  20  28  52  85 115 149 177 232 297 349
#     4  11  20  34  56  80 116 150 185 244 289 345
#
# _framework density 17.613254000000001
#
# number of rings (size 3 to 8) (size 9 to 14) (size 15 to 20)
#    0.000    1.250    6.250    1.875    1.750    1.000 
#    0.000    0.000    0.000    0.750    0.000    1.750 
#    0.000    0.000    0.000    0.000    0.000    0.000 
#
# Total GULP energy -396424.039186 kJ/mol
# GULP energy per Si atom -12388.251225 kJ/mol
# Density = 1.757317 g / cm^3
# Si number density = 17.613254 Si / 1000 Ang^3
#
#
#
# Elastic Constant Matrix: (Units=GPa)
#
#
# Indices 1 2 3 4 5 6 
#
# 1 123.4763 38.8240 43.7082 0.0000 -2.1772 0.0000
# 2 38.8240 61.0532 23.4374 0.0042 1.8116 -0.0011
# 3 43.7082 23.4374 101.0370 0.0079 8.1198 -0.0026
# 4 0.0000 0.0042 0.0079 12.2940 0.0005 7.8463
# 5 -2.1772 1.8116 8.1198 0.0005 26.7879 -0.0001
# 6 0.0000 -0.0011 -0.0026 7.8463 -0.0001 7.9679
#
#
#
# Elastic Compliance Matrix: (Units=1/GPa)
#
#
# Indices 1 2 3 4 5 6 
#
# 1 0.011293 -0.005821 -0.003731 0.000015 0.002443 -0.000016
# 2 -0.005821 0.020981 -0.002251 -0.000019 -0.001210 0.000021
# 3 -0.003731 -0.002251 0.012347 -0.000025 -0.003893 0.000028
# 4 0.000015 -0.000019 -0.000025 0.218942 0.000005 -0.215601
# 5 0.002443 -0.001210 -0.003893 0.000005 0.038791 -0.000006
# 6 -0.000016 0.000021 0.000028 -0.215601 -0.000006 0.337814
#
#
# Mechanical properties :
#
#
# Convention : Reuss Voigt Hill
#
# Bulk Modulus (GPa) = 47.59028 55.27842 51.43435
# Shear Modulus (GPa) = 7.45401 21.38307 14.41854
#
# Velocity S-wave (km/s) = 2.05942 3.48808 2.86426
# Velocity P-wave (km/s) = 5.72129 6.90470 6.34067
#
# Compressibility (1/GPa) = 0.02101269
#
# Stress axis : x y z
#
# Youngs Moduli (GPa) = 88.55088 47.66179 80.99368
#
# Poissons Ratio (x) = 0.27746 0.30220
# Poissons Ratio (y) = 0.51549 0.18236
# Poissons Ratio (z) = 0.33040 0.10731
#
# Static dielectric constant tensor:
#      x y z
#    x 3.407920 0.000000 -0.096990 
#    y 0.000000 2.957730 0.000010 
#    z -0.096990 0.000010 3.976100 
# 
# 
# High freq. dielectric constant tensor:
#      x y z
#    x 1.688320 0.000000 0.000280 
#    y 0.000000 1.621660 0.000000 
#    z 0.000280 0.000000 1.708200 
# 
# From -- ./inp_files/300828.got.cif
#   From: 2010.06.25/outbox.cif.g09.slc.cpg/sg15_151_cif.got.tgz:300828.got - 2010.06.28 07:06:18.
