data_PCOD8130213
_publ_section_title
;
Structure prediction by ZEFSAII (Michael W. Deem and Ramdas Pophale) SiO2 
 PCOD8130213
Probable space group: C 2/C
;
_chemical_formula_sum "Si O2"
_cell_formula_units_Z 56
_cell_length_a 9.479079
_cell_length_b 20.601773
_cell_length_c 23.680251
_cell_angle_alpha 90.000000
_cell_angle_beta 139.835699
_cell_angle_gamma 90.000000
_cell_volume 2982.664551
_symmetry_space_group_name_H-M "C 2/C"
_symmetry_group_IT_number 15
_symmetry_cell_setting 'monoclinic'
loop_
_space_group_symop_operation_xyz
x,y,z
-x,y,1/2-z
-x,-y,-z
x,-y,1/2+z
1/2+x,1/2+y,z
1/2-x,1/2+y,1/2-z
1/2-x,1/2-y,-z
1/2+x,1/2-y,1/2+z
loop_
_atom_site_type_symbol
_atom_site_label
_atom_site_fract_x
_atom_site_fract_y
_atom_site_fract_z
Si Si1 0.085982 0.827487 0.060425
Si Si2 0.233744 0.418192 0.983834
Si Si3 0.995200 0.651290 0.882855
Si Si4 0.646009 0.005591 0.662820
Si Si5 0.056416 0.971228 0.348872
Si Si6 0.136076 0.303564 0.038643
Si Si7 0.902467 0.830163 0.308378
O O1 0.272404 0.829557 0.071118
O O2 0.180927 0.837712 0.152612
O O3 0.907889 0.884755 0.994591
O O4 0.975477 0.757410 0.024329
O O5 0.041425 0.451188 0.889226
O O6 0.356370 0.473436 0.059982
O O7 0.136737 0.362621 0.994639
O O8 0.964122 0.575328 0.862368
O O9 0.000593 0.672076 0.949373
O O10 0.801363 0.691737 0.792150
O O11 0.756571 0.001028 0.634958
O O12 0.826904 0.990782 0.767209
O O13 0.003190 0.897266 0.314915
O O14 0.387064 0.282461 0.131019
#
# Coordination Sequence:
#
# PCOD8130213 Si02
#       7
#     8   8   8   8   8   8   8
#     4  10  21  34  50  78 110 137 172 210 263 320
#     4  10  19  33  55  74 105 145 167 216 272 307
#     4  11  19  31  55  81 102 129 176 226 258 304
#     4  10  17  30  54  80 102 130 177 221 262 308
#     4   8  16  29  51  80  96 127 180 223 250 300
#     4  10  19  34  55  75 101 138 182 211 252 314
#     4   9  17  33  54  76  97 133 178 221 258 293
#
# _framework density 18.775158999999999
#
# number of rings (size 3 to 8) (size 9 to 14) (size 15 to 20)
#    0.000    2.571    2.857    3.429    0.000    0.571 
#    0.000    0.000   12.571    1.714    0.000    0.000 
#    0.000    0.000    0.000    0.000    0.000    0.000 
#
# Total GULP energy -346995.660049 kJ/mol
# GULP energy per Si atom -12392.702145 kJ/mol
# Density = 1.873243 g / cm^3
# Si number density = 18.775159 Si / 1000 Ang^3
#
#
#
# Elastic Constant Matrix: (Units=GPa)
#
#
# Indices 1 2 3 4 5 6 
#
# 1 83.9214 10.9377 17.8646 -0.0003 13.6083 0.0001
# 2 10.9377 48.0772 38.7612 -0.0005 7.1623 -0.0001
# 3 17.8646 38.7612 90.4132 -0.0018 18.1156 -0.0005
# 4 -0.0003 -0.0005 -0.0018 22.2414 -0.0009 3.5999
# 5 13.6083 7.1623 18.1156 -0.0009 20.2149 -0.0001
# 6 0.0001 -0.0001 -0.0005 3.5999 -0.0001 16.5310
#
#
#
# Elastic Compliance Matrix: (Units=1/GPa)
#
#
# Indices 1 2 3 4 5 6 
#
# 1 0.013531 -0.001568 -0.000350 0.000000 -0.008239 0.000000
# 2 -0.001568 0.031991 -0.013828 0.000000 0.002114 0.000000
# 3 -0.000350 -0.013828 0.019537 0.000001 -0.012373 0.000000
# 4 0.000000 0.000000 0.000001 0.046604 0.000002 -0.010149
# 5 -0.008239 0.002114 -0.012373 0.000002 0.065354 0.000000
# 6 0.000000 0.000000 0.000000 -0.010149 0.000000 0.062702
#
#
# Mechanical properties :
#
#
# Convention : Reuss Voigt Hill
#
# Bulk Modulus (GPa) = 29.79353 39.72652 34.76003
# Shear Modulus (GPa) = 17.70530 22.12068 19.91299
#
# Velocity S-wave (km/s) = 3.07419 3.43620 3.26022
# Velocity P-wave (km/s) = 5.33890 6.07851 5.72067
#
# Compressibility (1/GPa) = 0.03356433
#
# Stress axis : x y z
#
# Youngs Moduli (GPa) = 73.90470 31.25915 51.18489
#
# Poissons Ratio (x) = 0.04903 0.01793
# Poissons Ratio (y) = 0.11592 0.70780
# Poissons Ratio (z) = 0.02589 0.43226
#
# Static dielectric constant tensor:
#      x y z
#    x 3.346190 0.000000 0.134780 
#    y 0.000000 3.096830 0.000000 
#    z 0.134780 0.000000 3.714380 
# 
# 
# High freq. dielectric constant tensor:
#      x y z
#    x 1.724250 0.000000 0.010920 
#    y 0.000000 1.686520 0.000000 
#    z 0.010920 0.000000 1.728240 
# 
# From -- ./inp_files/266450.got.cif
#   From: 2010.06.25/outbox.cif.g09.slc.cpg/sg15_134_cif.got.tgz:266450.got - 2010.06.28 07:06:18.
