data_PCOD8130322
_publ_section_title
;
Structure prediction by ZEFSAII (Michael W. Deem and Ramdas Pophale) SiO2 
 PCOD8130322
Probable space group: C 2/C
;
_chemical_formula_sum "Si O2"
_cell_formula_units_Z 60
_cell_length_a 12.210039
_cell_length_b 29.629769
_cell_length_c 9.254402
_cell_angle_alpha 90.000000
_cell_angle_beta 90.968561
_cell_angle_gamma 90.000000
_cell_volume 3347.585065
_symmetry_space_group_name_H-M "C 2/C"
_symmetry_group_IT_number 15
_symmetry_cell_setting 'monoclinic'
loop_
_space_group_symop_operation_xyz
x,y,z
-x,y,1/2-z
-x,-y,-z
x,-y,1/2+z
1/2+x,1/2+y,z
1/2-x,1/2+y,1/2-z
1/2-x,1/2-y,-z
1/2+x,1/2-y,1/2+z
loop_
_atom_site_type_symbol
_atom_site_label
_atom_site_fract_x
_atom_site_fract_y
_atom_site_fract_z
Si Si1 0.606062 0.524511 0.942550
Si Si2 0.846193 0.231036 0.406043
Si Si3 0.500000 0.399989 0.250000
Si Si4 0.836220 0.831021 0.393490
Si Si5 0.131469 0.949042 0.742258
Si Si6 0.041065 0.255865 0.600754
Si Si7 0.129152 0.150813 0.281238
Si Si8 0.893530 0.693572 0.674646
O O1 0.573010 0.569071 0.854652
O O2 0.675707 0.488587 0.849310
O O3 0.500000 0.500000 0.000000
O O4 0.675832 0.539901 0.082623
O O5 0.750000 0.250000 0.500000
O O6 0.816170 0.181393 0.343543
O O7 0.874084 0.261811 0.269205
O O8 0.949310 0.227119 0.514456
O O9 0.417207 0.369679 0.340159
O O10 0.869739 0.780772 0.343757
O O11 0.837541 0.828822 0.565649
O O12 0.713283 0.838880 0.327133
O O13 0.177638 0.899863 0.781595
O O14 0.000000 0.949281 0.750000
O O15 0.087286 0.293804 0.493530
O O16 0.000000 0.279143 0.750000
O O17 0.000000 0.151108 0.250000
O O18 0.000000 0.668860 0.750000
#
# Coordination Sequence:
#
# PCOD8130322 Si02
#       8
#     8   8   4   8   8   8   8   8
#     4  10  17  32  46  72 111 151 170 206 266 339
#     4  11  22  34  52  75 109 146 187 230 278 336
#     4  12  22  30  54  88 110 144 192 218 278 354
#     4  12  22  33  56  79 111 142 193 239 280 334
#     4   9  18  28  48  65 103 147 171 206 264 326
#     4  11  21  35  53  75 101 141 193 234 285 332
#     4  11  20  34  50  76 109 145 186 226 274 320
#     4  10  23  41  53  73 106 149 190 246 287 326
#
# _framework density 17.923369000000001
#
# number of rings (size 3 to 8) (size 9 to 14) (size 15 to 20)
#    0.000    1.333    5.333    4.000    1.867    0.000 
#    0.000    0.000    0.000    0.000    0.000    0.000 
#    0.000    4.267    0.533    0.000    0.000    0.133 
#
# Total GULP energy -371814.076932 kJ/mol
# GULP energy per Si atom -12393.802564 kJ/mol
# Density = 1.788257 g / cm^3
# Si number density = 17.923369 Si / 1000 Ang^3
#
#
#
# Elastic Constant Matrix: (Units=GPa)
#
#
# Indices 1 2 3 4 5 6 
#
# 1 70.4895 26.4061 24.2834 0.0000 4.5106 0.0000
# 2 26.4061 76.4503 34.0760 0.0000 -10.0186 0.0000
# 3 24.2834 34.0760 119.0922 0.0000 -11.7718 0.0000
# 4 0.0000 0.0000 0.0000 14.2848 0.0000 -3.8016
# 5 4.5106 -10.0186 -11.7718 0.0000 23.4417 0.0000
# 6 0.0000 0.0000 0.0000 -3.8016 0.0000 12.9539
#
#
#
# Elastic Compliance Matrix: (Units=1/GPa)
#
#
# Indices 1 2 3 4 5 6 
#
# 1 0.017782 -0.005913 -0.002654 0.000000 -0.007281 0.000000
# 2 -0.005913 0.017419 -0.003083 0.000000 0.007034 0.000000
# 3 -0.002654 -0.003083 0.010249 0.000000 0.004340 0.000000
# 4 0.000000 0.000000 0.000000 0.075935 0.000000 0.022285
# 5 -0.007281 0.007034 0.004340 0.000000 0.049246 0.000000
# 6 0.000000 0.000000 0.000000 0.022285 0.000000 0.083737
#
#
# Mechanical properties :
#
#
# Convention : Reuss Voigt Hill
#
# Bulk Modulus (GPa) = 45.14688 48.39590 46.77139
# Shear Modulus (GPa) = 17.54077 22.22052 19.88065
#
# Velocity S-wave (km/s) = 3.13174 3.52483 3.33408
# Velocity P-wave (km/s) = 6.19036 6.60500 6.40104
#
# Compressibility (1/GPa) = 0.02214993
#
# Stress axis : x y z
#
# Youngs Moduli (GPa) = 56.23743 57.40900 97.57017
#
# Poissons Ratio (x) = 0.33948 0.25890
# Poissons Ratio (y) = 0.33255 0.30081
# Poissons Ratio (z) = 0.14923 0.17699
#
# Static dielectric constant tensor:
#      x y z
#    x 3.148900 0.000000 0.031450 
#    y 0.000000 3.995560 0.000000 
#    z 0.031450 0.000000 3.802330 
# 
# 
# High freq. dielectric constant tensor:
#      x y z
#    x 1.636880 0.000000 0.001780 
#    y 0.000000 1.670010 0.000000 
#    z 0.001780 0.000000 1.723900 
# 
# From -- ./inp_files/35227.got.cif
#   From: 2010.06.25/outbox.cif.g09.slc.cpg/sg15_18_cif.got.tgz:35227.got - 2010.06.28 07:06:18.
