data_PCOD8130624
_publ_section_title
;
Structure prediction by ZEFSAII (Michael W. Deem and Ramdas Pophale) SiO2 
 PCOD8130624
Probable space group: C 2/C
;
_chemical_formula_sum "Si O2"
_cell_formula_units_Z 40
_cell_length_a 8.136593
_cell_length_b 18.600459
_cell_length_c 11.905951
_cell_angle_alpha 90.000000
_cell_angle_beta 81.092816
_cell_angle_gamma 90.000000
_cell_volume 1780.168519
_symmetry_space_group_name_H-M "C 2/C"
_symmetry_group_IT_number 15
_symmetry_cell_setting 'monoclinic'
loop_
_space_group_symop_operation_xyz
x,y,z
-x,y,1/2-z
-x,-y,-z
x,-y,1/2+z
1/2+x,1/2+y,z
1/2-x,1/2+y,1/2-z
1/2-x,1/2-y,-z
1/2+x,1/2-y,1/2+z
loop_
_atom_site_type_symbol
_atom_site_label
_atom_site_fract_x
_atom_site_fract_y
_atom_site_fract_z
Si Si1 0.169460 0.136428 0.801914
Si Si2 0.189875 0.313715 0.585830
Si Si3 0.197850 0.296365 0.831375
Si Si4 0.158739 0.570345 0.919792
Si Si5 0.728531 0.920692 0.990236
O O1 0.234894 0.212000 0.847513
O O2 0.305175 0.106482 0.702625
O O3 0.000000 0.146785 0.750000
O O4 0.155190 0.082703 0.910326
O O5 0.250000 0.250000 0.500000
O O6 0.274021 0.314089 0.699779
O O7 0.235623 0.386835 0.517314
O O8 0.996940 0.307956 0.633579
O O9 0.280797 0.350883 0.911275
O O10 0.249980 0.492719 0.914068
O O11 0.960824 0.573282 0.947890
#
# Coordination Sequence:
#
# PCOD8130624 Si02
#       5
#     8   8   8   8   8
#     4  12  22  40  62  88 125 164 199 251 316 370
#     4  10  17  35  61  90 118 160 203 247 306 359
#     4  10  20  36  61  90 120 158 205 255 300 359
#     4  10  22  40  63  90 121 159 207 255 306 360
#     4  10  24  39  63  93 121 158 208 262 298 366
#
# _framework density 22.469784000000001
#
# number of rings (size 3 to 8) (size 9 to 14) (size 15 to 20)
#    0.000    1.600    4.000    1.200    2.800    0.800 
#    0.000    0.000    0.000    0.000    0.000    0.000 
#    0.000    0.000    0.000    0.000    0.000    0.000 
#
# Total GULP energy -247816.475487 kJ/mol
# GULP energy per Si atom -12390.823774 kJ/mol
# Density = 2.241864 g / cm^3
# Si number density = 22.469784 Si / 1000 Ang^3
#
#
#
# Elastic Constant Matrix: (Units=GPa)
#
#
# Indices 1 2 3 4 5 6 
#
# 1 17.2611 22.2914 21.8608 0.0000 10.1406 0.0000
# 2 22.2914 150.9168 57.1076 0.0000 6.1963 0.0000
# 3 21.8608 57.1076 153.1867 0.0000 10.3834 0.0000
# 4 0.0000 0.0000 0.0000 40.8876 0.0000 0.7208
# 5 10.1406 6.1963 10.3834 0.0000 29.0988 0.0000
# 6 0.0000 0.0000 0.0000 0.7208 0.0000 22.8384
#
#
#
# Elastic Compliance Matrix: (Units=1/GPa)
#
#
# Indices 1 2 3 4 5 6 
#
# 1 0.098942 -0.010268 -0.008304 0.000000 -0.029331 0.000000
# 2 -0.010268 0.008791 -0.001976 0.000000 0.002411 0.000000
# 3 -0.008304 -0.001976 0.008429 0.000000 0.000307 0.000000
# 4 0.000000 0.000000 0.000000 0.024471 0.000000 -0.000772
# 5 -0.029331 0.002411 0.000307 0.000000 0.043964 0.000000
# 6 0.000000 0.000000 0.000000 -0.000772 0.000000 0.043810
#
#
# Mechanical properties :
#
#
# Convention : Reuss Voigt Hill
#
# Bulk Modulus (GPa) = 13.32136 58.20935 35.76535
# Shear Modulus (GPa) = 16.97655 33.23860 25.10757
#
# Velocity S-wave (km/s) = 2.75167 3.85028 3.34637
# Velocity P-wave (km/s) = 4.00462 6.76226 5.55721
#
# Compressibility (1/GPa) = 0.07506742
#
# Stress axis : x y z
#
# Youngs Moduli (GPa) = 10.10696 113.74798 118.64304
#
# Poissons Ratio (x) = 1.16796 0.98517
# Poissons Ratio (y) = 0.10378 0.23438
# Poissons Ratio (z) = 0.08392 0.22471
#
# Static dielectric constant tensor:
#      x y z
#    x 3.560150 0.000000 0.002880 
#    y 0.000000 4.411560 0.000000 
#    z 0.002880 0.000000 4.530680 
# 
# 
# High freq. dielectric constant tensor:
#      x y z
#    x 1.842710 0.000000 -0.001070 
#    y 0.000000 1.890140 0.000000 
#    z -0.001070 0.000000 1.906550 
# 
# From -- ./inp_files/76726.got.cif
#   From: 2010.06.25/outbox.cif.g09.slc.cpg/sg15_39_cif.got.tgz:76726.got - 2010.06.28 07:06:18.
