data_PCOD8130452
_publ_section_title
;
Structure prediction by ZEFSAII (Michael W. Deem and Ramdas Pophale) SiO2 
 PCOD8130452
Probable space group: C 2/C
;
_chemical_formula_sum "Si O2"
_cell_formula_units_Z 52
_cell_length_a 12.171771
_cell_length_b 25.759905
_cell_length_c 13.630173
_cell_angle_alpha 90.000000
_cell_angle_beta 142.413227
_cell_angle_gamma 90.000000
_cell_volume 2606.767822
_symmetry_space_group_name_H-M "C 2/C"
_symmetry_group_IT_number 15
_symmetry_cell_setting 'monoclinic'
loop_
_space_group_symop_operation_xyz
x,y,z
-x,y,1/2-z
-x,-y,-z
x,-y,1/2+z
1/2+x,1/2+y,z
1/2-x,1/2+y,1/2-z
1/2-x,1/2-y,-z
1/2+x,1/2-y,1/2+z
loop_
_atom_site_type_symbol
_atom_site_label
_atom_site_fract_x
_atom_site_fract_y
_atom_site_fract_z
Si Si1 0.209039 0.184968 0.566267
Si Si2 0.589632 0.126517 0.111154
Si Si3 0.500000 0.083838 0.250000
Si Si4 0.531657 0.209548 0.925143
Si Si5 0.978232 0.457651 0.401168
Si Si6 0.246166 0.512068 0.929307
Si Si7 0.516348 0.591596 0.149400
O O1 0.329672 0.185720 0.554425
O O2 0.052936 0.228497 0.447673
O O3 0.113397 0.129121 0.506439
O O4 0.329040 0.196305 0.747574
O O5 0.513005 0.121725 0.166437
O O6 0.582260 0.185700 0.068270
O O7 0.782272 0.097982 0.246555
O O8 0.461122 0.097514 0.941895
O O9 0.318705 0.048108 0.109087
O O10 0.146629 0.456737 0.445749
O O11 0.000000 0.500000 0.500000
O O12 0.801007 0.468273 0.212824
O O13 0.454422 0.530510 0.090681
O O14 0.500000 0.609255 0.250000
#
# Coordination Sequence:
#
# PCOD8130452 Si02
#       7
#     8   8   4   8   8   8   8
#     4  10  20  36  54  96 117 147 183 243 311 365
#     4  12  21  37  58  84 116 164 195 251 290 358
#     4  10  24  40  58  76 120 166 220 226 284 354
#     4  10  20  33  63  83 122 151 187 236 306 366
#     4  10  17  33  56  75 108 154 195 237 287 346
#     4  10  20  35  55  83 109 154 196 251 288 348
#     4  12  22  32  57  90 123 147 193 251 309 350
#
# _framework density 19.948076
#
# number of rings (size 3 to 8) (size 9 to 14) (size 15 to 20)
#    0.000    1.538    6.154    1.846    2.154    4.308 
#    0.000    0.000    0.000    3.692    0.000    0.000 
#    0.000    0.000    0.000    0.000    0.000    0.000 
#
# Total GULP energy -322190.624626 kJ/mol
# GULP energy per Si atom -12391.947101 kJ/mol
# Density = 1.990267 g / cm^3
# Si number density = 19.948076 Si / 1000 Ang^3
#
#
#
# Elastic Constant Matrix: (Units=GPa)
#
#
# Indices 1 2 3 4 5 6 
#
# 1 67.4665 21.1222 44.6538 0.0000 -22.7695 0.0000
# 2 21.1222 65.7430 24.6566 0.0000 -6.0786 0.0000
# 3 44.6538 24.6566 97.1300 0.0000 -7.6227 0.0000
# 4 0.0000 0.0000 0.0000 26.4881 0.0000 -4.5113
# 5 -22.7695 -6.0786 -7.6227 0.0000 32.6000 0.0000
# 6 0.0000 0.0000 0.0000 -4.5113 0.0000 20.5690
#
#
#
# Elastic Compliance Matrix: (Units=1/GPa)
#
#
# Indices 1 2 3 4 5 6 
#
# 1 0.029038 -0.003592 -0.011102 0.000000 0.017016 0.000000
# 2 -0.003592 0.017409 -0.002761 0.000000 0.000092 0.000000
# 3 -0.011102 -0.002761 0.015740 0.000000 -0.004589 0.000000
# 4 0.000000 0.000000 0.000000 0.039218 0.000000 0.008601
# 5 0.017016 0.000092 -0.004589 0.000000 0.041504 0.000000
# 6 0.000000 0.000000 0.000000 0.008601 0.000000 0.050503
#
#
# Mechanical properties :
#
#
# Convention : Reuss Voigt Hill
#
# Bulk Modulus (GPa) = 36.66169 45.68939 41.17554
# Shear Modulus (GPa) = 21.06030 25.25856 23.15943
#
# Velocity S-wave (km/s) = 3.25277 3.56225 3.41102
# Velocity P-wave (km/s) = 5.70314 6.31454 6.01661
#
# Compressibility (1/GPa) = 0.02727643
#
# Stress axis : x y z
#
# Youngs Moduli (GPa) = 34.43795 57.44264 63.53151
#
# Poissons Ratio (x) = 0.20635 0.70535
# Poissons Ratio (y) = 0.12371 0.17538
# Poissons Ratio (z) = 0.38234 0.15857
#
# Static dielectric constant tensor:
#      x y z
#    x 3.320280 0.000000 -0.176390 
#    y 0.000000 3.598690 0.000000 
#    z -0.176390 0.000000 4.452950 
# 
# 
# High freq. dielectric constant tensor:
#      x y z
#    x 1.735680 0.000000 -0.008850 
#    y 0.000000 1.764240 0.000000 
#    z -0.008850 0.000000 1.785620 
# 
# From -- ./inp_files/92657.got.cif
#   From: 2010.06.25/outbox.cif.g09.slc.cpg/sg15_47_cif.got.tgz:92657.got - 2010.06.28 07:06:18.
