data_PCOD8130940
_publ_section_title
;
Structure prediction by ZEFSAII (Michael W. Deem and Ramdas Pophale) SiO2 
 PCOD8130940
Probable space group: C 2/C
;
_chemical_formula_sum "Si O2"
_cell_formula_units_Z 56
_cell_length_a 29.658737
_cell_length_b 18.551844
_cell_length_c 9.046572
_cell_angle_alpha 90.000000
_cell_angle_beta 35.913344
_cell_angle_gamma 90.000000
_cell_volume 2919.691477
_symmetry_space_group_name_H-M "C 2/C"
_symmetry_group_IT_number 15
_symmetry_cell_setting 'monoclinic'
loop_
_space_group_symop_operation_xyz
x,y,z
-x,y,1/2-z
-x,-y,-z
x,-y,1/2+z
1/2+x,1/2+y,z
1/2-x,1/2+y,1/2-z
1/2-x,1/2-y,-z
1/2+x,1/2-y,1/2+z
loop_
_atom_site_type_symbol
_atom_site_label
_atom_site_fract_x
_atom_site_fract_y
_atom_site_fract_z
Si Si1 0.367133 0.908276 0.885955
Si Si2 0.374854 0.514804 0.793368
Si Si3 0.996892 0.902251 0.412930
Si Si4 0.485965 0.855704 0.122050
Si Si5 0.922421 0.540974 0.543406
Si Si6 0.933789 0.198195 0.315451
Si Si7 0.305029 0.406135 0.213342
O O1 0.430264 0.845832 0.680359
O O2 0.366961 0.927990 0.061905
O O3 0.387294 0.972740 0.719607
O O4 0.282542 0.880839 0.072124
O O5 0.446590 0.475190 0.523943
O O6 0.415868 0.580741 0.769801
O O7 0.315288 0.548985 0.836550
O O8 0.328680 0.460102 0.019566
O O9 0.949287 0.845303 0.628900
O O10 0.000000 0.861997 0.250000
O O11 0.500000 0.888576 0.250000
O O12 0.436914 0.782860 0.273602
O O13 0.436160 0.904903 0.144259
O O14 0.000000 0.520880 0.250000
O O15 0.852303 0.169151 0.592813
O O16 0.000000 0.174297 0.250000
#
# Coordination Sequence:
#
# PCOD8130940 Si02
#       7
#     8   8   8   8   8   8   8
#     4  11  21  36  61  89 115 144 182 238 294 331
#     4  10  19  30  51  80 112 145 185 231 274 322
#     4  10  18  30  52  79 104 148 197 229 258 321
#     4  10  21  39  61  81 110 151 194 232 273 341
#     4  10  20  37  63  90 111 142 189 235 282 340
#     4  10  21  37  57  80 112 155 194 228 272 338
#     4  11  21  35  56  86 120 147 183 237 290 330
#
# _framework density 19.180109999999999
#
# number of rings (size 3 to 8) (size 9 to 14) (size 15 to 20)
#    0.000    1.714    2.857    3.857    0.000    1.714 
#    0.000    3.571    3.143    0.000    0.000    0.000 
#    0.000    0.000    0.000    0.000    0.000    0.000 
#
# Total GULP energy -346883.619663 kJ/mol
# GULP energy per Si atom -12388.700702 kJ/mol
# Density = 1.913645 g / cm^3
# Si number density = 19.180110 Si / 1000 Ang^3
#
#
#
# Elastic Constant Matrix: (Units=GPa)
#
#
# Indices 1 2 3 4 5 6 
#
# 1 120.4093 34.1204 41.9811 0.0000 2.9557 0.0000
# 2 34.1204 74.2187 29.7483 0.0000 -0.2331 0.0000
# 3 41.9811 29.7483 72.0977 0.0000 -8.5909 0.0000
# 4 0.0000 0.0000 0.0000 19.4405 0.0000 2.8773
# 5 2.9557 -0.2331 -8.5909 0.0000 43.3787 0.0000
# 6 0.0000 0.0000 0.0000 2.8773 0.0000 13.1156
#
#
#
# Elastic Compliance Matrix: (Units=1/GPa)
#
#
# Indices 1 2 3 4 5 6 
#
# 1 0.011083 -0.002906 -0.005475 0.000000 -0.001855 0.000000
# 2 -0.002906 0.016974 -0.005404 0.000000 -0.000781 0.000000
# 3 -0.005475 -0.005404 0.019796 0.000000 0.004265 0.000000
# 4 0.000000 0.000000 0.000000 0.053165 0.000000 -0.011663
# 5 -0.001855 -0.000781 0.004265 0.000000 0.024020 0.000000
# 6 0.000000 0.000000 0.000000 -0.011663 0.000000 0.078804
#
#
# Mechanical properties :
#
#
# Convention : Reuss Voigt Hill
#
# Bulk Modulus (GPa) = 49.30718 53.15836 51.23277
# Shear Modulus (GPa) = 20.99308 25.91202 23.45255
#
# Velocity S-wave (km/s) = 3.31195 3.67956 3.50058
# Velocity P-wave (km/s) = 6.35520 6.76962 6.56568
#
# Compressibility (1/GPa) = 0.02028102
#
# Stress axis : x y z
#
# Youngs Moduli (GPa) = 90.22727 58.91536 50.51478
#
# Poissons Ratio (x) = 0.17123 0.27658
# Poissons Ratio (y) = 0.26224 0.27299
# Poissons Ratio (z) = 0.49402 0.31839
#
# Static dielectric constant tensor:
#      x y z
#    x 3.774470 0.000000 0.180650 
#    y 0.000000 3.289810 0.000000 
#    z 0.180650 0.000000 3.647850 
# 
# 
# High freq. dielectric constant tensor:
#      x y z
#    x 1.760060 0.000000 0.015360 
#    y 0.000000 1.719340 0.000000 
#    z 0.015360 0.000000 1.737550 
# 
# From -- ./inp_files/67099.got.cif
#   From: 2010.06.25/outbox.cif.g09.slc.cpg/sg15_34_cif.got.tgz:67099.got - 2010.06.28 07:06:18.
