data_PCOD8130761
_publ_section_title
;
Structure prediction by ZEFSAII (Michael W. Deem and Ramdas Pophale) SiO2 
 PCOD8130761
Probable space group: C 2/C
;
_chemical_formula_sum "Si O2"
_cell_formula_units_Z 48
_cell_length_a 16.276812
_cell_length_b 20.257552
_cell_length_c 8.886039
_cell_angle_alpha 90.000000
_cell_angle_beta 65.067769
_cell_angle_gamma 90.000000
_cell_volume 2656.925637
_symmetry_space_group_name_H-M "C 2/C"
_symmetry_group_IT_number 15
_symmetry_cell_setting 'monoclinic'
loop_
_space_group_symop_operation_xyz
x,y,z
-x,y,1/2-z
-x,-y,-z
x,-y,1/2+z
1/2+x,1/2+y,z
1/2-x,1/2+y,1/2-z
1/2-x,1/2-y,-z
1/2+x,1/2-y,1/2+z
loop_
_atom_site_type_symbol
_atom_site_label
_atom_site_fract_x
_atom_site_fract_y
_atom_site_fract_z
Si Si1 0.709365 0.507345 0.877776
Si Si2 0.262727 0.907926 0.082169
Si Si3 0.099040 0.066466 0.220082
Si Si4 0.543509 0.705599 0.361710
Si Si5 0.847620 0.276134 0.971821
Si Si6 0.920576 0.172151 0.716503
O O1 0.781659 0.544911 0.712128
O O2 0.630028 0.478120 0.835475
O O3 0.758229 0.448637 0.930769
O O4 0.667026 0.558915 0.027422
O O5 0.168757 0.871226 0.195914
O O6 0.343452 0.855435 0.991846
O O7 0.100995 0.142763 0.264052
O O8 0.000000 0.041447 0.250000
O O9 0.500000 0.742849 0.250000
O O10 0.614056 0.750487 0.397780
O O11 0.454835 0.679944 0.520508
O O12 0.910958 0.246984 0.791597
O O13 0.750000 0.250000 0.000000
O O14 0.000000 0.135788 0.750000
#
# Coordination Sequence:
#
# PCOD8130761 Si02
#       6
#     8   8   8   8   8   8
#     4  10  20  29  43  66  97 133 162 186 225 280
#     4  10  19  33  47  69  96 126 163 195 229 283
#     4  10  18  28  42  66 100 132 157 187 224 278
#     4  10  19  32  49  76 101 121 158 210 244 273
#     4   9  18  33  52  68  94 132 163 193 239 292
#     4   9  17  31  50  71  97 130 160 191 234 290
#
# _framework density 18.065992000000001
#
# number of rings (size 3 to 8) (size 9 to 14) (size 15 to 20)
#    0.000    2.333    0.000    5.500    0.000    4.000 
#    0.000   10.833    0.000    0.000    0.000   15.167 
#    0.000    0.000    0.000    0.000    0.000    0.000 
#
# Total GULP energy -297347.670542 kJ/mol
# GULP energy per Si atom -12389.486273 kJ/mol
# Density = 1.802487 g / cm^3
# Si number density = 18.065992 Si / 1000 Ang^3
#
#
#
# Elastic Constant Matrix: (Units=GPa)
#
#
# Indices 1 2 3 4 5 6 
#
# 1 53.4041 31.3117 23.3978 0.0000 20.8231 0.0000
# 2 31.3117 109.1290 38.8546 0.0000 14.8288 0.0000
# 3 23.3978 38.8546 80.1581 0.0000 32.6424 0.0000
# 4 0.0000 0.0000 0.0000 16.8231 0.0000 -2.2472
# 5 20.8231 14.8288 32.6424 0.0000 25.4095 0.0000
# 6 0.0000 0.0000 0.0000 -2.2472 0.0000 32.9407
#
#
#
# Elastic Compliance Matrix: (Units=1/GPa)
#
#
# Indices 1 2 3 4 5 6 
#
# 1 0.032046 -0.007423 0.006657 0.000000 -0.030481 0.000000
# 2 -0.007423 0.012804 -0.007285 0.000000 0.007970 0.000000
# 3 0.006657 -0.007285 0.030520 0.000000 -0.040411 0.000000
# 4 0.000000 0.000000 0.000000 0.059989 0.000000 0.004092
# 5 -0.030481 0.007970 -0.040411 0.000000 0.111598 0.000000
# 6 0.000000 0.000000 0.000000 0.004092 0.000000 0.030637
#
#
# Mechanical properties :
#
#
# Convention : Reuss Voigt Hill
#
# Bulk Modulus (GPa) = 16.87264 47.75773 32.31518
# Shear Modulus (GPa) = 15.95136 24.97646 20.46391
#
# Velocity S-wave (km/s) = 2.97467 3.72225 3.36926
# Velocity P-wave (km/s) = 4.59978 6.70567 5.74996
#
# Compressibility (1/GPa) = 0.05926756
#
# Stress axis : x y z
#
# Youngs Moduli (GPa) = 31.20512 78.09938 32.76524
#
# Poissons Ratio (x) = 0.57973 -0.21811
# Poissons Ratio (y) = 0.23163 0.23870
# Poissons Ratio (z) = -0.20773 0.56897
#
# Static dielectric constant tensor:
#      x y z
#    x 3.332510 0.000000 0.150210 
#    y 0.000000 3.556130 0.000000 
#    z 0.150210 0.000000 3.615730 
# 
# 
# High freq. dielectric constant tensor:
#      x y z
#    x 1.668230 0.000000 0.026740 
#    y 0.000000 1.686730 0.000000 
#    z 0.026740 0.000000 1.706640 
# 
# From -- ./inp_files/40656.got.cif
#   From: 2010.06.25/outbox.cif.g09.slc.cpg/sg15_21_cif.got.tgz:40656.got - 2010.06.28 07:06:18.
