data_PCOD8130928
_publ_section_title
;
Structure prediction by ZEFSAII (Michael W. Deem and Ramdas Pophale) SiO2 
 PCOD8130928
Probable space group: C 2/C
;
_chemical_formula_sum "Si O2"
_cell_formula_units_Z 64
_cell_length_a 19.773741
_cell_length_b 13.517005
_cell_length_c 26.964683
_cell_angle_alpha 90.000000
_cell_angle_beta 30.373976
_cell_angle_gamma 90.000000
_cell_volume 3644.246423
_symmetry_space_group_name_H-M "C 2/C"
_symmetry_group_IT_number 15
_symmetry_cell_setting 'monoclinic'
loop_
_space_group_symop_operation_xyz
x,y,z
-x,y,1/2-z
-x,-y,-z
x,-y,1/2+z
1/2+x,1/2+y,z
1/2-x,1/2+y,1/2-z
1/2-x,1/2-y,-z
1/2+x,1/2-y,1/2+z
loop_
_atom_site_type_symbol
_atom_site_label
_atom_site_fract_x
_atom_site_fract_y
_atom_site_fract_z
Si Si1 0.415669 0.158301 0.848739
Si Si2 0.063230 0.041551 0.362857
Si Si3 0.210468 0.142662 0.801631
Si Si4 0.011718 0.544707 0.880969
Si Si5 0.358145 0.131642 0.062864
Si Si6 0.655677 0.135166 0.318747
Si Si7 0.454281 0.629639 0.228028
Si Si8 0.658939 0.341812 0.447409
O O1 0.500000 0.114358 0.750000
O O2 0.431371 0.082359 0.884071
O O3 0.467694 0.267353 0.831017
O O4 0.262771 0.162266 0.927496
O O5 0.192881 0.108015 0.289506
O O6 0.016211 0.055257 0.335618
O O7 0.948105 0.073465 0.473500
O O8 0.095805 0.928309 0.353078
O O9 0.357252 0.111665 0.689058
O O10 0.155263 0.246486 0.815249
O O11 0.225075 0.136563 0.852008
O O12 0.058019 0.429197 0.844395
O O13 0.908061 0.549738 0.992637
O O14 0.397769 0.100305 0.093301
O O15 0.200262 0.153562 0.165822
O O16 0.418967 0.236946 0.006599
O O17 0.500000 0.577425 0.250000
#
# Coordination Sequence:
#
# PCOD8130928 Si02
#       8
#     8   8   8   8   8   8   8   8
#     4  11  19  33  49  77 111 134 155 210 268 300
#     4  10  21  32  53  79  98 138 174 203 256 310
#     4  10  20  37  51  72 109 132 169 218 251 292
#     4  11  20  31  53  78 100 137 173 202 256 316
#     4  10  18  30  51  76 103 130 163 205 256 307
#     4   9  20  36  50  72 106 134 170 216 251 292
#     4  10  19  33  47  77 112 131 154 209 264 301
#     4  11  19  31  53  78 106 130 165 207 261 312
#
# _framework density 17.56193
#
# number of rings (size 3 to 8) (size 9 to 14) (size 15 to 20)
#    0.000    1.750    3.750    3.750    1.750    1.000 
#    0.000    0.000    0.000    1.500    0.000    0.000 
#    0.000    0.000    0.000    0.000    0.000    0.000 
#
# Total GULP energy -396561.105821 kJ/mol
# GULP energy per Si atom -12392.534557 kJ/mol
# Density = 1.752196 g / cm^3
# Si number density = 17.561930 Si / 1000 Ang^3
#
#
#
# Elastic Constant Matrix: (Units=GPa)
#
#
# Indices 1 2 3 4 5 6 
#
# 1 79.1839 41.9057 9.5095 -0.0015 -2.7233 0.0012
# 2 41.9057 102.1360 29.0518 -0.0053 -5.5058 -0.0004
# 3 9.5095 29.0518 67.0589 -0.0099 -2.4468 -0.0010
# 4 -0.0015 -0.0053 -0.0099 18.9114 0.0009 -2.3268
# 5 -2.7233 -5.5058 -2.4468 0.0009 12.8454 0.0006
# 6 0.0012 -0.0004 -0.0010 -2.3268 0.0006 24.4767
#
#
#
# Elastic Compliance Matrix: (Units=1/GPa)
#
#
# Indices 1 2 3 4 5 6 
#
# 1 0.016163 -0.006788 0.000672 0.000000 0.000645 -0.000001
# 2 -0.006788 0.014214 -0.005061 0.000001 0.003689 0.000000
# 3 0.000672 -0.005061 0.017054 0.000008 0.001222 0.000001
# 4 0.000000 0.000001 0.000008 0.053504 -0.000002 0.005086
# 5 0.000645 0.003689 0.001222 -0.000002 0.079800 -0.000002
# 6 -0.000001 0.000000 0.000001 0.005086 -0.000002 0.041339
#
#
# Mechanical properties :
#
#
# Convention : Reuss Voigt Hill
#
# Bulk Modulus (GPa) = 39.87559 45.47919 42.67739
# Shear Modulus (GPa) = 19.77962 22.44081 21.11021
#
# Velocity S-wave (km/s) = 3.35965 3.57853 3.47081
# Velocity P-wave (km/s) = 6.14855 6.55951 6.35735
#
# Compressibility (1/GPa) = 0.02507800
#
# Stress axis : x y z
#
# Youngs Moduli (GPa) = 61.87144 70.35181 58.63722
#
# Poissons Ratio (x) = 0.47754 -0.03942
# Poissons Ratio (y) = 0.41997 0.29675
# Poissons Ratio (z) = -0.04159 0.35604
#
# Static dielectric constant tensor:
#      x y z
#    x 3.328880 0.000000 0.099790 
#    y 0.000000 3.153590 0.000010 
#    z 0.099790 0.000010 3.248580 
# 
# 
# High freq. dielectric constant tensor:
#      x y z
#    x 1.663440 0.000000 0.009000 
#    y 0.000000 1.654390 0.000000 
#    z 0.009000 0.000000 1.687950 
# 
# From -- ./inp_files/300826.got.cif
#   From: 2010.06.25/outbox.cif.g09.slc.cpg/sg15_151_cif.got.tgz:300826.got - 2010.06.28 07:06:18.
