data_PCOD8130883
_publ_section_title
;
Structure prediction by ZEFSAII (Michael W. Deem and Ramdas Pophale) SiO2 
 PCOD8130883
Probable space group: C 2/C
;
_chemical_formula_sum "Si O2"
_cell_formula_units_Z 64
_cell_length_a 16.768615
_cell_length_b 24.165519
_cell_length_c 24.927347
_cell_angle_alpha 90.000000
_cell_angle_beta 158.841205
_cell_angle_gamma 90.000000
_cell_volume 3646.038241
_symmetry_space_group_name_H-M "C 2/C"
_symmetry_group_IT_number 15
_symmetry_cell_setting 'monoclinic'
loop_
_space_group_symop_operation_xyz
x,y,z
-x,y,1/2-z
-x,-y,-z
x,-y,1/2+z
1/2+x,1/2+y,z
1/2-x,1/2+y,1/2-z
1/2-x,1/2-y,-z
1/2+x,1/2-y,1/2+z
loop_
_atom_site_type_symbol
_atom_site_label
_atom_site_fract_x
_atom_site_fract_y
_atom_site_fract_z
Si Si1 0.082642 0.042680 0.720050
Si Si2 0.403989 0.021482 0.057231
Si Si3 0.498859 0.428098 0.443029
Si Si4 0.316303 0.022913 0.674095
Si Si5 0.231763 0.675825 0.426803
Si Si6 0.765668 0.802811 0.073311
Si Si7 0.950967 0.392486 0.504516
Si Si8 0.721575 0.565117 0.366743
O O1 0.208710 0.087076 0.835073
O O2 0.822375 0.051201 0.566113
O O3 0.151700 0.054883 0.702131
O O4 0.155330 0.981471 0.782142
O O5 0.560194 0.013118 0.204807
O O6 0.536711 0.063227 0.101923
O O7 0.357170 0.962707 0.999910
O O8 0.680502 0.476691 0.556948
O O9 0.344603 0.430612 0.399884
O O10 0.599646 0.366908 0.496317
O O11 0.500000 0.051204 0.750000
O O12 0.305721 0.739149 0.466464
O O13 0.242395 0.670058 0.498698
O O14 0.000000 0.666010 0.250000
O O15 0.573079 0.831743 0.986731
O O16 0.000000 0.812211 0.250000
O O17 0.126267 0.389172 0.566008
O O18 0.500000 0.594448 0.250000
#
# Coordination Sequence:
#
# PCOD8130883 Si02
#       8
#     8   8   8   8   8   8   8   8
#     4  10  18  31  49  74 100 130 164 203 253 306
#     4  10  18  30  47  71 103 127 163 206 248 301
#     4  11  21  33  52  69 100 138 170 203 255 305
#     4  11  22  33  46  73 102 138 173 201 242 310
#     4  10  22  38  53  77 107 132 167 221 268 306
#     4  10  21  36  56  79 101 130 173 218 265 313
#     4  11  18  29  52  74  96 131 168 203 255 308
#     4   9  19  31  45  70 104 133 160 206 249 293
#
# _framework density 17.553298999999999
#
# number of rings (size 3 to 8) (size 9 to 14) (size 15 to 20)
#    0.000    1.750    1.250    6.750    1.750    0.000 
#    0.000    0.000    0.000    0.750    0.000    0.000 
#    0.000   11.250    0.000    0.000    0.000    1.000 
#
# Total GULP energy -396449.978003 kJ/mol
# GULP energy per Si atom -12389.061813 kJ/mol
# Density = 1.751335 g / cm^3
# Si number density = 17.553299 Si / 1000 Ang^3
#
#
#
# Elastic Constant Matrix: (Units=GPa)
#
#
# Indices 1 2 3 4 5 6 
#
# 1 107.7643 51.4360 32.0538 -0.0472 13.6170 -0.0119
# 2 51.4360 69.0840 27.0670 -0.0480 10.7854 0.0259
# 3 32.0538 27.0670 62.4971 0.0710 -3.8010 -0.0308
# 4 -0.0472 -0.0480 0.0710 0.7930 -0.0799 5.4798
# 5 13.6170 10.7854 -3.8010 -0.0799 40.3723 0.0139
# 6 -0.0119 0.0259 -0.0308 5.4798 0.0139 28.3234
#
#
#
# Elastic Compliance Matrix: (Units=1/GPa)
#
#
# Indices 1 2 3 4 5 6 
#
# 1 0.015322 -0.009373 -0.003983 -0.000922 -0.003041 0.000191
# 2 -0.009373 0.024417 -0.006002 -0.003778 -0.003934 0.000700
# 3 -0.003983 -0.006002 0.020935 0.006362 0.004931 -0.001207
# 4 -0.000922 -0.003778 0.006362 -3.737632 -0.005727 0.723147
# 5 -0.003041 -0.003934 0.004931 -0.005727 0.027299 0.001102
# 6 0.000191 0.000700 -0.001207 0.723147 0.001102 -0.104606
#
#
# Mechanical properties :
#
#
# Convention : Reuss Voigt Hill
#
# Bulk Modulus (GPa) = 45.54205 51.16210 48.35207
# Shear Modulus (GPa) = -1.34835 22.48364 10.56764
#
# Velocity S-wave (km/s) = -0.87739 3.58282 2.45630
# Velocity P-wave (km/s) = 4.99749 6.80628 5.97078
#
# Compressibility (1/GPa) = 0.02195773
#
# Stress axis : x y z
#
# Youngs Moduli (GPa) = 65.26610 40.95516 47.76737
#
# Poissons Ratio (x) = 0.38389 0.19024
# Poissons Ratio (y) = 0.61177 0.28670
# Poissons Ratio (z) = 0.25993 0.24581
#
# Static dielectric constant tensor:
#      x y z
#    x 4.074010 0.000790 -0.014660 
#    y 0.000790 2.962980 -0.000130 
#    z -0.014660 -0.000130 3.439810 
# 
# 
# High freq. dielectric constant tensor:
#      x y z
#    x 1.686590 0.000000 -0.015080 
#    y 0.000000 1.635000 -0.000020 
#    z -0.015080 -0.000020 1.683850 
# 
# From -- ./inp_files/299595.got.cif
#   From: 2010.06.25/outbox.cif.g09.slc.cpg/sg15_150_cif.got.tgz:299595.got - 2010.06.28 07:06:18.
