data_PCOD8130156
_publ_section_title
;
Structure prediction by ZEFSAII (Michael W. Deem and Ramdas Pophale) SiO2 
 PCOD8130156
Probable space group: C 2/C
;
_chemical_formula_sum "Si O2"
_cell_formula_units_Z 40
_cell_length_a 8.862975
_cell_length_b 27.625220
_cell_length_c 9.229910
_cell_angle_alpha 90.000000
_cell_angle_beta 116.483007
_cell_angle_gamma 90.000000
_cell_volume 2022.730929
_symmetry_space_group_name_H-M "C 2/C"
_symmetry_group_IT_number 15
_symmetry_cell_setting 'monoclinic'
loop_
_space_group_symop_operation_xyz
x,y,z
-x,y,1/2-z
-x,-y,-z
x,-y,1/2+z
1/2+x,1/2+y,z
1/2-x,1/2+y,1/2-z
1/2-x,1/2-y,-z
1/2+x,1/2-y,1/2+z
loop_
_atom_site_type_symbol
_atom_site_label
_atom_site_fract_x
_atom_site_fract_y
_atom_site_fract_z
Si Si1 0.640226 0.462588 0.114190
Si Si2 0.166253 0.201121 0.412356
Si Si3 0.999281 0.142041 0.910696
Si Si4 0.819149 0.363187 0.738502
Si Si5 0.801164 0.044243 0.165527
O O1 0.559487 0.413174 0.133972
O O2 0.730938 0.489899 0.286669
O O3 0.500000 0.500000 0.000000
O O4 0.763316 0.453980 0.028828
O O5 0.250000 0.250000 0.500000
O O6 0.294027 0.171751 0.365044
O O7 0.000000 0.213214 0.250000
O O8 0.129462 0.169659 0.539512
O O9 0.000000 0.165562 0.750000
O O10 0.185728 0.146454 0.054664
O O11 0.804760 0.418486 0.784600
O O12 0.000000 0.352626 0.750000
O O13 0.000000 0.060329 0.250000
#
# Coordination Sequence:
#
# PCOD8130156 Si02
#       5
#     8   8   8   8   8
#     4  10  17  29  61  86 116 153 215 235 288 353
#     4  10  23  44  68  87 118 160 205 256 310 363
#     4  11  21  38  64  93 118 158 208 253 297 369
#     4  11  22  39  60  89 126 160 196 252 311 361
#     4  10  17  33  57  84 117 164 205 242 285 362
#
# _framework density 19.775245999999999
#
# number of rings (size 3 to 8) (size 9 to 14) (size 15 to 20)
#    0.000    1.600    6.000    2.400    0.000    2.400 
#    0.000    5.000    0.000    0.000    0.000    0.000 
#    0.000    0.000    0.000    0.000    0.000    0.000 
#
# Total GULP energy -247941.998500 kJ/mol
# GULP energy per Si atom -12397.099925 kJ/mol
# Density = 1.973024 g / cm^3
# Si number density = 19.775246 Si / 1000 Ang^3
#
#
#
# Elastic Constant Matrix: (Units=GPa)
#
#
# Indices 1 2 3 4 5 6 
#
# 1 122.2518 57.4045 59.3133 0.0000 -28.9676 0.0000
# 2 57.4045 122.9070 44.4075 0.0000 -6.3277 0.0000
# 3 59.3133 44.4075 130.5328 0.0000 -37.4718 0.0000
# 4 0.0000 0.0000 0.0000 37.0283 0.0000 -0.6249
# 5 -28.9676 -6.3277 -37.4718 0.0000 24.6044 0.0000
# 6 0.0000 0.0000 0.0000 -0.6249 0.0000 14.1289
#
#
#
# Elastic Compliance Matrix: (Units=1/GPa)
#
#
# Indices 1 2 3 4 5 6 
#
# 1 0.014802 -0.006038 -0.000204 0.000000 0.015563 0.000000
# 2 -0.006038 0.012003 -0.004432 0.000000 -0.010772 0.000000
# 3 -0.000204 -0.004432 0.015752 0.000000 0.022610 0.000000
# 4 0.000000 0.000000 0.000000 0.027027 0.000000 0.001195
# 5 0.015563 -0.010772 0.022610 0.000000 0.090630 0.000000
# 6 0.000000 0.000000 0.000000 0.001195 0.000000 0.070830
#
#
# Mechanical properties :
#
#
# Convention : Reuss Voigt Hill
#
# Bulk Modulus (GPa) = 47.15125 77.54914 62.35020
# Shear Modulus (GPa) = 19.27071 29.45675 24.36373
#
# Velocity S-wave (km/s) = 3.12506 3.86369 3.51384
# Velocity P-wave (km/s) = 6.07591 7.69445 6.93258
#
# Compressibility (1/GPa) = 0.02120834
#
# Stress axis : x y z
#
# Youngs Moduli (GPa) = 67.55920 83.31084 63.48440
#
# Poissons Ratio (x) = 0.50306 0.01295
# Poissons Ratio (y) = 0.40795 0.28137
# Poissons Ratio (z) = 0.01378 0.36924
#
# Static dielectric constant tensor:
#      x y z
#    x 3.380600 0.000000 -0.491410 
#    y 0.000000 3.612680 0.000000 
#    z -0.491410 0.000000 4.284180 
# 
# 
# High freq. dielectric constant tensor:
#      x y z
#    x 1.736090 0.000000 -0.036530 
#    y 0.000000 1.767140 0.000000 
#    z -0.036530 0.000000 1.782890 
# 
# From -- ./inp_files/23727.got.cif
#   From: 2010.06.25/outbox.cif.g09.slc.cpg/sg15_12_cif.got.tgz:23727.got - 2010.06.28 07:06:18.
