data_PCOD8130686
_publ_section_title
;
Structure prediction by ZEFSAII (Michael W. Deem and Ramdas Pophale) SiO2 
 PCOD8130686
Probable space group: C 2/C
;
_chemical_formula_sum "Si O2"
_cell_formula_units_Z 48
_cell_length_a 25.534763
_cell_length_b 11.807624
_cell_length_c 14.135753
_cell_angle_alpha 90.000000
_cell_angle_beta 30.528851
_cell_angle_gamma 90.000000
_cell_volume 2164.976626
_symmetry_space_group_name_H-M "C 2/C"
_symmetry_group_IT_number 15
_symmetry_cell_setting 'monoclinic'
loop_
_space_group_symop_operation_xyz
x,y,z
-x,y,1/2-z
-x,-y,-z
x,-y,1/2+z
1/2+x,1/2+y,z
1/2-x,1/2+y,1/2-z
1/2-x,1/2-y,-z
1/2+x,1/2-y,1/2+z
loop_
_atom_site_type_symbol
_atom_site_label
_atom_site_fract_x
_atom_site_fract_y
_atom_site_fract_z
Si Si1 0.894840 0.713724 0.805339
Si Si2 0.385491 0.144347 0.028198
Si Si3 0.024754 0.409416 0.605675
Si Si4 0.205787 0.626896 0.054648
Si Si5 0.738133 0.588591 0.933959
Si Si6 0.772152 0.677975 0.685980
O O1 0.850326 0.638804 0.788316
O O2 0.016937 0.725623 0.602936
O O3 0.864446 0.644384 0.948152
O O4 0.848367 0.839489 0.875902
O O5 0.286362 0.201128 0.234963
O O6 0.412191 0.020780 0.031640
O O7 0.105823 0.304039 0.476326
O O8 0.000000 0.446720 0.750000
O O9 0.915966 0.378889 0.725477
O O10 0.270453 0.540797 0.019080
O O11 0.250000 0.750000 0.000000
O O12 0.226462 0.601942 0.911265
O O13 0.718658 0.603312 0.852016
#
# Coordination Sequence:
#
# PCOD8130686 Si02
#       6
#     8   8   8   8   8   8
#     4   9  17  34  64  92 118 153 216 271 304 350
#     4  10  17  36  64  92 116 161 213 260 304 377
#     4  10  19  39  64  87 125 168 206 255 312 375
#     4  11  24  42  59  93 136 169 203 263 330 378
#     4  10  20  38  61  94 121 163 209 265 313 372
#     4  10  24  36  61  94 121 160 221 255 309 380
#
# _framework density 22.171140999999999
#
# number of rings (size 3 to 8) (size 9 to 14) (size 15 to 20)
#    0.000    2.000    3.333    1.000    2.333    2.000 
#    0.000    2.500   11.000    0.000    0.000    0.000 
#    0.000    0.000    0.000    0.000    0.000    0.000 
#
# Total GULP energy -297386.923051 kJ/mol
# GULP energy per Si atom -12391.121794 kJ/mol
# Density = 2.212068 g / cm^3
# Si number density = 22.171141 Si / 1000 Ang^3
#
#
#
# Elastic Constant Matrix: (Units=GPa)
#
#
# Indices 1 2 3 4 5 6 
#
# 1 66.8108 39.7977 23.1365 0.0000 -7.9676 0.0000
# 2 39.7977 144.7184 58.5813 0.0000 -25.2745 0.0000
# 3 23.1365 58.5813 92.4895 0.0000 -20.7956 0.0000
# 4 0.0000 0.0000 0.0000 37.0307 0.0000 -10.1653
# 5 -7.9676 -25.2745 -20.7956 0.0000 41.5723 0.0000
# 6 0.0000 0.0000 0.0000 -10.1653 0.0000 27.2502
#
#
#
# Elastic Compliance Matrix: (Units=1/GPa)
#
#
# Indices 1 2 3 4 5 6 
#
# 1 0.018133 -0.004240 -0.001857 0.000000 -0.000032 0.000000
# 2 -0.004240 0.010640 -0.004965 0.000000 0.003172 0.000000
# 3 -0.001857 -0.004965 0.015394 0.000000 0.004326 0.000000
# 4 0.000000 0.000000 0.000000 0.030085 0.000000 0.011223
# 5 -0.000032 0.003172 0.004326 0.000000 0.028141 0.000000
# 6 0.000000 0.000000 0.000000 0.011223 0.000000 0.040884
#
#
# Mechanical properties :
#
#
# Convention : Reuss Voigt Hill
#
# Bulk Modulus (GPa) = 45.36935 60.78332 53.07634
# Shear Modulus (GPa) = 28.94358 33.33753 31.14055
#
# Velocity S-wave (km/s) = 3.61704 3.88189 3.75180
# Velocity P-wave (km/s) = 6.16049 6.89689 6.53907
#
# Compressibility (1/GPa) = 0.02204131
#
# Stress axis : x y z
#
# Youngs Moduli (GPa) = 55.14845 93.98533 64.95949
#
# Poissons Ratio (x) = 0.39852 0.12066
# Poissons Ratio (y) = 0.23384 0.32254
# Poissons Ratio (z) = 0.10244 0.46666
#
# Static dielectric constant tensor:
#      x y z
#    x 4.283250 0.000000 -0.003710 
#    y 0.000000 3.763490 0.000000 
#    z -0.003710 0.000000 4.171880 
# 
# 
# High freq. dielectric constant tensor:
#      x y z
#    x 1.880210 0.000000 0.007020 
#    y 0.000000 1.841710 0.000000 
#    z 0.007020 0.000000 1.864280 
# 
# From -- ./inp_files/177749.got.cif
#   From: 2010.06.25/outbox.cif.g09.slc.cpg/sg15_89_cif.got.tgz:177749.got - 2010.06.28 07:06:18.
