data_PCOD8130669
_publ_section_title
;
Structure prediction by ZEFSAII (Michael W. Deem and Ramdas Pophale) SiO2 
 PCOD8130669
Probable space group: C 2/C
;
_chemical_formula_sum "Si O2"
_cell_formula_units_Z 44
_cell_length_a 17.040820
_cell_length_b 10.526088
_cell_length_c 15.292450
_cell_angle_alpha 90.000000
_cell_angle_beta 123.281302
_cell_angle_gamma 90.000000
_cell_volume 2293.157117
_symmetry_space_group_name_H-M "C 2/C"
_symmetry_group_IT_number 15
_symmetry_cell_setting 'monoclinic'
loop_
_space_group_symop_operation_xyz
x,y,z
-x,y,1/2-z
-x,-y,-z
x,-y,1/2+z
1/2+x,1/2+y,z
1/2-x,1/2+y,1/2-z
1/2-x,1/2-y,-z
1/2+x,1/2-y,1/2+z
loop_
_atom_site_type_symbol
_atom_site_label
_atom_site_fract_x
_atom_site_fract_y
_atom_site_fract_z
Si Si1 0.659939 0.532996 0.803587
Si Si2 0.580197 0.249981 0.359480
Si Si3 0.545206 0.609858 0.582720
Si Si4 0.000000 0.161518 0.250000
Si Si5 0.989478 0.320083 0.066755
Si Si6 0.366722 0.059851 0.968963
O O1 0.650999 0.670393 0.843310
O O2 0.637325 0.552802 0.686702
O O3 0.593258 0.425919 0.806271
O O4 0.768704 0.496764 0.880357
O O5 0.500000 0.182323 0.250000
O O6 0.528432 0.352478 0.388231
O O7 0.641397 0.149769 0.451088
O O8 0.500000 0.500000 0.500000
O O9 0.568276 0.729029 0.534765
O O10 0.996464 0.250895 0.332623
O O11 0.089521 0.359434 0.084852
O O12 0.931703 0.447402 0.042952
#
# Coordination Sequence:
#
# PCOD8130669 Si02
#       6
#     8   8   8   4   8   8
#     4  11  20  37  64  92 115 154 207 251 292 363
#     4   9  18  35  60  87 114 152 196 242 296 361
#     4  10  17  36  60  80 116 157 192 242 304 351
#     4  12  22  40  68  88 122 158 208 254 302 348
#     4  10  23  41  59  85 125 161 196 251 307 363
#     4  10  23  39  59  89 123 157 199 243 311 363
#
# _framework density 19.187521
#
# number of rings (size 3 to 8) (size 9 to 14) (size 15 to 20)
#    0.000    1.818    4.545    0.545    1.273    2.182 
#    0.000    1.818    0.000    0.000    0.000    0.000 
#    0.000    0.000    0.000    0.000    0.000    0.000 
#
# Total GULP energy -272710.063168 kJ/mol
# GULP energy per Si atom -12395.911962 kJ/mol
# Density = 1.914385 g / cm^3
# Si number density = 19.187521 Si / 1000 Ang^3
#
#
#
# Elastic Constant Matrix: (Units=GPa)
#
#
# Indices 1 2 3 4 5 6 
#
# 1 71.0708 33.3574 54.7398 0.0000 3.5605 0.0000
# 2 33.3574 92.4524 49.1546 0.0000 -7.3390 0.0000
# 3 54.7398 49.1546 130.3523 0.0000 -3.0451 0.0000
# 4 0.0000 0.0000 0.0000 34.5516 0.0000 -8.6851
# 5 3.5605 -7.3390 -3.0451 0.0000 32.7700 0.0000
# 6 0.0000 0.0000 0.0000 -8.6851 0.0000 17.5256
#
#
#
# Elastic Compliance Matrix: (Units=1/GPa)
#
#
# Indices 1 2 3 4 5 6 
#
# 1 0.022315 -0.004182 -0.007890 0.000000 -0.004094 0.000000
# 2 -0.004182 0.014530 -0.003644 0.000000 0.003370 0.000000
# 3 -0.007890 -0.003644 0.012387 0.000000 0.001192 0.000000
# 4 0.000000 0.000000 0.000000 0.033060 0.000000 0.016384
# 5 -0.004094 0.003370 0.001192 0.000000 0.031826 0.000000
# 6 0.000000 0.000000 0.000000 0.016384 0.000000 0.065179
#
#
# Mechanical properties :
#
#
# Convention : Reuss Voigt Hill
#
# Bulk Modulus (GPa) = 56.17815 63.15324 59.66570
# Shear Modulus (GPa) = 23.07735 27.41100 25.24418
#
# Velocity S-wave (km/s) = 3.47180 3.78376 3.63113
# Velocity P-wave (km/s) = 6.73893 7.21625 6.98167
#
# Compressibility (1/GPa) = 0.01780052
#
# Stress axis : x y z
#
# Youngs Moduli (GPa) = 44.81277 68.82155 80.73073
#
# Poissons Ratio (x) = 0.28779 0.63694
# Poissons Ratio (y) = 0.18739 0.29422
# Poissons Ratio (z) = 0.35356 0.25082
#
# Static dielectric constant tensor:
#      x y z
#    x 3.429120 0.000000 -0.322010 
#    y 0.000000 3.665090 0.000000 
#    z -0.322010 0.000000 4.080990 
# 
# 
# High freq. dielectric constant tensor:
#      x y z
#    x 1.722130 0.000000 -0.014900 
#    y 0.000000 1.752320 0.000000 
#    z -0.014900 0.000000 1.754290 
# 
# From -- ./inp_files/151766.got.cif
#   From: 2010.06.25/outbox.cif.g09.slc.cpg/sg15_76_cif.got.tgz:151766.got - 2010.06.28 07:06:18.
