data_PCOD8130288
_publ_section_title
;
Structure prediction by ZEFSAII (Michael W. Deem and Ramdas Pophale) SiO2 
 PCOD8130288
Probable space group: C 2/C
;
_chemical_formula_sum "Si O2"
_cell_formula_units_Z 40
_cell_length_a 13.081730
_cell_length_b 14.662224
_cell_length_c 10.222736
_cell_angle_alpha 90.000000
_cell_angle_beta 96.526411
_cell_angle_gamma 90.000000
_cell_volume 1948.088138
_symmetry_space_group_name_H-M "C 2/C"
_symmetry_group_IT_number 15
_symmetry_cell_setting 'monoclinic'
loop_
_space_group_symop_operation_xyz
x,y,z
-x,y,1/2-z
-x,-y,-z
x,-y,1/2+z
1/2+x,1/2+y,z
1/2-x,1/2+y,1/2-z
1/2-x,1/2-y,-z
1/2+x,1/2-y,1/2+z
loop_
_atom_site_type_symbol
_atom_site_label
_atom_site_fract_x
_atom_site_fract_y
_atom_site_fract_z
Si Si1 0.319304 0.165539 0.854245
Si Si2 0.532004 0.735192 0.954255
Si Si3 0.345061 0.787554 0.782856
Si Si4 0.748110 0.020129 0.224561
Si Si5 0.336954 0.571411 0.506097
O O1 0.262435 0.234071 0.746077
O O2 0.329410 0.067442 0.782539
O O3 0.249852 0.149494 0.976186
O O4 0.428732 0.208293 0.912400
O O5 0.409651 0.747996 0.916425
O O6 0.587625 0.776683 0.836438
O O7 0.554913 0.626584 0.975863
O O8 0.322565 0.892819 0.809260
O O9 0.830615 0.005660 0.118326
O O10 0.816465 0.025694 0.364355
#
# Coordination Sequence:
#
# PCOD8130288 Si02
#       5
#     8   8   8   8   8
#     4   9  18  32  55  74 110 140 189 217 271 325
#     4  10  17  32  59  74 106 149 196 212 260 346
#     4  10  17  31  55  81 102 144 189 225 265 323
#     4  10  18  32  56  82 108 143 184 231 274 325
#     4   9  18  33  54  79 107 145 184 227 271 323
#
# _framework density 20.532952000000002
#
# number of rings (size 3 to 8) (size 9 to 14) (size 15 to 20)
#    1.200    1.200    4.000    1.200    0.000    0.800 
#    0.000    2.000    0.000    0.000    0.000    0.000 
#    0.000    0.000    0.000    0.000    0.000    0.000 
#
# Total GULP energy -247788.580130 kJ/mol
# GULP energy per Si atom -12389.429006 kJ/mol
# Density = 2.048622 g / cm^3
# Si number density = 20.532952 Si / 1000 Ang^3
#
#
#
# Elastic Constant Matrix: (Units=GPa)
#
#
# Indices 1 2 3 4 5 6 
#
# 1 39.4902 29.4727 52.5141 0.0000 33.1027 0.0000
# 2 29.4727 99.3965 68.5540 0.0000 22.7372 0.0000
# 3 52.5141 68.5540 137.1066 0.0000 40.5558 0.0000
# 4 0.0000 0.0000 0.0000 41.6841 0.0000 1.3231
# 5 33.1027 22.7372 40.5558 0.0000 36.7883 0.0000
# 6 0.0000 0.0000 0.0000 1.3231 0.0000 16.7200
#
#
#
# Elastic Compliance Matrix: (Units=1/GPa)
#
#
# Indices 1 2 3 4 5 6 
#
# 1 0.145088 -0.003294 -0.023608 0.000000 -0.102492 0.000000
# 2 -0.003294 0.015489 -0.006719 0.000000 0.000798 0.000000
# 3 -0.023608 -0.006719 0.018079 0.000000 0.005465 0.000000
# 4 0.000000 0.000000 0.000000 0.024050 0.000000 -0.001903
# 5 -0.102492 0.000798 0.005465 0.000000 0.112888 0.000000
# 6 0.000000 0.000000 0.000000 -0.001903 0.000000 0.059959
#
#
# Mechanical properties :
#
#
# Convention : Reuss Voigt Hill
#
# Bulk Modulus (GPa) = 8.97542 64.11945 36.54743
# Shear Modulus (GPa) = 10.41812 27.40198 18.91005
#
# Velocity S-wave (km/s) = 2.25497 3.65709 3.03803
# Velocity P-wave (km/s) = 3.34074 7.00912 5.49037
#
# Compressibility (1/GPa) = 0.11141546
#
# Stress axis : x y z
#
# Youngs Moduli (GPa) = 6.89235 64.56212 55.31370
#
# Poissons Ratio (x) = 0.21264 1.30583
# Poissons Ratio (y) = 0.02270 0.37165
# Poissons Ratio (z) = 0.16271 0.43379
#
# Static dielectric constant tensor:
#      x y z
#    x 3.290720 0.000000 0.459270 
#    y 0.000000 3.680650 0.000000 
#    z 0.459270 0.000000 3.643890 
# 
# 
# High freq. dielectric constant tensor:
#      x y z
#    x 1.745360 0.000000 0.038210 
#    y 0.000000 1.809180 0.000000 
#    z 0.038210 0.000000 1.794860 
# 
# From -- ./inp_files/85724.got.cif
#   From: 2010.06.25/outbox.cif.g09.slc.cpg/sg15_43_cif.got.tgz:85724.got - 2010.06.28 07:06:18.
