data_PCOD8130482
_publ_section_title
;
Structure prediction by ZEFSAII (Michael W. Deem and Ramdas Pophale) SiO2 
 PCOD8130482
Probable space group: C 2/C
;
_chemical_formula_sum "Si O2"
_cell_formula_units_Z 64
_cell_length_a 14.285972
_cell_length_b 11.224304
_cell_length_c 33.560355
_cell_angle_alpha 90.000000
_cell_angle_beta 140.240963
_cell_angle_gamma 90.000000
_cell_volume 3441.733442
_symmetry_space_group_name_H-M "C 2/C"
_symmetry_group_IT_number 15
_symmetry_cell_setting 'monoclinic'
loop_
_space_group_symop_operation_xyz
x,y,z
-x,y,1/2-z
-x,-y,-z
x,-y,1/2+z
1/2+x,1/2+y,z
1/2-x,1/2+y,1/2-z
1/2-x,1/2-y,-z
1/2+x,1/2-y,1/2+z
loop_
_atom_site_type_symbol
_atom_site_label
_atom_site_fract_x
_atom_site_fract_y
_atom_site_fract_z
Si Si1 0.009312 0.648166 0.461530
Si Si2 0.976521 0.008729 0.154041
Si Si3 0.636154 0.344587 0.765816
Si Si4 0.261730 0.976511 0.363004
Si Si5 0.239276 0.541381 0.015704
Si Si6 0.507928 0.479536 0.956085
Si Si7 0.388600 0.332312 0.362129
Si Si8 0.017894 0.713534 0.553447
O O1 0.875070 0.557509 0.425379
O O2 0.987765 0.729856 0.415238
O O3 0.019765 0.720575 0.505893
O O4 0.158358 0.576813 0.504200
O O5 0.890249 0.957759 0.163911
O O6 0.047851 0.891876 0.157154
O O7 0.866630 0.075611 0.088428
O O8 0.086852 0.113350 0.205438
O O9 0.500000 0.317798 0.750000
O O10 0.731762 0.457128 0.811787
O O11 0.732049 0.223310 0.798402
O O12 0.339512 0.850423 0.381505
O O13 0.321848 0.503354 0.001746
O O14 0.127995 0.652312 0.975729
O O15 0.387177 0.563611 0.895072
O O16 0.468417 0.347888 0.928067
O O17 0.500000 0.500000 0.000000
#
# Coordination Sequence:
#
# PCOD8130482 Si02
#       8
#     8   8   8   8   8   8   8   8
#     4  10  17  33  61  82 118 142 180 228 274 347
#     4  10  18  34  58  85 104 140 195 237 265 326
#     4   9  20  38  62  75  99 148 198 238 269 318
#     4   9  17  33  58  86 103 143 190 228 278 311
#     4  10  20  34  56  89 111 152 190 223 279 334
#     4  11  23  34  50  81 123 153 174 220 287 351
#     4  10  22  37  56  82 114 147 187 224 292 339
#     4  11  18  34  56  84 122 142 178 232 276 343
#
# _framework density 18.595281
#
# number of rings (size 3 to 8) (size 9 to 14) (size 15 to 20)
#    0.000    2.000    3.750    1.125    0.000    3.000 
#    4.500    0.000    8.250    0.000    0.000    0.000 
#    0.000    0.000    0.000    0.000    0.000    0.000 
#
# Total GULP energy -396521.075499 kJ/mol
# GULP energy per Si atom -12391.283609 kJ/mol
# Density = 1.855296 g / cm^3
# Si number density = 18.595281 Si / 1000 Ang^3
#
#
#
# Elastic Constant Matrix: (Units=GPa)
#
#
# Indices 1 2 3 4 5 6 
#
# 1 102.4434 39.9898 40.6587 0.0000 -1.7778 0.0000
# 2 39.9898 110.6659 44.7893 0.0000 12.1142 0.0000
# 3 40.6587 44.7893 93.6083 0.0000 8.6695 0.0000
# 4 0.0000 0.0000 0.0000 34.4379 0.0000 -0.5445
# 5 -1.7778 12.1142 8.6695 0.0000 23.2344 0.0000
# 6 0.0000 0.0000 0.0000 -0.5445 0.0000 26.4523
#
#
#
# Elastic Compliance Matrix: (Units=1/GPa)
#
#
# Indices 1 2 3 4 5 6 
#
# 1 0.012895 -0.003358 -0.004399 0.000000 0.004379 0.000000
# 2 -0.003358 0.012448 -0.004011 0.000000 -0.005250 0.000000
# 3 -0.004399 -0.004011 0.014864 0.000000 -0.003792 0.000000
# 4 0.000000 0.000000 0.000000 0.029047 0.000000 0.000598
# 5 0.004379 -0.005250 -0.003792 0.000000 0.047527 0.000000
# 6 0.000000 0.000000 0.000000 0.000598 0.000000 0.037816
#
#
# Mechanical properties :
#
#
# Convention : Reuss Voigt Hill
#
# Bulk Modulus (GPa) = 59.99217 61.95482 60.97349
# Shear Modulus (GPa) = 27.21965 28.91023 28.06494
#
# Velocity S-wave (km/s) = 3.83011 3.94726 3.88912
# Velocity P-wave (km/s) = 7.20359 7.35964 7.28203
#
# Compressibility (1/GPa) = 0.01666884
#
# Stress axis : x y z
#
# Youngs Moduli (GPa) = 77.55232 80.33496 67.27644
#
# Poissons Ratio (x) = 0.26979 0.29598
# Poissons Ratio (y) = 0.26045 0.26985
# Poissons Ratio (z) = 0.34119 0.32223
#
# Static dielectric constant tensor:
#      x y z
#    x 3.501270 0.000000 0.081390 
#    y 0.000000 3.448050 0.000000 
#    z 0.081390 0.000000 3.435270 
# 
# 
# High freq. dielectric constant tensor:
#      x y z
#    x 1.715050 0.000000 0.000250 
#    y 0.000000 1.716700 0.000000 
#    z 0.000250 0.000000 1.710060 
# 
# From -- ./inp_files/313601.got.cif
#   From: 2010.06.25/outbox.cif.g09.slc.cpg/sg15_157_cif.got.tgz:313601.got - 2010.06.28 07:06:18.
