data_PCOD8130884
_publ_section_title
;
Structure prediction by ZEFSAII (Michael W. Deem and Ramdas Pophale) SiO2 
 PCOD8130884
Probable space group: C 2/C
;
_chemical_formula_sum "Si O2"
_cell_formula_units_Z 60
_cell_length_a 12.875166
_cell_length_b 23.662848
_cell_length_c 17.379022
_cell_angle_alpha 90.000000
_cell_angle_beta 42.376202
_cell_angle_gamma 90.000000
_cell_volume 3568.635994
_symmetry_space_group_name_H-M "C 2/C"
_symmetry_group_IT_number 15
_symmetry_cell_setting 'monoclinic'
loop_
_space_group_symop_operation_xyz
x,y,z
-x,y,1/2-z
-x,-y,-z
x,-y,1/2+z
1/2+x,1/2+y,z
1/2-x,1/2+y,1/2-z
1/2-x,1/2-y,-z
1/2+x,1/2-y,1/2+z
loop_
_atom_site_type_symbol
_atom_site_label
_atom_site_fract_x
_atom_site_fract_y
_atom_site_fract_z
Si Si1 0.500000 0.835391 0.750000
Si Si2 0.529450 0.934801 0.999788
Si Si3 0.617646 0.075435 0.291659
Si Si4 0.915924 0.467100 0.368448
Si Si5 0.752264 0.349717 0.135724
Si Si6 0.295836 0.732576 0.059023
Si Si7 0.638299 0.464399 0.956757
Si Si8 0.964693 0.860396 0.392678
O O1 0.497280 0.875485 0.676197
O O2 0.351127 0.797018 0.822753
O O3 0.645735 0.913927 0.867876
O O4 0.598965 0.926463 0.047982
O O5 0.371872 0.900318 0.077489
O O6 0.500000 0.000000 0.000000
O O7 0.776575 0.071965 0.156871
O O8 0.530259 0.017227 0.327504
O O9 0.749521 0.491390 0.438598
O O10 0.000000 0.435283 0.250000
O O11 0.837727 0.288109 0.086908
O O12 0.640932 0.353835 0.270390
O O13 0.652552 0.354355 0.113479
O O14 0.250000 0.750000 0.000000
O O15 0.435305 0.687649 0.974450
O O16 0.500000 0.500000 0.000000
O O17 0.563662 0.422128 0.058285
#
# Coordination Sequence:
#
# PCOD8130884 Si02
#       8
#     4   8   8   8   8   8   8   8
#     4  12  16  30  54  70 112 146 172 204 270 332
#     4  10  20  32  53  72 102 138 184 214 253 315
#     4  10  18  32  52  76 102 143 180 207 258 329
#     4   9  18  34  50  71 101 139 179 217 260 320
#     4  10  21  32  49  79 105 141 176 215 260 319
#     4  10  18  30  47  73 105 143 171 209 265 323
#     4  11  21  33  51  77 106 140 177 223 275 318
#     4  10  19  33  47  73 115 137 167 219 275 310
#
# _framework density 16.813147000000001
#
# number of rings (size 3 to 8) (size 9 to 14) (size 15 to 20)
#    0.000    1.867    3.333    4.800    5.600    0.000 
#    0.000    0.000    0.000    0.000    0.000    0.933 
#    0.000    0.000    0.000    0.000    0.000    0.000 
#
# Total GULP energy -371724.236932 kJ/mol
# GULP energy per Si atom -12390.807898 kJ/mol
# Density = 1.677488 g / cm^3
# Si number density = 16.813147 Si / 1000 Ang^3
#
#
#
# Elastic Constant Matrix: (Units=GPa)
#
#
# Indices 1 2 3 4 5 6 
#
# 1 61.5801 24.5661 39.1455 -0.0007 16.7054 0.0001
# 2 24.5661 74.6785 38.2869 -0.0005 -1.6746 0.0000
# 3 39.1455 38.2869 103.8746 0.0007 10.5978 -0.0003
# 4 -0.0007 -0.0005 0.0007 18.7305 -0.0007 -4.6523
# 5 16.7054 -1.6746 10.5978 -0.0007 27.8759 0.0000
# 6 0.0001 0.0000 -0.0003 -4.6523 0.0000 19.3692
#
#
#
# Elastic Compliance Matrix: (Units=1/GPa)
#
#
# Indices 1 2 3 4 5 6 
#
# 1 0.026284 -0.005657 -0.006428 0.000001 -0.013648 0.000000
# 2 -0.005657 0.018051 -0.005179 0.000001 0.006443 0.000000
# 3 -0.006428 -0.005179 0.014146 -0.000001 -0.001837 0.000000
# 4 0.000001 0.000001 -0.000001 0.056776 0.000001 0.013637
# 5 -0.013648 0.006443 -0.001837 0.000001 0.045137 0.000000
# 6 0.000000 0.000000 0.000000 0.013637 0.000000 0.054904
#
#
# Mechanical properties :
#
#
# Convention : Reuss Voigt Hill
#
# Bulk Modulus (GPa) = 41.74743 49.34779 45.54761
# Shear Modulus (GPa) = 19.39407 22.40408 20.89908
#
# Velocity S-wave (km/s) = 3.40002 3.65435 3.52947
# Velocity P-wave (km/s) = 6.34804 6.87169 6.61505
#
# Compressibility (1/GPa) = 0.02395357
#
# Stress axis : x y z
#
# Youngs Moduli (GPa) = 38.04587 55.39746 70.69297
#
# Poissons Ratio (x) = 0.31338 0.45440
# Poissons Ratio (y) = 0.21522 0.36612
# Poissons Ratio (z) = 0.24455 0.28691
#
# Static dielectric constant tensor:
#      x y z
#    x 3.195620 0.000000 0.545030 
#    y 0.000000 3.191550 0.000010 
#    z 0.545030 0.000010 3.794610 
# 
# 
# High freq. dielectric constant tensor:
#      x y z
#    x 1.597250 0.000000 0.021940 
#    y 0.000000 1.638210 0.000000 
#    z 0.021940 0.000000 1.666400 
# 
# From -- ./inp_files/200934.got.cif
#   From: 2010.06.25/outbox.cif.g09.slc.cpg/sg15_101_cif.got.tgz:200934.got - 2010.06.28 07:06:18.
