data_PCOD8130932
_publ_section_title
;
Structure prediction by ZEFSAII (Michael W. Deem and Ramdas Pophale) SiO2 
 PCOD8130932
Probable space group: C 2/C
;
_chemical_formula_sum "Si O2"
_cell_formula_units_Z 48
_cell_length_a 8.735181
_cell_length_b 19.148243
_cell_length_c 30.744590
_cell_angle_alpha 90.000000
_cell_angle_beta 148.703241
_cell_angle_gamma 90.000000
_cell_volume 2671.349220
_symmetry_space_group_name_H-M "C 2/C"
_symmetry_group_IT_number 15
_symmetry_cell_setting 'monoclinic'
loop_
_space_group_symop_operation_xyz
x,y,z
-x,y,1/2-z
-x,-y,-z
x,-y,1/2+z
1/2+x,1/2+y,z
1/2-x,1/2+y,1/2-z
1/2-x,1/2-y,-z
1/2+x,1/2-y,1/2+z
loop_
_atom_site_type_symbol
_atom_site_label
_atom_site_fract_x
_atom_site_fract_y
_atom_site_fract_z
Si Si1 0.822597 0.932090 0.663934
Si Si2 0.704195 0.603693 0.033704
Si Si3 0.749040 0.016362 0.884049
Si Si4 0.323626 0.327713 0.504710
Si Si5 0.186611 0.580912 0.660295
Si Si6 0.682546 0.595134 0.165473
O O1 0.530794 0.883016 0.594759
O O2 0.000000 0.913991 0.750000
O O3 0.019956 0.911893 0.671458
O O4 0.733297 0.013601 0.640542
O O5 0.687197 0.546260 0.067343
O O6 0.554419 0.671782 0.019939
O O7 0.508894 0.573937 0.946633
O O8 0.450814 0.054738 0.827123
O O9 0.734109 0.981931 0.832932
O O10 0.250000 0.250000 0.500000
O O11 0.466243 0.363018 0.581542
O O12 0.022549 0.366299 0.416666
O O13 0.500000 0.615673 0.750000
O O14 0.000000 0.633592 0.250000
#
# Coordination Sequence:
#
# PCOD8130932 Si02
#       6
#     8   8   8   8   8   8
#     4  10  18  30  51  78 104 129 161 214 276 316
#     4   8  15  30  48  67  99 131 160 205 253 293
#     4   8  15  28  47  72  98 125 158 204 257 304
#     4  10  21  35  50  72 102 142 182 208 239 298
#     4   9  17  32  52  74 103 134 164 208 264 309
#     4  11  20  31  52  80 104 129 167 212 261 316
#
# _framework density 17.968447999999999
#
# number of rings (size 3 to 8) (size 9 to 14) (size 15 to 20)
#    0.000    2.667    0.000    7.000    0.000    3.333 
#    0.000    0.833    0.000    0.000    0.000    8.167 
#    0.000    0.000    0.000    0.000    0.000    0.000 
#
# Total GULP energy -297347.824000 kJ/mol
# GULP energy per Si atom -12389.492667 kJ/mol
# Density = 1.792755 g / cm^3
# Si number density = 17.968448 Si / 1000 Ang^3
#
#
#
# Elastic Constant Matrix: (Units=GPa)
#
#
# Indices 1 2 3 4 5 6 
#
# 1 133.6929 45.9765 61.1169 -0.0229 14.8279 -0.0009
# 2 45.9765 70.4315 51.6984 -0.0602 9.3238 -0.0166
# 3 61.1169 51.6984 136.6001 -0.0838 16.6771 0.0025
# 4 -0.0229 -0.0602 -0.0838 9.8928 -0.0296 -1.3391
# 5 14.8279 9.3238 16.6771 -0.0296 34.1527 0.0053
# 6 -0.0009 -0.0166 0.0025 -1.3391 0.0053 16.2981
#
#
#
# Elastic Compliance Matrix: (Units=1/GPa)
#
#
# Indices 1 2 3 4 5 6 
#
# 1 0.010531 -0.004613 -0.002724 -0.000033 -0.001983 -0.000006
# 2 -0.004613 0.021790 -0.006063 0.000072 -0.000986 0.000029
# 3 -0.002724 -0.006063 0.011152 0.000043 -0.002608 -0.000004
# 4 -0.000033 0.000072 0.000043 0.102221 0.000061 0.008399
# 5 -0.001983 -0.000986 -0.002608 0.000061 0.031684 -0.000006
# 6 -0.000006 0.000029 -0.000004 0.008399 -0.000006 0.062047
#
#
# Mechanical properties :
#
#
# Convention : Reuss Voigt Hill
#
# Bulk Modulus (GPa) = 59.97034 73.14535 66.55784
# Shear Modulus (GPa) = 18.39709 24.19758 21.29733
#
# Velocity S-wave (km/s) = 3.20324 3.67368 3.44650
# Velocity P-wave (km/s) = 6.86505 7.66750 7.27734
#
# Compressibility (1/GPa) = 0.01667491
#
# Stress axis : x y z
#
# Youngs Moduli (GPa) = 94.95490 45.89292 89.66751
#
# Poissons Ratio (x) = 0.21169 0.24426
# Poissons Ratio (y) = 0.43800 0.54361
# Poissons Ratio (z) = 0.25866 0.27823
#
# Static dielectric constant tensor:
#      x y z
#    x 3.392610 0.000000 0.224180 
#    y 0.000000 3.004300 0.000000 
#    z 0.224180 0.000000 3.587860 
# 
# 
# High freq. dielectric constant tensor:
#      x y z
#    x 1.692940 0.000000 0.017980 
#    y 0.000000 1.636870 0.000000 
#    z 0.017980 0.000000 1.713400 
# 
# From -- ./inp_files/308952.got.cif
#   From: 2010.06.25/outbox.cif.g09.slc.cpg/sg15_155_cif.got.tgz:308952.got - 2010.06.28 07:06:18.
