data_PCOD8130574
_publ_section_title
;
Structure prediction by ZEFSAII (Michael W. Deem and Ramdas Pophale) SiO2 
 PCOD8130574
Probable space group: C 2/C
;
_chemical_formula_sum "Si O2"
_cell_formula_units_Z 56
_cell_length_a 13.550556
_cell_length_b 13.302367
_cell_length_c 17.961418
_cell_angle_alpha 90.000000
_cell_angle_beta 73.816899
_cell_angle_gamma 90.000000
_cell_volume 3109.337951
_symmetry_space_group_name_H-M "C 2/C"
_symmetry_group_IT_number 15
_symmetry_cell_setting 'monoclinic'
loop_
_space_group_symop_operation_xyz
x,y,z
-x,y,1/2-z
-x,-y,-z
x,-y,1/2+z
1/2+x,1/2+y,z
1/2-x,1/2+y,1/2-z
1/2-x,1/2-y,-z
1/2+x,1/2-y,1/2+z
loop_
_atom_site_type_symbol
_atom_site_label
_atom_site_fract_x
_atom_site_fract_y
_atom_site_fract_z
Si Si1 0.558605 0.268274 0.971596
Si Si2 0.822685 0.669434 0.443437
Si Si3 0.889855 0.921999 0.298605
Si Si4 0.153985 0.042106 0.520708
Si Si5 0.265068 0.753568 0.176259
Si Si6 0.382584 0.648567 0.281238
Si Si7 0.346810 0.315510 0.957942
O O1 0.634825 0.221679 0.893802
O O2 0.445655 0.254106 0.963644
O O3 0.565917 0.198021 0.045315
O O4 0.586932 0.386770 0.979298
O O5 0.750000 0.750000 0.500000
O O6 0.775966 0.562849 0.479710
O O7 0.814832 0.684485 0.355767
O O8 0.883254 0.930142 0.388980
O O9 0.796703 0.853744 0.287792
O O10 0.000000 0.876343 0.250000
O O11 0.878706 0.030680 0.262809
O O12 0.143941 0.924501 0.504477
O O13 0.302550 0.700523 0.242977
O O14 0.500000 0.688368 0.250000
O O15 0.341341 0.670511 0.371403
O O16 0.250000 0.250000 0.000000
#
# Coordination Sequence:
#
# PCOD8130574 Si02
#       7
#     8   8   8   8   8   8   8
#     4  10  17  34  63  76  99 142 182 222 269 317
#     4   8  15  31  59  79  91 134 184 222 258 306
#     4  10  19  32  56  82 106 134 181 229 271 308
#     4   9  17  35  55  81 105 133 181 229 262 319
#     4  10  17  36  55  78 106 139 184 219 263 335
#     4  10  21  37  55  78 109 151 177 217 277 328
#     4  11  23  35  51  83 120 139 178 226 274 318
#
# _framework density 18.010263999999999
#
# number of rings (size 3 to 8) (size 9 to 14) (size 15 to 20)
#    0.000    2.571    5.714    0.429    0.000    1.143 
#    5.143    0.714    0.000    0.857    0.000    0.000 
#    0.000    0.000    0.000    0.000    0.000    0.000 
#
# Total GULP energy -346890.106328 kJ/mol
# GULP energy per Si atom -12388.932369 kJ/mol
# Density = 1.796927 g / cm^3
# Si number density = 18.010264 Si / 1000 Ang^3
#
#
#
# Elastic Constant Matrix: (Units=GPa)
#
#
# Indices 1 2 3 4 5 6 
#
# 1 132.9211 58.3447 45.4879 0.0000 4.7822 0.0000
# 2 58.3447 60.4612 33.8371 0.0000 -9.1556 0.0000
# 3 45.4879 33.8371 57.3990 0.0000 3.4084 0.0000
# 4 0.0000 0.0000 0.0000 23.0086 0.0000 -0.5301
# 5 4.7822 -9.1556 3.4084 0.0000 29.2430 0.0000
# 6 0.0000 0.0000 0.0000 -0.5301 0.0000 29.6827
#
#
#
# Elastic Compliance Matrix: (Units=1/GPa)
#
#
# Indices 1 2 3 4 5 6 
#
# 1 0.014734 -0.013151 -0.003561 0.000000 -0.006112 0.000000
# 2 -0.013151 0.039346 -0.013727 0.000000 0.016069 0.000000
# 3 -0.003561 -0.013727 0.028756 0.000000 -0.007067 0.000000
# 4 0.000000 0.000000 0.000000 0.043480 0.000000 0.000776
# 5 -0.006112 0.016069 -0.007067 0.000000 0.041050 0.000000
# 6 0.000000 0.000000 0.000000 0.000776 0.000000 0.033704
#
#
# Mechanical properties :
#
#
# Convention : Reuss Voigt Hill
#
# Bulk Modulus (GPa) = 45.54185 58.45786 51.99985
# Shear Modulus (GPa) = 18.56889 23.92762 21.24825
#
# Velocity S-wave (km/s) = 3.21443 3.64889 3.43853
# Velocity P-wave (km/s) = 6.25446 7.09091 6.68578
#
# Compressibility (1/GPa) = 0.02195783
#
# Stress axis : x y z
#
# Youngs Moduli (GPa) = 67.86810 25.41562 34.77559
#
# Poissons Ratio (x) = 0.33425 0.12384
# Poissons Ratio (y) = 0.89255 0.47736
# Poissons Ratio (z) = 0.24169 0.34887
#
# Static dielectric constant tensor:
#      x y z
#    x 3.773250 0.000000 0.218570 
#    y 0.000000 3.434250 0.000000 
#    z 0.218570 0.000000 3.356440 
# 
# 
# High freq. dielectric constant tensor:
#      x y z
#    x 1.690270 0.000000 0.011950 
#    y 0.000000 1.673310 0.000000 
#    z 0.011950 0.000000 1.688290 
# 
# From -- ./inp_files/197785.got.cif
#   From: 2010.06.25/outbox.cif.g09.slc.cpg/sg15_99_cif.got.tgz:197785.got - 2010.06.28 07:06:18.
