data_PCOD8130496
_publ_section_title
;
Structure prediction by ZEFSAII (Michael W. Deem and Ramdas Pophale) SiO2 
 PCOD8130496
Probable space group: C 2/C
;
_chemical_formula_sum "Si O2"
_cell_formula_units_Z 56
_cell_length_a 23.135880
_cell_length_b 16.994902
_cell_length_c 20.762912
_cell_angle_alpha 90.000000
_cell_angle_beta 157.467698
_cell_angle_gamma 90.000000
_cell_volume 3128.406997
_symmetry_space_group_name_H-M "C 2/C"
_symmetry_group_IT_number 15
_symmetry_cell_setting 'monoclinic'
loop_
_space_group_symop_operation_xyz
x,y,z
-x,y,1/2-z
-x,-y,-z
x,-y,1/2+z
1/2+x,1/2+y,z
1/2-x,1/2+y,1/2-z
1/2-x,1/2-y,-z
1/2+x,1/2-y,1/2+z
loop_
_atom_site_type_symbol
_atom_site_label
_atom_site_fract_x
_atom_site_fract_y
_atom_site_fract_z
Si Si1 0.390555 0.838976 0.839427
Si Si2 0.135431 0.404466 0.546859
Si Si3 0.761975 0.318439 0.300260
Si Si4 0.157662 0.020099 0.695357
Si Si5 0.833435 0.494313 0.251035
Si Si6 0.500326 0.777765 0.174395
Si Si7 0.790595 0.160599 0.904487
O O1 0.370828 0.853376 0.894880
O O2 0.298981 0.760258 0.728479
O O3 0.321674 0.911680 0.725615
O O4 0.564905 0.827326 0.001516
O O5 0.294433 0.452846 0.703619
O O6 0.120031 0.344527 0.471496
O O7 0.000347 0.466995 0.406124
O O8 0.661158 0.390820 0.225831
O O9 0.741331 0.316394 0.202074
O O10 0.299009 0.016716 0.791241
O O11 0.000000 0.000000 0.500000
O O12 0.715845 0.435364 0.093134
O O13 0.500000 0.772121 0.250000
O O14 0.665460 0.797743 0.319501
O O15 0.451139 0.693521 0.093296
#
# Coordination Sequence:
#
# PCOD8130496 Si02
#       7
#     8   8   8   8   8   8   8
#     4  11  18  30  46  68  93 124 165 187 235 300
#     4  10  17  34  48  57  99 135 157 198 243 289
#     4  11  19  29  47  68  95 127 161 191 238 294
#     4  10  19  28  44  70  92 123 167 197 235 291
#     4   9  18  33  47  60  91 135 156 186 244 303
#     4  11  21  32  50  72  94 128 177 207 232 278
#     4  10  19  34  48  65  96 132 160 199 249 276
#
# _framework density 17.900483999999999
#
# number of rings (size 3 to 8) (size 9 to 14) (size 15 to 20)
#    0.000    1.714    7.143    1.286    4.000    2.286 
#    0.000    0.000    0.000    0.000    0.000    0.000 
#    0.000    5.714    0.000    0.000    0.000    0.000 
#
# Total GULP energy -346887.782535 kJ/mol
# GULP energy per Si atom -12388.849376 kJ/mol
# Density = 1.785974 g / cm^3
# Si number density = 17.900484 Si / 1000 Ang^3
#
#
#
# Elastic Constant Matrix: (Units=GPa)
#
#
# Indices 1 2 3 4 5 6 
#
# 1 18.6482 8.1817 9.2925 0.0007 -4.0034 0.0006
# 2 8.1817 162.5881 48.1095 -0.0080 5.6618 -0.0048
# 3 9.2925 48.1095 40.4576 -0.0285 0.1819 -0.0162
# 4 0.0007 -0.0080 -0.0285 35.9016 -0.0112 6.8318
# 5 -4.0034 5.6618 0.1819 -0.0112 12.5265 -0.0049
# 6 0.0006 -0.0048 -0.0162 6.8318 -0.0049 12.6996
#
#
#
# Elastic Compliance Matrix: (Units=1/GPa)
#
#
# Indices 1 2 3 4 5 6 
#
# 1 0.065809 0.000709 -0.016052 -0.000005 0.020945 -0.000013
# 2 0.000709 0.009715 -0.011698 -0.000007 -0.003995 -0.000009
# 3 -0.016052 -0.011698 0.042316 0.000024 -0.000458 0.000037
# 4 -0.000005 -0.000007 0.000024 0.031030 0.000022 -0.016693
# 5 0.020945 -0.003995 -0.000458 0.000022 0.088337 0.000019
# 6 -0.000013 -0.000009 0.000037 -0.016693 0.000019 0.087723
#
#
# Mechanical properties :
#
#
# Convention : Reuss Voigt Hill
#
# Bulk Modulus (GPa) = 15.68425 39.20680 27.44553
# Shear Modulus (GPa) = 12.49170 22.63288 17.56229
#
# Velocity S-wave (km/s) = 2.64453 3.55966 3.13566
# Velocity P-wave (km/s) = 4.25508 6.23258 5.33623
#
# Compressibility (1/GPa) = 0.06375824
#
# Stress axis : x y z
#
# Youngs Moduli (GPa) = 15.19550 102.93091 23.63150
#
# Poissons Ratio (x) = -0.07297 0.37934
# Poissons Ratio (y) = -0.01077 0.27643
# Poissons Ratio (z) = 0.24393 1.20405
#
# Static dielectric constant tensor:
#      x y z
#    x 2.769300 -0.000020 0.190950 
#    y -0.000020 3.961380 -0.000040 
#    z 0.190950 -0.000040 3.289220 
# 
# 
# High freq. dielectric constant tensor:
#      x y z
#    x 1.615820 0.000000 0.034130 
#    y 0.000000 1.717640 0.000000 
#    z 0.034130 0.000000 1.681420 
# 
# From -- ./inp_files/56162.got.cif
#   From: 2010.06.25/outbox.cif.g09.slc.cpg/sg15_29_cif.got.tgz:56162.got - 2010.06.28 07:06:18.
