data_PCOD8130007
_publ_section_title
;
Structure prediction by ZEFSAII (Michael W. Deem and Ramdas Pophale) SiO2 
 PCOD8130007
Probable space group: C 2/C
;
_chemical_formula_sum "Si O2"
_cell_formula_units_Z 52
_cell_length_a 31.196856
_cell_length_b 14.803027
_cell_length_c 18.856248
_cell_angle_alpha 90.000000
_cell_angle_beta 161.697114
_cell_angle_gamma 90.000000
_cell_volume 2734.651539
_symmetry_space_group_name_H-M "C 2/C"
_symmetry_group_IT_number 15
_symmetry_cell_setting 'monoclinic'
loop_
_space_group_symop_operation_xyz
x,y,z
-x,y,1/2-z
-x,-y,-z
x,-y,1/2+z
1/2+x,1/2+y,z
1/2-x,1/2+y,1/2-z
1/2-x,1/2-y,-z
1/2+x,1/2-y,1/2+z
loop_
_atom_site_type_symbol
_atom_site_label
_atom_site_fract_x
_atom_site_fract_y
_atom_site_fract_z
Si Si1 0.855459 0.039826 0.656523
Si Si2 0.217176 0.098812 0.345758
Si Si3 0.500000 0.071852 0.750000
Si Si4 0.113232 0.382506 0.692517
Si Si5 0.439895 0.677615 0.909988
Si Si6 0.087798 0.516455 0.530133
Si Si7 0.633492 0.539596 0.593561
O O1 0.761013 0.079497 0.446528
O O2 0.886426 0.119325 0.760456
O O3 0.778084 0.956263 0.573005
O O4 0.994251 0.999333 0.839876
O O5 0.369828 0.134623 0.566410
O O6 0.171347 0.029607 0.214261
O O7 0.106642 0.179706 0.173833
O O8 0.466532 0.004565 0.633245
O O9 0.122308 0.276328 0.694658
O O10 0.070464 0.428050 0.551501
O O11 0.000782 0.402085 0.576467
O O12 0.389595 0.636649 0.905813
O O13 0.246471 0.547338 0.775867
#
# Coordination Sequence:
#
# PCOD8130007 Si02
#       7
#     8   8   4   8   8   8   8
#     4   9  16  33  59  81 111 150 179 230 292 346
#     4   8  15  30  58  79 102 149 194 219 270 342
#     4  10  16  36  60  74  98 156 212 218 260 362
#     4  11  21  35  56  87 119 140 188 243 298 319
#     4   9  18  34  56  86 117 144 181 241 288 344
#     4  10  22  36  56  77 113 155 187 237 283 344
#     4   8  17  35  56  78 109 155 192 212 278 355
#
# _framework density 19.015218999999998
#
# number of rings (size 3 to 8) (size 9 to 14) (size 15 to 20)
#    0.000    2.769    1.538    2.308    0.000    0.615 
#    8.308    0.769    3.385    0.000    0.000    0.000 
#    0.000    0.000    0.000    0.000    0.000    0.000 
#
# Total GULP energy -322250.234719 kJ/mol
# GULP energy per Si atom -12394.239797 kJ/mol
# Density = 1.897194 g / cm^3
# Si number density = 19.015219 Si / 1000 Ang^3
#
#
#
# Elastic Constant Matrix: (Units=GPa)
#
#
# Indices 1 2 3 4 5 6 
#
# 1 82.1504 23.3076 45.2424 0.0000 15.0466 0.0000
# 2 23.3076 60.6161 33.7720 0.0000 -12.5010 0.0000
# 3 45.2424 33.7720 120.7402 0.0000 18.6647 0.0000
# 4 0.0000 0.0000 0.0000 23.2583 0.0000 -2.8000
# 5 15.0466 -12.5010 18.6647 0.0000 34.2152 0.0000
# 6 0.0000 0.0000 0.0000 -2.8000 0.0000 14.4487
#
#
#
# Elastic Compliance Matrix: (Units=1/GPa)
#
#
# Indices 1 2 3 4 5 6 
#
# 1 0.017389 -0.006427 -0.003465 0.000000 -0.008105 0.000000
# 2 -0.006427 0.026680 -0.007642 0.000000 0.016743 0.000000
# 3 -0.003465 -0.007642 0.013012 0.000000 -0.008366 0.000000
# 4 0.000000 0.000000 0.000000 0.044022 0.000000 0.008531
# 5 -0.008105 0.016743 -0.008366 0.000000 0.043472 0.000000
# 6 0.000000 0.000000 0.000000 0.008531 0.000000 0.070864
#
#
# Mechanical properties :
#
#
# Convention : Reuss Voigt Hill
#
# Bulk Modulus (GPa) = 45.43246 52.01674 48.72460
# Shear Modulus (GPa) = 19.39146 25.13010 22.26078
#
# Velocity S-wave (km/s) = 3.19687 3.63930 3.42524
# Velocity P-wave (km/s) = 6.12954 6.71372 6.42827
#
# Compressibility (1/GPa) = 0.02201069
#
# Stress axis : x y z
#
# Youngs Moduli (GPa) = 57.50681 37.48181 76.85426
#
# Poissons Ratio (x) = 0.24091 0.26631
# Poissons Ratio (y) = 0.36961 0.58735
# Poissons Ratio (z) = 0.19927 0.28645
#
# Static dielectric constant tensor:
#      x y z
#    x 3.529480 0.000000 0.424280 
#    y 0.000000 3.014530 0.000000 
#    z 0.424280 0.000000 3.996260 
# 
# 
# High freq. dielectric constant tensor:
#      x y z
#    x 1.730420 0.000000 0.013210 
#    y 0.000000 1.695660 0.000000 
#    z 0.013210 0.000000 1.754670 
# 
# From -- ./inp_files/145130.got.cif
#   From: 2010.06.25/outbox.cif.g09.slc.cpg/sg15_73_cif.got.tgz:145130.got - 2010.06.28 07:06:18.
