data_PCOD8130440
_publ_section_title
;
Structure prediction by ZEFSAII (Michael W. Deem and Ramdas Pophale) SiO2 
 PCOD8130440
Probable space group: C 2/C
;
_chemical_formula_sum "Si O2"
_cell_formula_units_Z 56
_cell_length_a 7.642322
_cell_length_b 17.564356
_cell_length_c 24.613955
_cell_angle_alpha 90.000000
_cell_angle_beta 89.999924
_cell_angle_gamma 90.000000
_cell_volume 3303.991835
_symmetry_space_group_name_H-M "C 2/C"
_symmetry_group_IT_number 15
_symmetry_cell_setting 'monoclinic'
loop_
_space_group_symop_operation_xyz
x,y,z
-x,y,1/2-z
-x,-y,-z
x,-y,1/2+z
1/2+x,1/2+y,z
1/2-x,1/2+y,1/2-z
1/2-x,1/2-y,-z
1/2+x,1/2-y,1/2+z
loop_
_atom_site_type_symbol
_atom_site_label
_atom_site_fract_x
_atom_site_fract_y
_atom_site_fract_z
Si Si1 0.799344 0.607558 0.688079
Si Si2 0.499997 0.363905 0.461127
Si Si3 0.500002 0.519575 0.634541
Si Si4 0.200661 0.607559 0.688081
Si Si5 0.999999 0.859671 0.915508
Si Si6 0.309015 0.214961 0.592767
Si Si7 0.190994 0.714963 0.592769
O O1 0.674008 0.539594 0.668313
O O2 0.756206 0.629160 0.749999
O O3 0.758032 0.682654 0.652300
O O4 0.000003 0.580306 0.681734
O O5 0.499999 0.437849 0.423316
O O6 0.500003 0.391107 0.523068
O O7 0.331419 0.310761 0.451455
O O8 0.668565 0.310756 0.451452
O O9 0.326001 0.539596 0.668315
O O10 0.499998 0.429444 0.625711
O O11 0.241972 0.682657 0.652302
O O12 0.173250 0.807154 0.904778
O O13 0.826746 0.807156 0.904777
O O14 0.500007 0.181138 0.575486
#
# Coordination Sequence:
#
# PCOD8130440 Si02
#       7
#     8   8   8   8   8   8   8
#     4   9  17  34  54  69  91 130 167 200 242 299
#     4  10  17  33  53  67 102 141 164 187 241 303
#     4  10  20  32  48  78 102 128 162 200 245 301
#     4   9  17  34  54  69  91 130 167 200 242 299
#     4  10  19  33  47  77 106 125 158 215 244 270
#     4   8  18  31  50  75  95 125 172 203 235 290
#     4   8  18  31  50  75  95 125 172 203 235 290
#
# _framework density 16.949193999999999
#
# number of rings (size 3 to 8) (size 9 to 14) (size 15 to 20)
#    0.857    2.000    0.000    1.714    0.000    0.000 
#    2.571    2.857    0.000    6.857    0.000    0.000 
#    0.000    0.000    0.000    0.000    0.000    0.000 
#
# Total GULP energy -346976.776600 kJ/mol
# GULP energy per Si atom -12392.027736 kJ/mol
# Density = 1.691062 g / cm^3
# Si number density = 16.949194 Si / 1000 Ang^3
#
#
#
# Elastic Constant Matrix: (Units=GPa)
#
#
# Indices 1 2 3 4 5 6 
#
# 1 80.8192 26.5706 35.0184 0.0000 -0.0009 0.0000
# 2 26.5706 76.8705 25.7827 0.0000 0.0003 0.0000
# 3 35.0184 25.7827 91.7092 0.0000 0.0000 0.0000
# 4 0.0000 0.0000 0.0000 17.1144 0.0000 -0.0008
# 5 -0.0009 0.0003 0.0000 0.0000 18.5904 0.0000
# 6 0.0000 0.0000 0.0000 -0.0008 0.0000 14.5514
#
#
#
# Elastic Compliance Matrix: (Units=1/GPa)
#
#
# Indices 1 2 3 4 5 6 
#
# 1 0.015766 -0.003787 -0.004955 0.000000 0.000001 0.000000
# 2 -0.003787 0.015273 -0.002848 0.000000 0.000000 0.000000
# 3 -0.004955 -0.002848 0.013597 0.000000 0.000000 0.000000
# 4 0.000000 0.000000 0.000000 0.058430 0.000000 0.000003
# 5 0.000001 0.000000 0.000000 0.000000 0.053791 0.000000
# 6 0.000000 0.000000 0.000000 0.000003 0.000000 0.068722
#
#
# Mechanical properties :
#
#
# Convention : Reuss Voigt Hill
#
# Bulk Modulus (GPa) = 46.60934 47.12691 46.86812
# Shear Modulus (GPa) = 19.53805 20.85305 20.19555
#
# Velocity S-wave (km/s) = 3.39889 3.51141 3.45561
# Velocity P-wave (km/s) = 6.55457 6.65621 6.60559
#
# Compressibility (1/GPa) = 0.02145493
#
# Stress axis : x y z
#
# Youngs Moduli (GPa) = 63.42963 65.47442 73.54738
#
# Poissons Ratio (x) = 0.24798 0.36444
# Poissons Ratio (y) = 0.24024 0.20943
# Poissons Ratio (z) = 0.31430 0.18645
#
# Static dielectric constant tensor:
#      x y z
#    x 3.229540 0.000000 0.000010 
#    y 0.000000 2.848710 0.000000 
#    z 0.000010 0.000000 3.135010 
# 
# 
# High freq. dielectric constant tensor:
#      x y z
#    x 1.655870 0.000000 0.000000 
#    y 0.000000 1.621860 0.000000 
#    z 0.000000 0.000000 1.655080 
# 
# From -- ./inp_files/264992.got.cif
#   From: 2010.06.25/outbox.cif.g09.slc.cpg/sg15_133_cif.got.tgz:264992.got - 2010.06.28 07:06:18.
