data_PCOD8130784
_publ_section_title
;
Structure prediction by ZEFSAII (Michael W. Deem and Ramdas Pophale) SiO2 
 PCOD8130784
Probable space group: C 2/C
;
_chemical_formula_sum "Si O2"
_cell_formula_units_Z 52
_cell_length_a 12.560407
_cell_length_b 25.207226
_cell_length_c 10.632382
_cell_angle_alpha 90.000000
_cell_angle_beta 51.422298
_cell_angle_gamma 90.000000
_cell_volume 2631.689016
_symmetry_space_group_name_H-M "C 2/C"
_symmetry_group_IT_number 15
_symmetry_cell_setting 'monoclinic'
loop_
_space_group_symop_operation_xyz
x,y,z
-x,y,1/2-z
-x,-y,-z
x,-y,1/2+z
1/2+x,1/2+y,z
1/2-x,1/2+y,1/2-z
1/2-x,1/2-y,-z
1/2+x,1/2-y,1/2+z
loop_
_atom_site_type_symbol
_atom_site_label
_atom_site_fract_x
_atom_site_fract_y
_atom_site_fract_z
Si Si1 0.867778 0.022224 0.027020
Si Si2 0.080325 0.516289 0.816362
Si Si3 0.421526 0.373902 0.588727
Si Si4 0.206337 0.686322 0.390182
Si Si5 0.500000 0.451922 0.750000
Si Si6 0.187182 0.808893 0.410179
Si Si7 0.945207 0.639259 0.656955
O O1 0.880436 0.086726 0.003202
O O2 0.729081 0.009695 0.203706
O O3 0.000000 0.000000 0.000000
O O4 0.875449 0.990403 0.889089
O O5 0.100082 0.578953 0.806492
O O6 0.000000 0.498575 0.750000
O O7 0.000000 0.500000 0.000000
O O8 0.305852 0.330595 0.704192
O O9 0.433401 0.414550 0.695476
O O10 0.558070 0.342087 0.458365
O O11 0.160326 0.746999 0.411955
O O12 0.283360 0.676418 0.465901
O O13 0.069590 0.651175 0.470755
O O14 0.311679 0.825620 0.227528
O O15 0.000000 0.659649 0.750000
#
# Coordination Sequence:
#
# PCOD8130784 Si02
#       7
#     8   8   8   8   4   8   8
#     4  10  23  35  58  81 113 160 207 238 295 353
#     4  11  24  39  58  84 120 159 201 249 305 363
#     4  11  19  33  53  76 113 149 187 235 288 341
#     4  10  18  28  49  74 109 145 181 223 293 357
#     4  10  20  34  54  78 116 154 196 242 278 352
#     4  10  18  30  46  76 108 146 180 227 287 355
#     4   9  18  29  47  69 106 142 178 223 283 338
#
# _framework density 19.759174999999999
#
# number of rings (size 3 to 8) (size 9 to 14) (size 15 to 20)
#    0.000    1.846    1.538    3.692    8.615    2.462 
#    0.000    0.000    0.000    0.000    0.000    1.077 
#    4.615    0.000    0.000    0.000    0.000    0.000 
#
# Total GULP energy -322254.454933 kJ/mol
# GULP energy per Si atom -12394.402113 kJ/mol
# Density = 1.971420 g / cm^3
# Si number density = 19.759175 Si / 1000 Ang^3
#
#
#
# Elastic Constant Matrix: (Units=GPa)
#
#
# Indices 1 2 3 4 5 6 
#
# 1 49.3867 30.4248 35.4275 0.0000 -22.6947 0.0000
# 2 30.4248 104.2442 31.9511 0.0000 -21.5767 0.0000
# 3 35.4275 31.9511 109.8968 0.0000 -35.1345 0.0000
# 4 0.0000 0.0000 0.0000 42.6204 0.0000 -6.2187
# 5 -22.6947 -21.5767 -35.1345 0.0000 40.5326 0.0000
# 6 0.0000 0.0000 0.0000 -6.2187 0.0000 30.7788
#
#
#
# Elastic Compliance Matrix: (Units=1/GPa)
#
#
# Indices 1 2 3 4 5 6 
#
# 1 0.032439 -0.005630 -0.005495 0.000000 0.010403 0.000000
# 2 -0.005630 0.012021 -0.000888 0.000000 0.002477 0.000000
# 3 -0.005495 -0.000888 0.013826 0.000000 0.008435 0.000000
# 4 0.000000 0.000000 0.000000 0.024176 0.000000 0.004885
# 5 0.010403 0.002477 0.008435 0.000000 0.039127 0.000000
# 6 0.000000 0.000000 0.000000 0.004885 0.000000 0.033477
#
#
# Mechanical properties :
#
#
# Convention : Reuss Voigt Hill
#
# Bulk Modulus (GPa) = 29.18869 51.01492 40.10180
# Shear Modulus (GPa) = 26.24530 33.83464 30.03997
#
# Velocity S-wave (km/s) = 3.64848 4.14255 3.90334
# Velocity P-wave (km/s) = 5.70551 6.98250 6.37606
#
# Compressibility (1/GPa) = 0.03425985
#
# Stress axis : x y z
#
# Youngs Moduli (GPa) = 30.82718 83.18792 72.32923
#
# Poissons Ratio (x) = 0.46837 0.39741
# Poissons Ratio (y) = 0.17357 0.06423
# Poissons Ratio (z) = 0.16938 0.07387
#
# Static dielectric constant tensor:
#      x y z
#    x 3.700710 0.000000 0.283810 
#    y 0.000000 3.859120 0.000000 
#    z 0.283810 0.000000 4.408420 
# 
# 
# High freq. dielectric constant tensor:
#      x y z
#    x 1.719830 0.000000 -0.040580 
#    y 0.000000 1.783690 0.000000 
#    z -0.040580 0.000000 1.769420 
# 
# From -- ./inp_files/33713.got.cif
#   From: 2010.06.25/outbox.cif.g09.slc.cpg/sg15_17_cif.got.tgz:33713.got - 2010.06.28 07:06:18.
