data_PCOD8130173
_publ_section_title
;
Structure prediction by ZEFSAII (Michael W. Deem and Ramdas Pophale) SiO2 
 PCOD8130173
Probable space group: C 2/C
;
_chemical_formula_sum "Si O2"
_cell_formula_units_Z 56
_cell_length_a 28.613979
_cell_length_b 15.162312
_cell_length_c 9.492639
_cell_angle_alpha 90.000000
_cell_angle_beta 121.979279
_cell_angle_gamma 90.000000
_cell_volume 3493.407400
_symmetry_space_group_name_H-M "C 2/C"
_symmetry_group_IT_number 15
_symmetry_cell_setting 'monoclinic'
loop_
_space_group_symop_operation_xyz
x,y,z
-x,y,1/2-z
-x,-y,-z
x,-y,1/2+z
1/2+x,1/2+y,z
1/2-x,1/2+y,1/2-z
1/2-x,1/2-y,-z
1/2+x,1/2-y,1/2+z
loop_
_atom_site_type_symbol
_atom_site_label
_atom_site_fract_x
_atom_site_fract_y
_atom_site_fract_z
Si Si1 0.122635 0.122791 0.209397
Si Si2 0.631147 0.638269 0.532332
Si Si3 0.162509 0.245390 0.837529
Si Si4 0.556542 0.547094 0.617346
Si Si5 0.247210 0.395269 0.960301
Si Si6 0.561258 0.305790 0.347180
Si Si7 0.713626 0.514229 0.234828
O O1 0.124254 0.174257 0.361642
O O2 0.182747 0.103096 0.241047
O O3 0.102422 0.025420 0.217193
O O4 0.082736 0.176346 0.040205
O O5 0.653626 0.720360 0.659707
O O6 0.573178 0.608172 0.510607
O O7 0.672197 0.554971 0.596015
O O8 0.192021 0.339155 0.894827
O O9 0.105354 0.253854 0.833276
O O10 0.199042 0.167316 0.963246
O O11 0.500000 0.500000 0.500000
O O12 0.554281 0.601096 0.758062
O O13 0.243001 0.450689 0.810433
O O14 0.250891 0.465679 0.090749
O O15 0.500000 0.260744 0.250000
#
# Coordination Sequence:
#
# PCOD8130173 Si02
#       7
#     8   8   8   8   8   8   8
#     4  11  18  27  43  66  97 126 168 200 224 268
#     4   9  19  29  43  64  99 128 160 202 234 278
#     4   9  20  35  46  68 101 137 157 193 256 295
#     4  10  18  27  39  61  93 131 174 192 216 264
#     4  10  18  33  54  69  97 127 162 206 249 290
#     4  11  20  31  44  67  99 138 166 193 230 290
#     4  10  17  30  50  71  89 124 164 206 240 278
#
# _framework density 16.030196
#
# number of rings (size 3 to 8) (size 9 to 14) (size 15 to 20)
#    0.000    2.000    4.286    2.571    0.000    0.000 
#    0.000    2.143    0.000    0.000    0.000    1.000 
#    0.000    0.000    0.000    0.000    0.000    0.000 
#
# Total GULP energy -347096.749944 kJ/mol
# GULP energy per Si atom -12396.312498 kJ/mol
# Density = 1.599371 g / cm^3
# Si number density = 16.030196 Si / 1000 Ang^3
#
#
#
# Elastic Constant Matrix: (Units=GPa)
#
#
# Indices 1 2 3 4 5 6 
#
# 1 98.8015 37.0550 52.3368 0.0000 -1.0763 0.0000
# 2 37.0550 39.7090 34.2617 0.0000 0.5691 0.0000
# 3 52.3368 34.2617 119.3349 0.0000 -17.4262 0.0000
# 4 0.0000 0.0000 0.0000 13.8778 0.0000 4.0910
# 5 -1.0763 0.5691 -17.4262 0.0000 25.4085 0.0000
# 6 0.0000 0.0000 0.0000 4.0910 0.0000 19.4338
#
#
#
# Elastic Compliance Matrix: (Units=1/GPa)
#
#
# Indices 1 2 3 4 5 6 
#
# 1 0.016856 -0.012076 -0.004203 0.000000 -0.001898 0.000000
# 2 -0.012076 0.043722 -0.008306 0.000000 -0.007187 0.000000
# 3 -0.004203 -0.008306 0.014012 0.000000 0.009618 0.000000
# 4 0.000000 0.000000 0.000000 0.076825 0.000000 -0.016172
# 5 -0.001898 -0.007187 0.009618 0.000000 0.046034 0.000000
# 6 0.000000 0.000000 0.000000 -0.016172 0.000000 0.054861
#
#
# Mechanical properties :
#
#
# Convention : Reuss Voigt Hill
#
# Bulk Modulus (GPa) = 39.33849 56.12803 47.73326
# Shear Modulus (GPa) = 16.13150 20.69016 18.41083
#
# Velocity S-wave (km/s) = 3.17570 3.59653 3.39264
# Velocity P-wave (km/s) = 6.16768 7.23441 6.72223
#
# Compressibility (1/GPa) = 0.02542040
#
# Stress axis : x y z
#
# Youngs Moduli (GPa) = 59.32662 22.87188 71.36691
#
# Poissons Ratio (x) = 0.27620 0.29992
# Poissons Ratio (y) = 0.71643 0.59278
# Poissons Ratio (z) = 0.24932 0.18998
#
# Static dielectric constant tensor:
#      x y z
#    x 4.081170 0.000000 -1.014370 
#    y 0.000000 2.601100 0.000000 
#    z -1.014370 0.000000 4.011460 
# 
# 
# High freq. dielectric constant tensor:
#      x y z
#    x 1.612990 0.000000 -0.017130 
#    y 0.000000 1.552790 0.000000 
#    z -0.017130 0.000000 1.619880 
# 
# From -- ./inp_files/62199.got.cif
#   From: 2010.06.25/outbox.cif.g09.slc.cpg/sg15_32_cif.got.tgz:62199.got - 2010.06.28 07:06:18.
