data_PCOD8130301
_publ_section_title
;
Structure prediction by ZEFSAII (Michael W. Deem and Ramdas Pophale) SiO2 
 PCOD8130301
Probable space group: C 2/C
;
_chemical_formula_sum "Si O2"
_cell_formula_units_Z 60
_cell_length_a 19.822125
_cell_length_b 13.025412
_cell_length_c 12.377861
_cell_angle_alpha 90.000000
_cell_angle_beta 78.935184
_cell_angle_gamma 90.000000
_cell_volume 3136.447848
_symmetry_space_group_name_H-M "C 2/C"
_symmetry_group_IT_number 15
_symmetry_cell_setting 'monoclinic'
loop_
_space_group_symop_operation_xyz
x,y,z
-x,y,1/2-z
-x,-y,-z
x,-y,1/2+z
1/2+x,1/2+y,z
1/2-x,1/2+y,1/2-z
1/2-x,1/2-y,-z
1/2+x,1/2-y,1/2+z
loop_
_atom_site_type_symbol
_atom_site_label
_atom_site_fract_x
_atom_site_fract_y
_atom_site_fract_z
Si Si1 0.155209 0.660263 0.351134
Si Si2 0.307492 0.440954 0.491368
Si Si3 0.383309 0.581552 0.173962
Si Si4 0.689645 0.993248 0.174729
Si Si5 0.313179 0.380474 0.253557
Si Si6 0.390988 0.173632 0.917081
Si Si7 0.000000 0.801807 0.750000
Si Si8 0.199874 0.149191 0.109584
O O1 0.148625 0.571410 0.264756
O O2 0.162712 0.770523 0.294197
O O3 0.092908 0.656181 0.459177
O O4 0.219264 0.634892 0.409056
O O5 0.367006 0.397967 0.552731
O O6 0.233949 0.441793 0.574784
O O7 0.302678 0.371552 0.385964
O O8 0.330228 0.556494 0.452905
O O9 0.373706 0.460858 0.205005
O O10 0.458298 0.623171 0.182443
O O11 0.327352 0.645309 0.259189
O O12 0.741087 0.916656 0.223086
O O13 0.627895 0.931319 0.137704
O O14 0.453891 0.229379 0.839084
O O15 0.323045 0.245440 0.937218
#
# Coordination Sequence:
#
# PCOD8130301 Si02
#       8
#     8   8   8   8   8   8   4   8
#     4  12  20  33  55  89 119 149 189 237 298 347
#     4  10  17  33  54  89 126 147 178 247 305 338
#     4   9  19  37  55  85 118 149 197 238 280 345
#     4  11  19  32  55  86 120 151 188 239 297 351
#     4  10  20  32  55  90 124 150 183 240 302 349
#     4  11  21  37  58  81 111 158 201 238 278 348
#     4  10  24  42  64  80 108 164 210 228 272 356
#     4  10  17  31  56  84 115 148 189 229 291 353
#
# _framework density 19.129921
#
# number of rings (size 3 to 8) (size 9 to 14) (size 15 to 20)
#    0.000    1.600    6.667    2.000    0.000    0.533 
#    0.000   12.667    0.000    0.800    0.000    0.000 
#    0.000    0.000    0.000    0.000    0.000    0.000 
#
# Total GULP energy -371838.590797 kJ/mol
# GULP energy per Si atom -12394.619693 kJ/mol
# Density = 1.908638 g / cm^3
# Si number density = 19.129921 Si / 1000 Ang^3
#
#
#
# Elastic Constant Matrix: (Units=GPa)
#
#
# Indices 1 2 3 4 5 6 
#
# 1 61.1141 26.2866 35.1483 0.0000 5.1986 0.0000
# 2 26.2866 110.4733 57.1672 0.0000 3.2747 0.0000
# 3 35.1483 57.1672 157.5608 0.0000 12.2147 0.0000
# 4 0.0000 0.0000 0.0000 31.2573 0.0000 1.7491
# 5 5.1986 3.2747 12.2147 0.0000 17.6081 0.0000
# 6 0.0000 0.0000 0.0000 1.7491 0.0000 18.9270
#
#
#
# Elastic Compliance Matrix: (Units=1/GPa)
#
#
# Indices 1 2 3 4 5 6 
#
# 1 0.019681 -0.003009 -0.003056 0.000000 -0.003131 0.000000
# 2 -0.003009 0.011614 -0.003640 0.000000 0.001253 0.000000
# 3 -0.003056 -0.003640 0.008694 0.000000 -0.004452 0.000000
# 4 0.000000 0.000000 0.000000 0.032159 0.000000 -0.002972
# 5 -0.003131 0.001253 -0.004452 0.000000 0.060572 0.000000
# 6 0.000000 0.000000 0.000000 -0.002972 0.000000 0.053109
#
#
# Mechanical properties :
#
#
# Convention : Reuss Voigt Hill
#
# Bulk Modulus (GPa) = 48.59067 62.92805 55.75936
# Shear Modulus (GPa) = 23.57395 27.59490 25.58442
#
# Velocity S-wave (km/s) = 3.51423 3.80215 3.66102
# Velocity P-wave (km/s) = 6.47471 7.22783 6.86161
#
# Compressibility (1/GPa) = 0.02058008
#
# Stress axis : x y z
#
# Youngs Moduli (GPa) = 50.81079 86.10064 115.01809
#
# Poissons Ratio (x) = 0.25906 0.35149
# Poissons Ratio (y) = 0.15288 0.41866
# Poissons Ratio (z) = 0.15528 0.31340
#
# Static dielectric constant tensor:
#      x y z
#    x 3.105770 0.000000 0.048620 
#    y 0.000000 3.459600 0.000000 
#    z 0.048620 0.000000 3.872690 
# 
# 
# High freq. dielectric constant tensor:
#      x y z
#    x 1.687130 0.000000 0.001160 
#    y 0.000000 1.739190 0.000000 
#    z 0.001160 0.000000 1.770070 
# 
# From -- ./inp_files/112383.got.cif
#   From: 2010.06.25/outbox.cif.g09.slc.cpg/sg15_57_cif.got.tgz:112383.got - 2010.06.28 07:06:18.
