data_PCOD8130737
_publ_section_title
;
Structure prediction by ZEFSAII (Michael W. Deem and Ramdas Pophale) SiO2 
 PCOD8130737
Probable space group: C 2/C
;
_chemical_formula_sum "Si O2"
_cell_formula_units_Z 64
_cell_length_a 22.270497
_cell_length_b 17.591472
_cell_length_c 9.078209
_cell_angle_alpha 90.000000
_cell_angle_beta 83.145701
_cell_angle_gamma 90.000000
_cell_volume 3531.158036
_symmetry_space_group_name_H-M "C 2/C"
_symmetry_group_IT_number 15
_symmetry_cell_setting 'monoclinic'
loop_
_space_group_symop_operation_xyz
x,y,z
-x,y,1/2-z
-x,-y,-z
x,-y,1/2+z
1/2+x,1/2+y,z
1/2-x,1/2+y,1/2-z
1/2-x,1/2-y,-z
1/2+x,1/2-y,1/2+z
loop_
_atom_site_type_symbol
_atom_site_label
_atom_site_fract_x
_atom_site_fract_y
_atom_site_fract_z
Si Si1 0.135957 0.229074 0.659973
Si Si2 0.216071 0.153156 0.396659
Si Si3 0.853342 0.394652 0.894301
Si Si4 0.262856 0.268052 0.162294
Si Si5 0.832898 0.515148 0.131694
Si Si6 0.757908 0.433516 0.391200
Si Si7 0.569136 0.422066 0.192951
Si Si8 0.860645 0.988240 0.583983
O O1 0.191143 0.194679 0.549242
O O2 0.114158 0.311689 0.603613
O O3 0.166660 0.244205 0.811108
O O4 0.081027 0.169088 0.681318
O O5 0.280645 0.115907 0.415198
O O6 0.218767 0.214747 0.267962
O O7 0.168784 0.090456 0.352203
O O8 0.874753 0.435669 0.733468
O O9 0.868703 0.447115 0.033894
O O10 0.245081 0.354540 0.191836
O O11 0.250000 0.250000 0.000000
O O12 0.779423 0.487143 0.252929
O O13 0.804085 0.569740 0.015413
O O14 0.693233 0.462153 0.473524
O O15 0.500000 0.436241 0.250000
O O16 0.613073 0.459398 0.297416
O O17 0.584252 0.466460 0.039125
#
# Coordination Sequence:
#
# PCOD8130737 Si02
#       8
#     8   8   8   8   8   8   8   8
#     4  10  20  35  49  66  97 139 167 211 252 305
#     4  10  19  31  47  68  99 139 170 193 246 305
#     4  10  18  29  46  72 105 130 164 188 245 304
#     4  11  21  28  45  73 103 127 164 201 241 305
#     4  10  18  26  45  69 103 130 156 187 222 307
#     4  11  18  29  44  68  96 134 161 188 240 289
#     4  11  24  39  54  73  94 134 187 232 260 285
#     4  11  21  33  56  70 100 133 177 216 259 294
#
# _framework density 18.124365000000001
#
# number of rings (size 3 to 8) (size 9 to 14) (size 15 to 20)
#    0.000    1.500    3.750    5.625    1.750    0.000 
#    0.000    0.000    0.000    0.000    0.000    0.875 
#    0.000    0.000    0.000    0.000    0.000    0.000 
#
# Total GULP energy -396505.341068 kJ/mol
# GULP energy per Si atom -12390.791908 kJ/mol
# Density = 1.808311 g / cm^3
# Si number density = 18.124365 Si / 1000 Ang^3
#
#
#
# Elastic Constant Matrix: (Units=GPa)
#
#
# Indices 1 2 3 4 5 6 
#
# 1 21.4345 9.0840 7.7781 0.0000 -7.5187 0.0000
# 2 9.0840 113.7963 29.3893 0.0000 -6.9686 0.0000
# 3 7.7781 29.3893 73.1430 0.0000 -0.8691 0.0000
# 4 0.0000 0.0000 0.0000 31.7166 0.0000 0.8481
# 5 -7.5187 -6.9686 -0.8691 0.0000 16.0401 0.0000
# 6 0.0000 0.0000 0.0000 0.8481 0.0000 15.2450
#
#
#
# Elastic Compliance Matrix: (Units=1/GPa)
#
#
# Indices 1 2 3 4 5 6 
#
# 1 0.058539 -0.001706 -0.005226 0.000000 0.026415 0.000000
# 2 -0.001706 0.010125 -0.003847 0.000000 0.003391 0.000000
# 3 -0.005226 -0.003847 0.015734 0.000000 -0.003268 0.000000
# 4 0.000000 0.000000 0.000000 0.031576 0.000000 -0.001757
# 5 0.026415 0.003391 -0.003268 0.000000 0.076022 0.000000
# 6 0.000000 0.000000 0.000000 -0.001757 0.000000 0.065693
#
#
# Mechanical properties :
#
#
# Convention : Reuss Voigt Hill
#
# Bulk Modulus (GPa) = 15.91299 33.43074 24.67187
# Shear Modulus (GPa) = 16.65598 23.40849 20.03224
#
# Velocity S-wave (km/s) = 3.03476 3.59771 3.32816
# Velocity P-wave (km/s) = 4.59115 5.97857 5.33019
#
# Compressibility (1/GPa) = 0.06284173
#
# Stress axis : x y z
#
# Youngs Moduli (GPa) = 17.08270 98.76687 63.55545
#
# Poissons Ratio (x) = 0.16847 0.33213
# Poissons Ratio (y) = 0.02914 0.24447
# Poissons Ratio (z) = 0.08927 0.37991
#
# Static dielectric constant tensor:
#      x y z
#    x 2.724740 0.000000 0.027110 
#    y 0.000000 7.263170 0.000000 
#    z 0.027110 0.000000 3.354530 
# 
# 
# High freq. dielectric constant tensor:
#      x y z
#    x 1.622670 0.000000 0.005420 
#    y 0.000000 1.730440 0.000000 
#    z 0.005420 0.000000 1.709390 
# 
# From -- ./inp_files/63073.got.cif
#   From: 2010.06.25/outbox.cif.g09.slc.cpg/sg15_32_cif.got.tgz:63073.got - 2010.06.28 07:06:18.
