data_PCOD8130746
_publ_section_title
;
Structure prediction by ZEFSAII (Michael W. Deem and Ramdas Pophale) SiO2 
 PCOD8130746
Probable space group: C 2/C
;
_chemical_formula_sum "Si O2"
_cell_formula_units_Z 60
_cell_length_a 28.029049
_cell_length_b 13.033675
_cell_length_c 11.966416
_cell_angle_alpha 90.000000
_cell_angle_beta 120.783220
_cell_angle_gamma 90.000000
_cell_volume 3755.675233
_symmetry_space_group_name_H-M "C 2/C"
_symmetry_group_IT_number 15
_symmetry_cell_setting 'monoclinic'
loop_
_space_group_symop_operation_xyz
x,y,z
-x,y,1/2-z
-x,-y,-z
x,-y,1/2+z
1/2+x,1/2+y,z
1/2-x,1/2+y,1/2-z
1/2-x,1/2-y,-z
1/2+x,1/2-y,1/2+z
loop_
_atom_site_type_symbol
_atom_site_label
_atom_site_fract_x
_atom_site_fract_y
_atom_site_fract_z
Si Si1 0.000000 0.574976 0.250000
Si Si2 0.899725 0.644085 0.263461
Si Si3 0.182411 0.817222 0.333841
Si Si4 0.165145 0.629574 0.687121
Si Si5 0.286120 0.311223 0.878454
Si Si6 0.166915 0.541442 0.915608
Si Si7 0.082059 0.524815 0.999559
Si Si8 0.739783 0.499324 0.306873
O O1 0.949882 0.645611 0.234541
O O2 0.022081 0.500559 0.375187
O O3 0.876358 0.759291 0.251496
O O4 0.850511 0.568458 0.160693
O O5 0.924728 0.607332 0.410932
O O6 0.227904 0.743253 0.332399
O O7 0.188986 0.841186 0.472569
O O8 0.187229 0.926642 0.276233
O O9 0.170826 0.739203 0.636291
O O10 0.165838 0.632520 0.822922
O O11 0.107676 0.581310 0.575972
O O12 0.216648 0.559081 0.716894
O O13 0.281247 0.407083 0.791191
O O14 0.122617 0.574147 0.955717
O O15 0.228645 0.532600 0.041070
#
# Coordination Sequence:
#
# PCOD8130746 Si02
#       8
#     4   8   8   8   8   8   8   8
#     4  10  18  28  46  70  90 114 148 188 228 274
#     4  10  18  30  46  65  90 119 151 184 225 272
#     4  10  18  30  46  63  90 123 150 183 222 259
#     4   9  17  28  43  63  90 124 153 178 216 263
#     4  10  18  29  45  65  90 123 157 182 211 259
#     4   9  16  27  42  64  95 124 147 177 218 265
#     4   9  17  29  45  67  95 120 144 180 227 273
#     4  10  18  27  42  65  91 122 155 184 213 255
#
# _framework density 15.975822000000001
#
# number of rings (size 3 to 8) (size 9 to 14) (size 15 to 20)
#    0.000    2.400    0.000    7.600    0.000    0.533 
#    0.000    1.333    0.000    0.000    0.000    3.733 
#    0.000    5.333    0.000    0.000    0.000    0.000 
#
# Total GULP energy -371860.928067 kJ/mol
# GULP energy per Si atom -12395.364269 kJ/mol
# Density = 1.593946 g / cm^3
# Si number density = 15.975822 Si / 1000 Ang^3
#
#
#
# Elastic Constant Matrix: (Units=GPa)
#
#
# Indices 1 2 3 4 5 6 
#
# 1 55.1492 31.7171 38.8524 0.0000 -4.3418 0.0000
# 2 31.7171 73.8357 49.6399 0.0000 -4.9837 0.0000
# 3 38.8524 49.6399 101.2084 0.0000 -7.2647 0.0000
# 4 0.0000 0.0000 0.0000 19.0561 0.0000 -6.9968
# 5 -4.3418 -4.9837 -7.2647 0.0000 27.2941 0.0000
# 6 0.0000 0.0000 0.0000 -6.9968 0.0000 21.5658
#
#
#
# Elastic Compliance Matrix: (Units=1/GPa)
#
#
# Indices 1 2 3 4 5 6 
#
# 1 0.027069 -0.006891 -0.006925 0.000000 0.001205 0.000000
# 2 -0.006891 0.021992 -0.008086 0.000000 0.000767 0.000000
# 3 -0.006925 -0.008086 0.016638 0.000000 0.001850 0.000000
# 4 0.000000 0.000000 0.000000 0.059573 0.000000 0.019328
# 5 0.001205 0.000767 0.001850 0.000000 0.037462 0.000000
# 6 0.000000 0.000000 0.000000 0.019328 0.000000 0.052640
#
#
# Mechanical properties :
#
#
# Convention : Reuss Voigt Hill
#
# Bulk Modulus (GPa) = 45.67311 52.29025 48.98168
# Shear Modulus (GPa) = 18.76339 20.91547 19.83943
#
# Velocity S-wave (km/s) = 3.43080 3.62221 3.52780
# Velocity P-wave (km/s) = 6.65919 7.09195 6.87897
#
# Compressibility (1/GPa) = 0.02189472
#
# Stress axis : x y z
#
# Youngs Moduli (GPa) = 36.94221 45.47191 60.10394
#
# Poissons Ratio (x) = 0.31334 0.41624
# Poissons Ratio (y) = 0.25456 0.48600
# Poissons Ratio (z) = 0.25584 0.36768
#
# Static dielectric constant tensor:
#      x y z
#    x 2.982120 0.000000 -0.220980 
#    y 0.000000 2.807560 0.000000 
#    z -0.220980 0.000000 3.156930 
# 
# 
# High freq. dielectric constant tensor:
#      x y z
#    x 1.600370 0.000000 -0.025240 
#    y 0.000000 1.573090 0.000000 
#    z -0.025240 0.000000 1.620990 
# 
# From -- ./inp_files/118579.got.cif
#   From: 2010.06.25/outbox.cif.g09.slc.cpg/sg15_60_cif.got.tgz:118579.got - 2010.06.28 07:06:18.
