data_PCOD8130518
_publ_section_title
;
Structure prediction by ZEFSAII (Michael W. Deem and Ramdas Pophale) SiO2 
 PCOD8130518
Probable space group: C 2/C
;
_chemical_formula_sum "Si O2"
_cell_formula_units_Z 52
_cell_length_a 15.791674
_cell_length_b 8.339408
_cell_length_c 20.627634
_cell_angle_alpha 90.000000
_cell_angle_beta 78.493336
_cell_angle_gamma 90.000000
_cell_volume 2661.921449
_symmetry_space_group_name_H-M "C 2/C"
_symmetry_group_IT_number 15
_symmetry_cell_setting 'monoclinic'
loop_
_space_group_symop_operation_xyz
x,y,z
-x,y,1/2-z
-x,-y,-z
x,-y,1/2+z
1/2+x,1/2+y,z
1/2-x,1/2+y,1/2-z
1/2-x,1/2-y,-z
1/2+x,1/2-y,1/2+z
loop_
_atom_site_type_symbol
_atom_site_label
_atom_site_fract_x
_atom_site_fract_y
_atom_site_fract_z
Si Si1 0.923475 0.755250 0.959370
Si Si2 0.746429 0.812262 0.396894
Si Si3 0.330874 0.057877 0.462991
Si Si4 0.422221 0.118975 0.644754
Si Si5 0.500000 0.286145 0.750000
Si Si6 0.985273 0.709504 0.089632
Si Si7 0.418573 0.519706 0.863444
O O1 0.848540 0.630198 0.949054
O O2 0.015519 0.703322 0.916387
O O3 0.898469 0.927597 0.934175
O O4 0.929643 0.766094 0.036123
O O5 0.713496 0.919501 0.461265
O O6 0.768318 0.630342 0.416850
O O7 0.674332 0.815988 0.352525
O O8 0.833472 0.886920 0.354102
O O9 0.422531 0.148274 0.449980
O O10 0.442219 0.169080 0.715102
O O11 0.431659 0.926841 0.636052
O O12 0.440007 0.396058 0.803634
O O13 0.001477 0.858373 0.135892
#
# Coordination Sequence:
#
# PCOD8130518 Si02
#       7
#     8   8   8   8   4   8   8
#     4  10  17  34  55  87 115 145 170 225 281 363
#     4  10  18  34  55  87 110 148 172 242 273 338
#     4   9  17  30  56  84 123 135 177 213 297 339
#     4  10  19  37  62  76 107 146 201 219 277 327
#     4  10  24  44  52  72 102 160 190 238 254 336
#     4  10  17  34  58  87 105 149 178 230 279 359
#     4  10  23  35  54  79 120 139 187 227 293 323
#
# _framework density 19.534761
#
# number of rings (size 3 to 8) (size 9 to 14) (size 15 to 20)
#    0.000    2.154    3.077    1.385    0.000    1.231 
#    0.000    7.692    0.000    0.000    0.000    0.000 
#    0.000    0.000    0.000    0.000    0.000    0.000 
#
# Total GULP energy -322380.794553 kJ/mol
# GULP energy per Si atom -12399.261329 kJ/mol
# Density = 1.949030 g / cm^3
# Si number density = 19.534761 Si / 1000 Ang^3
#
#
#
# Elastic Constant Matrix: (Units=GPa)
#
#
# Indices 1 2 3 4 5 6 
#
# 1 99.9046 40.6671 41.7829 0.0000 30.7823 0.0000
# 2 40.6671 73.7413 36.0999 0.0000 20.0052 0.0000
# 3 41.7829 36.0999 102.4985 0.0000 27.5321 0.0000
# 4 0.0000 0.0000 0.0000 27.3185 0.0000 0.6628
# 5 30.7823 20.0052 27.5321 0.0000 29.8901 0.0000
# 6 0.0000 0.0000 0.0000 0.6628 0.0000 26.5424
#
#
#
# Elastic Compliance Matrix: (Units=1/GPa)
#
#
# Indices 1 2 3 4 5 6 
#
# 1 0.016464 -0.004967 -0.001728 0.000000 -0.012039 0.000000
# 2 -0.004967 0.019260 -0.003548 0.000000 -0.004507 0.000000
# 3 -0.001728 -0.003548 0.014077 0.000000 -0.008813 0.000000
# 4 0.000000 0.000000 0.000000 0.036627 0.000000 -0.000915
# 5 -0.012039 -0.004507 -0.008813 0.000000 0.056988 0.000000
# 6 0.000000 0.000000 0.000000 -0.000915 0.000000 0.037698
#
#
# Mechanical properties :
#
#
# Convention : Reuss Voigt Hill
#
# Bulk Modulus (GPa) = 34.11309 57.02713 45.57011
# Shear Modulus (GPa) = 23.65490 27.25648 25.45569
#
# Velocity S-wave (km/s) = 3.48359 3.73940 3.61376
# Velocity P-wave (km/s) = 5.80355 6.92099 6.38676
#
# Compressibility (1/GPa) = 0.02931426
#
# Stress axis : x y z
#
# Youngs Moduli (GPa) = 60.73986 51.92142 71.03607
#
# Poissons Ratio (x) = 0.25792 0.12275
# Poissons Ratio (y) = 0.30172 0.25202
# Poissons Ratio (z) = 0.10496 0.18420
#
# Static dielectric constant tensor:
#      x y z
#    x 3.533850 0.000000 0.182180 
#    y 0.000000 3.755380 0.000000 
#    z 0.182180 0.000000 3.313420 
# 
# 
# High freq. dielectric constant tensor:
#      x y z
#    x 1.752230 0.000000 0.011370 
#    y 0.000000 1.763190 0.000000 
#    z 0.011370 0.000000 1.731670 
# 
# From -- ./inp_files/242456.got.cif
#   From: 2010.06.25/outbox.cif.g09.slc.cpg/sg15_122_cif.got.tgz:242456.got - 2010.06.28 07:06:18.
