data_PCOD8130599
_publ_section_title
;
Structure prediction by ZEFSAII (Michael W. Deem and Ramdas Pophale) SiO2 
 PCOD8130599
Probable space group: C 2/C
;
_chemical_formula_sum "Si O2"
_cell_formula_units_Z 56
_cell_length_a 18.100857
_cell_length_b 14.472800
_cell_length_c 11.901984
_cell_angle_alpha 90.000000
_cell_angle_beta 109.422045
_cell_angle_gamma 90.000000
_cell_volume 2940.535346
_symmetry_space_group_name_H-M "C 2/C"
_symmetry_group_IT_number 15
_symmetry_cell_setting 'monoclinic'
loop_
_space_group_symop_operation_xyz
x,y,z
-x,y,1/2-z
-x,-y,-z
x,-y,1/2+z
1/2+x,1/2+y,z
1/2-x,1/2+y,1/2-z
1/2-x,1/2-y,-z
1/2+x,1/2-y,1/2+z
loop_
_atom_site_type_symbol
_atom_site_label
_atom_site_fract_x
_atom_site_fract_y
_atom_site_fract_z
Si Si1 0.211442 0.873783 0.483801
Si Si2 0.818164 0.618271 0.558247
Si Si3 0.591358 0.270248 0.788737
Si Si4 0.821439 0.057179 0.144609
Si Si5 0.155761 0.709285 0.582601
Si Si6 0.090520 0.515941 0.539523
Si Si7 0.784182 0.519251 0.213334
O O1 0.148542 0.798752 0.497005
O O2 0.256820 0.832698 0.397312
O O3 0.275377 0.900525 0.613540
O O4 0.165467 0.967502 0.427054
O O5 0.865150 0.714030 0.590050
O O6 0.746876 0.626325 0.434995
O O7 0.876899 0.535833 0.552811
O O8 0.785267 0.583830 0.661718
O O9 0.500000 0.244743 0.750000
O O10 0.600414 0.380527 0.812368
O O11 0.636055 0.243001 0.697412
O O12 0.795062 0.024092 0.253744
O O13 0.097264 0.626088 0.525290
O O14 0.136983 0.473999 0.671156
O O15 0.000000 0.500000 0.500000
#
# Coordination Sequence:
#
# PCOD8130599 Si02
#       7
#     8   8   8   8   8   8   8
#     4  10  20  37  63  86 110 145 206 245 277 335
#     4  10  20  35  56  84 113 147 194 236 284 343
#     4  12  23  36  58  86 120 154 188 234 298 354
#     4  10  20  37  57  85 112 148 197 242 285 336
#     4  11  20  36  61  86 109 154 192 239 286 349
#     4  11  21  33  54  87 125 150 183 230 302 353
#     4  10  17  35  57  84 112 150 186 242 287 332
#
# _framework density 19.044150999999999
#
# number of rings (size 3 to 8) (size 9 to 14) (size 15 to 20)
#    0.000    1.429    7.143    1.286    0.000    0.000 
#    0.000    0.714    0.000    3.429    0.000    0.000 
#    0.000    0.000    0.000    0.000    0.000    0.000 
#
# Total GULP energy -346877.892210 kJ/mol
# GULP energy per Si atom -12388.496150 kJ/mol
# Density = 1.900081 g / cm^3
# Si number density = 19.044151 Si / 1000 Ang^3
#
#
#
# Elastic Constant Matrix: (Units=GPa)
#
#
# Indices 1 2 3 4 5 6 
#
# 1 63.5314 38.2796 29.6042 0.0000 -3.5818 0.0000
# 2 38.2796 140.0316 35.7788 0.0000 -3.1978 0.0000
# 3 29.6042 35.7788 57.3119 0.0000 -17.4658 0.0000
# 4 0.0000 0.0000 0.0000 23.2962 0.0000 -4.2200
# 5 -3.5818 -3.1978 -17.4658 0.0000 15.8824 0.0000
# 6 0.0000 0.0000 0.0000 -4.2200 0.0000 28.7091
#
#
#
# Elastic Compliance Matrix: (Units=1/GPa)
#
#
# Indices 1 2 3 4 5 6 
#
# 1 0.023147 -0.003269 -0.012823 0.000000 -0.009539 0.000000
# 2 -0.003269 0.009385 -0.005744 0.000000 -0.005164 0.000000
# 3 -0.012823 -0.005744 0.039743 0.000000 0.039657 0.000000
# 4 0.000000 0.000000 0.000000 0.044100 0.000000 0.006482
# 5 -0.009539 -0.005164 0.039657 0.000000 0.103383 0.000000
# 6 0.000000 0.000000 0.000000 0.006482 0.000000 0.035785
#
#
# Mechanical properties :
#
#
# Convention : Reuss Voigt Hill
#
# Bulk Modulus (GPa) = 34.96054 52.02225 43.49139
# Shear Modulus (GPa) = 16.19437 24.05835 20.12636
#
# Velocity S-wave (km/s) = 2.91926 3.55814 3.25441
# Velocity P-wave (km/s) = 5.45529 6.65255 6.08345
#
# Compressibility (1/GPa) = 0.02860368
#
# Stress axis : x y z
#
# Youngs Moduli (GPa) = 43.20135 106.55843 25.16145
#
# Poissons Ratio (x) = 0.34836 0.32264
# Poissons Ratio (y) = 0.14123 0.14452
# Poissons Ratio (z) = 0.55397 0.61203
#
# Static dielectric constant tensor:
#      x y z
#    x 3.495620 0.000000 -0.325150 
#    y 0.000000 3.768620 0.000000 
#    z -0.325150 0.000000 3.503870 
# 
# 
# High freq. dielectric constant tensor:
#      x y z
#    x 1.710300 0.000000 -0.030580 
#    y 0.000000 1.752960 0.000000 
#    z -0.030580 0.000000 1.727350 
# 
# From -- ./inp_files/105432.got.cif
#   From: 2010.06.25/outbox.cif.g09.slc.cpg/sg15_53_cif.got.tgz:105432.got - 2010.06.28 07:06:18.
