data_PCOD8130107
_publ_section_title
;
Structure prediction by ZEFSAII (Michael W. Deem and Ramdas Pophale) SiO2 
 PCOD8130107
Probable space group: C 2/C
;
_chemical_formula_sum "Si O2"
_cell_formula_units_Z 52
_cell_length_a 17.303692
_cell_length_b 14.010141
_cell_length_c 14.072008
_cell_angle_alpha 90.000000
_cell_angle_beta 60.938404
_cell_angle_gamma 90.000000
_cell_volume 2981.930280
_symmetry_space_group_name_H-M "C 2/C"
_symmetry_group_IT_number 15
_symmetry_cell_setting 'monoclinic'
loop_
_space_group_symop_operation_xyz
x,y,z
-x,y,1/2-z
-x,-y,-z
x,-y,1/2+z
1/2+x,1/2+y,z
1/2-x,1/2+y,1/2-z
1/2-x,1/2-y,-z
1/2+x,1/2-y,1/2+z
loop_
_atom_site_type_symbol
_atom_site_label
_atom_site_fract_x
_atom_site_fract_y
_atom_site_fract_z
Si Si1 0.000000 0.340204 0.250000
Si Si2 0.077360 0.929073 0.927974
Si Si3 0.316962 0.490268 0.981644
Si Si4 0.224588 0.024162 0.195480
Si Si5 0.564785 0.307581 0.561039
Si Si6 0.322955 0.912173 0.291375
Si Si7 0.731245 0.765958 0.898679
O O1 0.054361 0.271569 0.147937
O O2 0.071088 0.410539 0.257536
O O3 0.133644 0.972248 0.807913
O O4 0.031909 0.829238 0.926015
O O5 0.140652 0.922710 0.982600
O O6 0.000000 0.000000 0.000000
O O7 0.227583 0.455605 0.087113
O O8 0.293587 0.532284 0.892025
O O9 0.387525 0.403139 0.926494
O O10 0.256226 0.128308 0.145660
O O11 0.301035 0.971514 0.209298
O O12 0.628634 0.262950 0.442448
O O13 0.291618 0.802521 0.297781
O O14 0.750000 0.750000 0.000000
#
# Coordination Sequence:
#
# PCOD8130107 Si02
#       7
#     4   8   8   8   8   8   8
#     4  12  18  30  50  76 104 132 188 232 254 314
#     4   9  19  29  48  85 111 131 177 226 274 332
#     4   9  17  34  49  75 110 139 170 226 283 330
#     4  11  19  34  57  77 113 152 171 223 288 322
#     4  10  17  28  53  77 102 132 180 231 264 307
#     4  10  21  32  53  83 105 138 193 223 272 332
#     4  11  18  36  56  77 107 145 184 229 269 321
#
# _framework density 17.438369999999999
#
# number of rings (size 3 to 8) (size 9 to 14) (size 15 to 20)
#    0.000    1.846    4.615    2.769    0.000    1.846 
#    0.000    3.077    0.000   10.154    0.000    0.000 
#    0.000    0.000    0.000    0.000    0.000    0.000 
#
# Total GULP energy -322183.007025 kJ/mol
# GULP energy per Si atom -12391.654116 kJ/mol
# Density = 1.739868 g / cm^3
# Si number density = 17.438370 Si / 1000 Ang^3
#
#
#
# Elastic Constant Matrix: (Units=GPa)
#
#
# Indices 1 2 3 4 5 6 
#
# 1 120.0554 40.2059 53.6751 0.0000 7.6504 0.0000
# 2 40.2059 57.4711 22.2675 0.0000 13.4311 0.0000
# 3 53.6751 22.2675 77.9679 0.0000 16.5847 0.0000
# 4 0.0000 0.0000 0.0000 28.2145 0.0000 0.1311
# 5 7.6504 13.4311 16.5847 0.0000 31.6547 0.0000
# 6 0.0000 0.0000 0.0000 0.1311 0.0000 30.0052
#
#
#
# Elastic Compliance Matrix: (Units=1/GPa)
#
#
# Indices 1 2 3 4 5 6 
#
# 1 0.014578 -0.007840 -0.008728 0.000000 0.004376 0.000000
# 2 -0.007840 0.024867 0.000153 0.000000 -0.008737 0.000000
# 3 -0.008728 0.000153 0.020658 0.000000 -0.008779 0.000000
# 4 0.000000 0.000000 0.000000 0.035443 0.000000 -0.000155
# 5 0.004376 -0.008737 -0.008779 0.000000 0.038840 0.000000
# 6 0.000000 0.000000 0.000000 -0.000155 0.000000 0.033328
#
#
# Mechanical properties :
#
#
# Convention : Reuss Voigt Hill
#
# Bulk Modulus (GPa) = 36.66374 54.19906 45.43140
# Shear Modulus (GPa) = 23.85111 27.26461 25.55786
#
# Velocity S-wave (km/s) = 3.70231 3.95838 3.83248
# Velocity P-wave (km/s) = 6.27268 7.21384 6.75966
#
# Compressibility (1/GPa) = 0.02727490
#
# Stress axis : x y z
#
# Youngs Moduli (GPa) = 68.59566 40.21414 48.40797
#
# Poissons Ratio (x) = 0.31527 0.42249
# Poissons Ratio (y) = 0.53777 -0.00743
# Poissons Ratio (z) = 0.59869 -0.00617
#
# Static dielectric constant tensor:
#      x y z
#    x 3.748320 0.000000 -0.067700 
#    y 0.000000 3.541300 0.000000 
#    z -0.067700 0.000000 3.399390 
# 
# 
# High freq. dielectric constant tensor:
#      x y z
#    x 1.672790 0.000000 -0.015330 
#    y 0.000000 1.638550 0.000000 
#    z -0.015330 0.000000 1.672430 
# 
# From -- ./inp_files/161622.got.cif
#   From: 2010.06.25/outbox.cif.g09.slc.cpg/sg15_81_cif.got.tgz:161622.got - 2010.06.28 07:06:18.
