data_PCOD8130639
_publ_section_title
;
Structure prediction by ZEFSAII (Michael W. Deem and Ramdas Pophale) SiO2 
 PCOD8130639
Probable space group: C 2/C
;
_chemical_formula_sum "Si O2"
_cell_formula_units_Z 64
_cell_length_a 8.759576
_cell_length_b 30.486434
_cell_length_c 17.874498
_cell_angle_alpha 90.000000
_cell_angle_beta 138.414229
_cell_angle_gamma 90.000000
_cell_volume 3168.267722
_symmetry_space_group_name_H-M "C 2/C"
_symmetry_group_IT_number 15
_symmetry_cell_setting 'monoclinic'
loop_
_space_group_symop_operation_xyz
x,y,z
-x,y,1/2-z
-x,-y,-z
x,-y,1/2+z
1/2+x,1/2+y,z
1/2-x,1/2+y,1/2-z
1/2-x,1/2-y,-z
1/2+x,1/2-y,1/2+z
loop_
_atom_site_type_symbol
_atom_site_label
_atom_site_fract_x
_atom_site_fract_y
_atom_site_fract_z
Si Si1 0.990465 0.949301 0.013207
Si Si2 0.837785 0.241630 0.758019
Si Si3 0.426627 0.580013 0.802578
Si Si4 0.945137 0.605149 0.649523
Si Si5 0.255543 0.370851 0.869397
Si Si6 0.519824 0.680865 0.175382
Si Si7 0.977094 0.318192 0.045802
Si Si8 0.139131 0.832142 0.430994
O O1 0.943573 0.946377 0.084810
O O2 0.221076 0.924509 0.073966
O O3 0.786734 0.923016 0.896117
O O4 0.000000 0.000000 0.000000
O O5 0.724271 0.283307 0.756220
O O6 0.624046 0.214579 0.648795
O O7 0.000000 0.258109 0.750000
O O8 0.995024 0.213395 0.873000
O O9 0.500000 0.560836 0.750000
O O10 0.484713 0.631774 0.831702
O O11 0.154509 0.572319 0.708768
O O12 0.922402 0.638687 0.573739
O O13 0.000000 0.628718 0.750000
O O14 0.423982 0.356097 0.864932
O O15 0.000000 0.361051 0.750000
O O16 0.320467 0.343044 0.967372
O O17 0.500000 0.658517 0.250000
O O18 0.271298 0.702443 0.065181
O O19 0.115372 0.329748 0.020496
#
# Coordination Sequence:
#
# PCOD8130639 Si02
#       8
#     8   8   8   8   8   8   8   8
#     4  10  23  41  63  94 129 165 206 259 325 392
#     4  10  22  39  62  91 126 163 215 268 317 369
#     4  10  17  35  66  96 122 153 206 262 318 375
#     4  10  19  34  63  95 123 154 199 260 313 373
#     4  11  24  43  65  86 123 174 213 256 330 394
#     4  12  26  41  55  87 129 173 215 262 311 382
#     4  11  20  37  62  92 122 159 211 263 316 364
#     4  10  20  38  67  92 120 163 212 267 318 384
#
# _framework density 20.200313000000001
#
# number of rings (size 3 to 8) (size 9 to 14) (size 15 to 20)
#    0.000    1.500    3.750    1.875    0.000    4.000 
#    0.000    4.375    0.000    0.000    0.000    0.000 
#    0.000    0.000    0.000    0.000    0.000    0.000 
#
# Total GULP energy -396680.718455 kJ/mol
# GULP energy per Si atom -12396.272452 kJ/mol
# Density = 2.015434 g / cm^3
# Si number density = 20.200313 Si / 1000 Ang^3
#
#
#
# Elastic Constant Matrix: (Units=GPa)
#
#
# Indices 1 2 3 4 5 6 
#
# 1 131.7215 38.4043 53.6765 0.0000 -18.7641 0.0000
# 2 38.4043 88.0088 29.3834 0.0000 -16.0116 0.0000
# 3 53.6765 29.3834 106.6597 0.0000 -4.2899 0.0000
# 4 0.0000 0.0000 0.0000 11.7610 0.0000 -1.7304
# 5 -18.7641 -16.0116 -4.2899 0.0000 42.8452 0.0000
# 6 0.0000 0.0000 0.0000 -1.7304 0.0000 15.5635
#
#
#
# Elastic Compliance Matrix: (Units=1/GPa)
#
#
# Indices 1 2 3 4 5 6 
#
# 1 0.010640 -0.002540 -0.004524 0.000000 0.003258 0.000000
# 2 -0.002540 0.013982 -0.002418 0.000000 0.003871 0.000000
# 3 -0.004524 -0.002418 0.012252 0.000000 -0.001658 0.000000
# 4 0.000000 0.000000 0.000000 0.086441 0.000000 0.009611
# 5 0.003258 0.003871 -0.001658 0.000000 0.026047 0.000000
# 6 0.000000 0.000000 0.000000 0.009611 0.000000 0.065321
#
#
# Mechanical properties :
#
#
# Convention : Reuss Voigt Hill
#
# Bulk Modulus (GPa) = 55.83349 63.25758 59.54554
# Shear Modulus (GPa) = 20.86664 27.69565 24.28115
#
# Velocity S-wave (km/s) = 3.21750 3.70679 3.47078
# Velocity P-wave (km/s) = 6.44228 7.05007 6.75302
#
# Compressibility (1/GPa) = 0.01791040
#
# Stress axis : x y z
#
# Youngs Moduli (GPa) = 93.98704 71.51857 81.62165
#
# Poissons Ratio (x) = 0.18165 0.36924
# Poissons Ratio (y) = 0.23871 0.19737
# Poissons Ratio (z) = 0.42517 0.17294
#
# Static dielectric constant tensor:
#      x y z
#    x 4.011300 0.000000 0.046760 
#    y 0.000000 3.312360 0.000000 
#    z 0.046760 0.000000 3.852640 
# 
# 
# High freq. dielectric constant tensor:
#      x y z
#    x 1.807440 0.000000 0.004690 
#    y 0.000000 1.743880 0.000000 
#    z 0.004690 0.000000 1.800980 
# 
# From -- ./inp_files/194251.got.cif
#   From: 2010.06.25/outbox.cif.g09.slc.cpg/sg15_98_cif.got.tgz:194251.got - 2010.06.28 07:06:18.
