data_PCOD8130009
_publ_section_title
;
Structure prediction by ZEFSAII (Michael W. Deem and Ramdas Pophale) SiO2 
 PCOD8130009
Probable space group: C 2/C
;
_chemical_formula_sum "Si O2"
_cell_formula_units_Z 52
_cell_length_a 11.836576
_cell_length_b 13.595294
_cell_length_c 22.144781
_cell_angle_alpha 90.000000
_cell_angle_beta 47.232415
_cell_angle_gamma 90.000000
_cell_volume 2616.071886
_symmetry_space_group_name_H-M "C 2/C"
_symmetry_group_IT_number 15
_symmetry_cell_setting 'monoclinic'
loop_
_space_group_symop_operation_xyz
x,y,z
-x,y,1/2-z
-x,-y,-z
x,-y,1/2+z
1/2+x,1/2+y,z
1/2-x,1/2+y,1/2-z
1/2-x,1/2-y,-z
1/2+x,1/2-y,1/2+z
loop_
_atom_site_type_symbol
_atom_site_label
_atom_site_fract_x
_atom_site_fract_y
_atom_site_fract_z
Si Si1 0.873611 0.757228 0.838514
Si Si2 0.500000 0.923736 0.750000
Si Si3 0.263723 0.918661 0.295565
Si Si4 0.518834 0.876205 0.380338
Si Si5 0.531100 0.590439 0.532599
Si Si6 0.885643 0.589453 0.415138
Si Si7 0.042548 0.693522 0.469733
O O1 0.825404 0.662318 0.818694
O O2 0.939297 0.719528 0.878910
O O3 0.726813 0.827237 0.903627
O O4 0.000000 0.813294 0.750000
O O5 0.559194 0.863406 0.669490
O O6 0.651692 0.982284 0.715412
O O7 0.310370 0.890498 0.210014
O O8 0.078965 0.926147 0.368878
O O9 0.535714 0.860566 0.445406
O O10 0.420417 0.973622 0.402462
O O11 0.500000 0.500000 0.500000
O O12 0.704677 0.599717 0.492138
O O13 0.487391 0.690551 0.513962
O O14 0.973569 0.649186 0.434179
#
# Coordination Sequence:
#
# PCOD8130009 Si02
#       7
#     8   4   8   8   8   8   8
#     4   9  16  34  57  81 114 149 198 240 272 334
#     4  10  16  36  60  80 106 156 198 234 284 350
#     4   9  16  34  61  83 106 148 202 236 268 335
#     4  10  19  38  61  82 114 158 191 234 293 350
#     4  11  21  39  60  84 112 157 199 237 277 348
#     4  11  21  38  58  82 122 149 193 239 296 349
#     4  11  23  35  56  91 120 148 188 245 303 339
#
# _framework density 19.877127999999999
#
# number of rings (size 3 to 8) (size 9 to 14) (size 15 to 20)
#    0.000    1.846    5.385    2.308    0.000    0.000 
#    8.308    3.846    0.000    0.000    0.000    0.000 
#    0.000    0.000    0.000    0.000    0.000    0.000 
#
# Total GULP energy -322232.531828 kJ/mol
# GULP energy per Si atom -12393.558916 kJ/mol
# Density = 1.983189 g / cm^3
# Si number density = 19.877128 Si / 1000 Ang^3
#
#
#
# Elastic Constant Matrix: (Units=GPa)
#
#
# Indices 1 2 3 4 5 6 
#
# 1 85.8184 21.6961 82.2993 0.0000 -2.9247 0.0000
# 2 21.6961 37.0255 36.1992 0.0000 1.5074 0.0000
# 3 82.2993 36.1992 198.7540 0.0000 -5.0587 0.0000
# 4 0.0000 0.0000 0.0000 23.7668 0.0000 1.4732
# 5 -2.9247 1.5074 -5.0587 0.0000 45.8294 0.0000
# 6 0.0000 0.0000 0.0000 1.4732 0.0000 18.6621
#
#
#
# Elastic Compliance Matrix: (Units=1/GPa)
#
#
# Indices 1 2 3 4 5 6 
#
# 1 0.019912 -0.004436 -0.007422 0.000000 0.000597 0.000000
# 2 -0.004436 0.033988 -0.004401 0.000000 -0.001887 0.000000
# 3 -0.007422 -0.004401 0.008923 0.000000 0.000656 0.000000
# 4 0.000000 0.000000 0.000000 0.042282 0.000000 -0.003338
# 5 0.000597 -0.001887 0.000656 0.000000 0.021993 0.000000
# 6 0.000000 0.000000 0.000000 -0.003338 0.000000 0.053848
#
#
# Mechanical properties :
#
#
# Convention : Reuss Voigt Hill
#
# Bulk Modulus (GPa) = 32.99894 66.88746 49.94320
# Shear Modulus (GPa) = 22.36479 29.74521 26.05500
#
# Velocity S-wave (km/s) = 3.35797 3.87260 3.62443
# Velocity P-wave (km/s) = 5.62780 7.32936 6.53420
#
# Compressibility (1/GPa) = 0.03030401
#
# Stress axis : x y z
#
# Youngs Moduli (GPa) = 50.22116 29.42234 112.07093
#
# Poissons Ratio (x) = 0.13052 0.83178
# Poissons Ratio (y) = 0.22278 0.49327
# Poissons Ratio (z) = 0.37274 0.12950
#
# Static dielectric constant tensor:
#      x y z
#    x 3.494170 0.000000 -0.445530 
#    y 0.000000 3.309010 0.000000 
#    z -0.445530 0.000000 4.648050 
# 
# 
# High freq. dielectric constant tensor:
#      x y z
#    x 1.749150 0.000000 -0.010130 
#    y 0.000000 1.738820 0.000000 
#    z -0.010130 0.000000 1.802610 
# 
# From -- ./inp_files/238664.got.cif
#   From: 2010.06.25/outbox.cif.g09.slc.cpg/sg15_120_cif.got.tgz:238664.got - 2010.06.28 07:06:18.
