data_PCOD8130936
_publ_section_title
;
Structure prediction by ZEFSAII (Michael W. Deem and Ramdas Pophale) SiO2 
 PCOD8130936
Probable space group: C 2/C
;
_chemical_formula_sum "Si O2"
_cell_formula_units_Z 52
_cell_length_a 21.023151
_cell_length_b 9.289160
_cell_length_c 31.996805
_cell_angle_alpha 90.000000
_cell_angle_beta 25.435190
_cell_angle_gamma 90.000000
_cell_volume 2683.698891
_symmetry_space_group_name_H-M "C 2/C"
_symmetry_group_IT_number 15
_symmetry_cell_setting 'monoclinic'
loop_
_space_group_symop_operation_xyz
x,y,z
-x,y,1/2-z
-x,-y,-z
x,-y,1/2+z
1/2+x,1/2+y,z
1/2-x,1/2+y,1/2-z
1/2-x,1/2-y,-z
1/2+x,1/2-y,1/2+z
loop_
_atom_site_type_symbol
_atom_site_label
_atom_site_fract_x
_atom_site_fract_y
_atom_site_fract_z
Si Si1 0.727029 0.847005 0.710754
Si Si2 0.571117 0.209850 0.142395
Si Si3 0.666572 0.531440 0.780992
Si Si4 0.115776 0.845840 0.029114
Si Si5 0.268158 0.062760 0.135819
Si Si6 0.547802 0.772897 0.480732
Si Si7 0.000000 0.044779 0.750000
O O1 0.585324 0.875544 0.764311
O O2 0.708888 0.696395 0.746218
O O3 0.875730 0.846003 0.594309
O O4 0.737451 0.978035 0.736778
O O5 0.607808 0.232547 0.071826
O O6 0.545644 0.357886 0.183118
O O7 0.708105 0.119063 0.081429
O O8 0.489825 0.519338 0.896417
O O9 0.698469 0.427654 0.723286
O O10 0.044509 0.776725 0.030321
O O11 0.356109 0.915647 0.078674
O O12 0.380272 0.197190 0.063707
O O13 0.136414 0.061124 0.180113
#
# Coordination Sequence:
#
# PCOD8130936 Si02
#       7
#     8   8   8   8   8   8   4
#     4  10  20  37  56  83 114 149 191 239 282 341
#     4  10  18  30  51  82 108 137 186 242 280 310
#     4  10  20  36  54  81 114 151 189 233 286 338
#     4  10  18  31  51  79 110 141 182 235 281 334
#     4  10  19  31  52  79 110 146 186 239 279 329
#     4  10  19  32  52  80 109 145 189 231 286 338
#     4  12  16  34  52  80 116 140 194 242 276 332
#
# _framework density 19.376242000000001
#
# number of rings (size 3 to 8) (size 9 to 14) (size 15 to 20)
#    0.000    1.846    6.154    1.846    0.000    0.615 
#    0.000    0.000    0.000    5.538    0.000    0.000 
#    0.000    0.000    0.000    0.000    0.000    0.000 
#
# Total GULP energy -322156.574110 kJ/mol
# GULP energy per Si atom -12390.637466 kJ/mol
# Density = 1.933214 g / cm^3
# Si number density = 19.376242 Si / 1000 Ang^3
#
#
#
# Elastic Constant Matrix: (Units=GPa)
#
#
# Indices 1 2 3 4 5 6 
#
# 1 113.2666 17.1794 61.8358 0.0090 -19.0174 0.0149
# 2 17.1794 15.6422 26.1302 0.0447 -5.0121 -0.0806
# 3 61.8358 26.1302 131.5211 0.2484 -22.8751 0.1051
# 4 0.0090 0.0447 0.2484 18.8560 0.2207 1.1851
# 5 -19.0174 -5.0121 -22.8751 0.2207 47.3526 -0.0518
# 6 0.0149 -0.0806 0.1051 1.1851 -0.0518 32.7109
#
#
#
# Elastic Compliance Matrix: (Units=1/GPa)
#
#
# Indices 1 2 3 4 5 6 
#
# 1 0.012436 -0.005721 -0.004309 0.000038 0.002307 -0.000004
# 2 -0.005721 0.098368 -0.016859 -0.000027 -0.000029 0.000300
# 3 -0.004309 -0.016859 0.013502 -0.000167 0.003008 -0.000072
# 4 0.000038 -0.000027 -0.000167 0.053161 -0.000318 -0.001926
# 5 0.002307 -0.000029 0.003008 -0.000318 0.023496 0.000038
# 6 -0.000004 0.000300 -0.000072 -0.001926 0.000038 0.030642
#
#
# Mechanical properties :
#
#
# Convention : Reuss Voigt Hill
#
# Bulk Modulus (GPa) = 14.17865 52.30229 33.24047
# Shear Modulus (GPa) = 16.18682 30.13619 23.16151
#
# Velocity S-wave (km/s) = 2.89346 3.94803 3.46114
# Velocity P-wave (km/s) = 4.30072 6.91623 5.75892
#
# Compressibility (1/GPa) = 0.07052857
#
# Stress axis : x y z
#
# Youngs Moduli (GPa) = 80.40947 10.16591 74.06049
#
# Poissons Ratio (x) = 0.05816 0.31914
# Poissons Ratio (y) = 0.46001 1.24859
# Poissons Ratio (z) = 0.34650 0.17139
#
# Static dielectric constant tensor:
#      x y z
#    x 3.734590 -0.000010 -0.203220 
#    y -0.000010 2.940970 -0.000020 
#    z -0.203220 -0.000020 4.316170 
# 
# 
# High freq. dielectric constant tensor:
#      x y z
#    x 1.763810 0.000000 -0.001070 
#    y 0.000000 1.674620 0.000000 
#    z -0.001070 0.000000 1.780930 
# 
# From -- ./inp_files/167192.got.cif
#   From: 2010.06.25/outbox.cif.g09.slc.cpg/sg15_84_cif.got.tgz:167192.got - 2010.06.28 07:06:18.
