data_PCOD8130402
_publ_section_title
;
Structure prediction by ZEFSAII (Michael W. Deem and Ramdas Pophale) SiO2 
 PCOD8130402
Probable space group: C 2/C
;
_chemical_formula_sum "Si O2"
_cell_formula_units_Z 44
_cell_length_a 20.158739
_cell_length_b 7.045211
_cell_length_c 19.092854
_cell_angle_alpha 90.000000
_cell_angle_beta 47.524685
_cell_angle_gamma 90.000000
_cell_volume 2000.002240
_symmetry_space_group_name_H-M "C 2/C"
_symmetry_group_IT_number 15
_symmetry_cell_setting 'monoclinic'
loop_
_space_group_symop_operation_xyz
x,y,z
-x,y,1/2-z
-x,-y,-z
x,-y,1/2+z
1/2+x,1/2+y,z
1/2-x,1/2+y,1/2-z
1/2-x,1/2-y,-z
1/2+x,1/2-y,1/2+z
loop_
_atom_site_type_symbol
_atom_site_label
_atom_site_fract_x
_atom_site_fract_y
_atom_site_fract_z
Si Si1 0.000000 0.667644 0.250000
Si Si2 0.327120 0.674835 0.537334
Si Si3 0.352069 0.394194 0.632697
Si Si4 0.121657 0.680900 0.643073
Si Si5 0.410030 0.492156 0.232523
Si Si6 0.215982 0.503981 0.836663
O O1 0.079581 0.529432 0.168019
O O2 0.030593 0.809019 0.290535
O O3 0.367298 0.488950 0.546361
O O4 0.224049 0.644610 0.590445
O O5 0.386436 0.716357 0.426565
O O6 0.338347 0.837423 0.587273
O O7 0.425555 0.457888 0.638942
O O8 0.250925 0.440998 0.734472
O O9 0.356813 0.169598 0.618397
O O10 0.070188 0.817716 0.735336
O O11 0.304098 0.440618 0.320595
#
# Coordination Sequence:
#
# PCOD8130402 Si02
#       6
#     4   8   8   8   8   8
#     4  12  22  40  60  78 120 176 200 230 304 374
#     4  10  20  36  60  94 119 147 199 261 300 339
#     4  10  17  32  57  87 117 146 193 250 298 349
#     4  10  22  38  59  88 124 155 199 252 296 354
#     4   9  21  35  58  86 113 156 202 236 292 361
#     4   9  16  31  56  86 114 145 185 247 301 340
#
# _framework density 21.999976
#
# number of rings (size 3 to 8) (size 9 to 14) (size 15 to 20)
#    1.091    1.091    1.818    1.636    0.000    2.909 
#    0.000    6.364    0.000    5.455    0.000    0.000 
#    0.000    0.000    0.000    0.000    0.000    0.000 
#
# Total GULP energy -272651.484705 kJ/mol
# GULP energy per Si atom -12393.249305 kJ/mol
# Density = 2.194990 g / cm^3
# Si number density = 21.999976 Si / 1000 Ang^3
#
#
#
# Elastic Constant Matrix: (Units=GPa)
#
#
# Indices 1 2 3 4 5 6 
#
# 1 53.9956 6.4889 5.8930 0.0052 13.1463 -0.0025
# 2 6.4889 91.3008 -2.8003 0.0105 -5.8074 -0.0048
# 3 5.8930 -2.8003 21.2058 0.0060 7.6423 -0.0037
# 4 0.0052 0.0105 0.0060 19.7486 0.0002 5.8525
# 5 13.1463 -5.8074 7.6423 0.0002 24.8017 -0.0008
# 6 -0.0025 -0.0048 -0.0037 5.8525 -0.0008 45.6596
#
#
#
# Elastic Compliance Matrix: (Units=1/GPa)
#
#
# Indices 1 2 3 4 5 6 
#
# 1 0.021830 -0.002348 -0.002259 -0.000004 -0.011425 0.000001
# 2 -0.002348 0.011378 0.000839 -0.000006 0.003650 0.000002
# 3 -0.002259 0.000839 0.053314 -0.000018 -0.015034 0.000006
# 4 -0.000004 -0.000006 -0.000018 0.052636 0.000005 -0.006747
# 5 -0.011425 0.003650 -0.015034 0.000005 0.051863 -0.000001
# 6 0.000001 0.000002 0.000006 -0.006747 -0.000001 0.022766
#
#
# Mechanical properties :
#
#
# Convention : Reuss Voigt Hill
#
# Bulk Modulus (GPa) = 12.66028 20.62948 16.64488
# Shear Modulus (GPa) = 20.18981 28.50333 24.34657
#
# Velocity S-wave (km/s) = 3.03267 3.60336 3.33026
# Velocity P-wave (km/s) = 4.24617 5.16814 4.72968
#
# Compressibility (1/GPa) = 0.07898718
#
# Stress axis : x y z
#
# Youngs Moduli (GPa) = 45.80787 87.89236 18.75693
#
# Poissons Ratio (x) = 0.20633 0.04237
# Poissons Ratio (y) = 0.10753 -0.01575
# Poissons Ratio (z) = 0.10349 -0.07378
#
# Static dielectric constant tensor:
#      x y z
#    x 3.901580 0.000000 0.198530 
#    y 0.000000 3.797590 0.000000 
#    z 0.198530 0.000000 3.519030 
# 
# 
# High freq. dielectric constant tensor:
#      x y z
#    x 1.865130 0.000000 0.012250 
#    y 0.000000 1.864870 0.000000 
#    z 0.012250 0.000000 1.826170 
# 
# From -- ./inp_files/281124.got.cif
#   From: 2010.06.25/outbox.cif.g09.slc.cpg/sg15_141_cif.got.tgz:281124.got - 2010.06.28 07:06:18.
