data_PCOD8130575
_publ_section_title
;
Structure prediction by ZEFSAII (Michael W. Deem and Ramdas Pophale) SiO2 
 PCOD8130575
Probable space group: C 2/C
;
_chemical_formula_sum "Si O2"
_cell_formula_units_Z 60
_cell_length_a 21.267499
_cell_length_b 9.942475
_cell_length_c 19.909623
_cell_angle_alpha 90.000000
_cell_angle_beta 51.450987
_cell_angle_gamma 90.000000
_cell_volume 3292.475573
_symmetry_space_group_name_H-M "C 2/C"
_symmetry_group_IT_number 15
_symmetry_cell_setting 'monoclinic'
loop_
_space_group_symop_operation_xyz
x,y,z
-x,y,1/2-z
-x,-y,-z
x,-y,1/2+z
1/2+x,1/2+y,z
1/2-x,1/2+y,1/2-z
1/2-x,1/2-y,-z
1/2+x,1/2-y,1/2+z
loop_
_atom_site_type_symbol
_atom_site_label
_atom_site_fract_x
_atom_site_fract_y
_atom_site_fract_z
Si Si1 0.976083 0.221720 0.003735
Si Si2 0.124922 0.377919 0.326247
Si Si3 0.421430 0.541721 0.368782
Si Si4 0.920183 0.670247 0.181343
Si Si5 0.804496 0.896411 0.221310
Si Si6 0.117096 0.040129 0.961819
Si Si7 0.101633 0.122627 0.258293
Si Si8 0.000000 0.203186 0.750000
O O1 0.006205 0.290487 0.915836
O O2 0.047694 0.147258 0.993874
O O3 0.938983 0.337667 0.074704
O O4 0.908081 0.113168 0.033345
O O5 0.095597 0.512665 0.310515
O O6 0.211484 0.400254 0.303731
O O7 0.133300 0.264294 0.263728
O O8 0.361716 0.551187 0.472723
O O9 0.505920 0.611420 0.332624
O O10 0.378223 0.614077 0.334545
O O11 0.441517 0.388666 0.334617
O O12 0.839559 0.749114 0.213608
O O13 0.944123 0.703676 0.241456
O O14 0.809777 0.927823 0.137449
O O15 0.856186 0.003191 0.228875
#
# Coordination Sequence:
#
# PCOD8130575 Si02
#       8
#     8   8   8   8   8   8   8   4
#     4  10  19  35  58  85 109 142 199 238 269 327
#     4  12  23  35  55  88 123 142 179 240 294 335
#     4  10  17  34  64  82 104 141 204 242 253 333
#     4  11  22  36  58  86 115 149 185 239 285 325
#     4  11  21  37  59  83 115 151 190 223 287 349
#     4  10  17  34  63  84 101 148 202 236 262 328
#     4  10  19  35  58  85 104 151 192 227 275 330
#     4  10  18  34  58  84 110 146 196 234 274 330
#
# _framework density 18.223369000000002
#
# number of rings (size 3 to 8) (size 9 to 14) (size 15 to 20)
#    0.000    1.600    6.667    2.000    0.000    1.067 
#    0.000    0.667    2.933    2.400    0.000    0.000 
#    0.000    0.000    0.000    0.000    0.000    0.000 
#
# Total GULP energy -371935.458680 kJ/mol
# GULP energy per Si atom -12397.848623 kJ/mol
# Density = 1.818189 g / cm^3
# Si number density = 18.223369 Si / 1000 Ang^3
#
#
#
# Elastic Constant Matrix: (Units=GPa)
#
#
# Indices 1 2 3 4 5 6 
#
# 1 59.2361 19.9706 27.1072 0.0000 16.0681 0.0000
# 2 19.9706 98.1044 16.1317 -0.0001 4.7028 0.0001
# 3 27.1072 16.1317 47.2156 0.0000 15.3738 0.0000
# 4 0.0000 -0.0001 0.0000 8.5946 0.0000 -0.0301
# 5 16.0681 4.7028 15.3738 0.0000 28.6422 0.0000
# 6 0.0000 0.0001 0.0000 -0.0301 0.0000 18.7225
#
#
#
# Elastic Compliance Matrix: (Units=1/GPa)
#
#
# Indices 1 2 3 4 5 6 
#
# 1 0.024890 -0.002924 -0.010785 0.000000 -0.007694 0.000000
# 2 -0.002924 0.011145 -0.002505 0.000000 0.001155 0.000000
# 3 -0.010785 -0.002505 0.031656 0.000000 -0.010530 0.000000
# 4 0.000000 0.000000 0.000000 0.116353 0.000000 0.000187
# 5 -0.007694 0.001155 -0.010530 0.000000 0.044692 0.000000
# 6 0.000000 0.000000 0.000000 0.000187 0.000000 0.053412
#
#
# Mechanical properties :
#
#
# Convention : Reuss Voigt Hill
#
# Bulk Modulus (GPa) = 28.35969 36.77499 32.56734
# Shear Modulus (GPa) = 15.32188 20.61498 17.96843
#
# Velocity S-wave (km/s) = 2.90277 3.36704 3.14349
# Velocity P-wave (km/s) = 5.17985 5.94473 5.57542
#
# Compressibility (1/GPa) = 0.03526131
#
# Stress axis : x y z
#
# Youngs Moduli (GPa) = 40.17669 89.72586 31.58974
#
# Poissons Ratio (x) = 0.26240 0.34071
# Poissons Ratio (y) = 0.11749 0.07913
# Poissons Ratio (z) = 0.43332 0.22477
#
# Static dielectric constant tensor:
#      x y z
#    x 3.223670 0.000000 0.265520 
#    y 0.000000 3.330760 0.000000 
#    z 0.265520 0.000000 3.416010 
# 
# 
# High freq. dielectric constant tensor:
#      x y z
#    x 1.686240 0.000000 0.022520 
#    y 0.000000 1.705170 0.000000 
#    z 0.022520 0.000000 1.697900 
# 
# From -- ./inp_files/252086.got.cif
#   From: 2010.06.25/outbox.cif.g09.slc.cpg/sg15_127_cif.got.tgz:252086.got - 2010.06.28 07:06:18.
