data_PCOD8130158
_publ_section_title
;
Structure prediction by ZEFSAII (Michael W. Deem and Ramdas Pophale) SiO2 
 PCOD8130158
Probable space group: C 2/C
;
_chemical_formula_sum "Si O2"
_cell_formula_units_Z 64
_cell_length_a 15.190557
_cell_length_b 30.438696
_cell_length_c 15.629007
_cell_angle_alpha 90.000000
_cell_angle_beta 149.853393
_cell_angle_gamma 90.000000
_cell_volume 3629.277896
_symmetry_space_group_name_H-M "C 2/C"
_symmetry_group_IT_number 15
_symmetry_cell_setting 'monoclinic'
loop_
_space_group_symop_operation_xyz
x,y,z
-x,y,1/2-z
-x,-y,-z
x,-y,1/2+z
1/2+x,1/2+y,z
1/2-x,1/2+y,1/2-z
1/2-x,1/2-y,-z
1/2+x,1/2-y,1/2+z
loop_
_atom_site_type_symbol
_atom_site_label
_atom_site_fract_x
_atom_site_fract_y
_atom_site_fract_z
Si Si1 0.024825 0.042803 0.964028
Si Si2 0.931695 0.620237 0.504733
Si Si3 0.235602 0.294565 0.589375
Si Si4 0.811752 0.109031 0.888659
Si Si5 0.879460 0.447688 0.828358
Si Si6 0.190000 0.564044 0.948544
Si Si7 0.765521 0.490466 0.389111
Si Si8 0.370963 0.700008 0.020272
O O1 0.960036 0.087521 0.955037
O O2 0.914114 0.036150 0.783360
O O3 0.235573 0.049156 0.130237
O O4 0.000000 0.000000 0.000000
O O5 0.902256 0.672481 0.481704
O O6 0.876068 0.601237 0.365853
O O7 0.812441 0.601196 0.480819
O O8 0.128766 0.604123 0.686231
O O9 0.428798 0.302637 0.785237
O O10 0.236895 0.302492 0.487932
O O11 0.169365 0.246197 0.559622
O O12 0.817489 0.081522 0.981830
O O13 0.839194 0.160552 0.927915
O O14 0.824623 0.480852 0.857730
O O15 0.071884 0.458061 0.953211
O O16 0.000000 0.554028 0.750000
O O17 0.269588 0.519714 0.056177
#
# Coordination Sequence:
#
# PCOD8130158 Si02
#       8
#     8   8   8   8   8   8   8   8
#     4  10  20  31  47  65  85 116 154 195 230 281
#     4  10  17  30  46  65  85 114 152 193 234 272
#     4  10  19  31  42  62  87 117 155 192 241 269
#     4  11  19  32  47  68  88 119 161 197 238 271
#     4   9  17  29  48  60  84 114 146 189 231 278
#     4   9  19  28  48  64  87 120 150 199 238 273
#     4   9  17  33  45  62  86 113 148 192 237 276
#     4  10  20  30  44  59  88 120 152 198 232 277
#
# _framework density 17.634361999999999
#
# number of rings (size 3 to 8) (size 9 to 14) (size 15 to 20)
#    0.000    2.250    2.500    1.500    5.250    1.000 
#    0.000    0.000    0.000    0.000    0.000    0.000 
#    0.000    0.000    0.000    0.000    0.000    5.000 
#
# Total GULP energy -396652.856121 kJ/mol
# GULP energy per Si atom -12395.401754 kJ/mol
# Density = 1.759423 g / cm^3
# Si number density = 17.634362 Si / 1000 Ang^3
#
#
#
# Elastic Constant Matrix: (Units=GPa)
#
#
# Indices 1 2 3 4 5 6 
#
# 1 14.7712 24.3960 18.7052 0.0000 0.9218 0.0000
# 2 24.3960 114.1731 37.6858 0.0000 -4.5021 0.0000
# 3 18.7052 37.6858 101.6736 0.0000 5.7813 0.0000
# 4 0.0000 0.0000 0.0000 28.7649 0.0000 -1.0718
# 5 0.9218 -4.5021 5.7813 0.0000 14.3476 0.0000
# 6 0.0000 0.0000 0.0000 -1.0718 0.0000 24.6556
#
#
#
# Elastic Compliance Matrix: (Units=1/GPa)
#
#
# Indices 1 2 3 4 5 6 
#
# 1 0.121793 -0.021830 -0.013797 0.000000 -0.009115 0.000000
# 2 -0.021830 0.014216 -0.001624 0.000000 0.006518 0.000000
# 3 -0.013797 -0.001624 0.013258 0.000000 -0.004965 0.000000
# 4 0.000000 0.000000 0.000000 0.034821 0.000000 0.001514
# 5 -0.009115 0.006518 -0.004965 0.000000 0.074330 0.000000
# 6 0.000000 0.000000 0.000000 0.001514 0.000000 0.040624
#
#
# Mechanical properties :
#
#
# Convention : Reuss Voigt Hill
#
# Bulk Modulus (GPa) = 13.37506 43.57688 28.47597
# Shear Modulus (GPa) = 12.54817 23.54235 18.04526
#
# Velocity S-wave (km/s) = 2.67043 3.65777 3.20238
# Velocity P-wave (km/s) = 4.13635 6.52717 5.46413
#
# Compressibility (1/GPa) = 0.07476600
#
# Stress axis : x y z
#
# Youngs Moduli (GPa) = 8.21067 70.34298 75.42686
#
# Poissons Ratio (x) = 1.53555 1.04067
# Poissons Ratio (y) = 0.17923 0.12248
# Poissons Ratio (z) = 0.11328 0.11422
#
# Static dielectric constant tensor:
#      x y z
#    x 2.730980 0.000000 0.064710 
#    y 0.000000 3.267490 0.000000 
#    z 0.064710 0.000000 3.779370 
# 
# 
# High freq. dielectric constant tensor:
#      x y z
#    x 1.610080 0.000000 0.015170 
#    y 0.000000 1.670460 0.000000 
#    z 0.015170 0.000000 1.701650 
# 
# From -- ./inp_files/63842.got.cif
#   From: 2010.06.25/outbox.cif.g09.slc.cpg/sg15_32_cif.got.tgz:63842.got - 2010.06.28 07:06:18.
