data_PCOD8130489
_publ_section_title
;
Structure prediction by ZEFSAII (Michael W. Deem and Ramdas Pophale) SiO2 
 PCOD8130489
Probable space group: C 2/C
;
_chemical_formula_sum "Si O2"
_cell_formula_units_Z 52
_cell_length_a 6.524794
_cell_length_b 17.728154
_cell_length_c 27.978695
_cell_angle_alpha 90.000000
_cell_angle_beta 127.039136
_cell_angle_gamma 90.000000
_cell_volume 2583.346691
_symmetry_space_group_name_H-M "C 2/C"
_symmetry_group_IT_number 15
_symmetry_cell_setting 'monoclinic'
loop_
_space_group_symop_operation_xyz
x,y,z
-x,y,1/2-z
-x,-y,-z
x,-y,1/2+z
1/2+x,1/2+y,z
1/2-x,1/2+y,1/2-z
1/2-x,1/2-y,-z
1/2+x,1/2-y,1/2+z
loop_
_atom_site_type_symbol
_atom_site_label
_atom_site_fract_x
_atom_site_fract_y
_atom_site_fract_z
Si Si1 0.626428 0.049998 0.579613
Si Si2 0.185937 0.149971 0.351256
Si Si3 0.254060 0.461358 0.801797
Si Si4 0.825483 0.436022 0.601408
Si Si5 0.209622 0.906341 0.954183
Si Si6 0.426005 0.613370 0.794059
Si Si7 0.500000 0.766527 0.250000
O O1 0.463310 0.105189 0.521983
O O2 0.819800 0.102452 0.637108
O O3 0.418220 0.005146 0.582209
O O4 0.782351 0.988764 0.570641
O O5 0.467098 0.131959 0.369339
O O6 0.202146 0.159037 0.411693
O O7 0.009148 0.076981 0.317190
O O8 0.045626 0.218490 0.304872
O O9 0.236401 0.468575 0.855626
O O10 0.240777 0.542596 0.775138
O O11 0.000000 0.415565 0.750000
O O12 0.544280 0.402498 0.547319
O O13 0.500000 0.620895 0.750000
O O14 0.263066 0.687096 0.784005
#
# Coordination Sequence:
#
# PCOD8130489 Si02
#       7
#     8   8   8   8   8   8   4
#     4  10  19  36  59  97 128 156 203 264 302 372
#     4  10  22  39  59  90 122 163 209 252 300 375
#     4  11  20  34  62  89 118 158 209 251 302 363
#     4  10  17  33  62  92 120 153 202 254 312 350
#     4   9  19  35  63  94 125 157 207 258 311 355
#     4  12  25  39  59  90 127 162 201 255 313 369
#     4  12  28  42  58  88 132 168 202 258 320 362
#
# _framework density 20.128928999999999
#
# number of rings (size 3 to 8) (size 9 to 14) (size 15 to 20)
#    0.000    1.538    5.385    2.308    1.077    3.077 
#    0.000    0.769    0.000    1.846    0.000    0.000 
#    0.000    0.000    0.000    0.000    0.000    0.000 
#
# Total GULP energy -322105.581504 kJ/mol
# GULP energy per Si atom -12388.676212 kJ/mol
# Density = 2.008311 g / cm^3
# Si number density = 20.128929 Si / 1000 Ang^3
#
#
#
# Elastic Constant Matrix: (Units=GPa)
#
#
# Indices 1 2 3 4 5 6 
#
# 1 139.6159 32.0869 50.7261 0.0000 16.3906 -0.0001
# 2 32.0869 66.4832 42.5650 0.0000 -0.1807 0.0000
# 3 50.7261 42.5650 150.1056 -0.0001 24.6455 0.0000
# 4 0.0000 0.0000 -0.0001 15.5771 0.0000 8.9392
# 5 16.3906 -0.1807 24.6455 0.0000 30.1805 0.0000
# 6 -0.0001 0.0000 0.0000 8.9392 0.0000 15.3387
#
#
#
# Elastic Compliance Matrix: (Units=1/GPa)
#
#
# Indices 1 2 3 4 5 6 
#
# 1 0.008895 -0.003377 -0.001446 0.000000 -0.003670 0.000000
# 2 -0.003377 0.020350 -0.005717 0.000000 0.006624 0.000000
# 3 -0.001446 -0.005717 0.009987 0.000000 -0.007405 0.000000
# 4 0.000000 0.000000 0.000000 0.096456 0.000000 -0.056213
# 5 -0.003670 0.006624 -0.007405 0.000000 0.041214 0.000000
# 6 0.000000 0.000000 0.000000 -0.056213 0.000000 0.097955
#
#
# Mechanical properties :
#
#
# Convention : Reuss Voigt Hill
#
# Bulk Modulus (GPa) = 55.08937 67.44007 61.26472
# Shear Modulus (GPa) = 16.55705 27.60771 22.08238
#
# Velocity S-wave (km/s) = 2.87112 3.70745 3.31576
# Velocity P-wave (km/s) = 6.19829 7.20443 6.72021
#
# Compressibility (1/GPa) = 0.01815232
#
# Stress axis : x y z
#
# Youngs Moduli (GPa) = 112.42502 49.14120 100.12684
#
# Poissons Ratio (x) = 0.16597 0.14473
# Poissons Ratio (y) = 0.37971 0.57240
# Poissons Ratio (z) = 0.16251 0.28093
#
# Static dielectric constant tensor:
#      x y z
#    x 4.190950 0.000000 0.198950 
#    y 0.000000 3.181690 0.000000 
#    z 0.198950 0.000000 4.093090 
# 
# 
# High freq. dielectric constant tensor:
#      x y z
#    x 1.808710 0.000000 0.015320 
#    y 0.000000 1.725260 0.000000 
#    z 0.015320 0.000000 1.800950 
# 
# From -- ./inp_files/286152.got.cif
#   From: 2010.06.25/outbox.cif.g09.slc.cpg/sg15_144_cif.got.tgz:286152.got - 2010.06.28 07:06:18.
