data_PCOD8130801
_publ_section_title
;
Structure prediction by ZEFSAII (Michael W. Deem and Ramdas Pophale) SiO2 
 PCOD8130801
Probable space group: C 2/C
;
_chemical_formula_sum "Si O2"
_cell_formula_units_Z 56
_cell_length_a 20.128480
_cell_length_b 21.886060
_cell_length_c 9.318535
_cell_angle_alpha 90.000000
_cell_angle_beta 117.577833
_cell_angle_gamma 90.000000
_cell_volume 3638.710511
_symmetry_space_group_name_H-M "C 2/C"
_symmetry_group_IT_number 15
_symmetry_cell_setting 'monoclinic'
loop_
_space_group_symop_operation_xyz
x,y,z
-x,y,1/2-z
-x,-y,-z
x,-y,1/2+z
1/2+x,1/2+y,z
1/2-x,1/2+y,1/2-z
1/2-x,1/2-y,-z
1/2+x,1/2-y,1/2+z
loop_
_atom_site_type_symbol
_atom_site_label
_atom_site_fract_x
_atom_site_fract_y
_atom_site_fract_z
Si Si1 0.082764 0.776647 0.166574
Si Si2 0.372949 0.157004 0.791707
Si Si3 0.765797 0.821884 0.175139
Si Si4 0.417236 0.723353 0.501046
Si Si5 0.627051 0.842996 0.545809
Si Si6 0.500000 0.062472 0.583797
Si Si7 0.265797 0.678116 0.356456
O O1 0.146189 0.827641 0.190620
O O2 0.094006 0.756961 0.344006
O O3 0.090684 0.716733 0.078401
O O4 0.000000 0.804982 0.058485
O O5 0.289726 0.143532 0.771321
O O6 0.366649 0.167861 0.616649
O O7 0.425641 0.100119 0.882829
O O8 0.409316 0.216733 0.897032
O O9 0.750000 0.750000 0.162343
O O10 0.752674 0.848881 0.002674
O O11 0.353811 0.672359 0.398243
O O12 0.574359 0.899881 0.531547
O O13 0.710274 0.856468 0.691869
O O14 0.500000 0.046414 0.750000
O O15 0.500000 0.000000 0.500000
#
# Coordination Sequence:
#
# PCOD8130801 Si02
#       7
#     8   8   8   8   8   8   8
#     4   9  16  26  41  60  83 112 141 166 195 238
#     4  10  18  29  41  57  81 106 136 174 211 244
#     4   8  15  26  39  58  80 106 140 166 194 243
#     4   9  16  26  41  60  83 112 141 166 195 238
#     4  10  18  29  41  57  81 106 136 174 211 244
#     4  10  22  34  44  60  80 106 144 182 211 248
#     4   8  15  26  39  58  80 106 140 166 194 243
#
# _framework density 15.390067
#
# number of rings (size 3 to 8) (size 9 to 14) (size 15 to 20)
#    0.000    2.857    1.429    2.571    0.000    7.429 
#    0.000    0.000    0.000    0.000    0.000    0.000 
#    0.000    1.143    0.000    2.571    0.000    4.000 
#
# Total GULP energy -346959.087056 kJ/mol
# GULP energy per Si atom -12391.395966 kJ/mol
# Density = 1.535504 g / cm^3
# Si number density = 15.390067 Si / 1000 Ang^3
#
#
#
# Elastic Constant Matrix: (Units=GPa)
#
#
# Indices 1 2 3 4 5 6 
#
# 1 153.5314 41.4702 66.3190 0.0000 22.3956 0.0000
# 2 41.4702 44.6619 37.7915 0.0000 2.2695 0.0000
# 3 66.3190 37.7915 92.1184 0.0000 15.4911 0.0000
# 4 0.0000 0.0000 0.0000 17.5255 0.0000 -2.0826
# 5 22.3956 2.2695 15.4911 0.0000 29.7145 0.0000
# 6 0.0000 0.0000 0.0000 -2.0826 0.0000 14.1497
#
#
#
# Elastic Compliance Matrix: (Units=1/GPa)
#
#
# Indices 1 2 3 4 5 6 
#
# 1 0.010846 -0.006064 -0.004411 0.000000 -0.005412 0.000000
# 2 -0.006064 0.038426 -0.012796 0.000000 0.008306 0.000000
# 3 -0.004411 -0.012796 0.020340 0.000000 -0.006302 0.000000
# 4 0.000000 0.000000 0.000000 0.058076 0.000000 0.008548
# 5 -0.005412 0.008306 -0.006302 0.000000 0.040384 0.000000
# 6 0.000000 0.000000 0.000000 0.008548 0.000000 0.071931
#
#
# Mechanical properties :
#
#
# Convention : Reuss Voigt Hill
#
# Bulk Modulus (GPa) = 43.34200 64.60812 53.97506
# Shear Modulus (GPa) = 16.99338 21.92666 19.46002
#
# Velocity S-wave (km/s) = 3.32652 3.77865 3.55977
# Velocity P-wave (km/s) = 6.55575 7.81723 7.21412
#
# Compressibility (1/GPa) = 0.02307231
#
# Stress axis : x y z
#
# Youngs Moduli (GPa) = 92.20196 26.02412 49.16396
#
# Poissons Ratio (x) = 0.15780 0.21684
# Poissons Ratio (y) = 0.55908 0.62908
# Poissons Ratio (z) = 0.40666 0.33299
#
# Static dielectric constant tensor:
#      x y z
#    x 3.635560 0.000000 0.303200 
#    y 0.000000 2.354690 0.000000 
#    z 0.303200 0.000000 3.144090 
# 
# 
# High freq. dielectric constant tensor:
#      x y z
#    x 1.613210 0.000000 0.008390 
#    y 0.000000 1.509370 0.000000 
#    z 0.008390 0.000000 1.599610 
# 
# From -- ./inp_files/63133.got.cif
#   From: 2010.06.25/outbox.cif.g09.slc.cpg/sg15_32_cif.got.tgz:63133.got - 2010.06.28 07:06:18.
