data_PCOD8130894
_publ_section_title
;
Structure prediction by ZEFSAII (Michael W. Deem and Ramdas Pophale) SiO2 
 PCOD8130894
Probable space group: C 2/C
;
_chemical_formula_sum "Si O2"
_cell_formula_units_Z 56
_cell_length_a 27.066441
_cell_length_b 15.058955
_cell_length_c 11.173934
_cell_angle_alpha 90.000000
_cell_angle_beta 135.838728
_cell_angle_gamma 90.000000
_cell_volume 3172.967761
_symmetry_space_group_name_H-M "C 2/C"
_symmetry_group_IT_number 15
_symmetry_cell_setting 'monoclinic'
loop_
_space_group_symop_operation_xyz
x,y,z
-x,y,1/2-z
-x,-y,-z
x,-y,1/2+z
1/2+x,1/2+y,z
1/2-x,1/2+y,1/2-z
1/2-x,1/2-y,-z
1/2+x,1/2-y,1/2+z
loop_
_atom_site_type_symbol
_atom_site_label
_atom_site_fract_x
_atom_site_fract_y
_atom_site_fract_z
Si Si1 0.402457 0.658942 0.814457
Si Si2 0.068698 0.012448 0.808980
Si Si3 0.203159 0.234264 0.033509
Si Si4 0.686522 0.317953 0.905248
Si Si5 0.803107 0.072138 0.314156
Si Si6 0.277718 0.383681 0.278971
Si Si7 0.034904 0.190427 0.192902
O O1 0.413145 0.559507 0.784479
O O2 0.376287 0.719441 0.655954
O O3 0.344920 0.652998 0.820239
O O4 0.476870 0.699534 0.987369
O O5 0.000000 0.056906 0.750000
O O6 0.054361 0.910809 0.754688
O O7 0.128449 0.023443 0.012981
O O8 0.228413 0.145831 0.149718
O O9 0.210289 0.319695 0.132436
O O10 0.250000 0.250000 0.000000
O O11 0.679772 0.383243 0.781748
O O12 0.610691 0.265573 0.787774
O O13 0.750000 0.250000 0.000000
O O14 0.702465 0.378389 0.047527
O O15 0.752852 0.985274 0.206677
O O16 0.000000 0.235562 0.250000
#
# Coordination Sequence:
#
# PCOD8130894 Si02
#       7
#     8   8   8   8   8   8   8
#     4  10  19  33  53  74 112 150 184 218 273 336
#     4  10  18  30  48  81 112 146 181 212 258 347
#     4   9  21  35  52  77 113 147 192 232 269 340
#     4  12  23  36  54  81 121 143 190 241 271 334
#     4  11  21  33  54  78 110 158 181 225 285 322
#     4  11  20  37  52  79 114 148 195 228 279 333
#     4  11  19  32  51  79 110 150 181 220 275 341
#
# _framework density 17.649092
#
# number of rings (size 3 to 8) (size 9 to 14) (size 15 to 20)
#    0.000    1.429    4.286    3.000    4.000    0.000 
#    0.000    0.000    0.000    0.000    0.000    1.000 
#    8.571    0.000    0.000    0.000    0.000    0.000 
#
# Total GULP energy -346965.594504 kJ/mol
# GULP energy per Si atom -12391.628375 kJ/mol
# Density = 1.760892 g / cm^3
# Si number density = 17.649092 Si / 1000 Ang^3
#
#
#
# Elastic Constant Matrix: (Units=GPa)
#
#
# Indices 1 2 3 4 5 6 
#
# 1 81.1113 30.1084 34.1109 0.0000 0.4251 0.0000
# 2 30.1084 80.9140 37.8159 0.0000 7.5830 0.0000
# 3 34.1109 37.8159 99.8954 0.0000 -2.9628 0.0000
# 4 0.0000 0.0000 0.0000 24.1597 0.0000 0.2162
# 5 0.4251 7.5830 -2.9628 0.0000 29.3727 0.0000
# 6 0.0000 0.0000 0.0000 0.2162 0.0000 23.6159
#
#
#
# Elastic Compliance Matrix: (Units=1/GPa)
#
#
# Indices 1 2 3 4 5 6 
#
# 1 0.015385 -0.004030 -0.003715 0.000000 0.000443 0.000000
# 2 -0.004030 0.016678 -0.005079 0.000000 -0.004760 0.000000
# 3 -0.003715 -0.005079 0.013282 0.000000 0.002705 0.000000
# 4 0.000000 0.000000 0.000000 0.041395 0.000000 -0.000379
# 5 0.000443 -0.004760 0.002705 0.000000 0.035540 0.000000
# 6 0.000000 0.000000 0.000000 -0.000379 0.000000 0.042348
#
#
# Mechanical properties :
#
#
# Convention : Reuss Voigt Hill
#
# Bulk Modulus (GPa) = 50.76745 51.77681 51.27213
# Shear Modulus (GPa) = 25.40145 26.08870 25.74508
#
# Velocity S-wave (km/s) = 3.79786 3.84889 3.82346
# Velocity P-wave (km/s) = 6.93246 7.01088 6.97178
#
# Compressibility (1/GPa) = 0.01969766
#
# Stress axis : x y z
#
# Youngs Moduli (GPa) = 65.00044 59.95932 75.29231
#
# Poissons Ratio (x) = 0.24164 0.27967
# Poissons Ratio (y) = 0.26196 0.38237
# Poissons Ratio (z) = 0.24145 0.30451
#
# Static dielectric constant tensor:
#      x y z
#    x 3.817620 0.000000 0.072440 
#    y 0.000000 3.329330 0.000000 
#    z 0.072440 0.000000 3.802390 
# 
# 
# High freq. dielectric constant tensor:
#      x y z
#    x 1.679650 0.000000 -0.023960 
#    y 0.000000 1.645790 0.000000 
#    z -0.023960 0.000000 1.693110 
# 
# From -- ./inp_files/126758.got.cif
#   From: 2010.06.25/outbox.cif.g09.slc.cpg/sg15_64_cif.got.tgz:126758.got - 2010.06.28 07:06:18.
