data_PCOD8130046
_publ_section_title
;
Structure prediction by ZEFSAII (Michael W. Deem and Ramdas Pophale) SiO2 
 PCOD8130046
Probable space group: C 2/C
;
_chemical_formula_sum "Si O2"
_cell_formula_units_Z 64
_cell_length_a 18.677193
_cell_length_b 24.126322
_cell_length_c 11.555486
_cell_angle_alpha 90.000000
_cell_angle_beta 129.690143
_cell_angle_gamma 90.000000
_cell_volume 4006.866671
_symmetry_space_group_name_H-M "C 2/C"
_symmetry_group_IT_number 15
_symmetry_cell_setting 'monoclinic'
loop_
_space_group_symop_operation_xyz
x,y,z
-x,y,1/2-z
-x,-y,-z
x,-y,1/2+z
1/2+x,1/2+y,z
1/2-x,1/2+y,1/2-z
1/2-x,1/2-y,-z
1/2+x,1/2-y,1/2+z
loop_
_atom_site_type_symbol
_atom_site_label
_atom_site_fract_x
_atom_site_fract_y
_atom_site_fract_z
Si Si1 0.751319 0.835231 0.349536
Si Si2 0.102134 0.252427 0.487130
Si Si3 0.979786 0.446463 0.346604
Si Si4 0.597711 0.063055 0.323895
Si Si5 0.104534 0.753950 0.715962
Si Si6 0.673989 0.056863 0.170554
Si Si7 0.747928 0.157259 0.119184
Si Si8 0.317843 0.935699 0.341888
O O1 0.842175 0.800513 0.408235
O O2 0.661069 0.798296 0.225273
O O3 0.749683 0.850305 0.483266
O O4 0.756517 0.889762 0.274573
O O5 0.098318 0.248290 0.346363
O O6 0.156794 0.309447 0.570733
O O7 0.000446 0.249853 0.442160
O O8 0.929127 0.501027 0.244243
O O9 0.911073 0.417922 0.366508
O O10 0.000000 0.409483 0.250000
O O11 0.076275 0.459800 0.509163
O O12 0.500000 0.094886 0.250000
O O13 0.654342 0.087660 0.272926
O O14 0.664835 0.066372 0.503268
O O15 0.158915 0.811095 0.740375
O O16 0.741434 0.096014 0.166279
O O17 0.722216 0.996447 0.233847
#
# Coordination Sequence:
#
# PCOD8130046 Si02
#       8
#     8   8   8   8   8   8   8   8
#     4   9  18  28  46  72  95 118 152 186 231 285
#     4   8  15  30  47  69  92 118 150 192 240 275
#     4  10  17  26  39  58  88 126 152 179 218 267
#     4  10  17  29  36  54  90 130 157 176 210 270
#     4   8  15  30  48  67  94 118 148 196 240 270
#     4  11  19  27  42  62  94 128 152 185 221 271
#     4   9  18  29  45  73  95 116 153 190 231 279
#     4  11  19  28  40  61  96 127 152 183 221 273
#
# _framework density 15.972581
#
# number of rings (size 3 to 8) (size 9 to 14) (size 15 to 20)
#    0.000    2.500    3.750    3.000    3.500    0.000 
#    0.000    0.000    0.000    3.750    0.000    2.625 
#    0.000    0.000    0.000    0.000    0.000    0.000 
#
# Total GULP energy -396429.970651 kJ/mol
# GULP energy per Si atom -12388.436583 kJ/mol
# Density = 1.593623 g / cm^3
# Si number density = 15.972581 Si / 1000 Ang^3
#
#
#
# Elastic Constant Matrix: (Units=GPa)
#
#
# Indices 1 2 3 4 5 6 
#
# 1 58.3878 27.3005 31.2151 0.0000 5.9588 0.0000
# 2 27.3005 89.5525 27.6993 0.0000 5.6019 0.0000
# 3 31.2151 27.6993 57.5808 0.0000 -6.0688 0.0000
# 4 0.0000 0.0000 0.0000 21.0019 0.0000 -4.3058
# 5 5.9588 5.6019 -6.0688 0.0000 30.9806 0.0000
# 6 0.0000 0.0000 0.0000 -4.3058 0.0000 17.5897
#
#
#
# Elastic Compliance Matrix: (Units=1/GPa)
#
#
# Indices 1 2 3 4 5 6 
#
# 1 0.026755 -0.003510 -0.013571 0.000000 -0.007170 0.000000
# 2 -0.003510 0.014004 -0.005136 0.000000 -0.002863 0.000000
# 3 -0.013571 -0.005136 0.028149 0.000000 0.009053 0.000000
# 4 0.000000 0.000000 0.000000 0.050131 0.000000 0.012272
# 5 -0.007170 -0.002863 0.009053 0.000000 0.035948 0.000000
# 6 0.000000 0.000000 0.000000 0.012272 0.000000 0.059855
#
#
# Mechanical properties :
#
#
# Convention : Reuss Voigt Hill
#
# Bulk Modulus (GPa) = 40.85989 41.99456 41.42722
# Shear Modulus (GPa) = 18.69609 21.86819 20.28214
#
# Velocity S-wave (km/s) = 3.42499 3.70416 3.56730
# Velocity P-wave (km/s) = 6.42476 6.68155 6.55441
#
# Compressibility (1/GPa) = 0.02447388
#
# Stress axis : x y z
#
# Youngs Moduli (GPa) = 37.37558 71.40646 35.52551
#
# Poissons Ratio (x) = 0.25065 0.48213
# Poissons Ratio (y) = 0.13120 0.18245
# Poissons Ratio (z) = 0.50724 0.36672
#
# Static dielectric constant tensor:
#      x y z
#    x 3.354680 0.000000 -0.034200 
#    y 0.000000 2.896280 0.000000 
#    z -0.034200 0.000000 3.055380 
# 
# 
# High freq. dielectric constant tensor:
#      x y z
#    x 1.589850 0.000000 -0.008060 
#    y 0.000000 1.596880 0.000000 
#    z -0.008060 0.000000 1.582580 
# 
# From -- ./inp_files/114086.got.cif
#   From: 2010.06.25/outbox.cif.g09.slc.cpg/sg15_58_cif.got.tgz:114086.got - 2010.06.28 07:06:18.
