data_PCOD8130577
_publ_section_title
;
Structure prediction by ZEFSAII (Michael W. Deem and Ramdas Pophale) SiO2 
 PCOD8130577
Probable space group: C 2/C
;
_chemical_formula_sum "Si O2"
_cell_formula_units_Z 56
_cell_length_a 24.393648
_cell_length_b 9.246968
_cell_length_c 16.754843
_cell_angle_alpha 90.000000
_cell_angle_beta 53.229130
_cell_angle_gamma 90.000000
_cell_volume 3027.390242
_symmetry_space_group_name_H-M "C 2/C"
_symmetry_group_IT_number 15
_symmetry_cell_setting 'monoclinic'
loop_
_space_group_symop_operation_xyz
x,y,z
-x,y,1/2-z
-x,-y,-z
x,-y,1/2+z
1/2+x,1/2+y,z
1/2-x,1/2+y,1/2-z
1/2-x,1/2-y,-z
1/2+x,1/2-y,1/2+z
loop_
_atom_site_type_symbol
_atom_site_label
_atom_site_fract_x
_atom_site_fract_y
_atom_site_fract_z
Si Si1 0.564300 0.715515 0.751139
Si Si2 0.178302 0.166156 0.069961
Si Si3 0.396187 0.639456 0.044462
Si Si4 0.937873 0.830107 0.951943
Si Si5 0.411748 0.394226 0.709036
Si Si6 0.019988 0.347713 0.944206
Si Si7 0.816499 0.832139 0.464534
O O1 0.500000 0.706596 0.750000
O O2 0.576183 0.560947 0.781630
O O3 0.557690 0.842795 0.824420
O O4 0.626697 0.748196 0.638076
O O5 0.122361 0.221287 0.054372
O O6 0.141883 0.187895 0.187090
O O7 0.194039 0.998717 0.046405
O O8 0.250000 0.250000 0.000000
O O9 0.375882 0.614552 0.153676
O O10 0.431920 0.498630 0.976718
O O11 0.449448 0.767411 0.991394
O O12 0.331419 0.682605 0.046403
O O13 0.015009 0.810601 0.849893
O O14 0.930043 0.734454 0.037990
O O15 0.000000 0.500000 0.000000
O O16 0.750000 0.750000 0.500000
#
# Coordination Sequence:
#
# PCOD8130577 Si02
#       7
#     8   8   8   8   8   8   8
#     4  11  18  37  64  86 114 155 206 239 294 371
#     4  10  22  38  56  84 122 156 195 247 295 349
#     4  10  18  37  62  86 115 148 203 248 282 360
#     4  10  18  37  63  82 116 150 199 244 289 363
#     4  10  17  34  65  90 106 154 206 244 286 349
#     4  11  21  34  56  95 119 142 188 258 310 334
#     4  10  22  39  60  80 116 167 202 237 288 363
#
# _framework density 18.497781
#
# number of rings (size 3 to 8) (size 9 to 14) (size 15 to 20)
#    0.000    1.714    4.286    3.000    0.000    1.143 
#    7.714    0.000    0.000    0.000    0.000    0.000 
#    0.000    0.000    0.000    0.000    0.000    0.000 
#
# Total GULP energy -347008.539005 kJ/mol
# GULP energy per Si atom -12393.162107 kJ/mol
# Density = 1.845568 g / cm^3
# Si number density = 18.497781 Si / 1000 Ang^3
#
#
#
# Elastic Constant Matrix: (Units=GPa)
#
#
# Indices 1 2 3 4 5 6 
#
# 1 169.1558 49.6363 92.9713 0.0000 10.0486 -0.0001
# 2 49.6363 67.0566 36.3840 0.0004 5.2642 -0.0004
# 3 92.9713 36.3840 136.9399 0.0001 11.6299 -0.0001
# 4 0.0000 0.0004 0.0001 26.5982 -0.0001 -0.3500
# 5 10.0486 5.2642 11.6299 -0.0001 33.5986 0.0001
# 6 -0.0001 -0.0004 -0.0001 -0.3500 0.0001 27.8690
#
#
#
# Elastic Compliance Matrix: (Units=1/GPa)
#
#
# Indices 1 2 3 4 5 6 
#
# 1 0.010509 -0.004551 -0.005892 0.000000 -0.000390 0.000000
# 2 -0.004551 0.019440 -0.001991 0.000000 -0.000996 0.000000
# 3 -0.005892 -0.001991 0.012009 0.000000 -0.002083 0.000000
# 4 0.000000 0.000000 0.000000 0.037603 0.000000 0.000472
# 5 -0.000390 -0.000996 -0.002083 0.000000 0.030757 0.000000
# 6 0.000000 0.000000 0.000000 0.000472 0.000000 0.035888
#
#
# Mechanical properties :
#
#
# Convention : Reuss Voigt Hill
#
# Bulk Modulus (GPa) = 58.51646 81.23729 69.87688
# Shear Modulus (GPa) = 28.28542 30.55721 29.42132
#
# Velocity S-wave (km/s) = 3.91464 4.06882 3.99247
# Velocity P-wave (km/s) = 7.22050 8.12935 7.68837
#
# Compressibility (1/GPa) = 0.01708921
#
# Stress axis : x y z
#
# Youngs Moduli (GPa) = 95.15746 51.44082 83.27309
#
# Poissons Ratio (x) = 0.23411 0.49068
# Poissons Ratio (y) = 0.43307 0.16577
# Poissons Ratio (z) = 0.56070 0.10240
#
# Static dielectric constant tensor:
#      x y z
#    x 3.618610 0.000000 0.439590 
#    y 0.000000 3.123370 0.000000 
#    z 0.439590 0.000000 3.817310 
# 
# 
# High freq. dielectric constant tensor:
#      x y z
#    x 1.721080 0.000000 0.020250 
#    y 0.000000 1.691450 0.000000 
#    z 0.020250 0.000000 1.720550 
# 
# From -- ./inp_files/218177.got.cif
#   From: 2010.06.25/outbox.cif.g09.slc.cpg/sg15_110_cif.got.tgz:218177.got - 2010.06.28 07:06:18.
