data_PCOD8130887
_publ_section_title
;
Structure prediction by ZEFSAII (Michael W. Deem and Ramdas Pophale) SiO2 
 PCOD8130887
Probable space group: C 2/C
;
_chemical_formula_sum "Si O2"
_cell_formula_units_Z 64
_cell_length_a 13.843359
_cell_length_b 38.338803
_cell_length_c 10.250868
_cell_angle_alpha 90.000000
_cell_angle_beta 137.773408
_cell_angle_gamma 90.000000
_cell_volume 3656.381668
_symmetry_space_group_name_H-M "C 2/C"
_symmetry_group_IT_number 15
_symmetry_cell_setting 'monoclinic'
loop_
_space_group_symop_operation_xyz
x,y,z
-x,y,1/2-z
-x,-y,-z
x,-y,1/2+z
1/2+x,1/2+y,z
1/2-x,1/2+y,1/2-z
1/2-x,1/2-y,-z
1/2+x,1/2-y,1/2+z
loop_
_atom_site_type_symbol
_atom_site_label
_atom_site_fract_x
_atom_site_fract_y
_atom_site_fract_z
Si Si1 0.665409 0.401477 0.263650
Si Si2 0.168890 0.529285 0.269891
Si Si3 0.328445 0.712983 0.078445
Si Si4 0.670192 0.671475 0.672770
Si Si5 0.334591 0.598523 0.432831
Si Si6 0.170192 0.171475 0.167616
Si Si7 0.168890 0.529285 0.567888
Si Si8 0.828888 0.213870 0.578887
O O1 0.723392 0.368632 0.236946
O O2 0.684422 0.391900 0.434422
O O3 0.757397 0.434876 0.315395
O O4 0.499999 0.409851 0.066480
O O5 0.242601 0.565125 0.300597
O O6 0.211438 0.519030 0.461438
O O7 0.223421 0.500000 0.223421
O O8 1.000000 0.534842 0.088493
O O9 0.500000 0.719018 0.250000
O O10 0.274713 0.690340 0.147304
O O11 0.250000 0.750000 0.000000
O O12 0.274713 0.690340 0.902120
O O13 0.500000 0.670731 0.506896
O O14 0.727822 0.693257 0.852264
O O15 0.276608 0.631368 0.290161
O O16 0.227822 0.193257 0.103383
O O17 0.750000 0.250000 0.500000
O O18 0.000000 0.219141 0.750000
#
# Coordination Sequence:
#
# PCOD8130887 Si02
#       8
#     8   8   8   8   8   8   8   8
#     4   9  16  30  52  73  94 123 159 197 235 275
#     4   9  18  33  51  71  98 130 158 187 231 282
#     4  10  20  34  50  68  95 128 159 193 238 287
#     4   9  17  31  50  69  93 125 157 191 237 284
#     4   9  16  30  52  73  94 123 159 197 235 275
#     4   9  17  31  50  69  93 125 157 191 237 284
#     4   9  18  33  51  71  98 130 158 187 231 282
#     4  10  18  30  48  70  93 120 155 193 232 277
#
# _framework density 17.503644000000001
#
# number of rings (size 3 to 8) (size 9 to 14) (size 15 to 20)
#    0.000    2.750    1.250    0.750    0.000    0.500 
#    2.250    2.500    0.000    0.000    0.000    0.000 
#    0.000    0.000    0.000    0.000    0.000    0.000 
#
# Total GULP energy -396718.773131 kJ/mol
# GULP energy per Si atom -12397.461660 kJ/mol
# Density = 1.746380 g / cm^3
# Si number density = 17.503644 Si / 1000 Ang^3
#
#
#
# Elastic Constant Matrix: (Units=GPa)
#
#
# Indices 1 2 3 4 5 6 
#
# 1 53.0215 63.4149 42.7417 0.0000 -22.8680 0.0000
# 2 63.4149 185.9524 76.3177 0.0000 -26.3887 0.0000
# 3 42.7417 76.3177 78.9963 0.0000 -30.2542 0.0000
# 4 0.0000 0.0000 0.0000 35.7136 0.0000 -1.1299
# 5 -22.8680 -26.3887 -30.2542 0.0000 25.8363 0.0000
# 6 0.0000 0.0000 0.0000 -1.1299 0.0000 35.1621
#
#
#
# Elastic Compliance Matrix: (Units=1/GPa)
#
#
# Indices 1 2 3 4 5 6 
#
# 1 0.045412 -0.009524 -0.006711 0.000000 0.022609 0.000000
# 2 -0.009524 0.010954 -0.007928 0.000000 -0.006526 0.000000
# 3 -0.006711 -0.007928 0.033676 0.000000 0.025396 0.000000
# 4 0.000000 0.000000 0.000000 0.028029 0.000000 0.000901
# 5 0.022609 -0.006526 0.025396 0.000000 0.081790 0.000000
# 6 0.000000 0.000000 0.000000 0.000901 0.000000 0.028469
#
#
# Mechanical properties :
#
#
# Convention : Reuss Voigt Hill
#
# Bulk Modulus (GPa) = 23.97231 75.87986 49.92609
# Shear Modulus (GPa) = 17.20812 28.37545 22.79178
#
# Velocity S-wave (km/s) = 3.13887 4.03068 3.61240
# Velocity P-wave (km/s) = 5.18286 8.06888 6.78118
#
# Compressibility (1/GPa) = 0.04171479
#
# Stress axis : x y z
#
# Youngs Moduli (GPa) = 22.02055 91.29480 29.69500
#
# Poissons Ratio (x) = 0.86951 0.19927
# Poissons Ratio (y) = 0.20973 0.23544
# Poissons Ratio (z) = 0.14777 0.72383
#
# Static dielectric constant tensor:
#      x y z
#    x 3.146520 0.000000 -0.261780 
#    y 0.000000 3.390260 0.000000 
#    z -0.261780 0.000000 3.274530 
# 
# 
# High freq. dielectric constant tensor:
#      x y z
#    x 1.655280 0.000000 -0.014560 
#    y 0.000000 1.688310 0.000000 
#    z -0.014560 0.000000 1.662400 
# 
# From -- ./inp_files/44864.got.cif
#   From: 2010.06.25/outbox.cif.g09.slc.cpg/sg15_23_cif.got.tgz:44864.got - 2010.06.28 07:06:18.
