data_PCOD8130559
_publ_section_title
;
Structure prediction by ZEFSAII (Michael W. Deem and Ramdas Pophale) SiO2 
 PCOD8130559
Probable space group: C 2/C
;
_chemical_formula_sum "Si O2"
_cell_formula_units_Z 48
_cell_length_a 25.469346
_cell_length_b 19.790241
_cell_length_c 13.360676
_cell_angle_alpha 90.000000
_cell_angle_beta 158.623656
_cell_angle_gamma 90.000000
_cell_volume 2454.628196
_symmetry_space_group_name_H-M "C 2/C"
_symmetry_group_IT_number 15
_symmetry_cell_setting 'monoclinic'
loop_
_space_group_symop_operation_xyz
x,y,z
-x,y,1/2-z
-x,-y,-z
x,-y,1/2+z
1/2+x,1/2+y,z
1/2-x,1/2+y,1/2-z
1/2-x,1/2-y,-z
1/2+x,1/2-y,1/2+z
loop_
_atom_site_type_symbol
_atom_site_label
_atom_site_fract_x
_atom_site_fract_y
_atom_site_fract_z
Si Si1 0.345977 0.262038 0.955074
Si Si2 0.186691 0.904969 0.688446
Si Si3 0.500000 0.491242 0.750000
Si Si4 0.060944 0.250787 0.536456
Si Si5 0.314201 0.202293 0.700020
Si Si6 0.000000 0.350366 0.250000
Si Si7 0.094501 0.108655 0.246595
O O1 0.376884 0.337365 0.973045
O O2 0.235125 0.256529 0.851854
O O3 0.261414 0.222565 0.716736
O O4 0.500000 0.227672 0.250000
O O5 0.139272 0.964502 0.528894
O O6 0.110795 0.916985 0.661641
O O7 0.360047 0.899400 0.004550
O O8 0.464083 0.448807 0.785052
O O9 0.987772 0.284503 0.505678
O O10 0.999814 0.300706 0.343352
O O11 0.011832 0.173289 0.434548
O O12 0.250000 0.250000 0.500000
O O13 0.255170 0.127716 0.572254
#
# Coordination Sequence:
#
# PCOD8130559 Si02
#       7
#     8   8   4   8   8   4   8
#     4  11  21  34  55  87 125 146 185 243 303 342
#     4  11  21  39  59  85 116 161 197 239 281 349
#     4  12  25  36  60  84 119 158 198 244 286 326
#     4  10  18  33  63  88 108 149 185 243 295 342
#     4  10  17  34  60  86 108 143 190 239 287 352
#     4  10  19  36  64  86 113 148 198 238 292 348
#     4  11  20  40  61  86 115 150 204 232 287 360
#
# _framework density 19.554895999999999
#
# number of rings (size 3 to 8) (size 9 to 14) (size 15 to 20)
#    0.000    1.333    5.833    5.000    0.000    0.667 
#    0.000    0.833    7.333    0.000    0.000    0.000 
#    0.000    0.000    0.000    0.000    0.000    0.000 
#
# Total GULP energy -297317.605136 kJ/mol
# GULP energy per Si atom -12388.233547 kJ/mol
# Density = 1.951039 g / cm^3
# Si number density = 19.554896 Si / 1000 Ang^3
#
#
#
# Elastic Constant Matrix: (Units=GPa)
#
#
# Indices 1 2 3 4 5 6 
#
# 1 76.1484 28.1167 18.6747 0.0000 15.3177 0.0000
# 2 28.1167 75.5345 24.7764 0.0000 -3.9398 0.0000
# 3 18.6747 24.7764 116.8017 0.0000 21.5269 0.0000
# 4 0.0000 0.0000 0.0000 19.9432 0.0000 3.6749
# 5 15.3177 -3.9398 21.5269 0.0000 22.7747 0.0000
# 6 0.0000 0.0000 0.0000 3.6749 0.0000 19.3161
#
#
#
# Elastic Compliance Matrix: (Units=1/GPa)
#
#
# Indices 1 2 3 4 5 6 
#
# 1 0.019033 -0.008460 0.001672 0.000000 -0.015845 0.000000
# 2 -0.008460 0.018813 -0.005191 0.000000 0.013851 0.000000
# 3 0.001672 -0.005191 0.011829 0.000000 -0.013203 0.000000
# 4 0.000000 0.000000 0.000000 0.051964 0.000000 -0.009886
# 5 -0.015845 0.013851 -0.013203 0.000000 0.069440 0.000000
# 6 0.000000 0.000000 0.000000 -0.009886 0.000000 0.053651
#
#
# Mechanical properties :
#
#
# Convention : Reuss Voigt Hill
#
# Bulk Modulus (GPa) = 38.88449 45.73558 42.31003
# Shear Modulus (GPa) = 19.43554 25.53459 22.48507
#
# Velocity S-wave (km/s) = 3.15603 3.61749 3.39461
# Velocity P-wave (km/s) = 5.76270 6.39433 6.08671
#
# Compressibility (1/GPa) = 0.02571720
#
# Stress axis : x y z
#
# Youngs Moduli (GPa) = 52.53999 53.15455 84.54028
#
# Poissons Ratio (x) = 0.44967 -0.14132
# Poissons Ratio (y) = 0.44447 0.43884
# Poissons Ratio (z) = -0.08783 0.27592
#
# Static dielectric constant tensor:
#      x y z
#    x 3.931820 0.000000 0.393450 
#    y 0.000000 3.366930 0.000000 
#    z 0.393450 0.000000 3.800550 
# 
# 
# High freq. dielectric constant tensor:
#      x y z
#    x 1.776940 0.000000 0.014300 
#    y 0.000000 1.724260 0.000000 
#    z 0.014300 0.000000 1.758700 
# 
# From -- ./inp_files/178972.got.cif
#   From: 2010.06.25/outbox.cif.g09.slc.cpg/sg15_90_cif.got.tgz:178972.got - 2010.06.28 07:06:18.
