data_PCOD8130539
_publ_section_title
;
Structure prediction by ZEFSAII (Michael W. Deem and Ramdas Pophale) SiO2 
 PCOD8130539
Probable space group: C 2/C
;
_chemical_formula_sum "Si O2"
_cell_formula_units_Z 64
_cell_length_a 7.899811
_cell_length_b 19.402716
_cell_length_c 22.642909
_cell_angle_alpha 90.000000
_cell_angle_beta 114.455257
_cell_angle_gamma 90.000000
_cell_volume 3159.284637
_symmetry_space_group_name_H-M "C 2/C"
_symmetry_group_IT_number 15
_symmetry_cell_setting 'monoclinic'
loop_
_space_group_symop_operation_xyz
x,y,z
-x,y,1/2-z
-x,-y,-z
x,-y,1/2+z
1/2+x,1/2+y,z
1/2-x,1/2+y,1/2-z
1/2-x,1/2-y,-z
1/2+x,1/2-y,1/2+z
loop_
_atom_site_type_symbol
_atom_site_label
_atom_site_fract_x
_atom_site_fract_y
_atom_site_fract_z
Si Si1 0.204380 0.534757 0.250716
Si Si2 0.690071 0.741825 0.240730
Si Si3 0.117887 0.589664 0.476072
Si Si4 0.003379 0.081541 0.496588
Si Si5 0.366143 0.109430 0.785339
Si Si6 0.953915 0.130086 0.358884
Si Si7 0.665134 0.855388 0.648343
Si Si8 0.583674 0.931478 0.433856
O O1 0.265510 0.455626 0.247178
O O2 0.369394 0.562883 0.315049
O O3 0.195534 0.574250 0.188086
O O4 0.000000 0.537727 0.250000
O O5 0.500000 0.737825 0.250000
O O6 0.746874 0.818366 0.226805
O O7 0.673099 0.695038 0.179273
O O8 0.844259 0.709209 0.307365
O O9 0.337555 0.607604 0.515953
O O10 0.093949 0.513612 0.444044
O O11 0.024394 0.642893 0.416492
O O12 0.021601 0.599441 0.525003
O O13 0.212285 0.104168 0.543042
O O14 0.943754 0.113885 0.425877
O O15 0.000000 0.000000 0.500000
O O16 0.500000 0.121483 0.750000
O O17 0.478694 0.091841 0.860489
O O18 0.165132 0.146869 0.372874
#
# Coordination Sequence:
#
# PCOD8130539 Si02
#       8
#     8   8   8   8   8   8   8   8
#     4  10  19  29  52  84 113 146 190 246 297 347
#     4   8  18  34  56  82 110 156 200 243 284 354
#     4  10  19  34  57  89 121 151 189 246 297 358
#     4  10  21  32  55  87 120 147 190 245 297 350
#     4  10  20  35  58  83 118 151 202 242 297 357
#     4  10  19  34  55  83 113 148 201 241 288 354
#     4  10  17  34  57  84 114 149 201 241 290 349
#     4  10  20  36  55  90 118 155 191 238 308 353
#
# _framework density 20.257750999999999
#
# number of rings (size 3 to 8) (size 9 to 14) (size 15 to 20)
#    0.000    2.250    2.500    1.875    5.250    0.000 
#    0.000    0.625    0.000    9.750   32.500    0.000 
#    0.000    0.000    0.000    0.000    0.000    0.000 
#
# Total GULP energy -396463.137180 kJ/mol
# GULP energy per Si atom -12389.473037 kJ/mol
# Density = 2.021164 g / cm^3
# Si number density = 20.257751 Si / 1000 Ang^3
#
#
#
# Elastic Constant Matrix: (Units=GPa)
#
#
# Indices 1 2 3 4 5 6 
#
# 1 84.4918 14.2860 16.0345 0.0000 13.0864 0.0000
# 2 14.2860 119.6710 36.3205 0.0000 -0.8134 0.0000
# 3 16.0345 36.3205 73.6197 0.0000 -0.0412 0.0000
# 4 0.0000 0.0000 0.0000 156.9984 0.0000 -8.9026
# 5 13.0864 -0.8134 -0.0412 0.0000 27.6505 0.0000
# 6 0.0000 0.0000 0.0000 -8.9026 0.0000 14.3023
#
#
#
# Elastic Compliance Matrix: (Units=1/GPa)
#
#
# Indices 1 2 3 4 5 6 
#
# 1 0.013450 -0.000893 -0.002493 0.000000 -0.006396 0.000000
# 2 -0.000893 0.009889 -0.004684 0.000000 0.000706 0.000000
# 3 -0.002493 -0.004684 0.016438 0.000000 0.001066 0.000000
# 4 0.000000 0.000000 0.000000 0.006603 0.000000 0.004110
# 5 -0.006396 0.000706 0.001066 0.000000 0.039215 0.000000
# 6 0.000000 0.000000 0.000000 0.004110 0.000000 0.072477
#
#
# Mechanical properties :
#
#
# Convention : Reuss Voigt Hill
#
# Bulk Modulus (GPa) = 42.30417 45.67385 43.98901
# Shear Modulus (GPa) = 27.45900 53.86634 40.66267
#
# Velocity S-wave (km/s) = 3.68568 5.16219 4.48511
# Velocity P-wave (km/s) = 6.24825 7.62406 6.97018
#
# Compressibility (1/GPa) = 0.02363833
#
# Stress axis : x y z
#
# Youngs Moduli (GPa) = 74.34934 101.12011 60.83560
#
# Poissons Ratio (x) = 0.09026 0.15164
# Poissons Ratio (y) = 0.06636 0.28496
# Poissons Ratio (z) = 0.18533 0.47366
#
# Static dielectric constant tensor:
#      x y z
#    x 3.822010 0.000000 -0.007450 
#    y 0.000000 3.807050 0.000000 
#    z -0.007450 0.000000 3.464430 
# 
# 
# High freq. dielectric constant tensor:
#      x y z
#    x 1.783650 0.000000 -0.004040 
#    y 0.000000 1.765960 0.000000 
#    z -0.004040 0.000000 1.787350 
# 
# From -- ./inp_files/265938.got.cif
#   From: 2010.06.25/outbox.cif.g09.slc.cpg/sg15_133_cif.got.tgz:265938.got - 2010.06.28 07:06:18.
