data_PCOD8130029
_publ_section_title
;
Structure prediction by ZEFSAII (Michael W. Deem and Ramdas Pophale) SiO2 
 PCOD8130029
Probable space group: C 2/C
;
_chemical_formula_sum "Si O2"
_cell_formula_units_Z 60
_cell_length_a 9.672858
_cell_length_b 19.531320
_cell_length_c 15.460787
_cell_angle_alpha 90.000000
_cell_angle_beta 78.301851
_cell_angle_gamma 90.000000
_cell_volume 2860.239709
_symmetry_space_group_name_H-M "C 2/C"
_symmetry_group_IT_number 15
_symmetry_cell_setting 'monoclinic'
loop_
_space_group_symop_operation_xyz
x,y,z
-x,y,1/2-z
-x,-y,-z
x,-y,1/2+z
1/2+x,1/2+y,z
1/2-x,1/2+y,1/2-z
1/2-x,1/2-y,-z
1/2+x,1/2-y,1/2+z
loop_
_atom_site_type_symbol
_atom_site_label
_atom_site_fract_x
_atom_site_fract_y
_atom_site_fract_z
Si Si1 0.398078 0.828056 0.838756
Si Si2 0.790626 0.058977 0.210841
Si Si3 0.295528 0.207315 0.663242
Si Si4 0.027676 0.282490 0.991449
Si Si5 0.832385 0.588328 0.767889
Si Si6 0.915194 0.901458 0.867890
Si Si7 0.205388 0.153070 0.951932
Si Si8 0.500000 0.279615 0.750000
O O1 0.500000 0.850101 0.750000
O O2 0.272999 0.883974 0.846871
O O3 0.347140 0.749439 0.833743
O O4 0.483344 0.831607 0.917641
O O5 0.797843 0.084027 0.309523
O O6 0.951286 0.046623 0.156065
O O7 0.695990 0.991994 0.227891
O O8 0.390002 0.222200 0.568100
O O9 0.272846 0.126338 0.687862
O O10 0.365761 0.233050 0.744658
O O11 0.152039 0.314870 0.030402
O O12 0.081380 0.208545 0.951029
O O13 0.742938 0.615951 0.859402
O O14 0.000000 0.600786 0.750000
O O15 0.969525 0.824302 0.839734
O O16 0.849365 0.903240 0.971574
#
# Coordination Sequence:
#
# PCOD8130029 Si02
#       8
#     8   8   8   8   8   8   8   4
#     4  12  23  38  63  93 127 170 213 265 316 380
#     4  10  23  44  63  91 131 169 217 253 328 385
#     4  12  21  41  62  93 131 166 208 267 330 370
#     4  11  23  38  64 101 127 159 214 269 322 389
#     4  12  25  42  62  93 135 171 207 271 321 378
#     4  10  20  42  72  89 118 172 216 261 304 391
#     4  11  22  41  67  97 126 163 222 262 320 383
#     4  10  16  36  72  88 118 156 212 256 316 374
#
# _framework density 20.977263000000001
#
# number of rings (size 3 to 8) (size 9 to 14) (size 15 to 20)
#    0.000    1.067    6.000    2.400    1.867    0.533 
#    9.600    1.333    0.000    0.000    0.000    0.000 
#    0.000    0.000    0.000    0.000    0.000    0.000 
#
# Total GULP energy -371875.538253 kJ/mol
# GULP energy per Si atom -12395.851275 kJ/mol
# Density = 2.092952 g / cm^3
# Si number density = 20.977263 Si / 1000 Ang^3
#
#
#
# Elastic Constant Matrix: (Units=GPa)
#
#
# Indices 1 2 3 4 5 6 
#
# 1 45.3242 16.1548 14.1445 0.0000 8.9037 0.0000
# 2 16.1548 86.5143 17.5847 0.0000 3.9165 0.0000
# 3 14.1445 17.5847 96.7883 0.0000 -8.2280 0.0000
# 4 0.0000 0.0000 0.0000 22.6060 0.0000 -6.2574
# 5 8.9037 3.9165 -8.2280 0.0000 32.0621 0.0000
# 6 0.0000 0.0000 0.0000 -6.2574 0.0000 28.6841
#
#
#
# Elastic Compliance Matrix: (Units=1/GPa)
#
#
# Indices 1 2 3 4 5 6 
#
# 1 0.026111 -0.003753 -0.003794 0.000000 -0.007766 0.000000
# 2 -0.003753 0.012677 -0.001838 0.000000 -0.000978 0.000000
# 3 -0.003794 -0.001838 0.011582 0.000000 0.004250 0.000000
# 4 0.000000 0.000000 0.000000 0.047079 0.000000 0.010270
# 5 -0.007766 -0.000978 0.004250 0.000000 0.034556 0.000000
# 6 0.000000 0.000000 0.000000 0.010270 0.000000 0.037103
#
#
# Mechanical properties :
#
#
# Convention : Reuss Voigt Hill
#
# Bulk Modulus (GPa) = 31.64597 36.04385 33.84491
# Shear Modulus (GPa) = 25.20022 28.71994 26.96008
#
# Velocity S-wave (km/s) = 3.46975 3.70415 3.58886
# Velocity P-wave (km/s) = 5.58309 5.95936 5.77429
#
# Compressibility (1/GPa) = 0.03159960
#
# Stress axis : x y z
#
# Youngs Moduli (GPa) = 38.29867 78.88039 86.34431
#
# Poissons Ratio (x) = 0.29603 0.32760
# Poissons Ratio (y) = 0.14373 0.15870
# Poissons Ratio (z) = 0.14531 0.14498
#
# Static dielectric constant tensor:
#      x y z
#    x 3.814140 0.000000 -0.101490 
#    y 0.000000 3.732070 0.000000 
#    z -0.101490 0.000000 3.835730 
# 
# 
# High freq. dielectric constant tensor:
#      x y z
#    x 1.822520 0.000000 -0.006250 
#    y 0.000000 1.800440 0.000000 
#    z -0.006250 0.000000 1.821420 
# 
# From -- ./inp_files/192087.got.cif
#   From: 2010.06.25/outbox.cif.g09.slc.cpg/sg15_97_cif.got.tgz:192087.got - 2010.06.28 07:06:18.
