data_PCOD8130096
_publ_section_title
;
Structure prediction by ZEFSAII (Michael W. Deem and Ramdas Pophale) SiO2 
 PCOD8130096
Probable space group: C 2/C
;
_chemical_formula_sum "Si O2"
_cell_formula_units_Z 56
_cell_length_a 31.911071
_cell_length_b 20.174476
_cell_length_c 5.365306
_cell_angle_alpha 90.000000
_cell_angle_beta 120.291994
_cell_angle_gamma 90.000000
_cell_volume 2982.520253
_symmetry_space_group_name_H-M "C 2/C"
_symmetry_group_IT_number 15
_symmetry_cell_setting 'monoclinic'
loop_
_space_group_symop_operation_xyz
x,y,z
-x,y,1/2-z
-x,-y,-z
x,-y,1/2+z
1/2+x,1/2+y,z
1/2-x,1/2+y,1/2-z
1/2-x,1/2-y,-z
1/2+x,1/2-y,1/2+z
loop_
_atom_site_type_symbol
_atom_site_label
_atom_site_fract_x
_atom_site_fract_y
_atom_site_fract_z
Si Si1 0.893386 0.502182 0.930149
Si Si2 0.821142 0.377077 0.713413
Si Si3 0.556169 0.752000 0.918508
Si Si4 0.639676 0.852127 0.169039
Si Si5 0.230447 0.959520 0.441354
Si Si6 0.556348 0.328218 0.919045
Si Si7 0.880948 0.959083 0.392863
O O1 0.926416 0.500000 0.779242
O O2 0.854998 0.442456 0.814984
O O3 0.862492 0.568707 0.837465
O O4 0.831892 0.332382 0.499472
O O5 0.764459 0.395144 0.543359
O O6 0.831893 0.332381 0.991858
O O7 0.500000 0.772789 0.750000
O O8 0.569651 0.711747 0.709525
O O9 0.586563 0.819603 0.009699
O O10 0.569652 0.711743 0.208376
O O11 0.174854 0.935842 0.274558
O O12 0.242249 0.999989 0.726785
O O13 0.500000 0.347103 0.750000
O O14 0.586070 0.395113 0.008225
O O15 0.892960 0.999991 0.678920
#
# Coordination Sequence:
#
# PCOD8130096 Si02
#       7
#     8   8   8   8   8   8   8
#     4   8  14  23  39  64  91 118 154 202 247 281
#     4  10  17  28  48  74 103 134 171 215 256 299
#     4  10  21  37  56  75  98 136 182 220 256 302
#     4  10  18  29  49  73  98 132 179 219 249 296
#     4  10  18  30  49  77 110 139 168 204 253 313
#     4  10  21  38  58  78 103 136 172 212 258 311
#     4  10  21  35  56  85 111 134 161 204 263 315
#
# _framework density 18.776067999999999
#
# number of rings (size 3 to 8) (size 9 to 14) (size 15 to 20)
#    0.000    2.286    0.000    5.143    0.000    0.571 
#    0.000    0.000    0.000   12.857    0.000    0.000 
#    0.000    0.000    0.000    0.000    0.000    0.000 
#
# Total GULP energy -346868.287767 kJ/mol
# GULP energy per Si atom -12388.153135 kJ/mol
# Density = 1.873333 g / cm^3
# Si number density = 18.776068 Si / 1000 Ang^3
#
#
#
# Elastic Constant Matrix: (Units=GPa)
#
#
# Indices 1 2 3 4 5 6 
#
# 1 81.0115 31.7959 77.0247 0.0000 -20.8769 0.0000
# 2 31.7959 33.3307 30.5862 0.0000 1.3639 0.0000
# 3 77.0247 30.5862 148.2573 0.0000 -54.9125 0.0000
# 4 0.0000 0.0000 0.0000 13.0526 0.0000 -10.8195
# 5 -20.8769 1.3639 -54.9125 0.0000 49.5968 0.0000
# 6 0.0000 0.0000 0.0000 -10.8195 0.0000 3.4426
#
#
#
# Elastic Compliance Matrix: (Units=1/GPa)
#
#
# Indices 1 2 3 4 5 6 
#
# 1 0.031615 -0.018494 -0.012700 0.000000 -0.000245 0.000000
# 2 -0.018494 0.057300 -0.009628 0.000000 -0.020021 0.000000
# 3 -0.012700 -0.009628 0.022796 0.000000 0.020158 0.000000
# 4 0.000000 0.000000 0.000000 -0.047730 0.000000 -0.150007
# 5 -0.000245 -0.020021 0.020158 0.000000 0.042928 0.000000
# 6 0.000000 0.000000 0.000000 -0.150007 0.000000 -0.180968
#
#
# Mechanical properties :
#
#
# Convention : Reuss Voigt Hill
#
# Bulk Modulus (GPa) = 33.26172 60.15703 46.70937
# Shear Modulus (GPa) = 283.97176 21.43126 152.70151
#
# Velocity S-wave (km/s) = 12.31136 3.38215 9.02797
# Velocity P-wave (km/s) = 14.82721 6.88191 11.55870
#
# Compressibility (1/GPa) = 0.03006460
#
# Stress axis : x y z
#
# Youngs Moduli (GPa) = 31.63078 17.45207 43.86795
#
# Poissons Ratio (x) = 0.32277 0.55713
# Poissons Ratio (y) = 0.58499 0.42237
# Poissons Ratio (z) = 0.40172 0.16803
#
# Static dielectric constant tensor:
#      x y z
#    x 3.713350 0.000000 -0.773290 
#    y 0.000000 3.011580 0.000000 
#    z -0.773290 0.000000 4.400330 
# 
# 
# High freq. dielectric constant tensor:
#      x y z
#    x 1.723660 0.000000 -0.035290 
#    y 0.000000 1.690960 0.000000 
#    z -0.035290 0.000000 1.755010 
# 
# From -- ./inp_files/15640.got.cif
#   From: 2010.06.25/outbox.cif.g09.slc.cpg/sg15_8_cif.got.tgz:15640.got - 2010.06.28 07:06:18.
