data_PCOD8130607
_publ_section_title
;
Structure prediction by ZEFSAII (Michael W. Deem and Ramdas Pophale) SiO2 
 PCOD8130607
Probable space group: C 2/C
;
_chemical_formula_sum "Si O2"
_cell_formula_units_Z 48
_cell_length_a 8.953712
_cell_length_b 15.611477
_cell_length_c 20.955683
_cell_angle_alpha 90.000000
_cell_angle_beta 55.165105
_cell_angle_gamma 90.000000
_cell_volume 2404.291174
_symmetry_space_group_name_H-M "C 2/C"
_symmetry_group_IT_number 15
_symmetry_cell_setting 'monoclinic'
loop_
_space_group_symop_operation_xyz
x,y,z
-x,y,1/2-z
-x,-y,-z
x,-y,1/2+z
1/2+x,1/2+y,z
1/2-x,1/2+y,1/2-z
1/2-x,1/2-y,-z
1/2+x,1/2-y,1/2+z
loop_
_atom_site_type_symbol
_atom_site_label
_atom_site_fract_x
_atom_site_fract_y
_atom_site_fract_z
Si Si1 0.506959 0.757114 0.173423
Si Si2 0.526282 0.922221 0.639838
Si Si3 0.398396 0.496174 0.339548
Si Si4 0.157102 0.656915 0.419577
Si Si5 0.706647 0.410591 0.817079
Si Si6 0.549715 0.904502 0.407761
O O1 0.500000 0.773993 0.250000
O O2 0.720401 0.741848 0.103758
O O3 0.380019 0.679206 0.182428
O O4 0.434431 0.840997 0.155686
O O5 0.496652 0.840828 0.598793
O O6 0.363618 0.935498 0.729466
O O7 0.714177 0.903990 0.630904
O O8 0.543843 0.007828 0.592769
O O9 0.500000 0.473149 0.250000
O O10 0.288585 0.584037 0.358399
O O11 0.553846 0.513307 0.355115
O O12 0.251227 0.421225 0.389202
O O13 0.076689 0.636344 0.507831
#
# Coordination Sequence:
#
# PCOD8130607 Si02
#       6
#     8   8   8   8   8   8
#     4  11  22  40  59  86 119 162 199 242 304 354
#     4  10  19  36  61  88 114 150 205 240 290 353
#     4  10  17  35  58  86 116 154 196 241 289 349
#     4  10  19  40  60  84 120 163 193 238 310 362
#     4  10  19  36  59  84 116 157 197 238 291 361
#     4  11  23  35  62  92 117 149 204 256 294 346
#
# _framework density 19.964303999999998
#
# number of rings (size 3 to 8) (size 9 to 14) (size 15 to 20)
#    0.000    1.667    5.000    3.500    2.333    0.000 
#    3.000   10.000    0.000    2.000    0.000    0.000 
#    0.000    0.000    0.000    0.000    0.000    0.000 
#
# Total GULP energy -297405.427565 kJ/mol
# GULP energy per Si atom -12391.892815 kJ/mol
# Density = 1.991886 g / cm^3
# Si number density = 19.964304 Si / 1000 Ang^3
#
#
#
# Elastic Constant Matrix: (Units=GPa)
#
#
# Indices 1 2 3 4 5 6 
#
# 1 163.8225 39.5086 24.6741 0.0000 14.2572 0.0000
# 2 39.5086 53.4852 4.9165 0.0000 -2.7215 0.0000
# 3 24.6741 4.9165 53.8815 0.0001 7.2324 0.0000
# 4 0.0000 0.0000 0.0001 15.5248 0.0000 4.1156
# 5 14.2572 -2.7215 7.2324 0.0000 23.3285 0.0000
# 6 0.0000 0.0000 0.0000 4.1156 0.0000 29.0891
#
#
#
# Elastic Compliance Matrix: (Units=1/GPa)
#
#
# Indices 1 2 3 4 5 6 
#
# 1 0.008450 -0.006260 -0.002616 0.000000 -0.005084 0.000000
# 2 -0.006260 0.023676 -0.000186 0.000000 0.006646 0.000000
# 3 -0.002616 -0.000186 0.020412 0.000000 -0.004751 0.000000
# 4 0.000000 0.000000 0.000000 0.066923 0.000000 -0.009469
# 5 -0.005084 0.006646 -0.004751 0.000000 0.048221 0.000000
# 6 0.000000 0.000000 0.000000 -0.009469 0.000000 0.035717
#
#
# Mechanical properties :
#
#
# Convention : Reuss Voigt Hill
#
# Bulk Modulus (GPa) = 29.05746 45.48751 37.27248
# Shear Modulus (GPa) = 21.45963 27.06114 24.26038
#
# Velocity S-wave (km/s) = 3.28212 3.68567 3.48974
# Velocity P-wave (km/s) = 5.38047 6.39892 5.91166
#
# Compressibility (1/GPa) = 0.03441457
#
# Stress axis : x y z
#
# Youngs Moduli (GPa) = 118.33726 42.23607 48.99105
#
# Poissons Ratio (x) = 0.26441 0.12817
# Poissons Ratio (y) = 0.74084 0.00909
# Poissons Ratio (z) = 0.30958 0.00784
#
# Static dielectric constant tensor:
#      x y z
#    x 4.355900 0.000000 -0.073290 
#    y 0.000000 3.405550 0.000000 
#    z -0.073290 0.000000 3.448550 
# 
# 
# High freq. dielectric constant tensor:
#      x y z
#    x 1.794310 0.000000 0.001090 
#    y 0.000000 1.742330 0.000000 
#    z 0.001090 0.000000 1.772190 
# 
# From -- ./inp_files/189212.got.cif
#   From: 2010.06.25/outbox.cif.g09.slc.cpg/sg15_95_cif.got.tgz:189212.got - 2010.06.28 07:06:18.
