data_PCOD8130221
_publ_section_title
;
Structure prediction by ZEFSAII (Michael W. Deem and Ramdas Pophale) SiO2 
 PCOD8130221
Probable space group: C 2/C
;
_chemical_formula_sum "Si O2"
_cell_formula_units_Z 40
_cell_length_a 17.422172
_cell_length_b 9.244439
_cell_length_c 28.723186
_cell_angle_alpha 90.000000
_cell_angle_beta 158.402074
_cell_angle_gamma 90.000000
_cell_volume 1702.827068
_symmetry_space_group_name_H-M "C 2/C"
_symmetry_group_IT_number 15
_symmetry_cell_setting 'monoclinic'
loop_
_space_group_symop_operation_xyz
x,y,z
-x,y,1/2-z
-x,-y,-z
x,-y,1/2+z
1/2+x,1/2+y,z
1/2-x,1/2+y,1/2-z
1/2-x,1/2-y,-z
1/2+x,1/2-y,1/2+z
loop_
_atom_site_type_symbol
_atom_site_label
_atom_site_fract_x
_atom_site_fract_y
_atom_site_fract_z
Si Si1 0.559525 0.685692 0.663568
Si Si2 0.168994 0.408308 0.309384
Si Si3 0.052745 0.524831 0.643982
Si Si4 0.171033 0.059858 0.880112
Si Si5 0.101832 0.177127 0.025154
O O1 0.775701 0.599675 0.792266
O O2 0.598886 0.854345 0.675406
O O3 0.423869 0.661857 0.633041
O O4 0.441382 0.619303 0.551766
O O5 0.056767 0.399127 0.196258
O O6 0.230199 0.573579 0.355689
O O7 0.383166 0.316065 0.430311
O O8 0.000000 0.344802 0.250000
O O9 0.827454 0.553825 0.492642
O O10 0.302257 0.163465 0.919893
O O11 0.000000 0.982726 0.750000
#
# Coordination Sequence:
#
# PCOD8130221 Si02
#       5
#     8   8   8   8   8
#     4  10  20  36  58  83 115 148 186 234 279 335
#     4  10  17  30  54  85 116 141 181 242 290 325
#     4  10  21  36  57  86 113 148 190 228 281 338
#     4  11  21  36  58  80 111 154 194 229 274 339
#     4   9  18  30  52  84 111 144 184 227 282 339
#
# _framework density 23.490348000000001
#
# number of rings (size 3 to 8) (size 9 to 14) (size 15 to 20)
#    0.000    2.000    0.000    6.600    0.000    0.800 
#    0.000    1.000    0.000   20.400    0.000   12.600 
#    0.000    0.000    0.000    0.000    0.000    0.000 
#
# Total GULP energy -247961.591346 kJ/mol
# GULP energy per Si atom -12398.079567 kJ/mol
# Density = 2.343688 g / cm^3
# Si number density = 23.490348 Si / 1000 Ang^3
#
#
#
# Elastic Constant Matrix: (Units=GPa)
#
#
# Indices 1 2 3 4 5 6 
#
# 1 91.7550 5.4129 40.0576 0.0058 24.4852 -0.0003
# 2 5.4129 25.5847 16.5539 0.0060 13.1488 -0.0005
# 3 40.0576 16.5539 165.7234 0.0250 -4.4732 0.0010
# 4 0.0058 0.0060 0.0250 20.9100 0.0002 1.7323
# 5 24.4852 13.1488 -4.4732 0.0002 45.0229 -0.0026
# 6 -0.0003 -0.0005 0.0010 1.7323 -0.0026 18.1103
#
#
#
# Elastic Compliance Matrix: (Units=1/GPa)
#
#
# Indices 1 2 3 4 5 6 
#
# 1 0.015269 0.004877 -0.004452 0.000000 -0.010170 -0.000001
# 2 0.004877 0.052026 -0.006876 -0.000008 -0.018529 0.000000
# 3 -0.004452 -0.006876 0.007938 -0.000006 0.005218 0.000001
# 4 0.000000 -0.000008 -0.000006 0.048206 0.000001 -0.004611
# 5 -0.010170 -0.018529 0.005218 0.000001 0.033672 0.000004
# 6 -0.000001 0.000000 0.000001 -0.004611 0.000004 0.055658
#
#
# Mechanical properties :
#
#
# Convention : Reuss Voigt Hill
#
# Bulk Modulus (GPa) = 16.04351 45.23467 30.63909
# Shear Modulus (GPa) = 20.28834 31.54455 25.91645
#
# Velocity S-wave (km/s) = 2.94205 3.66850 3.32517
# Velocity P-wave (km/s) = 4.28783 6.10265 5.27389
#
# Compressibility (1/GPa) = 0.06233051
#
# Stress axis : x y z
#
# Youngs Moduli (GPa) = 65.49374 19.22130 125.97617
#
# Poissons Ratio (x) = -0.09375 0.56089
# Poissons Ratio (y) = -0.31943 0.86619
# Poissons Ratio (z) = 0.29160 0.13216
#
# Static dielectric constant tensor:
#      x y z
#    x 4.342490 0.000000 -0.086420 
#    y 0.000000 3.576700 -0.000010 
#    z -0.086420 -0.000010 4.678520 
# 
# 
# High freq. dielectric constant tensor:
#      x y z
#    x 1.935540 0.000000 -0.003390 
#    y 0.000000 1.876400 0.000000 
#    z -0.003390 0.000000 1.948460 
# 
# From -- ./inp_files/103553.got.cif
#   From: 2010.06.25/outbox.cif.g09.slc.cpg/sg15_52_cif.got.tgz:103553.got - 2010.06.28 07:06:18.
