data_PCOD8130629
_publ_section_title
;
Structure prediction by ZEFSAII (Michael W. Deem and Ramdas Pophale) SiO2 
 PCOD8130629
Probable space group: C 2/C
;
_chemical_formula_sum "Si O2"
_cell_formula_units_Z 64
_cell_length_a 23.527696
_cell_length_b 14.416643
_cell_length_c 16.984754
_cell_angle_alpha 90.000000
_cell_angle_beta 145.976431
_cell_angle_gamma 90.000000
_cell_volume 3223.511312
_symmetry_space_group_name_H-M "C 2/C"
_symmetry_group_IT_number 15
_symmetry_cell_setting 'monoclinic'
loop_
_space_group_symop_operation_xyz
x,y,z
-x,y,1/2-z
-x,-y,-z
x,-y,1/2+z
1/2+x,1/2+y,z
1/2-x,1/2+y,1/2-z
1/2-x,1/2-y,-z
1/2+x,1/2-y,1/2+z
loop_
_atom_site_type_symbol
_atom_site_label
_atom_site_fract_x
_atom_site_fract_y
_atom_site_fract_z
Si Si1 0.735648 0.997691 0.432732
Si Si2 0.298730 0.294032 0.168993
Si Si3 0.616165 0.838255 0.856548
Si Si4 0.374281 0.542633 0.462616
Si Si5 0.591572 0.342415 0.642219
Si Si6 0.766985 0.295414 0.104168
Si Si7 0.365370 0.663347 0.907718
Si Si8 0.096000 0.015927 0.755528
O O1 0.652273 0.055316 0.385620
O O2 0.773715 0.056399 0.400594
O O3 0.841418 0.975406 0.599177
O O4 0.686614 0.898604 0.353995
O O5 0.367912 0.214975 0.207669
O O6 0.294965 0.287759 0.259892
O O7 0.350812 0.390646 0.209444
O O8 0.184319 0.289992 0.002736
O O9 0.500000 0.836399 0.750000
O O10 0.380966 0.634923 0.416887
O O11 0.360002 0.448400 0.395664
O O12 0.476368 0.534693 0.633905
O O13 0.658649 0.263146 0.756900
O O14 0.478566 0.302914 0.519793
O O15 0.605937 0.440635 0.699390
O O16 0.664107 0.303400 0.037941
O O17 0.750000 0.250000 0.000000
#
# Coordination Sequence:
#
# PCOD8130629 Si02
#       8
#     8   8   8   8   8   8   8   8
#     4  10  22  39  59  89 124 166 203 247 307 374
#     4  10  20  38  62  92 118 154 203 252 315 356
#     4  10  24  41  61  87 124 163 206 248 298 376
#     4  10  19  34  63  96 120 148 196 260 322 357
#     4  11  20  37  62  91 123 158 201 255 312 370
#     4  11  24  40  59  89 126 168 207 248 304 367
#     4  10  21  38  62  91 122 152 201 258 304 366
#     4  10  17  35  62  91 123 147 194 259 318 362
#
# _framework density 19.854126999999998
#
# number of rings (size 3 to 8) (size 9 to 14) (size 15 to 20)
#    0.000    1.750    3.750    1.125    1.750    4.500 
#    2.250    0.000    0.000    2.250    0.000    0.000 
#    0.000    0.000    0.000    0.000    0.000    0.000 
#
# Total GULP energy -396614.896309 kJ/mol
# GULP energy per Si atom -12394.215510 kJ/mol
# Density = 1.980894 g / cm^3
# Si number density = 19.854127 Si / 1000 Ang^3
#
#
#
# Elastic Constant Matrix: (Units=GPa)
#
#
# Indices 1 2 3 4 5 6 
#
# 1 111.5027 34.1138 48.6806 0.0000 4.8460 0.0000
# 2 34.1138 63.1804 35.8605 0.0000 6.2004 0.0000
# 3 48.6806 35.8605 96.3789 0.0000 3.6652 0.0000
# 4 0.0000 0.0000 0.0000 30.5037 0.0000 -5.3280
# 5 4.8460 6.2004 3.6652 0.0000 30.8188 0.0000
# 6 0.0000 0.0000 0.0000 -5.3280 0.0000 29.3329
#
#
#
# Elastic Compliance Matrix: (Units=1/GPa)
#
#
# Indices 1 2 3 4 5 6 
#
# 1 0.012239 -0.003873 -0.004719 0.000000 -0.000584 0.000000
# 2 -0.003873 0.021602 -0.005967 0.000000 -0.003028 0.000000
# 3 -0.004719 -0.005967 0.014973 0.000000 0.000162 0.000000
# 4 0.000000 0.000000 0.000000 0.033857 0.000000 0.006150
# 5 -0.000584 -0.003028 0.000162 0.000000 0.033130 0.000000
# 6 0.000000 0.000000 0.000000 0.006150 0.000000 0.035208
#
#
# Mechanical properties :
#
#
# Convention : Reuss Voigt Hill
#
# Bulk Modulus (GPa) = 50.76554 56.48576 53.62565
# Shear Modulus (GPa) = 26.78228 28.29156 27.53692
#
# Velocity S-wave (km/s) = 3.67679 3.77897 3.72823
# Velocity P-wave (km/s) = 6.60680 6.89587 6.75288
#
# Compressibility (1/GPa) = 0.01969840
#
# Stress axis : x y z
#
# Youngs Moduli (GPa) = 81.70835 46.29116 66.78727
#
# Poissons Ratio (x) = 0.17927 0.31514
# Poissons Ratio (y) = 0.31643 0.39849
# Poissons Ratio (z) = 0.38554 0.27620
#
# Static dielectric constant tensor:
#      x y z
#    x 3.669410 0.000000 -0.243680 
#    y 0.000000 3.732400 0.000000 
#    z -0.243680 0.000000 3.842020 
# 
# 
# High freq. dielectric constant tensor:
#      x y z
#    x 1.778080 0.000000 -0.012340 
#    y 0.000000 1.770370 0.000000 
#    z -0.012340 0.000000 1.759170 
# 
# From -- ./inp_files/219730.got.cif
#   From: 2010.06.25/outbox.cif.g09.slc.cpg/sg15_110_cif.got.tgz:219730.got - 2010.06.28 07:06:18.
