data_PCOD8130128
_publ_section_title
;
Structure prediction by ZEFSAII (Michael W. Deem and Ramdas Pophale) SiO2 
 PCOD8130128
Probable space group: C 2/C
;
_chemical_formula_sum "Si O2"
_cell_formula_units_Z 48
_cell_length_a 26.278874
_cell_length_b 20.068293
_cell_length_c 14.050939
_cell_angle_alpha 90.000000
_cell_angle_beta 21.405927
_cell_angle_gamma 90.000000
_cell_volume 2704.477582
_symmetry_space_group_name_H-M "C 2/C"
_symmetry_group_IT_number 15
_symmetry_cell_setting 'monoclinic'
loop_
_space_group_symop_operation_xyz
x,y,z
-x,y,1/2-z
-x,-y,-z
x,-y,1/2+z
1/2+x,1/2+y,z
1/2-x,1/2+y,1/2-z
1/2-x,1/2-y,-z
1/2+x,1/2-y,1/2+z
loop_
_atom_site_type_symbol
_atom_site_label
_atom_site_fract_x
_atom_site_fract_y
_atom_site_fract_z
Si Si1 0.422475 0.008622 0.536086
Si Si2 0.277536 0.314722 0.247475
Si Si3 0.859274 0.926029 0.954788
Si Si4 0.570004 0.317204 0.806495
Si Si5 0.000000 0.599321 0.750000
Si Si6 0.500000 0.883373 0.750000
Si Si7 0.710983 0.788638 0.925297
O O1 0.477437 0.073034 0.383763
O O2 0.500000 0.000000 0.500000
O O3 0.445106 0.943792 0.433504
O O4 0.258972 0.017683 0.845060
O O5 0.131503 0.336844 0.547670
O O6 0.260284 0.242494 0.228376
O O7 0.319052 0.367539 0.095922
O O8 0.401566 0.312742 0.109885
O O9 0.883423 0.890854 0.810326
O O10 0.000000 0.960658 0.750000
O O11 0.616068 0.260804 0.651966
O O12 0.639471 0.302916 0.787091
O O13 0.129645 0.642382 0.559450
#
# Coordination Sequence:
#
# PCOD8130128 Si02
#       7
#     8   8   8   8   4   4   8
#     4  10  20  34  53  76 101 138 175 210 256 302
#     4   9  16  32  50  72 101 129 168 212 247 310
#     4   8  15  30  51  72  94 130 171 208 250 298
#     4   9  16  28  53  76  98 128 170 213 259 303
#     4  11  20  32  52  78 112 131 168 222 250 305
#     4   9  20  36  54  72 100 139 176 210 252 305
#     4  10  17  29  49  77 101 130 166 215 261 295
#
# _framework density 17.748343999999999
#
# number of rings (size 3 to 8) (size 9 to 14) (size 15 to 20)
#    0.000    2.667    1.667    2.000    0.000    1.333 
#    0.000    2.500    1.833    8.000    0.000    0.000 
#    0.000    0.000    0.000    0.000    0.000    0.000 
#
# Total GULP energy -297516.892163 kJ/mol
# GULP energy per Si atom -12396.537173 kJ/mol
# Density = 1.770795 g / cm^3
# Si number density = 17.748344 Si / 1000 Ang^3
#
#
#
# Elastic Constant Matrix: (Units=GPa)
#
#
# Indices 1 2 3 4 5 6 
#
# 1 93.5510 42.9343 57.8518 0.0007 -26.8818 -0.0005
# 2 42.9343 89.6852 54.9674 -0.0033 -15.0171 -0.0007
# 3 57.8518 54.9674 135.9119 -0.0039 -35.9694 -0.0030
# 4 0.0007 -0.0033 -0.0039 27.0052 -0.0015 -9.8487
# 5 -26.8818 -15.0171 -35.9694 -0.0015 31.1544 0.0013
# 6 -0.0005 -0.0007 -0.0030 -9.8487 0.0013 17.5712
#
#
#
# Elastic Compliance Matrix: (Units=1/GPa)
#
#
# Indices 1 2 3 4 5 6 
#
# 1 0.017476 -0.004997 -0.002973 -0.000002 0.009238 -0.000002
# 2 -0.004997 0.016256 -0.005061 0.000001 -0.002320 0.000001
# 3 -0.002973 -0.005061 0.013458 0.000003 0.010533 0.000003
# 4 -0.000002 0.000001 0.000003 0.046544 0.000004 0.026088
# 5 0.009238 -0.002320 0.010533 0.000004 0.051112 0.000000
# 6 -0.000002 0.000001 0.000003 0.026088 0.000000 0.071534
#
#
# Mechanical properties :
#
#
# Convention : Reuss Voigt Hill
#
# Bulk Modulus (GPa) = 47.33327 70.07278 58.70302
# Shear Modulus (GPa) = 20.04142 26.03914 23.04028
#
# Velocity S-wave (km/s) = 3.36400 3.83447 3.60691
# Velocity P-wave (km/s) = 6.46651 7.69228 7.10587
#
# Compressibility (1/GPa) = 0.02112679
#
# Stress axis : x y z
#
# Youngs Moduli (GPa) = 57.22266 61.51585 74.30775
#
# Poissons Ratio (x) = 0.30740 0.22090
# Poissons Ratio (y) = 0.28595 0.37609
# Poissons Ratio (z) = 0.17011 0.31135
#
# Static dielectric constant tensor:
#      x y z
#    x 3.192840 0.000000 -0.291260 
#    y 0.000000 3.248830 0.000010 
#    z -0.291260 0.000010 3.618500 
# 
# 
# High freq. dielectric constant tensor:
#      x y z
#    x 1.672440 0.000000 -0.028030 
#    y 0.000000 1.671940 0.000000 
#    z -0.028030 0.000000 1.680030 
# 
# From -- ./inp_files/146374.got.cif
#   From: 2010.06.25/outbox.cif.g09.slc.cpg/sg15_74_cif.got.tgz:146374.got - 2010.06.28 07:06:18.
