data_PCOD8130831
_publ_section_title
;
Structure prediction by ZEFSAII (Michael W. Deem and Ramdas Pophale) SiO2 
 PCOD8130831
Probable space group: C 2/C
;
_chemical_formula_sum "Si O2"
_cell_formula_units_Z 40
_cell_length_a 21.241973
_cell_length_b 21.225522
_cell_length_c 5.261385
_cell_angle_alpha 90.000000
_cell_angle_beta 75.502235
_cell_angle_gamma 90.000000
_cell_volume 2296.673644
_symmetry_space_group_name_H-M "C 2/C"
_symmetry_group_IT_number 15
_symmetry_cell_setting 'monoclinic'
loop_
_space_group_symop_operation_xyz
x,y,z
-x,y,1/2-z
-x,-y,-z
x,-y,1/2+z
1/2+x,1/2+y,z
1/2-x,1/2+y,1/2-z
1/2-x,1/2-y,-z
1/2+x,1/2-y,1/2+z
loop_
_atom_site_type_symbol
_atom_site_label
_atom_site_fract_x
_atom_site_fract_y
_atom_site_fract_z
Si Si1 0.768635 0.671878 0.260994
Si Si2 0.671571 0.773770 0.300335
Si Si3 0.223328 0.473435 0.867524
Si Si4 0.578276 0.974131 0.516042
Si Si5 0.957688 0.664845 0.540215
O O1 0.696077 0.702057 0.319397
O O2 0.796637 0.682018 0.515115
O O3 0.768547 0.598725 0.208057
O O4 0.811885 0.704972 0.002086
O O5 0.593793 0.778125 0.399853
O O6 0.257673 0.512388 0.603724
O O7 0.149431 0.496236 0.996331
O O8 0.581444 0.901028 0.438978
O O9 0.543229 0.984392 0.827915
O O10 0.000000 0.665176 0.750000
O O11 0.000000 0.675842 0.250000
#
# Coordination Sequence:
#
# PCOD8130831 Si02
#       5
#     8   8   8   8   8
#     4  10  19  34  56  74  95 130 169 219 265 297
#     4  10  20  35  53  73  96 129 177 218 255 294
#     4  10  18  29  48  71  98 125 155 201 257 300
#     4  10  19  31  45  62  93 131 167 200 233 275
#     4  12  24  35  48  69 102 139 174 203 234 290
#
# _framework density 17.416494
#
# number of rings (size 3 to 8) (size 9 to 14) (size 15 to 20)
#    0.000    1.600    0.000    8.400    0.000    2.400 
#    0.000    0.000    0.000    0.000    0.000    0.000 
#    0.000    4.800    0.000    0.000    0.000    0.000 
#
# Total GULP energy -247905.752022 kJ/mol
# GULP energy per Si atom -12395.287601 kJ/mol
# Density = 1.737685 g / cm^3
# Si number density = 17.416494 Si / 1000 Ang^3
#
#
#
# Elastic Constant Matrix: (Units=GPa)
#
#
# Indices 1 2 3 4 5 6 
#
# 1 66.7044 42.6292 29.0252 0.0000 -7.4804 0.0000
# 2 42.6292 73.8855 22.9250 0.0000 -11.7520 0.0000
# 3 29.0252 22.9250 126.2165 0.0000 11.9096 0.0000
# 4 0.0000 0.0000 0.0000 27.9762 0.0000 -1.6127
# 5 -7.4804 -11.7520 11.9096 0.0000 16.5862 0.0000
# 6 0.0000 0.0000 0.0000 -1.6127 0.0000 22.9169
#
#
#
# Elastic Compliance Matrix: (Units=1/GPa)
#
#
# Indices 1 2 3 4 5 6 
#
# 1 0.025373 -0.012492 -0.004088 0.000000 0.005527 0.000000
# 2 -0.012492 0.023633 -0.002648 0.000000 0.013012 0.000000
# 3 -0.004088 -0.002648 0.010399 0.000000 -0.011187 0.000000
# 4 0.000000 0.000000 0.000000 0.035890 0.000000 0.002526
# 5 0.005527 0.013012 -0.011187 0.000000 0.080036 0.000000
# 6 0.000000 0.000000 0.000000 0.002526 0.000000 0.043814
#
#
# Mechanical properties :
#
#
# Convention : Reuss Voigt Hill
#
# Bulk Modulus (GPa) = 47.72967 50.66279 49.19623
# Shear Modulus (GPa) = 18.89762 24.97768 21.93765
#
# Velocity S-wave (km/s) = 3.29757 3.79111 3.55292
# Velocity P-wave (km/s) = 6.47788 6.95093 6.71857
#
# Compressibility (1/GPa) = 0.02095133
#
# Stress axis : x y z
#
# Youngs Moduli (GPa) = 39.41142 42.31364 96.16015
#
# Poissons Ratio (x) = 0.52858 0.39306
# Poissons Ratio (y) = 0.49233 0.25459
# Poissons Ratio (z) = 0.16110 0.11203
#
# Static dielectric constant tensor:
#      x y z
#    x 3.174400 0.000000 0.254430 
#    y 0.000000 3.186810 0.000000 
#    z 0.254430 0.000000 4.096470 
# 
# 
# High freq. dielectric constant tensor:
#      x y z
#    x 1.633100 0.000000 0.020350 
#    y 0.000000 1.647300 0.000000 
#    z 0.020350 0.000000 1.719970 
# 
# From -- ./inp_files/7288.got.cif
#   From: 2010.06.25/outbox.cif.g09.slc.cpg/sg15_4_cif.got.tgz:7288.got - 2010.06.28 07:06:18.
