data_PCOD8130608
_publ_section_title
;
Structure prediction by ZEFSAII (Michael W. Deem and Ramdas Pophale) SiO2 
 PCOD8130608
Probable space group: C 2/C
;
_chemical_formula_sum "Si O2"
_cell_formula_units_Z 48
_cell_length_a 19.600296
_cell_length_b 9.284265
_cell_length_c 13.897538
_cell_angle_alpha 90.000000
_cell_angle_beta 115.849891
_cell_angle_gamma 90.000000
_cell_volume 2275.942664
_symmetry_space_group_name_H-M "C 2/C"
_symmetry_group_IT_number 15
_symmetry_cell_setting 'monoclinic'
loop_
_space_group_symop_operation_xyz
x,y,z
-x,y,1/2-z
-x,-y,-z
x,-y,1/2+z
1/2+x,1/2+y,z
1/2-x,1/2+y,1/2-z
1/2-x,1/2-y,-z
1/2+x,1/2-y,1/2+z
loop_
_atom_site_type_symbol
_atom_site_label
_atom_site_fract_x
_atom_site_fract_y
_atom_site_fract_z
Si Si1 0.608646 0.283520 0.517964
Si Si2 0.255386 0.580078 0.336974
Si Si3 0.136845 0.517301 0.116384
Si Si4 0.462129 0.762426 0.824802
Si Si5 0.272008 0.912034 0.996880
Si Si6 0.674318 0.343762 0.360218
O O1 0.651556 0.416922 0.600567
O O2 0.522423 0.317989 0.431987
O O3 0.656896 0.258571 0.449419
O O4 0.606387 0.144059 0.585165
O O5 0.221140 0.522339 0.216485
O O6 0.214264 0.482672 0.391326
O O7 0.235785 0.749043 0.340778
O O8 0.076269 0.605399 0.141598
O O9 0.150537 0.583663 0.018356
O O10 0.500000 0.825661 0.750000
O O11 0.400081 0.644589 0.753539
O O12 0.204416 0.996851 0.900378
O O13 0.250000 0.750000 0.000000
#
# Coordination Sequence:
#
# PCOD8130608 Si02
#       6
#     8   8   8   8   8   8
#     4  10  17  35  58  87 113 158 204 252 295 372
#     4  10  20  35  59  86 119 163 205 247 309 366
#     4  11  21  34  60  91 127 152 207 264 311 357
#     4   9  20  34  62  92 117 164 207 252 309 380
#     4  11  22  35  59  93 121 155 204 267 308 353
#     4   9  17  38  58  84 118 156 202 247 305 372
#
# _framework density 21.090161999999999
#
# number of rings (size 3 to 8) (size 9 to 14) (size 15 to 20)
#    0.000    2.000    3.333    1.500    2.333    0.000 
#    0.000    0.000    0.000   20.000    0.000    0.000 
#    0.000    0.000    0.000    0.000    0.000    0.000 
#
# Total GULP energy -297333.596840 kJ/mol
# GULP energy per Si atom -12388.899868 kJ/mol
# Density = 2.104216 g / cm^3
# Si number density = 21.090162 Si / 1000 Ang^3
#
#
#
# Elastic Constant Matrix: (Units=GPa)
#
#
# Indices 1 2 3 4 5 6 
#
# 1 73.9914 18.0751 25.2261 0.0000 2.3873 0.0000
# 2 18.0751 88.3936 27.6298 0.0000 -3.2322 0.0000
# 3 25.2261 27.6298 90.9506 0.0000 22.1714 0.0000
# 4 0.0000 0.0000 0.0000 28.9888 0.0000 1.6758
# 5 2.3873 -3.2322 22.1714 0.0000 42.9015 0.0000
# 6 0.0000 0.0000 0.0000 1.6758 0.0000 18.2142
#
#
#
# Elastic Compliance Matrix: (Units=1/GPa)
#
#
# Indices 1 2 3 4 5 6 
#
# 1 0.015274 -0.001858 -0.003925 0.000000 0.001038 0.000000
# 2 -0.001858 0.013154 -0.004288 0.000000 0.003310 0.000000
# 3 -0.003925 -0.004288 0.015345 0.000000 -0.008035 0.000000
# 4 0.000000 0.000000 0.000000 0.034681 0.000000 -0.003191
# 5 0.001038 0.003310 -0.008035 0.000000 0.027653 0.000000
# 6 0.000000 0.000000 0.000000 -0.003191 0.000000 0.055196
#
#
# Mechanical properties :
#
#
# Convention : Reuss Voigt Hill
#
# Bulk Modulus (GPa) = 42.31752 43.91085 43.11418
# Shear Modulus (GPa) = 26.41011 30.18118 28.29564
#
# Velocity S-wave (km/s) = 3.54255 3.78703 3.66683
# Velocity P-wave (km/s) = 6.06972 6.32360 6.19796
#
# Compressibility (1/GPa) = 0.02363087
#
# Stress axis : x y z
#
# Youngs Moduli (GPa) = 65.47202 76.02065 65.16859
#
# Poissons Ratio (x) = 0.14128 0.25578
# Poissons Ratio (y) = 0.12167 0.27942
# Poissons Ratio (z) = 0.25697 0.32595
#
# Static dielectric constant tensor:
#      x y z
#    x 3.919840 0.000000 0.190830 
#    y 0.000000 3.426240 0.000000 
#    z 0.190830 0.000000 4.226320 
# 
# 
# High freq. dielectric constant tensor:
#      x y z
#    x 1.815800 0.000000 0.002580 
#    y 0.000000 1.788620 0.000000 
#    z 0.002580 0.000000 1.842140 
# 
# From -- ./inp_files/166376.got.cif
#   From: 2010.06.25/outbox.cif.g09.slc.cpg/sg15_84_cif.got.tgz:166376.got - 2010.06.28 07:06:18.
