data_PCOD8130486
_publ_section_title
;
Structure prediction by ZEFSAII (Michael W. Deem and Ramdas Pophale) SiO2 
 PCOD8130486
Probable space group: C 2/C
;
_chemical_formula_sum "Si O2"
_cell_formula_units_Z 60
_cell_length_a 25.161941
_cell_length_b 18.035165
_cell_length_c 13.564506
_cell_angle_alpha 90.000000
_cell_angle_beta 29.743486
_cell_angle_gamma 90.000000
_cell_volume 3053.887581
_symmetry_space_group_name_H-M "C 2/C"
_symmetry_group_IT_number 15
_symmetry_cell_setting 'monoclinic'
loop_
_space_group_symop_operation_xyz
x,y,z
-x,y,1/2-z
-x,-y,-z
x,-y,1/2+z
1/2+x,1/2+y,z
1/2-x,1/2+y,1/2-z
1/2-x,1/2-y,-z
1/2+x,1/2-y,1/2+z
loop_
_atom_site_type_symbol
_atom_site_label
_atom_site_fract_x
_atom_site_fract_y
_atom_site_fract_z
Si Si1 0.277336 0.287803 0.852050
Si Si2 0.687718 0.248864 0.296173
Si Si3 0.226464 0.398830 0.412858
Si Si4 0.000000 0.356928 0.750000
Si Si5 0.651416 0.448731 0.776448
Si Si6 0.674082 0.351769 0.059546
Si Si7 0.017060 0.255383 0.913495
Si Si8 0.464555 0.484986 0.210407
O O1 0.188879 0.265973 0.911721
O O2 0.273890 0.377307 0.858899
O O3 0.395198 0.261309 0.633963
O O4 0.250000 0.250000 0.000000
O O5 0.708912 0.336626 0.252371
O O6 0.579189 0.220678 0.415498
O O7 0.787569 0.202579 0.088590
O O8 0.279695 0.478373 0.311636
O O9 0.227580 0.372577 0.525750
O O10 0.105419 0.407304 0.568390
O O11 0.981496 0.311970 0.679420
O O12 0.587237 0.456223 0.778146
O O13 0.562980 0.439681 0.003509
O O14 0.581264 0.316140 0.275175
O O15 0.621953 0.427188 0.104462
O O16 0.500000 0.530852 0.250000
#
# Coordination Sequence:
#
# PCOD8130486 Si02
#       8
#     8   8   8   4   8   8   8   8
#     4  12  26  43  60  82 127 178 215 243 287 379
#     4  11  21  37  65  96 123 155 203 266 316 362
#     4  10  20  34  62  92 125 150 191 257 326 362
#     4  12  18  36  66 100 122 148 198 270 316 368
#     4  10  23  41  55  89 127 158 201 251 306 372
#     4  10  17  33  61  99 121 141 190 267 328 362
#     4  11  20  36  63  95 122 152 204 256 316 359
#     4  10  20  34  62  90 121 153 196 260 326 362
#
# _framework density 19.647088
#
# number of rings (size 3 to 8) (size 9 to 14) (size 15 to 20)
#    0.000    1.333    5.333    1.600    2.800    1.600 
#    0.000    1.333    0.000    1.600    0.000    0.000 
#    0.000    0.000    0.000    0.000    0.000    0.000 
#
# Total GULP energy -371719.155932 kJ/mol
# GULP energy per Si atom -12390.638531 kJ/mol
# Density = 1.960237 g / cm^3
# Si number density = 19.647088 Si / 1000 Ang^3
#
#
#
# Elastic Constant Matrix: (Units=GPa)
#
#
# Indices 1 2 3 4 5 6 
#
# 1 173.9705 43.7369 35.6177 0.0000 -1.6498 0.0000
# 2 43.7369 97.8502 21.6282 0.0000 7.8943 0.0000
# 3 35.6177 21.6282 40.5040 0.0000 -12.5980 0.0000
# 4 0.0000 0.0000 0.0000 18.5447 0.0000 -2.9254
# 5 -1.6498 7.8943 -12.5980 0.0000 29.8113 0.0000
# 6 0.0000 0.0000 0.0000 -2.9254 0.0000 11.6338
#
#
#
# Elastic Compliance Matrix: (Units=1/GPa)
#
#
# Indices 1 2 3 4 5 6 
#
# 1 0.007441 -0.001849 -0.006074 0.000000 -0.001665 0.000000
# 2 -0.001849 0.013273 -0.007583 0.000000 -0.006822 0.000000
# 3 -0.006074 -0.007583 0.039835 0.000000 0.018506 0.000000
# 4 0.000000 0.000000 0.000000 0.056151 0.000000 0.014119
# 5 -0.001665 -0.006822 0.018506 0.000000 0.043079 0.000000
# 6 0.000000 0.000000 0.000000 0.014119 0.000000 0.089507
#
#
# Mechanical properties :
#
#
# Convention : Reuss Voigt Hill
#
# Bulk Modulus (GPa) = 33.85615 57.14337 45.49976
# Shear Modulus (GPa) = 17.23298 26.08744 21.66021
#
# Velocity S-wave (km/s) = 2.96484 3.64785 3.32394
# Velocity P-wave (km/s) = 5.38423 6.84766 6.15956
#
# Compressibility (1/GPa) = 0.02953673
#
# Stress axis : x y z
#
# Youngs Moduli (GPa) = 134.39728 75.34314 25.10367
#
# Poissons Ratio (x) = 0.13931 0.15247
# Poissons Ratio (y) = 0.24850 0.19036
# Poissons Ratio (z) = 0.81628 0.57133
#
# Static dielectric constant tensor:
#      x y z
#    x 3.995120 0.000000 -0.213280 
#    y 0.000000 3.350090 0.000000 
#    z -0.213280 0.000000 3.456000 
# 
# 
# High freq. dielectric constant tensor:
#      x y z
#    x 1.788620 0.000000 -0.010390 
#    y 0.000000 1.743510 0.000000 
#    z -0.010390 0.000000 1.737270 
# 
# From -- ./inp_files/178525.got.cif
#   From: 2010.06.25/outbox.cif.g09.slc.cpg/sg15_90_cif.got.tgz:178525.got - 2010.06.28 07:06:18.
