data_PCOD8130613
_publ_section_title
;
Structure prediction by ZEFSAII (Michael W. Deem and Ramdas Pophale) SiO2 
 PCOD8130613
Probable space group: C 2/C
;
_chemical_formula_sum "Si O2"
_cell_formula_units_Z 64
_cell_length_a 24.015886
_cell_length_b 16.208003
_cell_length_c 17.370029
_cell_angle_alpha 90.000000
_cell_angle_beta 30.155163
_cell_angle_gamma 90.000000
_cell_volume 3396.482729
_symmetry_space_group_name_H-M "C 2/C"
_symmetry_group_IT_number 15
_symmetry_cell_setting 'monoclinic'
loop_
_space_group_symop_operation_xyz
x,y,z
-x,y,1/2-z
-x,-y,-z
x,-y,1/2+z
1/2+x,1/2+y,z
1/2-x,1/2+y,1/2-z
1/2-x,1/2-y,-z
1/2+x,1/2-y,1/2+z
loop_
_atom_site_type_symbol
_atom_site_label
_atom_site_fract_x
_atom_site_fract_y
_atom_site_fract_z
Si Si1 0.337761 0.885550 0.128612
Si Si2 0.628215 0.175304 0.076050
Si Si3 0.039563 0.098376 0.119009
Si Si4 0.702649 0.469523 0.850627
Si Si5 0.269896 0.829749 0.888117
Si Si6 0.380111 0.351252 0.680037
Si Si7 0.315382 0.261206 0.105508
Si Si8 0.963618 0.712858 0.055817
O O1 0.242840 0.819101 0.261377
O O2 0.304593 0.975110 0.199285
O O3 0.353041 0.885855 0.018222
O O4 0.452337 0.863053 0.034334
O O5 0.500000 0.176606 0.250000
O O6 0.703870 0.141767 0.055957
O O7 0.664850 0.268634 0.010745
O O8 0.000000 0.071624 0.250000
O O9 0.931111 0.114108 0.197327
O O10 0.115442 0.181021 0.035554
O O11 0.106188 0.023292 0.003089
O O12 0.748036 0.407835 0.860621
O O13 0.655041 0.424872 0.832951
O O14 0.379359 0.781952 0.727857
O O15 0.274880 0.294453 0.830568
O O16 0.470355 0.298898 0.524750
O O17 0.397680 0.200594 0.054247
#
# Coordination Sequence:
#
# PCOD8130613 Si02
#       8
#     8   8   8   8   8   8   8   8
#     4  10  20  35  57  80 120 156 186 235 289 350
#     4  11  22  37  57  89 120 152 189 245 293 341
#     4  10  23  39  57  87 119 146 182 240 297 337
#     4  11  23  39  56  86 116 154 192 230 290 358
#     4  11  22  36  59  89 115 152 197 241 293 338
#     4  10  20  37  64  84 106 154 199 234 279 342
#     4   9  18  37  61  83 109 148 203 235 270 341
#     4  10  17  35  60  84 109 147 201 239 274 333
#
# _framework density 18.843022000000001
#
# number of rings (size 3 to 8) (size 9 to 14) (size 15 to 20)
#    0.000    1.750    3.750    1.125    0.000    2.500 
#    2.250    0.000    0.000    0.750    0.000    0.000 
#    0.000    0.000    0.000    0.000    0.000    0.000 
#
# Total GULP energy -396815.795233 kJ/mol
# GULP energy per Si atom -12400.493601 kJ/mol
# Density = 1.880013 g / cm^3
# Si number density = 18.843022 Si / 1000 Ang^3
#
#
#
# Elastic Constant Matrix: (Units=GPa)
#
#
# Indices 1 2 3 4 5 6 
#
# 1 107.1934 59.4114 36.6647 0.0000 -5.7142 0.0000
# 2 59.4114 90.9548 39.5779 0.0000 1.9886 0.0000
# 3 36.6647 39.5779 79.8306 0.0000 -5.4607 0.0000
# 4 0.0000 0.0000 0.0000 26.8912 0.0000 0.9758
# 5 -5.7142 1.9886 -5.4607 0.0000 24.8565 0.0000
# 6 0.0000 0.0000 0.0000 0.9758 0.0000 28.9778
#
#
#
# Elastic Compliance Matrix: (Units=1/GPa)
#
#
# Indices 1 2 3 4 5 6 
#
# 1 0.015368 -0.009131 -0.002274 0.000000 0.003764 0.000000
# 2 -0.009131 0.019624 -0.005874 0.000000 -0.004960 0.000000
# 3 -0.002274 -0.005874 0.016731 0.000000 0.003623 0.000000
# 4 0.000000 0.000000 0.000000 0.037232 0.000000 -0.001254
# 5 0.003764 -0.004960 0.003623 0.000000 0.042289 0.000000
# 6 0.000000 0.000000 0.000000 -0.001254 0.000000 0.034551
#
#
# Mechanical properties :
#
#
# Convention : Reuss Voigt Hill
#
# Bulk Modulus (GPa) = 58.26154 61.03188 59.64671
# Shear Modulus (GPa) = 24.26290 25.63342 24.94816
#
# Velocity S-wave (km/s) = 3.59225 3.69232 3.64263
# Velocity P-wave (km/s) = 6.94206 7.11601 7.02957
#
# Compressibility (1/GPa) = 0.01716398
#
# Stress axis : x y z
#
# Youngs Moduli (GPa) = 65.06866 50.95893 59.76942
#
# Poissons Ratio (x) = 0.46533 0.13590
# Poissons Ratio (y) = 0.59417 0.35110
# Poissons Ratio (z) = 0.14795 0.29934
#
# Static dielectric constant tensor:
#      x y z
#    x 3.470890 0.000000 -0.186310 
#    y 0.000000 3.322450 0.000000 
#    z -0.186310 0.000000 3.638660 
# 
# 
# High freq. dielectric constant tensor:
#      x y z
#    x 1.734240 0.000000 -0.014890 
#    y 0.000000 1.714090 0.000000 
#    z -0.014890 0.000000 1.737230 
# 
# From -- ./inp_files/219712.got.cif
#   From: 2010.06.25/outbox.cif.g09.slc.cpg/sg15_110_cif.got.tgz:219712.got - 2010.06.28 07:06:18.
