data_PCOD8130696
_publ_section_title
;
Structure prediction by ZEFSAII (Michael W. Deem and Ramdas Pophale) SiO2 
 PCOD8130696
Probable space group: C 2/C
;
_chemical_formula_sum "Si O2"
_cell_formula_units_Z 60
_cell_length_a 11.144091
_cell_length_b 16.972607
_cell_length_c 15.043168
_cell_angle_alpha 90.000000
_cell_angle_beta 64.932403
_cell_angle_gamma 90.000000
_cell_volume 2577.323473
_symmetry_space_group_name_H-M "C 2/C"
_symmetry_group_IT_number 15
_symmetry_cell_setting 'monoclinic'
loop_
_space_group_symop_operation_xyz
x,y,z
-x,y,1/2-z
-x,-y,-z
x,-y,1/2+z
1/2+x,1/2+y,z
1/2-x,1/2+y,1/2-z
1/2-x,1/2-y,-z
1/2+x,1/2-y,1/2+z
loop_
_atom_site_type_symbol
_atom_site_label
_atom_site_fract_x
_atom_site_fract_y
_atom_site_fract_z
Si Si1 0.337752 0.401560 0.157853
Si Si2 0.101254 0.071021 0.360243
Si Si3 0.500000 0.307131 0.250000
Si Si4 0.834839 0.837040 0.972040
Si Si5 0.930965 0.464486 0.183337
Si Si6 0.709044 0.894629 0.844992
Si Si7 0.260680 0.209429 0.318683
Si Si8 0.501250 0.799726 0.144606
O O1 0.401663 0.482770 0.099983
O O2 0.444071 0.359843 0.187799
O O3 0.204679 0.419050 0.251876
O O4 0.299373 0.346626 0.086542
O O5 0.155114 0.068476 0.240706
O O6 0.208010 0.127533 0.380778
O O7 0.960709 0.110647 0.407400
O O8 0.381619 0.253525 0.329665
O O9 0.720853 0.871220 0.943888
O O10 0.870705 0.744871 0.939342
O O11 0.906917 0.538641 0.126050
O O12 0.018987 0.392899 0.115146
O O13 0.000000 0.499244 0.250000
O O14 0.679288 0.814825 0.797672
O O15 0.135801 0.267653 0.351945
O O16 0.500000 0.784151 0.250000
#
# Coordination Sequence:
#
# PCOD8130696 Si02
#       8
#     8   8   4   8   8   8   8   8
#     4  11  24  37  61  95 125 157 209 267 304 362
#     4   8  19  36  58  89 122 166 199 242 313 373
#     4  12  24  40  56  92 128 158 204 262 314 358
#     4  11  19  36  63  97 123 155 212 261 303 362
#     4  10  22  40  62  86 123 170 207 244 310 381
#     4   9  19  35  63  88 113 165 206 242 299 369
#     4   9  19  33  60  82 113 163 203 241 298 369
#     4  10  17  37  61  88 119 165 204 241 307 376
#
# _framework density 23.279965000000001
#
# number of rings (size 3 to 8) (size 9 to 14) (size 15 to 20)
#    0.800    1.333    2.667    0.800    4.667    0.000 
#    0.000   10.667    0.000    0.000    0.000    0.000 
#    0.000    0.000    0.000    0.000    0.000    0.000 
#
# Total GULP energy -371652.197057 kJ/mol
# GULP energy per Si atom -12388.406569 kJ/mol
# Density = 2.322698 g / cm^3
# Si number density = 23.279965 Si / 1000 Ang^3
#
#
#
# Elastic Constant Matrix: (Units=GPa)
#
#
# Indices 1 2 3 4 5 6 
#
# 1 101.4705 42.5566 22.7983 0.0000 26.0438 0.0000
# 2 42.5566 137.6911 29.2417 0.0000 21.4927 0.0000
# 3 22.7983 29.2417 63.6710 0.0000 18.4508 0.0000
# 4 0.0000 0.0000 0.0000 25.2785 0.0000 4.9351
# 5 26.0438 21.4927 18.4508 0.0000 28.3229 0.0000
# 6 0.0000 0.0000 0.0000 4.9351 0.0000 30.0736
#
#
#
# Elastic Compliance Matrix: (Units=1/GPa)
#
#
# Indices 1 2 3 4 5 6 
#
# 1 0.013686 -0.002467 -0.000817 0.000000 -0.010180 0.000000
# 2 -0.002467 0.009000 -0.002377 0.000000 -0.003012 0.000000
# 3 -0.000817 -0.002377 0.020154 0.000000 -0.010574 0.000000
# 4 0.000000 0.000000 0.000000 0.040869 0.000000 -0.006707
# 5 -0.010180 -0.003012 -0.010574 0.000000 0.053843 0.000000
# 6 0.000000 0.000000 0.000000 -0.006707 0.000000 0.034352
#
#
# Mechanical properties :
#
#
# Convention : Reuss Voigt Hill
#
# Bulk Modulus (GPa) = 31.72860 54.66954 43.19907
# Shear Modulus (GPa) = 25.80857 30.61739 28.21298
#
# Velocity S-wave (km/s) = 3.33320 3.63048 3.48501
# Velocity P-wave (km/s) = 5.33595 6.41158 5.89833
#
# Compressibility (1/GPa) = 0.03151731
#
# Stress axis : x y z
#
# Youngs Moduli (GPa) = 73.06485 111.10743 49.61730
#
# Poissons Ratio (x) = 0.27415 0.04056
# Poissons Ratio (y) = 0.18028 0.11794
# Poissons Ratio (z) = 0.05972 0.26411
#
# Static dielectric constant tensor:
#      x y z
#    x 4.246700 0.000000 -0.077330 
#    y 0.000000 4.853530 0.000000 
#    z -0.077330 0.000000 3.597870 
# 
# 
# High freq. dielectric constant tensor:
#      x y z
#    x 1.925830 0.000000 -0.012110 
#    y 0.000000 1.945240 0.000000 
#    z -0.012110 0.000000 1.865980 
# 
# From -- ./inp_files/145684.got.cif
#   From: 2010.06.25/outbox.cif.g09.slc.cpg/sg15_73_cif.got.tgz:145684.got - 2010.06.28 07:06:18.
