data_PCOD8130854
_publ_section_title
;
Structure prediction by ZEFSAII (Michael W. Deem and Ramdas Pophale) SiO2 
 PCOD8130854
Probable space group: C 2/C
;
_chemical_formula_sum "Si O2"
_cell_formula_units_Z 52
_cell_length_a 19.727965
_cell_length_b 26.740795
_cell_length_c 5.373694
_cell_angle_alpha 90.000000
_cell_angle_beta 49.032935
_cell_angle_gamma 90.000000
_cell_volume 2140.554472
_symmetry_space_group_name_H-M "C 2/C"
_symmetry_group_IT_number 15
_symmetry_cell_setting 'monoclinic'
loop_
_space_group_symop_operation_xyz
x,y,z
-x,y,1/2-z
-x,-y,-z
x,-y,1/2+z
1/2+x,1/2+y,z
1/2-x,1/2+y,1/2-z
1/2-x,1/2-y,-z
1/2+x,1/2-y,1/2+z
loop_
_atom_site_type_symbol
_atom_site_label
_atom_site_fract_x
_atom_site_fract_y
_atom_site_fract_z
Si Si1 0.863335 0.296642 0.757811
Si Si2 0.691910 0.023338 0.169286
Si Si3 0.393192 0.517366 0.140938
Si Si4 0.340010 0.312243 0.223509
Si Si5 0.338628 0.371563 0.745659
Si Si6 0.500000 0.141352 0.250000
Si Si7 0.647629 0.882757 0.065421
O O1 0.762030 0.298624 0.103358
O O2 0.866761 0.326078 0.489691
O O3 0.929435 0.322190 0.791183
O O4 0.893694 0.239482 0.635038
O O5 0.667918 0.081341 0.279283
O O6 0.649206 0.007046 0.008061
O O7 0.798162 0.012518 0.899279
O O8 0.444628 0.496724 0.772259
O O9 0.390692 0.576647 0.117465
O O10 0.377470 0.340312 0.886925
O O11 0.350712 0.344633 0.449593
O O12 0.233464 0.385223 0.042138
O O13 0.444554 0.104341 0.567403
#
# Coordination Sequence:
#
# PCOD8130854 Si02
#       7
#     8   8   8   8   8   4   8
#     4  10  24  39  59  83 111 149 197 244 304 348
#     4  10  21  34  56  78 108 151 200 246 290 325
#     4  10  18  29  52  83 113 152 189 232 292 330
#     4  10  23  38  61  85 112 144 198 246 298 353
#     4  11  20  35  60  84 115 151 197 242 290 346
#     4  12  24  40  60  80 114 156 204 250 292 346
#     4  11  23  37  59  81 114 153 210 242 295 338
#
# _framework density 24.292770000000001
#
# number of rings (size 3 to 8) (size 9 to 14) (size 15 to 20)
#    0.000    1.538    4.615    1.385   10.769    1.846 
#    0.000    0.769    0.000    0.000    0.000    0.000 
#    0.000    0.000    0.000   13.846    1.846    0.000 
#
# Total GULP energy -322255.008048 kJ/mol
# GULP energy per Si atom -12394.423386 kJ/mol
# Density = 2.423748 g / cm^3
# Si number density = 24.292770 Si / 1000 Ang^3
#
#
#
# Elastic Constant Matrix: (Units=GPa)
#
#
# Indices 1 2 3 4 5 6 
#
# 1 74.1214 35.8361 39.8172 0.0000 28.5732 0.0000
# 2 35.8361 150.7698 62.7879 0.0000 19.4224 0.0000
# 3 39.8172 62.7879 148.7859 0.0000 35.2582 0.0000
# 4 0.0000 0.0000 0.0000 25.6483 0.0000 20.4835
# 5 28.5732 19.4224 35.2582 0.0000 41.4269 0.0000
# 6 0.0000 0.0000 0.0000 20.4835 0.0000 16.4716
#
#
#
# Elastic Compliance Matrix: (Units=1/GPa)
#
#
# Indices 1 2 3 4 5 6 
#
# 1 0.019914 -0.002642 -0.001570 0.000000 -0.011161 0.000000
# 2 -0.002642 0.008438 -0.002941 0.000000 0.000370 0.000000
# 3 -0.001570 -0.002941 0.009769 0.000000 -0.005853 0.000000
# 4 0.000000 0.000000 0.000000 5.693689 0.000000 -7.080488
# 5 -0.011161 0.000370 -0.005853 0.000000 0.036645 0.000000
# 6 0.000000 0.000000 0.000000 -7.080488 0.000000 8.865777
#
#
# Mechanical properties :
#
#
# Convention : Reuss Voigt Hill
#
# Bulk Modulus (GPa) = 41.98912 72.28441 57.13676
# Shear Modulus (GPa) = 0.34115 32.39175 16.36645
#
# Velocity S-wave (km/s) = 0.37515 3.65552 2.59842
# Velocity P-wave (km/s) = 4.18447 6.90197 5.70732
#
# Compressibility (1/GPa) = 0.02381570
#
# Stress axis : x y z
#
# Youngs Moduli (GPa) = 50.21518 118.51276 102.36048
#
# Poissons Ratio (x) = 0.31311 0.16067
# Poissons Ratio (y) = 0.13267 0.30108
# Poissons Ratio (z) = 0.07882 0.34859
#
# Static dielectric constant tensor:
#      x y z
#    x 4.399400 0.000000 0.375750 
#    y 0.000000 4.432990 0.000000 
#    z 0.375750 0.000000 4.801120 
# 
# 
# High freq. dielectric constant tensor:
#      x y z
#    x 1.956420 0.000000 0.020480 
#    y 0.000000 1.963500 0.000000 
#    z 0.020480 0.000000 1.970120 
# 
# From -- ./inp_files/13847.got.cif
#   From: 2010.06.25/outbox.cif.g09.slc.cpg/sg15_7_cif.got.tgz:13847.got - 2010.06.28 07:06:18.
