data_PCOD8130962
_publ_section_title
;
Structure prediction by ZEFSAII (Michael W. Deem and Ramdas Pophale) SiO2 
 PCOD8130962
Probable space group: C 2/C
;
_chemical_formula_sum "Si O2"
_cell_formula_units_Z 56
_cell_length_a 5.541800
_cell_length_b 23.146687
_cell_length_c 26.047161
_cell_angle_alpha 90.000000
_cell_angle_beta 122.133960
_cell_angle_gamma 90.000000
_cell_volume 2829.335321
_symmetry_space_group_name_H-M "C 2/C"
_symmetry_group_IT_number 15
_symmetry_cell_setting 'monoclinic'
loop_
_space_group_symop_operation_xyz
x,y,z
-x,y,1/2-z
-x,-y,-z
x,-y,1/2+z
1/2+x,1/2+y,z
1/2-x,1/2+y,1/2-z
1/2-x,1/2-y,-z
1/2+x,1/2-y,1/2+z
loop_
_atom_site_type_symbol
_atom_site_label
_atom_site_fract_x
_atom_site_fract_y
_atom_site_fract_z
Si Si1 0.829301 0.056494 0.781324
Si Si2 0.827319 0.806494 0.281324
Si Si3 0.686565 0.063882 0.475454
Si Si4 0.228321 0.125000 0.541328
Si Si5 0.685136 0.965755 0.089403
Si Si6 0.488123 0.284245 0.410597
Si Si7 0.559297 0.813882 0.524546
O O1 0.500000 0.034212 0.750000
O O2 0.831219 0.125000 0.782488
O O3 0.000000 0.034524 0.750000
O O4 0.008797 0.030814 0.848999
O O5 0.500000 0.784524 0.250000
O O6 0.000000 0.784212 0.250000
O O7 0.986199 0.780814 0.348999
O O8 0.730850 0.031707 0.534296
O O9 0.525966 0.125000 0.460386
O O10 0.010941 0.076252 0.495242
O O11 0.513456 0.021149 0.417747
O O12 0.532931 0.095210 0.586216
O O13 0.215271 0.173748 0.495242
O O14 0.148149 0.154790 0.586216
O O15 0.325278 0.228851 0.417747
O O16 0.809369 0.281707 0.465704
#
# Coordination Sequence:
#
# PCOD8130962 Si02
#       7
#     8   8   8   8   8   8   8
#     4  10  22  36  54  81 116 150 189 234 288 346
#     4  10  22  36  54  81 116 150 189 234 288 346
#     4   9  19  34  52  81 112 147 187 233 293 349
#     4  10  18  30  54  84 114 149 186 234 296 360
#     4  10  20  33  54  79 114 148 186 238 290 351
#     4  10  20  33  54  79 114 148 186 238 290 351
#     4   9  19  34  52  81 112 147 187 233 293 349
#
# _framework density 19.792634
#
# number of rings (size 3 to 8) (size 9 to 14) (size 15 to 20)
#    0.000    2.286    0.000    3.429   10.000    0.000 
#    0.000    0.000    0.000    0.857    0.000    2.000 
#    0.000    0.000    0.000    0.000    0.000    0.000 
#
# Total GULP energy -346931.415266 kJ/mol
# GULP energy per Si atom -12390.407688 kJ/mol
# Density = 1.974759 g / cm^3
# Si number density = 19.792634 Si / 1000 Ang^3
#
#
#
# Elastic Constant Matrix: (Units=GPa)
#
#
# Indices 1 2 3 4 5 6 
#
# 1 121.5574 22.3734 54.6153 0.0000 -0.3288 0.0000
# 2 22.3734 56.7797 39.2633 0.0000 1.1396 0.0000
# 3 54.6153 39.2633 109.1692 0.0000 -0.5070 0.0000
# 4 0.0000 0.0000 0.0000 19.1329 0.0000 -0.3030
# 5 -0.3288 1.1396 -0.5070 0.0000 31.0223 0.0000
# 6 0.0000 0.0000 0.0000 -0.3030 0.0000 23.6237
#
#
#
# Elastic Compliance Matrix: (Units=1/GPa)
#
#
# Indices 1 2 3 4 5 6 
#
# 1 0.010632 -0.000682 -0.005073 0.000000 0.000055 0.000000
# 2 -0.000682 0.023517 -0.008121 0.000000 -0.001004 0.000000
# 3 -0.005073 -0.008121 0.014621 0.000000 0.000484 0.000000
# 4 0.000000 0.000000 0.000000 0.052277 0.000000 0.000671
# 5 0.000055 -0.001004 0.000484 0.000000 0.032280 0.000000
# 6 0.000000 0.000000 0.000000 0.000671 0.000000 0.042339
#
#
# Mechanical properties :
#
#
# Convention : Reuss Voigt Hill
#
# Bulk Modulus (GPa) = 47.58229 57.77892 52.68060
# Shear Modulus (GPa) = 23.76151 26.17274 24.96712
#
# Velocity S-wave (km/s) = 3.46861 3.64035 3.55552
# Velocity P-wave (km/s) = 6.33516 6.85019 6.59770
#
# Compressibility (1/GPa) = 0.02101622
#
# Stress axis : x y z
#
# Youngs Moduli (GPa) = 94.05881 42.52273 68.39375
#
# Poissons Ratio (x) = 0.02901 0.34697
# Poissons Ratio (y) = 0.06417 0.55545
# Poissons Ratio (z) = 0.47718 0.34534
#
# Static dielectric constant tensor:
#      x y z
#    x 3.928590 0.000000 -0.034690 
#    y 0.000000 3.645610 0.000000 
#    z -0.034690 0.000000 3.414520 
# 
# 
# High freq. dielectric constant tensor:
#      x y z
#    x 1.783930 0.000000 -0.002990 
#    y 0.000000 1.747220 0.000000 
#    z -0.002990 0.000000 1.739650 
# 
# From -- ./inp_files/261750.got.cif
#   From: 2010.06.25/outbox.cif.g09.slc.cpg/sg15_131_cif.got.tgz:261750.got - 2010.06.28 07:06:18.
