data_PCOD8130650
_publ_section_title
;
Structure prediction by ZEFSAII (Michael W. Deem and Ramdas Pophale) SiO2 
 PCOD8130650
Probable space group: C 2/C
;
_chemical_formula_sum "Si O2"
_cell_formula_units_Z 64
_cell_length_a 9.490025
_cell_length_b 19.857485
_cell_length_c 22.894733
_cell_angle_alpha 90.000000
_cell_angle_beta 50.601191
_cell_angle_gamma 90.000000
_cell_volume 3333.990667
_symmetry_space_group_name_H-M "C 2/C"
_symmetry_group_IT_number 15
_symmetry_cell_setting 'monoclinic'
loop_
_space_group_symop_operation_xyz
x,y,z
-x,y,1/2-z
-x,-y,-z
x,-y,1/2+z
1/2+x,1/2+y,z
1/2-x,1/2+y,1/2-z
1/2-x,1/2-y,-z
1/2+x,1/2-y,1/2+z
loop_
_atom_site_type_symbol
_atom_site_label
_atom_site_fract_x
_atom_site_fract_y
_atom_site_fract_z
Si Si1 0.061521 0.946122 0.671617
Si Si2 0.006730 0.102906 0.682397
Si Si3 0.477242 0.587357 0.067484
Si Si4 0.700951 0.146612 0.675411
Si Si5 0.023856 0.460583 0.934627
Si Si6 0.005047 0.209379 0.976594
Si Si7 0.219005 0.479556 0.089120
Si Si8 0.302683 0.839005 0.028333
O O1 0.273714 0.936074 0.622148
O O2 0.000000 0.915942 0.750000
O O3 0.990978 0.904326 0.634037
O O4 0.995588 0.022530 0.679449
O O5 0.205615 0.127284 0.609313
O O6 0.000000 0.127673 0.750000
O O7 0.836713 0.136573 0.693951
O O8 0.292944 0.547428 0.100132
O O9 0.480110 0.661786 0.039308
O O10 0.644585 0.544013 0.998026
O O11 0.500000 0.170921 0.750000
O O12 0.682516 0.075698 0.647599
O O13 0.793470 0.200331 0.605771
O O14 0.973473 0.506048 0.891730
O O15 0.893599 0.396202 0.965494
O O16 0.000000 0.500000 0.000000
O O17 0.857089 0.193203 0.966893
O O18 0.959945 0.286069 0.007613
#
# Coordination Sequence:
#
# PCOD8130650 Si02
#       8
#     8   8   8   8   8   8   8   8
#     4  11  23  36  55  85 123 154 186 243 310 351
#     4  10  20  35  57  86 118 149 188 243 302 350
#     4  10  17  36  56  83 116 150 188 237 290 344
#     4  10  21  34  57  91 120 149 194 247 295 346
#     4  12  21  34  58  89 115 148 190 243 295 348
#     4   9  20  37  64  85 112 158 203 238 280 348
#     4  10  19  30  57  86 114 146 189 238 294 346
#     4  10  19  38  62  87 111 154 205 239 281 352
#
# _framework density 19.196214999999999
#
# number of rings (size 3 to 8) (size 9 to 14) (size 15 to 20)
#    0.000    1.750    5.000    0.000    3.500    0.000 
#    0.000    1.250    8.250    0.000    0.000    0.000 
#    0.000    0.000    0.000    0.000    0.000    0.000 
#
# Total GULP energy -396664.443886 kJ/mol
# GULP energy per Si atom -12395.763871 kJ/mol
# Density = 1.915252 g / cm^3
# Si number density = 19.196215 Si / 1000 Ang^3
#
#
#
# Elastic Constant Matrix: (Units=GPa)
#
#
# Indices 1 2 3 4 5 6 
#
# 1 98.6318 20.6346 45.6525 -0.0004 12.2824 0.0006
# 2 20.6346 50.0583 22.4457 -0.0003 3.6235 0.0009
# 3 45.6525 22.4457 118.1053 0.0006 6.2761 0.0005
# 4 -0.0004 -0.0003 0.0006 15.2141 -0.0001 -4.7098
# 5 12.2824 3.6235 6.2761 -0.0001 40.2484 -0.0004
# 6 0.0006 0.0009 0.0005 -4.7098 -0.0004 22.7733
#
#
#
# Elastic Compliance Matrix: (Units=1/GPa)
#
#
# Indices 1 2 3 4 5 6 
#
# 1 0.013206 -0.003286 -0.004317 0.000000 -0.003061 0.000000
# 2 -0.003286 0.022726 -0.003018 0.000000 -0.000573 -0.000001
# 3 -0.004317 -0.003018 0.010714 -0.000001 -0.000081 0.000000
# 4 0.000000 0.000000 -0.000001 0.070224 0.000000 0.014523
# 5 -0.003061 -0.000573 -0.000081 0.000000 0.025844 0.000001
# 6 0.000000 -0.000001 0.000000 0.014523 0.000001 0.046915
#
#
# Mechanical properties :
#
#
# Convention : Reuss Voigt Hill
#
# Bulk Modulus (GPa) = 39.36718 49.36234 44.36476
# Shear Modulus (GPa) = 22.79568 27.51801 25.15685
#
# Velocity S-wave (km/s) = 3.44976 3.79028 3.62403
# Velocity P-wave (km/s) = 6.03491 6.70264 6.37752
#
# Compressibility (1/GPa) = 0.02540187
#
# Stress axis : x y z
#
# Youngs Moduli (GPa) = 75.72497 44.00217 93.33727
#
# Poissons Ratio (x) = 0.14460 0.40297
# Poissons Ratio (y) = 0.24884 0.28173
# Poissons Ratio (z) = 0.32693 0.13282
#
# Static dielectric constant tensor:
#      x y z
#    x 3.569050 0.000000 -0.018430 
#    y 0.000000 3.484930 0.000000 
#    z -0.018430 0.000000 3.520370 
# 
# 
# High freq. dielectric constant tensor:
#      x y z
#    x 1.752170 0.000000 0.001720 
#    y 0.000000 1.718820 0.000000 
#    z 0.001720 0.000000 1.741730 
# 
# From -- ./inp_files/266108.got.cif
#   From: 2010.06.25/outbox.cif.g09.slc.cpg/sg15_134_cif.got.tgz:266108.got - 2010.06.28 07:06:18.
