data_PCOD8130911
_publ_section_title
;
Structure prediction by ZEFSAII (Michael W. Deem and Ramdas Pophale) SiO2 
 PCOD8130911
Probable space group: C 2/C
;
_chemical_formula_sum "Si O2"
_cell_formula_units_Z 48
_cell_length_a 32.240143
_cell_length_b 14.133433
_cell_length_c 8.648042
_cell_angle_alpha 90.000000
_cell_angle_beta 142.604544
_cell_angle_gamma 90.000000
_cell_volume 2393.177292
_symmetry_space_group_name_H-M "C 2/C"
_symmetry_group_IT_number 15
_symmetry_cell_setting 'monoclinic'
loop_
_space_group_symop_operation_xyz
x,y,z
-x,y,1/2-z
-x,-y,-z
x,-y,1/2+z
1/2+x,1/2+y,z
1/2-x,1/2+y,1/2-z
1/2-x,1/2-y,-z
1/2+x,1/2-y,1/2+z
loop_
_atom_site_type_symbol
_atom_site_label
_atom_site_fract_x
_atom_site_fract_y
_atom_site_fract_z
Si Si1 0.178743 0.271927 0.420177
Si Si2 0.582340 0.089985 0.146357
Si Si3 0.811761 0.874810 0.787867
Si Si4 0.933268 0.611558 0.759010
Si Si5 0.288311 0.460427 0.015658
Si Si6 0.771026 0.380998 0.364077
O O1 0.155077 0.218528 0.191582
O O2 0.228350 0.360445 0.527455
O O3 0.110487 0.301024 0.306000
O O4 0.223865 0.201605 0.659159
O O5 0.648494 0.143516 0.412365
O O6 0.583349 0.979322 0.188241
O O7 0.513773 0.138152 0.011369
O O8 0.585809 0.093594 0.973050
O O9 0.832644 0.892684 0.029871
O O10 0.833822 0.967103 0.752216
O O11 0.240216 0.519954 0.757566
O O12 0.245187 0.393597 0.001364
#
# Coordination Sequence:
#
# PCOD8130911 Si02
#       6
#     8   8   8   8   8   8
#     4  10  20  31  46  73 106 132 165 217 257 286
#     4  10  20  34  52  71 102 145 172 194 244 312
#     4   9  18  30  46  67 100 133 163 208 256 296
#     4  10  21  35  50  73 105 138 172 206 244 300
#     4   9  17  30  48  71 101 134 167 201 250 307
#     4  10  18  30  50  74 104 135 169 210 251 300
#
# _framework density 20.057016999999998
#
# number of rings (size 3 to 8) (size 9 to 14) (size 15 to 20)
#    0.000    2.333    0.000    4.000    0.000    5.333 
#    0.000    0.000    0.000    0.000    0.000    0.000 
#    0.000  214.667    0.000    0.000    0.000    0.000 
#
# Total GULP energy -297372.312328 kJ/mol
# GULP energy per Si atom -12390.513014 kJ/mol
# Density = 2.001137 g / cm^3
# Si number density = 20.057017 Si / 1000 Ang^3
#
#
#
# Elastic Constant Matrix: (Units=GPa)
#
#
# Indices 1 2 3 4 5 6 
#
# 1 149.5133 58.0854 51.3008 0.0000 -6.3661 0.0000
# 2 58.0854 74.4892 31.3051 0.0000 2.9050 0.0000
# 3 51.3008 31.3051 72.0897 0.0000 9.0986 0.0000
# 4 0.0000 0.0000 0.0000 16.6698 0.0000 11.4439
# 5 -6.3661 2.9050 9.0986 0.0000 29.4290 0.0000
# 6 0.0000 0.0000 0.0000 11.4439 0.0000 14.0037
#
#
#
# Elastic Compliance Matrix: (Units=1/GPa)
#
#
# Indices 1 2 3 4 5 6 
#
# 1 0.011539 -0.006700 -0.005932 0.000000 0.004992 0.000000
# 2 -0.006700 0.020322 -0.003768 0.000000 -0.002290 0.000000
# 3 -0.005932 -0.003768 0.020650 0.000000 -0.007296 0.000000
# 4 0.000000 0.000000 0.000000 0.136653 0.000000 -0.111673
# 5 0.004992 -0.002290 -0.007296 0.000000 0.037542 0.000000
# 6 0.000000 0.000000 0.000000 -0.111673 0.000000 0.162669
#
#
# Mechanical properties :
#
#
# Convention : Reuss Voigt Hill
#
# Bulk Modulus (GPa) = 50.73216 64.16387 57.44802
# Shear Modulus (GPa) = 11.66192 22.38058 17.02125
#
# Velocity S-wave (km/s) = 2.41392 3.34405 2.91631
# Velocity P-wave (km/s) = 5.75484 6.85350 6.32806
#
# Compressibility (1/GPa) = 0.01971136
#
# Stress axis : x y z
#
# Youngs Moduli (GPa) = 86.66176 49.20796 48.42549
#
# Poissons Ratio (x) = 0.32967 0.28727
# Poissons Ratio (y) = 0.58060 0.18248
# Poissons Ratio (z) = 0.51410 0.18542
#
# Static dielectric constant tensor:
#      x y z
#    x 3.996470 0.000000 -0.269180 
#    y 0.000000 3.587170 0.000000 
#    z -0.269180 0.000000 3.372850 
# 
# 
# High freq. dielectric constant tensor:
#      x y z
#    x 1.796960 0.000000 -0.036860 
#    y 0.000000 1.771120 0.000000 
#    z -0.036860 0.000000 1.738180 
# 
# From -- ./inp_files/70013.got.cif
#   From: 2010.06.25/outbox.cif.g09.slc.cpg/sg15_36_cif.got.tgz:70013.got - 2010.06.28 07:06:18.
