data_PCOD8130691
_publ_section_title
;
Structure prediction by ZEFSAII (Michael W. Deem and Ramdas Pophale) SiO2 
 PCOD8130691
Probable space group: C 2/C
;
_chemical_formula_sum "Si O2"
_cell_formula_units_Z 56
_cell_length_a 22.181540
_cell_length_b 16.995167
_cell_length_c 19.261360
_cell_angle_alpha 90.000000
_cell_angle_beta 24.739067
_cell_angle_gamma 90.000000
_cell_volume 3038.683522
_symmetry_space_group_name_H-M "C 2/C"
_symmetry_group_IT_number 15
_symmetry_cell_setting 'monoclinic'
loop_
_space_group_symop_operation_xyz
x,y,z
-x,y,1/2-z
-x,-y,-z
x,-y,1/2+z
1/2+x,1/2+y,z
1/2-x,1/2+y,1/2-z
1/2-x,1/2-y,-z
1/2+x,1/2-y,1/2+z
loop_
_atom_site_type_symbol
_atom_site_label
_atom_site_fract_x
_atom_site_fract_y
_atom_site_fract_z
Si Si1 0.923237 0.496417 0.006808
Si Si2 0.010252 0.817757 0.009148
Si Si3 0.808961 0.571750 0.809280
Si Si4 0.836294 0.908115 0.770921
Si Si5 0.447039 0.475573 0.478679
Si Si6 0.671969 0.667322 0.078225
Si Si7 0.823135 0.662604 0.657874
O O1 0.044711 0.523637 0.823227
O O2 0.794233 0.559175 0.138792
O O3 0.861856 0.407648 0.062817
O O4 0.000000 0.500000 0.000000
O O5 0.075550 0.844414 0.866642
O O6 0.072511 0.734834 0.968322
O O7 0.049770 0.881048 0.028341
O O8 0.839703 0.809430 0.181375
O O9 0.847594 0.638518 0.712473
O O10 0.709957 0.507519 0.874302
O O11 0.734074 0.611604 0.953166
O O12 0.779921 0.869744 0.899645
O O13 0.937918 0.980497 0.690922
O O14 0.500000 0.500000 0.500000
O O15 0.500000 0.677172 0.250000
O O16 0.750000 0.750000 0.000000
#
# Coordination Sequence:
#
# PCOD8130691 Si02
#       7
#     8   8   8   8   8   8   8
#     4  10  22  37  58  83 112 151 197 244 292 348
#     4  11  21  32  55  83 115 146 185 237 300 340
#     4  11  22  38  57  81 118 154 201 232 281 349
#     4  11  21  39  59  77 118 162 194 233 283 343
#     4  10  17  37  57  75 108 154 191 241 286 342
#     4  12  26  41  59  87 122 163 202 234 278 344
#     4  11  21  34  52  86 115 145 183 240 295 345
#
# _framework density 18.429031999999999
#
# number of rings (size 3 to 8) (size 9 to 14) (size 15 to 20)
#    0.000    1.143    5.714    3.429    8.000    0.000 
#    0.000    0.000    0.000    0.000    0.000    6.000 
#    0.000    0.000    0.000    0.000    0.000    0.000 
#
# Total GULP energy -347033.681608 kJ/mol
# GULP energy per Si atom -12394.060057 kJ/mol
# Density = 1.838709 g / cm^3
# Si number density = 18.429032 Si / 1000 Ang^3
#
#
#
# Elastic Constant Matrix: (Units=GPa)
#
#
# Indices 1 2 3 4 5 6 
#
# 1 43.8621 38.9443 27.8539 0.0061 -5.4555 -0.0105
# 2 38.9443 131.9502 67.9195 0.0040 -4.9760 -0.0098
# 3 27.8539 67.9195 133.5207 0.0062 -17.6781 -0.0147
# 4 0.0061 0.0040 0.0062 44.4204 -0.0020 -7.9953
# 5 -5.4555 -4.9760 -17.6781 -0.0020 33.2084 0.0039
# 6 -0.0105 -0.0098 -0.0147 -7.9953 0.0039 23.7274
#
#
#
# Elastic Compliance Matrix: (Units=1/GPa)
#
#
# Indices 1 2 3 4 5 6 
#
# 1 0.031750 -0.008195 -0.002073 -0.000002 0.002885 0.000008
# 2 -0.008195 0.012438 -0.004894 0.000000 -0.002088 -0.000001
# 3 -0.002073 -0.004894 0.011048 0.000000 0.004807 0.000003
# 4 -0.000002 0.000000 0.000000 0.023966 0.000000 0.008076
# 5 0.002885 -0.002088 0.004807 0.000000 0.032833 -0.000002
# 6 0.000008 -0.000001 0.000003 0.008076 -0.000002 0.044866
#
#
# Mechanical properties :
#
#
# Convention : Reuss Voigt Hill
#
# Bulk Modulus (GPa) = 40.14082 64.30760 52.22421
# Shear Modulus (GPa) = 25.57186 31.91228 28.74207
#
# Velocity S-wave (km/s) = 3.72907 4.16580 3.95347
# Velocity P-wave (km/s) = 6.35373 7.62293 7.01708
#
# Compressibility (1/GPa) = 0.02491230
#
# Stress axis : x y z
#
# Youngs Moduli (GPa) = 31.49596 80.40194 90.51720
#
# Poissons Ratio (x) = 0.65890 0.18763
# Poissons Ratio (y) = 0.25811 0.44295
# Poissons Ratio (z) = 0.06529 0.39345
#
# Static dielectric constant tensor:
#      x y z
#    x 3.198860 0.000000 -0.105080 
#    y 0.000000 3.850040 -0.000010 
#    z -0.105080 -0.000010 3.892020 
# 
# 
# High freq. dielectric constant tensor:
#      x y z
#    x 1.670980 0.000000 -0.026890 
#    y 0.000000 1.719770 0.000000 
#    z -0.026890 0.000000 1.733230 
# 
# From -- ./inp_files/255903.got.cif
#   From: 2010.06.25/outbox.cif.g09.slc.cpg/sg15_128_cif.got.tgz:255903.got - 2010.06.28 07:06:18.
