data_PCOD8130216
_publ_section_title
;
Structure prediction by ZEFSAII (Michael W. Deem and Ramdas Pophale) SiO2 
 PCOD8130216
Probable space group: C 2/C
;
_chemical_formula_sum "Si O2"
_cell_formula_units_Z 56
_cell_length_a 22.040115
_cell_length_b 9.309860
_cell_length_c 17.465416
_cell_angle_alpha 90.000000
_cell_angle_beta 49.948326
_cell_angle_gamma 90.000000
_cell_volume 2743.221942
_symmetry_space_group_name_H-M "C 2/C"
_symmetry_group_IT_number 15
_symmetry_cell_setting 'monoclinic'
loop_
_space_group_symop_operation_xyz
x,y,z
-x,y,1/2-z
-x,-y,-z
x,-y,1/2+z
1/2+x,1/2+y,z
1/2-x,1/2+y,1/2-z
1/2-x,1/2-y,-z
1/2+x,1/2-y,1/2+z
loop_
_atom_site_type_symbol
_atom_site_label
_atom_site_fract_x
_atom_site_fract_y
_atom_site_fract_z
Si Si1 0.950394 0.135742 0.217379
Si Si2 0.718727 0.464106 0.683173
Si Si3 0.930181 0.790446 0.997685
Si Si4 0.631695 0.008852 0.534724
Si Si5 0.884141 0.452788 0.276446
Si Si6 0.494524 0.887387 0.572138
Si Si7 0.234296 0.149900 0.814347
O O1 0.870864 0.041539 0.275208
O O2 0.929192 0.302458 0.241784
O O3 0.000000 0.081946 0.250000
O O4 0.004875 0.112102 0.098082
O O5 0.776672 0.491415 0.564336
O O6 0.743112 0.317872 0.706778
O O7 0.729568 0.596531 0.731388
O O8 0.964441 0.756753 0.055026
O O9 0.848928 0.877229 0.075252
O O10 0.912440 0.652738 0.958366
O O11 0.626961 0.991007 0.629052
O O12 0.582579 0.874911 0.537625
O O13 0.933117 0.567894 0.187986
O O14 0.798286 0.440105 0.308862
O O15 0.500000 0.000000 0.500000
#
# Coordination Sequence:
#
# PCOD8130216 Si02
#       7
#     8   8   8   8   8   8   8
#     4  11  20  33  56  86 117 147 187 242 299 340
#     4  10  24  37  61  84 120 154 193 241 288 348
#     4  10  20  32  56  82 119 148 191 239 289 350
#     4  10  19  32  54  88 113 147 195 249 287 327
#     4  11  18  31  57  85 119 143 194 250 289 326
#     4  10  17  30  54  82 115 149 185 236 286 339
#     4  10  22  38  57  87 117 155 193 237 289 344
#
# _framework density 20.413952999999999
#
# number of rings (size 3 to 8) (size 9 to 14) (size 15 to 20)
#    0.000    1.714    4.286    3.000    4.000    2.286 
#    0.000    0.000    0.000    6.857    0.000    0.000 
#    0.000    0.000    0.000    0.000    0.000    0.000 
#
# Total GULP energy -347146.450401 kJ/mol
# GULP energy per Si atom -12398.087514 kJ/mol
# Density = 2.036749 g / cm^3
# Si number density = 20.413953 Si / 1000 Ang^3
#
#
#
# Elastic Constant Matrix: (Units=GPa)
#
#
# Indices 1 2 3 4 5 6 
#
# 1 139.8876 26.3211 78.2894 -0.0001 -9.6977 0.0003
# 2 26.3211 22.7089 25.5649 0.0001 1.8289 -0.0002
# 3 78.2894 25.5649 173.6172 0.0001 -3.0764 -0.0001
# 4 -0.0001 0.0001 0.0001 10.4639 0.0000 3.8429
# 5 -9.6977 1.8289 -3.0764 0.0000 48.4998 0.0000
# 6 0.0003 -0.0002 -0.0001 3.8429 0.0000 6.5197
#
#
#
# Elastic Compliance Matrix: (Units=1/GPa)
#
#
# Indices 1 2 3 4 5 6 
#
# 1 0.010999 -0.008866 -0.003613 0.000001 0.002304 -0.000001
# 2 -0.008866 0.060234 -0.004949 -0.000002 -0.004358 0.000003
# 3 -0.003613 -0.004949 0.008117 0.000000 -0.000021 0.000000
# 4 0.000001 -0.000002 0.000000 0.121969 0.000000 -0.071892
# 5 0.002304 -0.004358 -0.000021 0.000000 0.021242 0.000000
# 6 -0.000001 0.000003 0.000000 -0.071892 0.000000 0.195757
#
#
# Mechanical properties :
#
#
# Convention : Reuss Voigt Hill
#
# Bulk Modulus (GPa) = 22.47488 66.28494 44.37991
# Shear Modulus (GPa) = 10.68361 26.83255 18.75808
#
# Velocity S-wave (km/s) = 2.29016 3.62943 3.03460
# Velocity P-wave (km/s) = 4.24577 7.07846 5.83657
#
# Compressibility (1/GPa) = 0.04449412
#
# Stress axis : x y z
#
# Youngs Moduli (GPa) = 90.91854 16.60191 123.19115
#
# Poissons Ratio (x) = 0.14720 0.44513
# Poissons Ratio (y) = 0.80610 0.60962
# Poissons Ratio (z) = 0.32852 0.08216
#
# Static dielectric constant tensor:
#      x y z
#    x 4.160740 0.000000 -0.160530 
#    y 0.000000 3.234820 0.000000 
#    z -0.160530 0.000000 3.876900 
# 
# 
# High freq. dielectric constant tensor:
#      x y z
#    x 1.811310 0.000000 -0.010140 
#    y 0.000000 1.732820 0.000000 
#    z -0.010140 0.000000 1.815580 
# 
# From -- ./inp_files/214793.got.cif
#   From: 2010.06.25/outbox.cif.g09.slc.cpg/sg15_108_cif.got.tgz:214793.got - 2010.06.28 07:06:18.
