data_PCOD8130732
_publ_section_title
;
Structure prediction by ZEFSAII (Michael W. Deem and Ramdas Pophale) SiO2 
 PCOD8130732
Probable space group: C 2/C
;
_chemical_formula_sum "Si O2"
_cell_formula_units_Z 40
_cell_length_a 19.858270
_cell_length_b 22.441125
_cell_length_c 5.221281
_cell_angle_alpha 90.000000
_cell_angle_beta 98.862896
_cell_angle_gamma 90.000000
_cell_volume 2299.039079
_symmetry_space_group_name_H-M "C 2/C"
_symmetry_group_IT_number 15
_symmetry_cell_setting 'monoclinic'
loop_
_space_group_symop_operation_xyz
x,y,z
-x,y,1/2-z
-x,-y,-z
x,-y,1/2+z
1/2+x,1/2+y,z
1/2-x,1/2+y,1/2-z
1/2-x,1/2-y,-z
1/2+x,1/2-y,1/2+z
loop_
_atom_site_type_symbol
_atom_site_label
_atom_site_fract_x
_atom_site_fract_y
_atom_site_fract_z
Si Si1 0.273706 0.654918 0.497145
Si Si2 0.970263 0.066426 0.985867
Si Si3 0.857803 0.724106 0.086166
Si Si4 0.337930 0.378526 0.530128
Si Si5 0.576980 0.742181 0.373318
O O1 0.194985 0.670201 0.396253
O O2 0.317675 0.714274 0.544415
O O3 0.301427 0.612381 0.283417
O O4 0.280414 0.622790 0.775849
O O5 0.000000 0.099688 0.750000
O O6 0.888465 0.067751 0.970685
O O7 0.000000 0.100900 0.250000
O O8 0.000000 0.000000 0.000000
O O9 0.913194 0.723905 0.349150
O O10 0.893624 0.715349 0.833080
O O11 0.382921 0.319287 0.572328
O O12 0.500000 0.728362 0.250000
#
# Coordination Sequence:
#
# PCOD8130732 Si02
#       5
#     8   8   8   8   8
#     4   9  17  28  42  57  74 101 133 175 217 247
#     4  10  20  32  44  59  82 109 136 176 218 253
#     4   9  17  28  39  55  79 102 131 171 216 252
#     4  10  18  28  43  59  76 101 140 179 213 248
#     4  10  18  26  39  58  80 106 135 172 213 252
#
# _framework density 17.398572999999999
#
# number of rings (size 3 to 8) (size 9 to 14) (size 15 to 20)
#    0.000    2.400    0.000    3.600    0.000    8.000 
#    0.000    0.000    0.000    0.000    0.000    0.000 
#    0.000    0.000    0.000    0.000    0.000    0.000 
#
# Total GULP energy -247764.045396 kJ/mol
# GULP energy per Si atom -12388.202270 kJ/mol
# Density = 1.735897 g / cm^3
# Si number density = 17.398573 Si / 1000 Ang^3
#
#
#
# Elastic Constant Matrix: (Units=GPa)
#
#
# Indices 1 2 3 4 5 6 
#
# 1 55.5071 19.8457 39.0854 0.0000 -3.4549 0.0000
# 2 19.8457 26.1460 16.5302 0.0000 -2.8652 0.0000
# 3 39.0854 16.5302 164.3571 0.0000 -4.3370 0.0000
# 4 0.0000 0.0000 0.0000 4.1411 0.0000 -0.7454
# 5 -3.4549 -2.8652 -4.3370 0.0000 38.5647 0.0000
# 6 0.0000 0.0000 0.0000 -0.7454 0.0000 28.9574
#
#
#
# Elastic Compliance Matrix: (Units=1/GPa)
#
#
# Indices 1 2 3 4 5 6 
#
# 1 0.027895 -0.018071 -0.004800 0.000000 0.000617 0.000000
# 2 -0.018071 0.052808 -0.000956 0.000000 0.002197 0.000000
# 3 -0.004800 -0.000956 0.007330 0.000000 0.000323 0.000000
# 4 0.000000 0.000000 0.000000 0.242608 0.000000 0.006245
# 5 0.000617 0.002197 0.000323 0.000000 0.026185 0.000000
# 6 0.000000 0.000000 0.000000 0.006245 0.000000 0.034694
#
#
# Mechanical properties :
#
#
# Convention : Reuss Voigt Hill
#
# Bulk Modulus (GPa) = 24.76457 44.10365 34.43411
# Shear Modulus (GPa) = 11.04643 25.70257 18.37450
#
# Velocity S-wave (km/s) = 2.52246 3.84771 3.25328
# Velocity P-wave (km/s) = 4.76952 6.71892 5.82633
#
# Compressibility (1/GPa) = 0.04038028
#
# Stress axis : x y z
#
# Youngs Moduli (GPa) = 35.84877 18.93644 136.41785
#
# Poissons Ratio (x) = 0.34220 0.65479
# Poissons Ratio (y) = 0.64782 0.13038
# Poissons Ratio (z) = 0.17207 0.01810
#
# Static dielectric constant tensor:
#      x y z
#    x 2.509180 0.000000 2.496500 
#    y 0.000000 2.642120 0.000000 
#    z 2.496500 0.000000 -5.332240 
# 
# 
# High freq. dielectric constant tensor:
#      x y z
#    x 1.655040 0.000000 -0.006210 
#    y 0.000000 1.586430 0.000000 
#    z -0.006210 0.000000 1.709200 
# 
# From -- ./inp_files/10203.got.cif
#   From: 2010.06.25/outbox.cif.g09.slc.cpg/sg15_6_cif.got.tgz:10203.got - 2010.06.28 07:06:18.
