data_PCOD8130995
_publ_section_title
;
Structure prediction by ZEFSAII (Michael W. Deem and Ramdas Pophale) SiO2 
 PCOD8130995
Probable space group: C 2/C
;
_chemical_formula_sum "Si O2"
_cell_formula_units_Z 44
_cell_length_a 17.323144
_cell_length_b 14.853106
_cell_length_c 8.793165
_cell_angle_alpha 90.000000
_cell_angle_beta 113.310639
_cell_angle_gamma 90.000000
_cell_volume 2077.821745
_symmetry_space_group_name_H-M "C 2/C"
_symmetry_group_IT_number 15
_symmetry_cell_setting 'monoclinic'
loop_
_space_group_symop_operation_xyz
x,y,z
-x,y,1/2-z
-x,-y,-z
x,-y,1/2+z
1/2+x,1/2+y,z
1/2-x,1/2+y,1/2-z
1/2-x,1/2-y,-z
1/2+x,1/2-y,1/2+z
loop_
_atom_site_type_symbol
_atom_site_label
_atom_site_fract_x
_atom_site_fract_y
_atom_site_fract_z
Si Si1 0.000000 0.024761 0.750000
Si Si2 0.376696 0.091905 0.892046
Si Si3 0.431801 0.619289 0.420883
Si Si4 0.327745 0.240976 0.670792
Si Si5 0.540536 0.211601 0.981233
Si Si6 0.907940 0.585580 0.243279
O O1 0.933008 0.083038 0.596426
O O2 0.056156 0.964074 0.682671
O O3 0.306604 0.154463 0.757786
O O4 0.374132 0.991508 0.827545
O O5 0.467306 0.136856 0.928684
O O6 0.350427 0.091838 0.048757
O O7 0.348119 0.672788 0.296274
O O8 0.510232 0.687223 0.481995
O O9 0.250000 0.250000 0.500000
O O10 0.411124 0.214108 0.640771
O O11 0.599040 0.179785 0.168658
O O12 0.000000 0.562230 0.250000
#
# Coordination Sequence:
#
# PCOD8130995 Si02
#       6
#     4   8   8   8   8   8
#     4  10  20  36  64  88 104 138 206 254 278 326
#     4  10  19  33  56  84 112 144 188 227 275 333
#     4  10  20  37  61  86 108 142 192 248 292 322
#     4  11  22  38  55  79 120 156 186 229 295 348
#     4  10  19  34  57  83 111 143 187 228 279 337
#     4  10  18  30  57  89 111 138 177 230 276 336
#
# _framework density 21.176023000000001
#
# number of rings (size 3 to 8) (size 9 to 14) (size 15 to 20)
#    0.000    1.818    1.818    6.000    6.364    0.000 
#    0.000    4.545    0.000    0.000    0.000    0.000 
#    0.000    0.000    0.000    0.000    0.000    0.000 
#
# Total GULP energy -272562.525805 kJ/mol
# GULP energy per Si atom -12389.205718 kJ/mol
# Density = 2.112782 g / cm^3
# Si number density = 21.176023 Si / 1000 Ang^3
#
#
#
# Elastic Constant Matrix: (Units=GPa)
#
#
# Indices 1 2 3 4 5 6 
#
# 1 8.3320 13.5537 18.3999 0.0000 1.1786 0.0000
# 2 13.5537 114.3846 86.3294 0.0000 -4.4752 0.0000
# 3 18.3999 86.3294 192.3447 0.0000 -6.6455 0.0000
# 4 0.0000 0.0000 0.0000 50.3947 0.0000 -9.5009
# 5 1.1786 -4.4752 -6.6455 0.0000 30.1460 0.0000
# 6 0.0000 0.0000 0.0000 -9.5009 0.0000 10.9100
#
#
#
# Elastic Compliance Matrix: (Units=1/GPa)
#
#
# Indices 1 2 3 4 5 6 
#
# 1 0.164530 -0.011727 -0.010841 0.000000 -0.010563 0.000000
# 2 -0.011727 0.014070 -0.005144 0.000000 0.001413 0.000000
# 3 -0.010841 -0.005144 0.008599 0.000000 0.001556 0.000000
# 4 0.000000 0.000000 0.000000 0.023741 0.000000 0.020675
# 5 -0.010563 0.001413 0.001556 0.000000 0.034138 0.000000
# 6 0.000000 0.000000 0.000000 0.020675 0.000000 0.109664
#
#
# Mechanical properties :
#
#
# Convention : Reuss Voigt Hill
#
# Bulk Modulus (GPa) = 7.58873 61.29191 34.44032
# Shear Modulus (GPa) = 11.01103 31.40868 21.20986
#
# Velocity S-wave (km/s) = 2.28277 3.85544 3.16824
# Velocity P-wave (km/s) = 3.24646 6.98756 5.44819
#
# Compressibility (1/GPa) = 0.13177441
#
# Stress axis : x y z
#
# Youngs Moduli (GPa) = 6.07792 71.07418 116.29736
#
# Poissons Ratio (x) = 0.83349 1.26074
# Poissons Ratio (y) = 0.07128 0.59826
# Poissons Ratio (z) = 0.06589 0.36562
#
# Static dielectric constant tensor:
#      x y z
#    x 3.121630 0.000000 -0.272760 
#    y 0.000000 4.038650 0.000000 
#    z -0.272760 0.000000 4.772840 
# 
# 
# High freq. dielectric constant tensor:
#      x y z
#    x 1.749110 0.000000 -0.022690 
#    y 0.000000 1.839810 0.000000 
#    z -0.022690 0.000000 1.864450 
# 
# From -- ./inp_files/47200.got.cif
#   From: 2010.06.25/outbox.cif.g09.slc.cpg/sg15_24_cif.got.tgz:47200.got - 2010.06.28 07:06:18.
