data_PCOD8130635
_publ_section_title
;
Structure prediction by ZEFSAII (Michael W. Deem and Ramdas Pophale) SiO2 
 PCOD8130635
Probable space group: C 2/C
;
_chemical_formula_sum "Si O2"
_cell_formula_units_Z 64
_cell_length_a 28.646780
_cell_length_b 16.078877
_cell_length_c 19.567950
_cell_angle_alpha 90.000000
_cell_angle_beta 22.011524
_cell_angle_gamma 90.000000
_cell_volume 3378.068175
_symmetry_space_group_name_H-M "C 2/C"
_symmetry_group_IT_number 15
_symmetry_cell_setting 'monoclinic'
loop_
_space_group_symop_operation_xyz
x,y,z
-x,y,1/2-z
-x,-y,-z
x,-y,1/2+z
1/2+x,1/2+y,z
1/2-x,1/2+y,1/2-z
1/2-x,1/2-y,-z
1/2+x,1/2-y,1/2+z
loop_
_atom_site_type_symbol
_atom_site_label
_atom_site_fract_x
_atom_site_fract_y
_atom_site_fract_z
Si Si1 0.837462 0.928255 0.376492
Si Si2 0.785487 0.386963 0.820800
Si Si3 0.465199 0.200802 0.503432
Si Si4 0.307765 0.470297 0.270434
Si Si5 0.791436 0.450507 0.236027
Si Si6 0.964166 0.206216 0.873153
Si Si7 0.451368 0.369096 0.598315
Si Si8 0.988286 0.915281 0.840807
O O1 0.734402 0.918031 0.574725
O O2 0.762113 0.946712 0.408707
O O3 0.919858 0.845800 0.254870
O O4 0.934006 0.999757 0.266357
O O5 0.837599 0.462788 0.704861
O O6 0.890152 0.316023 0.677832
O O7 0.658388 0.350784 0.962671
O O8 0.381517 0.122704 0.638782
O O9 0.442227 0.217629 0.454224
O O10 0.422287 0.280270 0.605267
O O11 0.204276 0.456805 0.352617
O O12 0.343454 0.567685 0.221562
O O13 0.421754 0.409206 0.100165
O O14 0.654110 0.435198 0.450705
O O15 0.000000 0.241572 0.750000
O O16 0.456644 0.357216 0.673714
O O17 0.000000 0.872207 0.750000
#
# Coordination Sequence:
#
# PCOD8130635 Si02
#       8
#     8   8   8   8   8   8   8   8
#     4  10  17  36  64  86 108 144 197 238 273 325
#     4  11  23  38  58  82 120 156 186 231 279 345
#     4  12  25  36  53  88 127 148 182 228 298 346
#     4   9  18  35  62  82 108 143 201 234 268 331
#     4  11  22  37  58  82 114 158 187 227 283 343
#     4  10  21  36  58  86 117 149 185 234 282 334
#     4   9  19  34  56  86 112 142 184 246 277 324
#     4  10  17  35  64  85  98 144 205 240 266 324
#
# _framework density 18.945740000000001
#
# number of rings (size 3 to 8) (size 9 to 14) (size 15 to 20)
#    0.000    1.750    3.750    2.250    3.500    3.000 
#    0.000    0.625    0.000    0.000    0.000    0.000 
#    0.000    0.000    0.000    0.000    0.000    0.000 
#
# Total GULP energy -396752.208950 kJ/mol
# GULP energy per Si atom -12398.506530 kJ/mol
# Density = 1.890262 g / cm^3
# Si number density = 18.945740 Si / 1000 Ang^3
#
#
#
# Elastic Constant Matrix: (Units=GPa)
#
#
# Indices 1 2 3 4 5 6 
#
# 1 116.9058 37.2370 20.5169 0.0000 16.4635 0.0000
# 2 37.2370 76.6050 19.2435 -0.0001 -0.6048 0.0000
# 3 20.5169 19.2435 30.8667 -0.0001 0.4910 0.0000
# 4 0.0000 -0.0001 -0.0001 18.8483 0.0000 -0.2825
# 5 16.4635 -0.6048 0.4910 0.0000 15.9985 0.0000
# 6 0.0000 0.0000 0.0000 -0.2825 0.0000 15.2562
#
#
#
# Elastic Compliance Matrix: (Units=1/GPa)
#
#
# Indices 1 2 3 4 5 6 
#
# 1 0.012984 -0.005102 -0.005237 0.000000 -0.013394 0.000000
# 2 -0.005102 0.017495 -0.007614 0.000000 0.006145 0.000000
# 3 -0.005237 -0.007614 0.040564 0.000000 0.003856 0.000000
# 4 0.000000 0.000000 0.000000 0.053070 0.000000 0.000983
# 5 -0.013394 0.006145 0.003856 0.000000 0.076403 0.000000
# 6 0.000000 0.000000 0.000000 0.000983 0.000000 0.065565
#
#
# Mechanical properties :
#
#
# Convention : Reuss Voigt Hill
#
# Bulk Modulus (GPa) = 28.45902 42.04136 35.25019
# Shear Modulus (GPa) = 15.93890 19.84594 17.89242
#
# Velocity S-wave (km/s) = 2.90365 3.24004 3.07645
# Velocity P-wave (km/s) = 5.12792 6.01961 5.59157
#
# Compressibility (1/GPa) = 0.03513824
#
# Stress axis : x y z
#
# Youngs Moduli (GPa) = 77.01694 57.15916 24.65264
#
# Poissons Ratio (x) = 0.29161 0.12910
# Poissons Ratio (y) = 0.39292 0.18770
# Poissons Ratio (z) = 0.40332 0.43520
#
# Static dielectric constant tensor:
#      x y z
#    x 3.872730 0.000000 0.200540 
#    y 0.000000 3.261100 0.000000 
#    z 0.200540 0.000000 3.175040 
# 
# 
# High freq. dielectric constant tensor:
#      x y z
#    x 1.752750 0.000000 0.009790 
#    y 0.000000 1.717830 0.000000 
#    z 0.009790 0.000000 1.702120 
# 
# From -- ./inp_files/259437.got.cif
#   From: 2010.06.25/outbox.cif.g09.slc.cpg/sg15_130_cif.got.tgz:259437.got - 2010.06.28 07:06:18.
