data_PCOD8130661
_publ_section_title
;
Structure prediction by ZEFSAII (Michael W. Deem and Ramdas Pophale) SiO2 
 PCOD8130661
Probable space group: C 2/C
;
_chemical_formula_sum "Si O2"
_cell_formula_units_Z 36
_cell_length_a 28.091362
_cell_length_b 7.361551
_cell_length_c 14.559510
_cell_angle_alpha 90.000000
_cell_angle_beta 34.362868
_cell_angle_gamma 90.000000
_cell_volume 1699.419600
_symmetry_space_group_name_H-M "C 2/C"
_symmetry_group_IT_number 15
_symmetry_cell_setting 'monoclinic'
loop_
_space_group_symop_operation_xyz
x,y,z
-x,y,1/2-z
-x,-y,-z
x,-y,1/2+z
1/2+x,1/2+y,z
1/2-x,1/2+y,1/2-z
1/2-x,1/2-y,-z
1/2+x,1/2-y,1/2+z
loop_
_atom_site_type_symbol
_atom_site_label
_atom_site_fract_x
_atom_site_fract_y
_atom_site_fract_z
Si Si1 0.636048 0.849744 0.904949
Si Si2 0.324873 0.425678 0.302877
Si Si3 0.000000 0.505486 0.750000
Si Si4 0.355103 0.754506 0.933869
Si Si5 0.308306 0.749595 0.206586
O O1 0.620839 0.717815 0.843126
O O2 0.707442 0.766066 0.857784
O O3 0.666322 0.043152 0.815916
O O4 0.550146 0.867720 0.098911
O O5 0.355791 0.409782 0.359113
O O6 0.225888 0.382603 0.452524
O O7 0.341045 0.628660 0.239709
O O8 0.937251 0.378991 0.790889
O O9 0.351464 0.676073 0.043315
#
# Coordination Sequence:
#
# PCOD8130661 Si02
#       5
#     8   8   4   8   8
#     4  10  19  33  59  78 111 145 187 222 277 319
#     4  10  19  38  58  82 108 152 188 221 266 346
#     4  10  18  36  54  84 114 146 172 240 282 310
#     4   9  20  34  58  83 114 143 182 232 279 313
#     4  10  17  36  59  79 109 151 182 223 272 334
#
# _framework density 21.183703999999999
#
# number of rings (size 3 to 8) (size 9 to 14) (size 15 to 20)
#    0.000    2.222    6.667    0.000    0.000    0.889 
#    0.000   23.333    0.000    0.000    0.000    0.000 
#    0.000    0.000    0.000    0.000    0.000    0.000 
#
# Total GULP energy -223149.238695 kJ/mol
# GULP energy per Si atom -12397.179927 kJ/mol
# Density = 2.113549 g / cm^3
# Si number density = 21.183704 Si / 1000 Ang^3
#
#
#
# Elastic Constant Matrix: (Units=GPa)
#
#
# Indices 1 2 3 4 5 6 
#
# 1 25.9506 -17.6126 5.1006 0.0001 -0.1903 -0.0001
# 2 -17.6126 52.5836 8.9154 -0.0009 -8.4560 0.0000
# 3 5.1006 8.9154 116.3802 -0.0003 -20.9595 0.0000
# 4 0.0001 -0.0009 -0.0003 35.8438 0.0000 8.1109
# 5 -0.1903 -8.4560 -20.9595 0.0000 18.2801 0.0000
# 6 -0.0001 0.0000 0.0000 8.1109 0.0000 28.3463
#
#
#
# Elastic Compliance Matrix: (Units=1/GPa)
#
#
# Indices 1 2 3 4 5 6 
#
# 1 0.051861 0.018819 -0.002583 0.000000 0.006284 0.000000
# 2 0.018819 0.027377 -0.000764 0.000001 0.011985 0.000000
# 3 -0.002583 -0.000764 0.010959 0.000000 0.012185 0.000000
# 4 0.000000 0.000001 0.000000 0.029830 0.000000 -0.008536
# 5 0.006284 0.011985 0.012185 0.000000 0.074284 0.000000
# 6 0.000000 0.000000 0.000000 -0.008536 0.000000 0.037720
#
#
# Mechanical properties :
#
#
# Convention : Reuss Voigt Hill
#
# Bulk Modulus (GPa) = 8.25478 20.85790 14.55634
# Shear Modulus (GPa) = 20.70669 29.72809 25.21739
#
# Velocity S-wave (km/s) = 3.12986 3.75019 3.45398
# Velocity P-wave (km/s) = 4.11905 5.34972 4.77421
#
# Compressibility (1/GPa) = 0.12114198
#
# Stress axis : x y z
#
# Youngs Moduli (GPa) = 19.28233 36.52647 91.25204
#
# Poissons Ratio (x) = -0.68739 0.23569
# Poissons Ratio (y) = -0.36287 0.06969
# Poissons Ratio (z) = 0.04980 0.02789
#
# Static dielectric constant tensor:
#      x y z
#    x 3.705140 0.000000 0.208560 
#    y 0.000000 3.669130 0.000000 
#    z 0.208560 0.000000 3.945710 
# 
# 
# High freq. dielectric constant tensor:
#      x y z
#    x 1.803360 0.000000 0.012450 
#    y 0.000000 1.814490 0.000000 
#    z 0.012450 0.000000 1.828730 
# 
# From -- ./inp_files/150388.got.cif
#   From: 2010.06.25/outbox.cif.g09.slc.cpg/sg15_76_cif.got.tgz:150388.got - 2010.06.28 07:06:18.
