data_PCOD8130584
_publ_section_title
;
Structure prediction by ZEFSAII (Michael W. Deem and Ramdas Pophale) SiO2 
 PCOD8130584
Probable space group: C 2/C
;
_chemical_formula_sum "Si O2"
_cell_formula_units_Z 56
_cell_length_a 12.900345
_cell_length_b 26.964723
_cell_length_c 9.923427
_cell_angle_alpha 90.000000
_cell_angle_beta 114.858758
_cell_angle_gamma 90.000000
_cell_volume 3132.076065
_symmetry_space_group_name_H-M "C 2/C"
_symmetry_group_IT_number 15
_symmetry_cell_setting 'monoclinic'
loop_
_space_group_symop_operation_xyz
x,y,z
-x,y,1/2-z
-x,-y,-z
x,-y,1/2+z
1/2+x,1/2+y,z
1/2-x,1/2+y,1/2-z
1/2-x,1/2-y,-z
1/2+x,1/2-y,1/2+z
loop_
_atom_site_type_symbol
_atom_site_label
_atom_site_fract_x
_atom_site_fract_y
_atom_site_fract_z
Si Si1 0.557137 0.933836 0.646008
Si Si2 0.591151 0.956143 0.186608
Si Si3 0.706537 0.285348 0.635028
Si Si4 0.865118 0.803468 0.185224
Si Si5 0.030647 0.292072 0.121863
Si Si6 0.274968 0.134523 0.695984
Si Si7 0.687881 0.846183 0.586992
O O1 0.500000 0.911057 0.750000
O O2 0.455770 0.944516 0.486828
O O3 0.650946 0.897497 0.635373
O O4 0.620487 0.985671 0.716976
O O5 0.500000 0.939364 0.250000
O O6 0.707050 0.924444 0.272998
O O7 0.819078 0.250841 0.700915
O O8 0.694894 0.316982 0.491002
O O9 0.593513 0.251218 0.575332
O O10 0.714700 0.321917 0.766413
O O11 0.832028 0.845023 0.277844
O O12 0.000000 0.802516 0.250000
O O13 0.109918 0.339961 0.186457
O O14 0.000000 0.269309 0.250000
O O15 0.919776 0.309146 0.979527
O O16 0.255444 0.145688 0.527650
#
# Coordination Sequence:
#
# PCOD8130584 Si02
#       7
#     8   8   8   8   8   8   8
#     4  10  21  28  53  82 114 138 165 217 264 322
#     4  10  17  35  51  80 114 141 168 202 277 337
#     4  10  22  33  52  77 102 138 182 226 265 307
#     4  10  22  38  51  73 104 142 182 228 269 308
#     4   9  18  32  51  72 104 141 172 218 263 318
#     4  10  19  34  54  72 106 148 173 209 271 321
#     4  11  20  34  52  81 110 141 180 212 261 322
#
# _framework density 17.879514
#
# number of rings (size 3 to 8) (size 9 to 14) (size 15 to 20)
#    0.000    2.000    2.857    1.286    2.000    8.000 
#    0.000    0.000    0.000    0.000    0.000    5.000 
#    0.000    0.000    0.000    0.000    0.000    0.000 
#
# Total GULP energy -347187.515555 kJ/mol
# GULP energy per Si atom -12399.554127 kJ/mol
# Density = 1.783882 g / cm^3
# Si number density = 17.879514 Si / 1000 Ang^3
#
#
#
# Elastic Constant Matrix: (Units=GPa)
#
#
# Indices 1 2 3 4 5 6 
#
# 1 93.4582 43.0618 28.9868 0.0000 -14.4428 0.0000
# 2 43.0618 87.8127 43.8845 0.0000 -7.2105 0.0000
# 3 28.9868 43.8845 95.7592 0.0000 -20.4661 0.0000
# 4 0.0000 0.0000 0.0000 25.5780 0.0000 -2.3739
# 5 -14.4428 -7.2105 -20.4661 0.0000 26.4714 0.0000
# 6 0.0000 0.0000 0.0000 -2.3739 0.0000 16.3868
#
#
#
# Elastic Compliance Matrix: (Units=1/GPa)
#
#
# Indices 1 2 3 4 5 6 
#
# 1 0.014762 -0.006690 -0.000085 0.000000 0.006166 0.000000
# 2 -0.006690 0.017850 -0.007063 0.000000 -0.004249 0.000000
# 3 -0.000085 -0.007063 0.015914 0.000000 0.010334 0.000000
# 4 0.000000 0.000000 0.000000 0.039629 0.000000 0.005741
# 5 0.006166 -0.004249 0.010334 0.000000 0.047973 0.000000
# 6 0.000000 0.000000 0.000000 0.005741 0.000000 0.061857
#
#
# Mechanical properties :
#
#
# Convention : Reuss Voigt Hill
#
# Bulk Modulus (GPa) = 47.96297 56.54405 52.25351
# Shear Modulus (GPa) = 21.49530 24.42703 22.96116
#
# Velocity S-wave (km/s) = 3.47108 3.70023 3.58748
# Velocity P-wave (km/s) = 6.55351 7.06748 6.81534
#
# Compressibility (1/GPa) = 0.02084942
#
# Stress axis : x y z
#
# Youngs Moduli (GPa) = 67.74260 56.02380 62.83843
#
# Poissons Ratio (x) = 0.37482 0.00531
# Poissons Ratio (y) = 0.45322 0.44383
# Poissons Ratio (z) = 0.00573 0.39570
#
# Static dielectric constant tensor:
#      x y z
#    x 3.083610 0.000000 -0.323960 
#    y 0.000000 3.277750 0.000000 
#    z -0.323960 0.000000 3.377700 
# 
# 
# High freq. dielectric constant tensor:
#      x y z
#    x 1.658810 0.000000 -0.029410 
#    y 0.000000 1.677010 0.000000 
#    z -0.029410 0.000000 1.703030 
# 
# From -- ./inp_files/35308.got.cif
#   From: 2010.06.25/outbox.cif.g09.slc.cpg/sg15_18_cif.got.tgz:35308.got - 2010.06.28 07:06:18.
