data_PCOD8130323
_publ_section_title
;
Structure prediction by ZEFSAII (Michael W. Deem and Ramdas Pophale) SiO2 
 PCOD8130323
Probable space group: C 2/C
;
_chemical_formula_sum "Si O2"
_cell_formula_units_Z 60
_cell_length_a 22.029847
_cell_length_b 30.447182
_cell_length_c 9.209130
_cell_angle_alpha 90.000000
_cell_angle_beta 147.180599
_cell_angle_gamma 90.000000
_cell_volume 3347.886367
_symmetry_space_group_name_H-M "C 2/C"
_symmetry_group_IT_number 15
_symmetry_cell_setting 'monoclinic'
loop_
_space_group_symop_operation_xyz
x,y,z
-x,y,1/2-z
-x,-y,-z
x,-y,1/2+z
1/2+x,1/2+y,z
1/2-x,1/2+y,1/2-z
1/2-x,1/2-y,-z
1/2+x,1/2-y,1/2+z
loop_
_atom_site_type_symbol
_atom_site_label
_atom_site_fract_x
_atom_site_fract_y
_atom_site_fract_z
Si Si1 0.865278 0.050636 0.494176
Si Si2 0.000000 0.096493 0.250000
Si Si3 0.369449 0.353103 0.968155
Si Si4 0.847319 0.832896 0.598021
Si Si5 0.293266 0.731212 0.433781
Si Si6 0.409511 0.762415 0.180311
Si Si7 0.609325 0.477422 0.157335
Si Si8 0.894324 0.303624 0.463878
O O1 0.813122 0.098738 0.363629
O O2 0.819382 0.037596 0.560837
O O3 0.000000 0.050429 0.750000
O O4 0.819921 0.013283 0.292352
O O5 0.916360 0.125523 0.179083
O O6 0.078061 0.066005 0.505054
O O7 0.330577 0.334850 0.736024
O O8 0.333205 0.319608 0.025459
O O9 0.500000 0.359894 0.250000
O O10 0.923556 0.789883 0.727226
O O11 0.724047 0.830133 0.273344
O O12 0.250000 0.750000 0.500000
O O13 0.390529 0.762690 0.569767
O O14 0.208501 0.730155 0.130074
O O15 0.500000 0.781170 0.250000
O O16 0.420433 0.788128 0.352991
O O17 0.500000 0.500000 0.000000
O O18 0.000000 0.330522 0.750000
#
# Coordination Sequence:
#
# PCOD8130323 Si02
#       8
#     8   4   8   8   8   8   8   8
#     4   9  18  29  47  68 104 142 172 208 264 335
#     4  12  20  30  60  80 118 146 184 226 282 356
#     4  11  21  33  52  76 112 144 185 227 276 329
#     4  11  22  35  52  83 108 146 191 238 283 334
#     4  11  22  34  54  78 107 146 192 232 287 342
#     4  11  21  37  53  76 106 142 196 241 286 337
#     4  10  17  32  46  75 108 150 171 205 273 342
#     4  11  22  40  55  73 109 150 195 248 282 324
#
# _framework density 17.921755000000001
#
# number of rings (size 3 to 8) (size 9 to 14) (size 15 to 20)
#    0.000    1.333    5.333    4.400    1.867    2.133 
#    0.000    0.000    0.000    0.000    0.000    0.000 
#    0.000    5.333    0.000    0.000    0.000    0.000 
#
# Total GULP energy -371644.850849 kJ/mol
# GULP energy per Si atom -12388.161695 kJ/mol
# Density = 1.788096 g / cm^3
# Si number density = 17.921755 Si / 1000 Ang^3
#
#
#
# Elastic Constant Matrix: (Units=GPa)
#
#
# Indices 1 2 3 4 5 6 
#
# 1 103.6544 47.3988 19.6937 0.0000 -23.9533 0.0000
# 2 47.3988 114.8977 16.2911 0.0000 -7.6807 0.0000
# 3 19.6937 16.2911 67.4050 0.0000 -15.8783 0.0000
# 4 0.0000 0.0000 0.0000 11.9848 0.0000 -1.2087
# 5 -23.9533 -7.6807 -15.8783 0.0000 26.9643 0.0000
# 6 0.0000 0.0000 0.0000 -1.2087 0.0000 24.2084
#
#
#
# Elastic Compliance Matrix: (Units=1/GPa)
#
#
# Indices 1 2 3 4 5 6 
#
# 1 0.014763 -0.005278 -0.000351 0.000000 0.011404 0.000000
# 2 -0.005278 0.010951 -0.001712 0.000000 -0.002577 0.000000
# 3 -0.000351 -0.001712 0.017606 0.000000 0.009568 0.000000
# 4 0.000000 0.000000 0.000000 0.083861 0.000000 0.004187
# 5 0.011404 -0.002577 0.009568 0.000000 0.052117 0.000000
# 6 0.000000 0.000000 0.000000 0.004187 0.000000 0.041517
#
#
# Mechanical properties :
#
#
# Convention : Reuss Voigt Hill
#
# Bulk Modulus (GPa) = 34.91864 50.30269 42.61067
# Shear Modulus (GPa) = 20.40453 26.13640 23.27047
#
# Velocity S-wave (km/s) = 3.37788 3.82299 3.60731
# Velocity P-wave (km/s) = 5.89404 6.90043 6.41699
#
# Compressibility (1/GPa) = 0.02863800
#
# Stress axis : x y z
#
# Youngs Moduli (GPa) = 67.73644 91.31428 56.79915
#
# Poissons Ratio (x) = 0.48196 0.01995
# Poissons Ratio (y) = 0.35752 0.09723
# Poissons Ratio (z) = 0.02379 0.15631
#
# Static dielectric constant tensor:
#      x y z
#    x 2.838370 0.000000 -0.573110 
#    y 0.000000 3.808340 0.000000 
#    z -0.573110 0.000000 3.163290 
# 
# 
# High freq. dielectric constant tensor:
#      x y z
#    x 1.688350 0.000000 -0.037170 
#    y 0.000000 1.685200 0.000000 
#    z -0.037170 0.000000 1.669640 
# 
# From -- ./inp_files/59275.got.cif
#   From: 2010.06.25/outbox.cif.g09.slc.cpg/sg15_30_cif.got.tgz:59275.got - 2010.06.28 07:06:18.
