data_PCOD8130175
_publ_section_title
;
Structure prediction by ZEFSAII (Michael W. Deem and Ramdas Pophale) SiO2 
 PCOD8130175
Probable space group: C 2/C
;
_chemical_formula_sum "Si O2"
_cell_formula_units_Z 56
_cell_length_a 30.510172
_cell_length_b 8.369013
_cell_length_c 11.712532
_cell_angle_alpha 90.000000
_cell_angle_beta 117.506415
_cell_angle_gamma 90.000000
_cell_volume 2652.609355
_symmetry_space_group_name_H-M "C 2/C"
_symmetry_group_IT_number 15
_symmetry_cell_setting 'monoclinic'
loop_
_space_group_symop_operation_xyz
x,y,z
-x,y,1/2-z
-x,-y,-z
x,-y,1/2+z
1/2+x,1/2+y,z
1/2-x,1/2+y,1/2-z
1/2-x,1/2-y,-z
1/2+x,1/2-y,1/2+z
loop_
_atom_site_type_symbol
_atom_site_label
_atom_site_fract_x
_atom_site_fract_y
_atom_site_fract_z
Si Si1 0.010544 0.835769 0.951060
Si Si2 0.930745 0.902556 0.695396
Si Si3 0.203553 0.782751 0.208948
Si Si4 0.457479 0.767521 0.779900
Si Si5 0.651369 0.821672 0.862927
Si Si6 0.324969 0.480398 0.529708
Si Si7 0.733833 0.008565 0.075323
O O1 0.055972 0.852231 0.917623
O O2 0.960205 0.789121 0.820971
O O3 0.025193 0.709439 0.067274
O O4 0.000000 0.000000 0.000000
O O5 0.871902 0.888140 0.642027
O O6 0.948743 0.083225 0.737529
O O7 0.161603 0.714715 0.242145
O O8 0.223834 0.645118 0.153531
O O9 0.248430 0.847766 0.340112
O O10 0.180838 0.927959 0.108562
O O11 0.500000 0.840787 0.750000
O O12 0.406583 0.864311 0.696369
O O13 0.665472 0.669151 0.957439
O O14 0.683926 0.970884 0.945096
O O15 0.276211 0.429906 0.540369
#
# Coordination Sequence:
#
# PCOD8130175 Si02
#       7
#     8   8   8   8   8   8   8
#     4   9  14  26  43  71 112 141 176 222 282 327
#     4   9  16  27  46  78 116 143 176 227 286 337
#     4  11  21  38  60  81 116 153 186 236 288 335
#     4  10  17  30  50  78 107 146 185 234 282 337
#     4  10  22  37  56  84 116 150 192 235 289 341
#     4  10  20  34  56  88 115 147 187 231 286 353
#     4  11  22  39  56  83 115 151 197 236 281 342
#
# _framework density 21.111288999999999
#
# number of rings (size 3 to 8) (size 9 to 14) (size 15 to 20)
#    0.000    2.000    2.857    4.714    0.000    1.143 
#    2.571    0.000    0.000    0.857    3.714    0.000 
#    0.000    0.000    0.000    0.000    0.000    0.000 
#
# Total GULP energy -347118.579195 kJ/mol
# GULP energy per Si atom -12397.092114 kJ/mol
# Density = 2.106324 g / cm^3
# Si number density = 21.111289 Si / 1000 Ang^3
#
#
#
# Elastic Constant Matrix: (Units=GPa)
#
#
# Indices 1 2 3 4 5 6 
#
# 1 156.7819 24.4396 79.8320 0.0000 18.7484 0.0000
# 2 24.4396 18.4291 16.0966 0.0000 -1.3428 0.0000
# 3 79.8320 16.0966 132.7480 0.0000 2.3602 0.0000
# 4 0.0000 0.0000 0.0000 27.3530 0.0000 -2.3955
# 5 18.7484 -1.3428 2.3602 0.0000 42.3580 0.0000
# 6 0.0000 0.0000 0.0000 -2.3955 0.0000 11.0421
#
#
#
# Elastic Compliance Matrix: (Units=1/GPa)
#
#
# Indices 1 2 3 4 5 6 
#
# 1 0.011471 -0.010780 -0.005500 0.000000 -0.005112 0.000000
# 2 -0.010780 0.071053 -0.002260 0.000000 0.007150 0.000000
# 3 -0.005500 -0.002260 0.011084 0.000000 0.001745 0.000000
# 4 0.000000 0.000000 0.000000 0.037267 0.000000 0.008085
# 5 -0.005112 0.007150 0.001745 0.000000 0.026001 0.000000
# 6 0.000000 0.000000 0.000000 0.008085 0.000000 0.092316
#
#
# Mechanical properties :
#
#
# Convention : Reuss Voigt Hill
#
# Bulk Modulus (GPa) = 17.69066 60.96617 39.32842
# Shear Modulus (GPa) = 16.38731 28.65669 22.52200
#
# Velocity S-wave (km/s) = 2.78912 3.68830 3.26977
# Velocity P-wave (km/s) = 4.33246 6.86143 5.73801
#
# Compressibility (1/GPa) = 0.05652699
#
# Stress axis : x y z
#
# Youngs Moduli (GPa) = 87.17801 14.07401 90.22204
#
# Poissons Ratio (x) = 0.15172 0.49624
# Poissons Ratio (y) = 0.93981 0.20387
# Poissons Ratio (z) = 0.47950 0.03180
#
# Static dielectric constant tensor:
#      x y z
#    x 3.980000 0.000000 0.100400 
#    y 0.000000 3.199480 0.000000 
#    z 0.100400 0.000000 5.512650 
# 
# 
# High freq. dielectric constant tensor:
#      x y z
#    x 1.833110 0.000000 0.002370 
#    y 0.000000 1.770000 0.000000 
#    z 0.002370 0.000000 1.843800 
# 
# From -- ./inp_files/125985.got.cif
#   From: 2010.06.25/outbox.cif.g09.slc.cpg/sg15_63_cif.got.tgz:125985.got - 2010.06.28 07:06:18.
