data_PCOD8130088
_publ_section_title
;
Structure prediction by ZEFSAII (Michael W. Deem and Ramdas Pophale) SiO2 
 PCOD8130088
Probable space group: C 2/C
;
_chemical_formula_sum "Si O2"
_cell_formula_units_Z 56
_cell_length_a 23.725874
_cell_length_b 14.543476
_cell_length_c 9.410179
_cell_angle_alpha 90.000000
_cell_angle_beta 64.647397
_cell_angle_gamma 90.000000
_cell_volume 2934.321594
_symmetry_space_group_name_H-M "C 2/C"
_symmetry_group_IT_number 15
_symmetry_cell_setting 'monoclinic'
loop_
_space_group_symop_operation_xyz
x,y,z
-x,y,1/2-z
-x,-y,-z
x,-y,1/2+z
1/2+x,1/2+y,z
1/2-x,1/2+y,1/2-z
1/2-x,1/2-y,-z
1/2+x,1/2-y,1/2+z
loop_
_atom_site_type_symbol
_atom_site_label
_atom_site_fract_x
_atom_site_fract_y
_atom_site_fract_z
Si Si1 0.139656 0.224201 0.842730
Si Si2 0.211827 0.558932 0.811518
Si Si3 0.749574 0.356083 0.753107
Si Si4 0.078048 0.439497 0.546234
Si Si5 0.553346 0.890626 0.887873
Si Si6 0.694286 0.617751 0.023505
Si Si7 0.817016 0.085429 0.912897
O O1 0.204857 0.276243 0.744086
O O2 0.080776 0.290578 0.893030
O O3 0.132874 0.143686 0.731930
O O4 0.143168 0.179016 0.995893
O O5 0.209365 0.448391 0.804400
O O6 0.243847 0.600650 0.637732
O O7 0.250143 0.588063 0.908331
O O8 0.141965 0.597579 0.907227
O O9 0.717391 0.329328 0.638651
O O10 0.692277 0.368747 0.923597
O O11 0.082833 0.435669 0.712796
O O12 0.065893 0.544271 0.509606
O O13 0.020911 0.376563 0.553354
O O14 0.661034 0.520554 0.097641
#
# Coordination Sequence:
#
# PCOD8130088 Si02
#       7
#     8   8   8   8   8   8   8
#     4  11  19  33  51  76 108 146 188 226 271 328
#     4   9  17  30  50  72 111 152 176 211 278 335
#     4  10  17  28  46  75 107 143 187 216 265 329
#     4  10  20  36  52  79 112 145 189 217 284 321
#     4  10  22  35  55  78 108 153 185 233 264 335
#     4   9  20  32  49  78 111 148 179 227 276 329
#     4   9  19  32  49  75 112 147 180 224 277 329
#
# _framework density 19.084478000000001
#
# number of rings (size 3 to 8) (size 9 to 14) (size 15 to 20)
#    0.000    2.286    1.429    2.571    4.000    1.143 
#    0.000    1.429    0.000    0.000    0.000    4.000 
#    0.000    0.000    0.571    0.714    0.000    0.000 
#
# Total GULP energy -347158.506013 kJ/mol
# GULP energy per Si atom -12398.518072 kJ/mol
# Density = 1.904104 g / cm^3
# Si number density = 19.084478 Si / 1000 Ang^3
#
#
#
# Elastic Constant Matrix: (Units=GPa)
#
#
# Indices 1 2 3 4 5 6 
#
# 1 71.6390 44.1659 32.6543 0.0000 1.5209 0.0000
# 2 44.1659 83.7594 21.8138 0.0000 -3.1380 0.0000
# 3 32.6543 21.8138 81.1903 0.0000 15.0407 0.0000
# 4 0.0000 0.0000 0.0000 26.9808 0.0000 1.4827
# 5 1.5209 -3.1380 15.0407 0.0000 21.8170 0.0000
# 6 0.0000 0.0000 0.0000 1.4827 0.0000 34.5263
#
#
#
# Elastic Compliance Matrix: (Units=1/GPa)
#
#
# Indices 1 2 3 4 5 6 
#
# 1 0.023619 -0.010581 -0.006958 0.000000 0.001629 0.000000
# 2 -0.010581 0.018040 -0.001385 0.000000 0.004287 0.000000
# 3 -0.006958 -0.001385 0.017694 0.000000 -0.011913 0.000000
# 4 0.000000 0.000000 0.000000 0.037151 0.000000 -0.001595
# 5 0.001629 0.004287 -0.011913 0.000000 0.054552 0.000000
# 6 0.000000 0.000000 0.000000 -0.001595 0.000000 0.029032
#
#
# Mechanical properties :
#
#
# Convention : Reuss Voigt Hill
#
# Bulk Modulus (GPa) = 46.50367 48.20632 47.35499
# Shear Modulus (GPa) = 22.21173 25.86181 24.03677
#
# Velocity S-wave (km/s) = 3.41525 3.68519 3.55278
# Velocity P-wave (km/s) = 6.32234 6.58952 6.45732
#
# Compressibility (1/GPa) = 0.02150368
#
# Stress axis : x y z
#
# Youngs Moduli (GPa) = 42.33806 55.43300 56.51474
#
# Poissons Ratio (x) = 0.58655 0.39325
# Poissons Ratio (y) = 0.44799 0.07830
# Poissons Ratio (z) = 0.29461 0.07680
#
# Static dielectric constant tensor:
#      x y z
#    x 3.237260 0.000000 0.258370 
#    y 0.000000 3.573860 0.000000 
#    z 0.258370 0.000000 3.614740 
# 
# 
# High freq. dielectric constant tensor:
#      x y z
#    x 1.701980 0.000000 0.028040 
#    y 0.000000 1.735000 0.000000 
#    z 0.028040 0.000000 1.744320 
# 
# From -- ./inp_files/65934.got.cif
#   From: 2010.06.25/outbox.cif.g09.slc.cpg/sg15_33_cif.got.tgz:65934.got - 2010.06.28 07:06:18.
