data_PCOD8130755
_publ_section_title
;
Structure prediction by ZEFSAII (Michael W. Deem and Ramdas Pophale) SiO2 
 PCOD8130755
Probable space group: C 2/C
;
_chemical_formula_sum "Si O2"
_cell_formula_units_Z 48
_cell_length_a 8.819113
_cell_length_b 16.941889
_cell_length_c 17.772207
_cell_angle_alpha 90.000000
_cell_angle_beta 91.983901
_cell_angle_gamma 90.000000
_cell_volume 2653.797040
_symmetry_space_group_name_H-M "C 2/C"
_symmetry_group_IT_number 15
_symmetry_cell_setting 'monoclinic'
loop_
_space_group_symop_operation_xyz
x,y,z
-x,y,1/2-z
-x,-y,-z
x,-y,1/2+z
1/2+x,1/2+y,z
1/2-x,1/2+y,1/2-z
1/2-x,1/2-y,-z
1/2+x,1/2-y,1/2+z
loop_
_atom_site_type_symbol
_atom_site_label
_atom_site_fract_x
_atom_site_fract_y
_atom_site_fract_z
Si Si1 0.553905 0.085142 0.478006
Si Si2 0.114548 0.200407 0.809513
Si Si3 0.443437 0.136324 0.323876
Si Si4 0.092177 0.260136 0.456401
Si Si5 0.348471 0.720594 0.208679
Si Si6 0.835626 0.170215 0.521566
O O1 0.494059 0.083391 0.392637
O O2 0.479276 0.155921 0.523387
O O3 0.737489 0.096584 0.487013
O O4 0.500000 0.000000 0.500000
O O5 0.269334 0.220173 0.767382
O O6 0.148095 0.154964 0.887941
O O7 0.000000 0.153573 0.750000
O O8 0.025738 0.279215 0.832653
O O9 0.500000 0.091793 0.250000
O O10 0.261990 0.148366 0.315735
O O11 0.250000 0.250000 0.500000
O O12 0.108428 0.265321 0.367131
O O13 0.995941 0.182682 0.481907
O O14 0.500000 0.686406 0.250000
O O15 0.750000 0.250000 0.500000
#
# Coordination Sequence:
#
# PCOD8130755 Si02
#       6
#     8   8   8   8   8   8
#     4  11  22  37  54  80 114 150 186 222 275 341
#     4   9  16  31  51  80 108 139 181 228 279 325
#     4   9  18  33  54  77 108 143 181 224 280 332
#     4  11  19  34  57  85 110 134 186 239 277 316
#     4  10  18  27  52  86 105 128 183 241 272 310
#     4  10  18  32  56  78 109 147 188 221 278 337
#
# _framework density 18.087292000000001
#
# number of rings (size 3 to 8) (size 9 to 14) (size 15 to 20)
#    0.000    2.333    5.000    3.000    2.333    0.000 
#    0.000    3.333    0.000    1.000    0.000    0.000 
#    0.000    0.000    0.000    0.000    0.000    0.000 
#
# Total GULP energy -297314.823039 kJ/mol
# GULP energy per Si atom -12388.117627 kJ/mol
# Density = 1.804612 g / cm^3
# Si number density = 18.087292 Si / 1000 Ang^3
#
#
#
# Elastic Constant Matrix: (Units=GPa)
#
#
# Indices 1 2 3 4 5 6 
#
# 1 144.3919 37.8583 58.0999 0.0000 11.0106 0.0000
# 2 37.8583 66.2107 32.1562 0.0000 1.4566 0.0000
# 3 58.0999 32.1562 143.6587 0.0000 10.2827 0.0000
# 4 0.0000 0.0000 0.0000 13.9851 0.0000 -1.5700
# 5 11.0106 1.4566 10.2827 0.0000 38.4264 0.0000
# 6 0.0000 0.0000 0.0000 -1.5700 0.0000 17.7996
#
#
#
# Elastic Compliance Matrix: (Units=1/GPa)
#
#
# Indices 1 2 3 4 5 6 
#
# 1 0.009170 -0.003887 -0.002713 0.000000 -0.001754 0.000000
# 2 -0.003887 0.018599 -0.002671 0.000000 0.001124 0.000000
# 3 -0.002713 -0.002671 0.008761 0.000000 -0.001466 0.000000
# 4 0.000000 0.000000 0.000000 0.072220 0.000000 0.006370
# 5 -0.001754 0.001124 -0.001466 0.000000 0.026876 0.000000
# 6 0.000000 0.000000 0.000000 0.006370 0.000000 0.056743
#
#
# Mechanical properties :
#
#
# Convention : Reuss Voigt Hill
#
# Bulk Modulus (GPa) = 55.59682 67.83222 61.71452
# Shear Modulus (GPa) = 23.05127 29.11868 26.08497
#
# Velocity S-wave (km/s) = 3.57381 4.01671 3.80171
# Velocity P-wave (km/s) = 6.91623 7.68739 7.31199
#
# Compressibility (1/GPa) = 0.01798664
#
# Stress axis : x y z
#
# Youngs Moduli (GPa) = 109.04874 53.76741 114.14147
#
# Poissons Ratio (x) = 0.20900 0.30967
# Poissons Ratio (y) = 0.42389 0.30492
# Poissons Ratio (z) = 0.29585 0.14363
#
# Static dielectric constant tensor:
#      x y z
#    x 4.201440 0.000000 0.685990 
#    y 0.000000 2.706940 0.000000 
#    z 0.685990 0.000000 4.667580 
# 
# 
# High freq. dielectric constant tensor:
#      x y z
#    x 1.721140 0.000000 0.008520 
#    y 0.000000 1.615810 0.000000 
#    z 0.008520 0.000000 1.728600 
# 
# From -- ./inp_files/189849.got.cif
#   From: 2010.06.25/outbox.cif.g09.slc.cpg/sg15_95_cif.got.tgz:189849.got - 2010.06.28 07:06:18.
