data_PCOD8130740
_publ_section_title
;
Structure prediction by ZEFSAII (Michael W. Deem and Ramdas Pophale) SiO2 
 PCOD8130740
Probable space group: C 2/C
;
_chemical_formula_sum "Si O2"
_cell_formula_units_Z 60
_cell_length_a 11.775686
_cell_length_b 15.765942
_cell_length_c 17.614827
_cell_angle_alpha 90.000000
_cell_angle_beta 73.217066
_cell_angle_gamma 90.000000
_cell_volume 3130.981216
_symmetry_space_group_name_H-M "C 2/C"
_symmetry_group_IT_number 15
_symmetry_cell_setting 'monoclinic'
loop_
_space_group_symop_operation_xyz
x,y,z
-x,y,1/2-z
-x,-y,-z
x,-y,1/2+z
1/2+x,1/2+y,z
1/2-x,1/2+y,1/2-z
1/2-x,1/2-y,-z
1/2+x,1/2-y,1/2+z
loop_
_atom_site_type_symbol
_atom_site_label
_atom_site_fract_x
_atom_site_fract_y
_atom_site_fract_z
Si Si1 0.411781 0.003230 0.327902
Si Si2 0.784776 0.611920 0.472248
Si Si3 0.579924 0.626367 0.951502
Si Si4 0.594786 0.490977 0.577490
Si Si5 0.603649 0.257069 0.955162
Si Si6 0.000000 0.025591 0.750000
Si Si7 0.949637 0.670608 0.683320
Si Si8 0.778558 0.901208 0.209530
O O1 0.500000 0.048120 0.250000
O O2 0.384463 0.063872 0.403869
O O3 0.473698 0.915581 0.345067
O O4 0.288514 0.985862 0.307085
O O5 0.710949 0.546941 0.538236
O O6 0.704326 0.669570 0.431328
O O7 0.849215 0.669882 0.520908
O O8 0.520488 0.541655 0.928454
O O9 0.689340 0.649221 0.875167
O O10 0.613936 0.598959 0.031015
O O11 0.496903 0.708395 0.968815
O O12 0.568940 0.471247 0.671720
O O13 0.543185 0.237805 0.885987
O O14 0.898346 0.084311 0.733384
O O15 0.809826 0.651935 0.720724
O O16 0.000000 0.714684 0.750000
#
# Coordination Sequence:
#
# PCOD8130740 Si02
#       8
#     8   8   8   8   8   4   8   8
#     4   9  19  37  61  78 108 156 197 227 273 339
#     4  10  19  36  59  81 111 151 187 238 283 328
#     4   9  17  32  52  75 109 148 175 224 284 335
#     4   9  17  30  53  78 108 143 181 226 276 328
#     4  10  21  34  54  85 116 143 185 235 293 338
#     4  10  18  26  52  92 104 132 194 246 266 316
#     4   9  20  39  58  77 111 160 188 225 283 346
#     4   9  17  34  57  78 110 150 191 227 281 341
#
# _framework density 19.163321
#
# number of rings (size 3 to 8) (size 9 to 14) (size 15 to 20)
#    0.000    2.933    1.333    0.800    1.867    1.600 
#    3.600    2.667    2.933    0.000    0.000    0.000 
#    0.000    0.000    0.000    0.000    0.000    0.000 
#
# Total GULP energy -371673.746803 kJ/mol
# GULP energy per Si atom -12389.124893 kJ/mol
# Density = 1.911970 g / cm^3
# Si number density = 19.163321 Si / 1000 Ang^3
#
#
#
# Elastic Constant Matrix: (Units=GPa)
#
#
# Indices 1 2 3 4 5 6 
#
# 1 97.1069 23.3845 39.7399 0.0000 -4.8535 0.0000
# 2 23.3845 38.2354 24.9543 0.0000 -4.2389 0.0000
# 3 39.7399 24.9543 127.4043 0.0000 -11.5759 0.0000
# 4 0.0000 0.0000 0.0000 19.1470 0.0000 1.6293
# 5 -4.8535 -4.2389 -11.5759 0.0000 34.1247 0.0000
# 6 0.0000 0.0000 0.0000 1.6293 0.0000 17.2102
#
#
#
# Elastic Compliance Matrix: (Units=1/GPa)
#
#
# Indices 1 2 3 4 5 6 
#
# 1 0.012918 -0.006036 -0.002836 0.000000 0.000126 0.000000
# 2 -0.006036 0.032913 -0.004406 0.000000 0.001735 0.000000
# 3 -0.002836 -0.004406 0.009813 0.000000 0.002378 0.000000
# 4 0.000000 0.000000 0.000000 0.052652 0.000000 -0.004985
# 5 0.000126 0.001735 0.002378 0.000000 0.030344 0.000000
# 6 0.000000 0.000000 0.000000 -0.004985 0.000000 0.058577
#
#
# Mechanical properties :
#
#
# Convention : Reuss Voigt Hill
#
# Bulk Modulus (GPa) = 34.37807 48.76711 41.57259
# Shear Modulus (GPa) = 21.41607 25.74091 23.57849
#
# Velocity S-wave (km/s) = 3.34661 3.66900 3.51151
# Velocity P-wave (km/s) = 5.73686 6.59182 6.17914
#
# Compressibility (1/GPa) = 0.02908831
#
# Stress axis : x y z
#
# Youngs Moduli (GPa) = 77.40980 30.38267 101.90894
#
# Poissons Ratio (x) = 0.18339 0.28899
# Poissons Ratio (y) = 0.46725 0.44904
# Poissons Ratio (z) = 0.21952 0.13387
#
# Static dielectric constant tensor:
#      x y z
#    x 3.511280 0.000000 -0.094780 
#    y 0.000000 3.084400 0.000000 
#    z -0.094780 0.000000 3.840720 
# 
# 
# High freq. dielectric constant tensor:
#      x y z
#    x 1.740570 0.000000 -0.011310 
#    y 0.000000 1.700280 0.000000 
#    z -0.011310 0.000000 1.758620 
# 
# From -- ./inp_files/199136.got.cif
#   From: 2010.06.25/outbox.cif.g09.slc.cpg/sg15_100_cif.got.tgz:199136.got - 2010.06.28 07:06:18.
