data_PCOD8130208
_publ_section_title
;
Structure prediction by ZEFSAII (Michael W. Deem and Ramdas Pophale) SiO2 
 PCOD8130208
Probable space group: C 2/C
;
_chemical_formula_sum "Si O2"
_cell_formula_units_Z 48
_cell_length_a 12.653962
_cell_length_b 14.669281
_cell_length_c 13.948711
_cell_angle_alpha 90.000000
_cell_angle_beta 102.309681
_cell_angle_gamma 90.000000
_cell_volume 2529.695487
_symmetry_space_group_name_H-M "C 2/C"
_symmetry_group_IT_number 15
_symmetry_cell_setting 'monoclinic'
loop_
_space_group_symop_operation_xyz
x,y,z
-x,y,1/2-z
-x,-y,-z
x,-y,1/2+z
1/2+x,1/2+y,z
1/2-x,1/2+y,1/2-z
1/2-x,1/2-y,-z
1/2+x,1/2-y,1/2+z
loop_
_atom_site_type_symbol
_atom_site_label
_atom_site_fract_x
_atom_site_fract_y
_atom_site_fract_z
Si Si1 0.253591 0.935114 0.685722
Si Si2 0.001468 0.377058 0.968426
Si Si3 0.127440 0.084307 0.776204
Si Si4 0.549331 0.038939 0.856096
Si Si5 0.254495 0.642793 0.510005
Si Si6 0.103526 0.723680 0.203070
O O1 0.194407 0.892835 0.580701
O O2 0.307397 0.852547 0.755394
O O3 0.176913 0.992863 0.740532
O O4 0.334724 0.004752 0.651981
O O5 0.973035 0.458902 0.887232
O O6 0.947069 0.286808 0.913357
O O7 0.130220 0.383853 0.004777
O O8 0.943354 0.384655 0.060200
O O9 0.171036 0.102017 0.891773
O O10 0.155841 0.175904 0.721363
O O11 0.000000 0.068746 0.750000
O O12 0.500000 0.081390 0.750000
O O13 0.250000 0.750000 0.500000
O O14 0.000000 0.710678 0.250000
#
# Coordination Sequence:
#
# PCOD8130208 Si02
#       6
#     8   8   8   8   8   8
#     4  11  21  36  62  87 118 153 198 248 291 352
#     4  10  19  30  59  89 115 143 188 253 296 342
#     4  11  25  40  60  86 120 160 201 245 293 349
#     4  10  17  30  53  90 117 139 185 246 308 336
#     4  11  20  37  63  88 112 159 208 237 287 359
#     4  11  18  39  62  89 115 149 200 244 292 352
#
# _framework density 18.974616000000001
#
# number of rings (size 3 to 8) (size 9 to 14) (size 15 to 20)
#    0.000    1.333    6.667    2.000    4.667    0.667 
#    0.000    0.833    3.667    0.000    0.000    0.000 
#    0.000    0.000    0.000    0.000    0.000    0.000 
#
# Total GULP energy -297331.165984 kJ/mol
# GULP energy per Si atom -12388.798583 kJ/mol
# Density = 1.893143 g / cm^3
# Si number density = 18.974616 Si / 1000 Ang^3
#
#
#
# Elastic Constant Matrix: (Units=GPa)
#
#
# Indices 1 2 3 4 5 6 
#
# 1 60.3629 38.8164 27.3509 0.0000 3.5133 0.0000
# 2 38.8164 101.8507 39.6025 0.0000 -1.9434 0.0000
# 3 27.3509 39.6025 132.0137 0.0000 6.4585 0.0000
# 4 0.0000 0.0000 0.0000 14.5741 0.0000 -3.5764
# 5 3.5133 -1.9434 6.4585 0.0000 28.0230 0.0000
# 6 0.0000 0.0000 0.0000 -3.5764 0.0000 27.3120
#
#
#
# Elastic Compliance Matrix: (Units=1/GPa)
#
#
# Indices 1 2 3 4 5 6 
#
# 1 0.022812 -0.007886 -0.002219 0.000000 -0.002896 0.000000
# 2 -0.007886 0.013909 -0.002664 0.000000 0.002567 0.000000
# 3 -0.002219 -0.002664 0.008930 0.000000 -0.001965 0.000000
# 4 0.000000 0.000000 0.000000 0.070893 0.000000 0.009283
# 5 -0.002896 0.002567 -0.001965 0.000000 0.036679 0.000000
# 6 0.000000 0.000000 0.000000 0.009283 0.000000 0.037830
#
#
# Mechanical properties :
#
#
# Convention : Reuss Voigt Hill
#
# Bulk Modulus (GPa) = 49.72159 56.19635 52.95897
# Shear Modulus (GPa) = 22.39199 26.54563 24.46881
#
# Velocity S-wave (km/s) = 3.43899 3.74439 3.59493
# Velocity P-wave (km/s) = 6.48306 6.95520 6.72327
#
# Compressibility (1/GPa) = 0.02011199
#
# Stress axis : x y z
#
# Youngs Moduli (GPa) = 43.83735 71.89723 111.98234
#
# Poissons Ratio (x) = 0.56700 0.24846
# Poissons Ratio (y) = 0.34571 0.29834
# Poissons Ratio (z) = 0.09726 0.19154
#
# Static dielectric constant tensor:
#      x y z
#    x 4.229290 0.000000 -0.433060 
#    y 0.000000 3.590060 0.000000 
#    z -0.433060 0.000000 3.224570 
# 
# 
# High freq. dielectric constant tensor:
#      x y z
#    x 1.703370 0.000000 0.013870 
#    y 0.000000 1.722800 0.000000 
#    z 0.013870 0.000000 1.755160 
# 
# From -- ./inp_files/143759.got.cif
#   From: 2010.06.25/outbox.cif.g09.slc.cpg/sg15_72_cif.got.tgz:143759.got - 2010.06.28 07:06:18.
