data_PCOD8130738
_publ_section_title
;
Structure prediction by ZEFSAII (Michael W. Deem and Ramdas Pophale) SiO2 
 PCOD8130738
Probable space group: C 2/C
;
_chemical_formula_sum "Si O2"
_cell_formula_units_Z 48
_cell_length_a 19.487110
_cell_length_b 15.250383
_cell_length_c 8.979897
_cell_angle_alpha 90.000000
_cell_angle_beta 79.466768
_cell_angle_gamma 90.000000
_cell_volume 2623.728568
_symmetry_space_group_name_H-M "C 2/C"
_symmetry_group_IT_number 15
_symmetry_cell_setting 'monoclinic'
loop_
_space_group_symop_operation_xyz
x,y,z
-x,y,1/2-z
-x,-y,-z
x,-y,1/2+z
1/2+x,1/2+y,z
1/2-x,1/2+y,1/2-z
1/2-x,1/2-y,-z
1/2+x,1/2-y,1/2+z
loop_
_atom_site_type_symbol
_atom_site_label
_atom_site_fract_x
_atom_site_fract_y
_atom_site_fract_z
Si Si1 0.921457 0.845585 0.642937
Si Si2 0.714268 0.432819 0.186666
Si Si3 0.932545 0.189391 0.472545
Si Si4 0.064622 0.041667 0.812567
Si Si5 0.293075 0.257220 0.135740
Si Si6 0.268949 0.609122 0.143148
O O1 0.909528 0.807254 0.811016
O O2 0.846776 0.849086 0.593591
O O3 0.984001 0.787962 0.539732
O O4 0.954177 0.942554 0.638684
O O5 0.632618 0.448225 0.181208
O O6 0.727838 0.351621 0.290396
O O7 0.739334 0.522560 0.253816
O O8 0.755001 0.415009 0.015141
O O9 0.919523 0.091780 0.540372
O O10 0.877108 0.252746 0.576858
O O11 0.000000 0.085094 0.750000
O O12 0.278422 0.182767 0.263058
O O13 0.250000 0.250000 0.000000
#
# Coordination Sequence:
#
# PCOD8130738 Si02
#       6
#     8   8   8   8   8   8
#     4  10  19  27  49  70 106 136 177 204 259 311
#     4  10  23  33  53  79 105 141 183 211 261 317
#     4  10  19  30  42  73 100 139 176 207 252 313
#     4  10  18  26  46  70 108 138 167 204 253 312
#     4  11  21  36  52  73 109 143 180 219 261 306
#     4  11  21  36  54  76 110 143 176 221 260 312
#
# _framework density 18.294574000000001
#
# number of rings (size 3 to 8) (size 9 to 14) (size 15 to 20)
#    0.000    1.667    3.333    3.000   11.667    0.000 
#    0.000    0.000    0.000    0.000    0.000    1.167 
#    0.000    5.333    0.000    3.000    0.000    0.000 
#
# Total GULP energy -297336.948754 kJ/mol
# GULP energy per Si atom -12389.039531 kJ/mol
# Density = 1.825294 g / cm^3
# Si number density = 18.294574 Si / 1000 Ang^3
#
#
#
# Elastic Constant Matrix: (Units=GPa)
#
#
# Indices 1 2 3 4 5 6 
#
# 1 65.9195 43.6207 43.8894 0.0000 -13.4885 0.0000
# 2 43.6207 76.1058 30.9499 0.0000 -14.9259 0.0000
# 3 43.8894 30.9499 95.2140 0.0000 -17.5354 0.0000
# 4 0.0000 0.0000 0.0000 32.2027 0.0000 -4.1848
# 5 -13.4885 -14.9259 -17.5354 0.0000 27.6320 0.0000
# 6 0.0000 0.0000 0.0000 -4.1848 0.0000 24.3101
#
#
#
# Elastic Compliance Matrix: (Units=1/GPa)
#
#
# Indices 1 2 3 4 5 6 
#
# 1 0.030705 -0.013405 -0.009477 0.000000 0.001734 0.000000
# 2 -0.013405 0.021837 0.000054 0.000000 0.005287 0.000000
# 3 -0.009477 0.000054 0.015861 0.000000 0.005468 0.000000
# 4 0.000000 0.000000 0.000000 0.031764 0.000000 0.005468
# 5 0.001734 0.005287 0.005468 0.000000 0.043362 0.000000
# 6 0.000000 0.000000 0.000000 0.005468 0.000000 0.042076
#
#
# Mechanical properties :
#
#
# Convention : Reuss Voigt Hill
#
# Bulk Modulus (GPa) = 43.96012 52.68435 48.32224
# Shear Modulus (GPa) = 20.93426 24.74757 22.84091
#
# Velocity S-wave (km/s) = 3.38640 3.68193 3.53726
# Velocity P-wave (km/s) = 6.27467 6.85097 6.56915
#
# Compressibility (1/GPa) = 0.02274789
#
# Stress axis : x y z
#
# Youngs Moduli (GPa) = 32.56818 45.79295 63.04937
#
# Poissons Ratio (x) = 0.61384 0.59752
# Poissons Ratio (y) = 0.43657 -0.00342
# Poissons Ratio (z) = 0.30865 -0.00249
#
# Static dielectric constant tensor:
#      x y z
#    x 3.346190 0.000000 -0.186980 
#    y 0.000000 3.096530 0.000000 
#    z -0.186980 0.000000 3.583950 
# 
# 
# High freq. dielectric constant tensor:
#      x y z
#    x 1.687190 0.000000 -0.006840 
#    y 0.000000 1.661580 0.000000 
#    z -0.006840 0.000000 1.731300 
# 
# From -- ./inp_files/55235.got.cif
#   From: 2010.06.25/outbox.cif.g09.slc.cpg/sg15_28_cif.got.tgz:55235.got - 2010.06.28 07:06:18.
