data_PCOD8130621
_publ_section_title
;
Structure prediction by ZEFSAII (Michael W. Deem and Ramdas Pophale) SiO2 
 PCOD8130621
Probable space group: C 2/C
;
_chemical_formula_sum "Si O2"
_cell_formula_units_Z 64
_cell_length_a 18.766236
_cell_length_b 11.405705
_cell_length_c 17.203358
_cell_angle_alpha 90.000000
_cell_angle_beta 53.829106
_cell_angle_gamma 90.000000
_cell_volume 2972.528959
_symmetry_space_group_name_H-M "C 2/C"
_symmetry_group_IT_number 15
_symmetry_cell_setting 'monoclinic'
loop_
_space_group_symop_operation_xyz
x,y,z
-x,y,1/2-z
-x,-y,-z
x,-y,1/2+z
1/2+x,1/2+y,z
1/2-x,1/2+y,1/2-z
1/2-x,1/2-y,-z
1/2+x,1/2-y,1/2+z
loop_
_atom_site_type_symbol
_atom_site_label
_atom_site_fract_x
_atom_site_fract_y
_atom_site_fract_z
Si Si1 0.015554 0.175497 0.331218
Si Si2 0.595445 0.449170 0.315634
Si Si3 0.887887 0.959910 0.022452
Si Si4 0.385857 0.908998 0.950292
Si Si5 0.923832 0.156724 0.886970
Si Si6 0.965232 0.562391 0.684446
Si Si7 0.703585 0.951899 0.649137
Si Si8 0.225620 0.822270 0.142407
O O1 0.044092 0.304735 0.340107
O O2 0.000000 0.174889 0.250000
O O3 0.926955 0.132170 0.434150
O O4 0.097363 0.088388 0.296657
O O5 0.564567 0.436622 0.425311
O O6 0.522484 0.391478 0.303241
O O7 0.689854 0.387321 0.242636
O O8 0.782905 0.953973 0.106431
O O9 0.899251 0.091878 0.983001
O O10 0.437311 0.794215 0.888754
O O11 0.326134 0.961470 0.920576
O O12 0.463640 0.001239 0.919588
O O13 0.322422 0.875275 0.062968
O O14 0.842923 0.136175 0.880237
O O15 0.000000 0.557497 0.750000
O O16 0.872056 0.494466 0.742062
O O17 0.729858 0.817205 0.651490
#
# Coordination Sequence:
#
# PCOD8130621 Si02
#       8
#     8   8   8   8   8   8   8   8
#     4  10  21  40  60  84 112 155 203 234 285 354
#     4  11  23  35  58  87 119 159 195 237 300 355
#     4  11  21  39  58  84 121 158 192 239 300 361
#     4  10  18  34  63  90 115 141 195 260 298 337
#     4  10  17  35  61  86 112 149 192 254 296 336
#     4   9  20  37  57  87 119 152 189 241 298 349
#     4  10  19  38  61  88 122 149 192 253 311 339
#     4  11  19  35  61  95 113 144 205 252 297 342
#
# _framework density 21.530487000000001
#
# number of rings (size 3 to 8) (size 9 to 14) (size 15 to 20)
#    0.000    1.750    2.500    4.875    0.000    2.000 
#    4.500    1.875    0.000    4.500    0.000    0.000 
#    0.000    0.000    0.000    0.000    0.000    0.000 
#
# Total GULP energy -396477.255034 kJ/mol
# GULP energy per Si atom -12389.914220 kJ/mol
# Density = 2.148148 g / cm^3
# Si number density = 21.530487 Si / 1000 Ang^3
#
#
#
# Elastic Constant Matrix: (Units=GPa)
#
#
# Indices 1 2 3 4 5 6 
#
# 1 31.6149 21.7523 14.7642 0.0000 -6.7085 0.0000
# 2 21.7523 113.2160 60.5016 0.0000 -19.8857 0.0000
# 3 14.7642 60.5016 111.6133 0.0000 -24.6760 0.0000
# 4 0.0000 0.0000 0.0000 27.5658 0.0000 -10.4083
# 5 -6.7085 -19.8857 -24.6760 0.0000 39.7658 0.0000
# 6 0.0000 0.0000 0.0000 -10.4083 0.0000 13.4430
#
#
#
# Elastic Compliance Matrix: (Units=1/GPa)
#
#
# Indices 1 2 3 4 5 6 
#
# 1 0.036832 -0.006091 -0.001008 0.000000 0.002542 0.000000
# 2 -0.006091 0.013636 -0.006149 0.000000 0.001976 0.000000
# 3 -0.001008 -0.006149 0.013570 0.000000 0.005176 0.000000
# 4 0.000000 0.000000 0.000000 0.051263 0.000000 0.039691
# 5 0.002542 0.001976 0.005176 0.000000 0.029776 0.000000
# 6 0.000000 0.000000 0.000000 0.039691 0.000000 0.105119
#
#
# Mechanical properties :
#
#
# Convention : Reuss Voigt Hill
#
# Bulk Modulus (GPa) = 26.63750 50.05338 38.34544
# Shear Modulus (GPa) = 17.28865 26.78334 22.03599
#
# Velocity S-wave (km/s) = 2.83677 3.53083 3.20266
# Velocity P-wave (km/s) = 4.80922 6.31826 5.61467
#
# Compressibility (1/GPa) = 0.03754106
#
# Stress axis : x y z
#
# Youngs Moduli (GPa) = 27.15032 73.33530 73.69006
#
# Poissons Ratio (x) = 0.44670 0.07430
# Poissons Ratio (y) = 0.16538 0.45312
# Poissons Ratio (z) = 0.02738 0.45094
#
# Static dielectric constant tensor:
#      x y z
#    x 3.794430 0.000000 -0.349790 
#    y 0.000000 3.927690 0.000000 
#    z -0.349790 0.000000 4.097500 
# 
# 
# High freq. dielectric constant tensor:
#      x y z
#    x 1.819770 0.000000 -0.019340 
#    y 0.000000 1.834150 0.000000 
#    z -0.019340 0.000000 1.850550 
# 
# From -- ./inp_files/215050.got.cif
#   From: 2010.06.25/outbox.cif.g09.slc.cpg/sg15_108_cif.got.tgz:215050.got - 2010.06.28 07:06:18.
