data_PCOD8130310
_publ_section_title
;
Structure prediction by ZEFSAII (Michael W. Deem and Ramdas Pophale) SiO2 
 PCOD8130310
Probable space group: C 2/C
;
_chemical_formula_sum "Si O2"
_cell_formula_units_Z 56
_cell_length_a 26.702429
_cell_length_b 8.710852
_cell_length_c 18.627303
_cell_angle_alpha 90.000000
_cell_angle_beta 47.971128
_cell_angle_gamma 90.000000
_cell_volume 3218.382748
_symmetry_space_group_name_H-M "C 2/C"
_symmetry_group_IT_number 15
_symmetry_cell_setting 'monoclinic'
loop_
_space_group_symop_operation_xyz
x,y,z
-x,y,1/2-z
-x,-y,-z
x,-y,1/2+z
1/2+x,1/2+y,z
1/2-x,1/2+y,1/2-z
1/2-x,1/2-y,-z
1/2+x,1/2-y,1/2+z
loop_
_atom_site_type_symbol
_atom_site_label
_atom_site_fract_x
_atom_site_fract_y
_atom_site_fract_z
Si Si1 0.196236 0.261745 0.614003
Si Si2 0.816807 0.881952 0.229134
Si Si3 0.580563 0.101650 0.990248
Si Si4 0.577181 0.902622 0.660117
Si Si5 0.565015 0.842027 0.901862
Si Si6 0.188333 0.761688 0.788477
Si Si7 0.358855 0.954574 0.281240
O O1 0.250000 0.250000 0.500000
O O2 0.202961 0.128138 0.667158
O O3 0.121052 0.260987 0.651067
O O4 0.204296 0.426230 0.648350
O O5 0.890881 0.812012 0.144208
O O6 0.764848 0.787661 0.229771
O O7 0.817587 0.056743 0.204278
O O8 0.643016 0.188730 0.894353
O O9 0.573100 0.926098 0.970664
O O10 0.594590 0.084831 0.060560
O O11 0.513064 0.199859 0.037858
O O12 0.500000 0.866695 0.750000
O O13 0.602645 0.059074 0.678039
O O14 0.586368 0.967524 0.822999
O O15 0.166388 0.703338 0.729763
#
# Coordination Sequence:
#
# PCOD8130310 Si02
#       7
#     8   8   8   8   8   8   8
#     4   9  18  32  55  79 106 140 183 222 269 337
#     4  11  21  37  55  78 111 145 183 236 278 322
#     4  10  18  33  59  86 105 146 183 229 268 334
#     4  10  17  31  58  80 111 143 180 219 273 330
#     4   9  18  34  56  83 109 137 191 223 268 327
#     4  11  22  35  58  77 111 146 191 230 278 327
#     4   8  18  33  52  80 107 140 183 220 273 324
#
# _framework density 17.400043
#
# number of rings (size 3 to 8) (size 9 to 14) (size 15 to 20)
#    0.857    1.429    1.429    3.429    0.000    0.571 
#    0.000    0.714    6.286    0.857    0.000    0.000 
#    0.000    0.000    0.000    0.000    0.000    0.000 
#
# Total GULP energy -346885.660041 kJ/mol
# GULP energy per Si atom -12388.773573 kJ/mol
# Density = 1.736044 g / cm^3
# Si number density = 17.400043 Si / 1000 Ang^3
#
#
#
# Elastic Constant Matrix: (Units=GPa)
#
#
# Indices 1 2 3 4 5 6 
#
# 1 107.6441 32.3820 34.6739 -0.0008 12.8791 0.0001
# 2 32.3820 71.0198 15.8221 0.0019 9.6715 -0.0019
# 3 34.6739 15.8221 79.7625 0.0020 10.4178 -0.0007
# 4 -0.0008 0.0019 0.0020 20.2904 -0.0009 1.2802
# 5 12.8791 9.6715 10.4178 -0.0009 34.7472 0.0006
# 6 0.0001 -0.0019 -0.0007 1.2802 0.0006 26.1446
#
#
#
# Elastic Compliance Matrix: (Units=1/GPa)
#
#
# Indices 1 2 3 4 5 6 
#
# 1 0.012186 -0.004348 -0.004166 0.000001 -0.002057 0.000000
# 2 -0.004348 0.016669 -0.001062 -0.000002 -0.002709 0.000001
# 3 -0.004166 -0.001062 0.014902 -0.000002 -0.002628 0.000000
# 4 0.000001 -0.000002 -0.000002 0.049437 0.000002 -0.002421
# 5 -0.002057 -0.002709 -0.002628 0.000002 0.031084 -0.000001
# 6 0.000000 0.000001 0.000000 -0.002421 -0.000001 0.038367
#
#
# Mechanical properties :
#
#
# Convention : Reuss Voigt Hill
#
# Bulk Modulus (GPa) = 40.64423 47.13139 43.88781
# Shear Modulus (GPa) = 26.31578 27.93968 27.12773
#
# Velocity S-wave (km/s) = 3.89317 4.01150 3.95278
# Velocity P-wave (km/s) = 6.60443 6.97150 6.79045
#
# Compressibility (1/GPa) = 0.02460374
#
# Stress axis : x y z
#
# Youngs Moduli (GPa) = 82.06126 59.99252 67.10353
#
# Poissons Ratio (x) = 0.26084 0.27957
# Poissons Ratio (y) = 0.35680 0.07130
# Poissons Ratio (z) = 0.34189 0.06374
#
# Static dielectric constant tensor:
#      x y z
#    x 3.423570 -0.000010 0.107220 
#    y -0.000010 2.892830 0.000010 
#    z 0.107220 0.000010 3.360880 
# 
# 
# High freq. dielectric constant tensor:
#      x y z
#    x 1.685260 0.000000 0.002440 
#    y 0.000000 1.624550 0.000000 
#    z 0.002440 0.000000 1.680340 
# 
# From -- ./inp_files/221640.got.cif
#   From: 2010.06.25/outbox.cif.g09.slc.cpg/sg15_111_cif.got.tgz:221640.got - 2010.06.28 07:06:18.
