data_PCOD8130125
_publ_section_title
;
Structure prediction by ZEFSAII (Michael W. Deem and Ramdas Pophale) SiO2 
 PCOD8130125
Probable space group: C 2/C
;
_chemical_formula_sum "Si O2"
_cell_formula_units_Z 56
_cell_length_a 10.125747
_cell_length_b 19.717717
_cell_length_c 17.444879
_cell_angle_alpha 90.000000
_cell_angle_beta 110.577144
_cell_angle_gamma 90.000000
_cell_volume 3260.770352
_symmetry_space_group_name_H-M "C 2/C"
_symmetry_group_IT_number 15
_symmetry_cell_setting 'monoclinic'
loop_
_space_group_symop_operation_xyz
x,y,z
-x,y,1/2-z
-x,-y,-z
x,-y,1/2+z
1/2+x,1/2+y,z
1/2-x,1/2+y,1/2-z
1/2-x,1/2-y,-z
1/2+x,1/2-y,1/2+z
loop_
_atom_site_type_symbol
_atom_site_label
_atom_site_fract_x
_atom_site_fract_y
_atom_site_fract_z
Si Si1 0.343038 0.565800 0.448593
Si Si2 0.658989 0.311177 0.450745
Si Si3 0.830613 0.798716 0.381759
Si Si4 0.325365 0.420564 0.483535
Si Si5 0.840184 0.773731 0.213362
Si Si6 0.844543 0.851974 0.806239
Si Si7 0.670511 0.660497 0.368372
O O1 0.283969 0.622165 0.494891
O O2 0.262968 0.495282 0.452568
O O3 0.509871 0.566683 0.494752
O O4 0.313249 0.583126 0.353221
O O5 0.750000 0.250000 0.500000
O O6 0.495921 0.293168 0.435043
O O7 0.679744 0.323538 0.363445
O O8 0.767823 0.864387 0.412135
O O9 0.799403 0.810026 0.284981
O O10 0.753869 0.730906 0.396741
O O11 0.281655 0.395506 0.559650
O O12 0.745766 0.708776 0.178298
O O13 0.000000 0.747372 0.250000
O O14 0.800815 0.870199 0.710309
O O15 0.004896 0.825895 0.845258
#
# Coordination Sequence:
#
# PCOD8130125 Si02
#       7
#     8   8   8   8   8   8   8
#     4   9  17  29  46  66  95 123 150 188 227 275
#     4  10  17  29  49  70  92 120 156 191 228 269
#     4   9  18  30  47  72  93 119 153 193 232 269
#     4   9  17  30  44  68  96 121 152 184 230 276
#     4   9  17  29  46  73  92 115 153 195 233 268
#     4   9  16  29  47  72  91 119 153 191 236 271
#     4   9  17  29  48  71  93 118 157 193 230 274
#
# _framework density 17.173855
#
# number of rings (size 3 to 8) (size 9 to 14) (size 15 to 20)
#    0.000    2.857    1.429    0.429    0.000    0.000 
#    2.571    0.000    0.000    0.857    7.429    0.000 
#    0.000    0.000    0.000    0.000    0.000    0.000 
#
# Total GULP energy -346984.694104 kJ/mol
# GULP energy per Si atom -12392.310504 kJ/mol
# Density = 1.713477 g / cm^3
# Si number density = 17.173855 Si / 1000 Ang^3
#
#
#
# Elastic Constant Matrix: (Units=GPa)
#
#
# Indices 1 2 3 4 5 6 
#
# 1 39.3645 37.5991 33.2032 0.0000 -14.6573 0.0000
# 2 37.5991 148.4845 78.1770 0.0000 -19.8041 0.0000
# 3 33.2032 78.1770 108.1011 0.0000 -24.4473 0.0000
# 4 0.0000 0.0000 0.0000 22.5551 0.0000 -3.9799
# 5 -14.6573 -19.8041 -24.4473 0.0000 24.3109 0.0000
# 6 0.0000 0.0000 0.0000 -3.9799 0.0000 20.3752
#
#
#
# Elastic Compliance Matrix: (Units=1/GPa)
#
#
# Indices 1 2 3 4 5 6 
#
# 1 0.040543 -0.005649 -0.005022 0.000000 0.014792 0.000000
# 2 -0.005649 0.011691 -0.006907 0.000000 -0.000828 0.000000
# 3 -0.005022 -0.006907 0.017902 0.000000 0.009348 0.000000
# 4 0.000000 0.000000 0.000000 0.045918 0.000000 0.008969
# 5 0.014792 -0.000828 0.009348 0.000000 0.058778 0.000000
# 6 0.000000 0.000000 0.000000 0.008969 0.000000 0.050831
#
#
# Mechanical properties :
#
#
# Convention : Reuss Voigt Hill
#
# Bulk Modulus (GPa) = 28.58784 65.98986 47.28885
# Shear Modulus (GPa) = 18.34983 23.24629 20.79806
#
# Velocity S-wave (km/s) = 3.27230 3.68310 3.48376
# Velocity P-wave (km/s) = 5.56413 7.52297 6.61644
#
# Compressibility (1/GPa) = 0.03497990
#
# Stress axis : x y z
#
# Youngs Moduli (GPa) = 24.66498 85.53319 55.85849
#
# Poissons Ratio (x) = 0.48320 0.28053
# Poissons Ratio (y) = 0.13934 0.38582
# Poissons Ratio (z) = 0.12387 0.59078
#
# Static dielectric constant tensor:
#      x y z
#    x 3.066560 0.000000 -0.229120 
#    y 0.000000 3.308250 0.000000 
#    z -0.229120 0.000000 3.472860 
# 
# 
# High freq. dielectric constant tensor:
#      x y z
#    x 1.636330 0.000000 -0.020480 
#    y 0.000000 1.640390 0.000000 
#    z -0.020480 0.000000 1.676820 
# 
# From -- ./inp_files/191017.got.cif
#   From: 2010.06.25/outbox.cif.g09.slc.cpg/sg15_96_cif.got.tgz:191017.got - 2010.06.28 07:06:18.
