data_PCOD8130963
_publ_section_title
;
Structure prediction by ZEFSAII (Michael W. Deem and Ramdas Pophale) SiO2 
 PCOD8130963
Probable space group: C 2/C
;
_chemical_formula_sum "Si O2"
_cell_formula_units_Z 64
_cell_length_a 19.628404
_cell_length_b 14.652071
_cell_length_c 11.966399
_cell_angle_alpha 90.000000
_cell_angle_beta 111.493664
_cell_angle_gamma 90.000000
_cell_volume 3202.169372
_symmetry_space_group_name_H-M "C 2/C"
_symmetry_group_IT_number 15
_symmetry_cell_setting 'monoclinic'
loop_
_space_group_symop_operation_xyz
x,y,z
-x,y,1/2-z
-x,-y,-z
x,-y,1/2+z
1/2+x,1/2+y,z
1/2-x,1/2+y,1/2-z
1/2-x,1/2-y,-z
1/2+x,1/2-y,1/2+z
loop_
_atom_site_type_symbol
_atom_site_label
_atom_site_fract_x
_atom_site_fract_y
_atom_site_fract_z
Si Si1 0.283133 0.343777 0.245137
Si Si2 0.203951 0.350426 0.776827
Si Si3 0.131094 0.843491 0.550804
Si Si4 0.158616 0.020061 0.870063
Si Si5 0.308721 0.807508 0.105251
Si Si6 0.821342 0.540031 0.450626
Si Si7 0.921514 0.844168 0.748936
Si Si8 0.340165 0.151147 0.003161
O O1 0.322392 0.246960 0.290725
O O2 0.339518 0.425694 0.249510
O O3 0.230894 0.365010 0.318945
O O4 0.239462 0.332098 0.100466
O O5 0.291269 0.349708 0.839879
O O6 0.179926 0.428911 0.678036
O O7 0.164194 0.365699 0.868450
O O8 0.125831 0.915718 0.447672
O O9 0.072912 0.863217 0.614374
O O10 0.112257 0.740964 0.494288
O O11 0.240004 0.984605 0.947355
O O12 0.104769 0.934791 0.830221
O O13 0.367499 0.740400 0.194447
O O14 0.250000 0.750000 0.000000
O O15 0.350020 0.880631 0.050372
O O16 0.870942 0.447393 0.478549
O O17 0.000000 0.815998 0.750000
#
# Coordination Sequence:
#
# PCOD8130963 Si02
#       8
#     8   8   8   8   8   8   8   8
#     4  10  18  30  54  85 115 155 198 256 311 355
#     4  11  16  32  49  88 120 152 196 258 319 361
#     4  11  19  38  56  78 123 160 209 247 300 376
#     4  11  21  34  59  90 119 161 198 259 307 364
#     4  12  21  38  58  89 125 159 205 262 313 361
#     4  11  22  29  56  95 124 150 192 262 326 358
#     4  12  27  42  59  88 129 175 210 244 310 384
#     4  10  20  31  54  89 121 154 197 255 329 361
#
# _framework density 19.986452
#
# number of rings (size 3 to 8) (size 9 to 14) (size 15 to 20)
#    0.000    1.000   10.000    0.750    5.250    0.500 
#    0.000    0.000    0.000    0.750    0.000    0.875 
#    0.000    0.000    0.000    0.000    0.000    0.000 
#
# Total GULP energy -396559.972479 kJ/mol
# GULP energy per Si atom -12392.499140 kJ/mol
# Density = 1.994096 g / cm^3
# Si number density = 19.986452 Si / 1000 Ang^3
#
#
#
# Elastic Constant Matrix: (Units=GPa)
#
#
# Indices 1 2 3 4 5 6 
#
# 1 59.5034 14.5393 34.7212 0.0000 -21.6696 0.0000
# 2 14.5393 127.5182 47.2135 0.0000 -18.2748 0.0000
# 3 34.7212 47.2135 96.1476 0.0000 -38.7526 0.0000
# 4 0.0000 0.0000 0.0000 31.5805 0.0000 -9.7537
# 5 -21.6696 -18.2748 -38.7526 0.0000 27.3703 0.0000
# 6 0.0000 0.0000 0.0000 -9.7537 0.0000 17.0325
#
#
#
# Elastic Compliance Matrix: (Units=1/GPa)
#
#
# Indices 1 2 3 4 5 6 
#
# 1 0.023859 0.000462 -0.002574 0.000000 0.015554 0.000000
# 2 0.000462 0.009598 -0.005007 0.000000 -0.000315 0.000000
# 3 -0.002574 -0.005007 0.027065 0.000000 0.032940 0.000000
# 4 0.000000 0.000000 0.000000 0.038469 0.000000 0.022029
# 5 0.015554 -0.000315 0.032940 0.000000 0.095279 0.000000
# 6 0.000000 0.000000 0.000000 0.022029 0.000000 0.071326
#
#
# Mechanical properties :
#
#
# Convention : Reuss Voigt Hill
#
# Bulk Modulus (GPa) = 21.60538 52.90192 37.25365
# Shear Modulus (GPa) = 16.93406 27.64300 22.28853
#
# Velocity S-wave (km/s) = 2.91396 3.72302 3.34306
# Velocity P-wave (km/s) = 4.70691 6.70877 5.79494
#
# Compressibility (1/GPa) = 0.04628476
#
# Stress axis : x y z
#
# Youngs Moduli (GPa) = 41.91274 104.18837 36.94754
#
# Poissons Ratio (x) = -0.04810 0.09509
# Poissons Ratio (y) = -0.01935 0.18499
# Poissons Ratio (z) = 0.10787 0.52165
#
# Static dielectric constant tensor:
#      x y z
#    x 3.028970 0.000000 -0.444520 
#    y 0.000000 4.305860 0.000000 
#    z -0.444520 0.000000 3.640270 
# 
# 
# High freq. dielectric constant tensor:
#      x y z
#    x 1.697910 0.000000 -0.053810 
#    y 0.000000 1.812270 0.000000 
#    z -0.053810 0.000000 1.773840 
# 
# From -- ./inp_files/112749.got.cif
#   From: 2010.06.25/outbox.cif.g09.slc.cpg/sg15_57_cif.got.tgz:112749.got - 2010.06.28 07:06:18.
