data_PCOD8130369
_publ_section_title
;
Structure prediction by ZEFSAII (Michael W. Deem and Ramdas Pophale) SiO2 
 PCOD8130369
Probable space group: C 2/C
;
_chemical_formula_sum "Si O2"
_cell_formula_units_Z 44
_cell_length_a 26.207375
_cell_length_b 21.404217
_cell_length_c 5.342848
_cell_angle_alpha 90.000000
_cell_angle_beta 53.632234
_cell_angle_gamma 90.000000
_cell_volume 2413.316583
_symmetry_space_group_name_H-M "C 2/C"
_symmetry_group_IT_number 15
_symmetry_cell_setting 'monoclinic'
loop_
_space_group_symop_operation_xyz
x,y,z
-x,y,1/2-z
-x,-y,-z
x,-y,1/2+z
1/2+x,1/2+y,z
1/2-x,1/2+y,1/2-z
1/2-x,1/2-y,-z
1/2+x,1/2-y,1/2+z
loop_
_atom_site_type_symbol
_atom_site_label
_atom_site_fract_x
_atom_site_fract_y
_atom_site_fract_z
Si Si1 0.914381 0.038376 0.208064
Si Si2 0.612893 0.713045 0.621475
Si Si3 0.286752 0.392739 0.130305
Si Si4 0.661117 0.252963 0.481288
Si Si5 0.758329 0.142320 0.213253
Si Si6 0.500000 0.639650 0.750000
O O1 0.840956 0.056423 0.431575
O O2 0.931080 0.002055 0.413434
O O3 0.957379 0.100013 0.067186
O O4 0.622563 0.758018 0.350707
O O5 0.667169 0.659484 0.466870
O O6 0.544592 0.680994 0.798882
O O7 0.616085 0.754002 0.867335
O O8 0.249799 0.404874 0.501020
O O9 0.311300 0.322349 0.100435
O O10 0.240191 0.394178 0.023324
O O11 0.718556 0.204903 0.294245
#
# Coordination Sequence:
#
# PCOD8130369 Si02
#       6
#     8   8   8   8   8   4
#     4  12  26  39  50  64  91 137 186 223 251 275
#     4  10  20  30  49  68  92 118 151 205 256 286
#     4  10  18  33  49  70  89 111 156 209 263 281
#     4  10  18  32  52  73  90 108 146 206 267 305
#     4  10  17  32  54  72  89 109 142 210 266 308
#     4  12  24  40  50  64  98 134 184 220 256 274
#
# _framework density 18.232168999999999
#
# number of rings (size 3 to 8) (size 9 to 14) (size 15 to 20)
#    0.000    1.455    3.636    7.091    2.545    2.182 
#    0.000    0.000    0.000    0.000    0.000    0.000 
#    0.000    0.000    0.000    0.000    0.000    0.000 
#
# Total GULP energy -272628.104237 kJ/mol
# GULP energy per Si atom -12392.186556 kJ/mol
# Density = 1.819067 g / cm^3
# Si number density = 18.232169 Si / 1000 Ang^3
#
#
#
# Elastic Constant Matrix: (Units=GPa)
#
#
# Indices 1 2 3 4 5 6 
#
# 1 106.4234 32.0273 59.4774 0.0000 29.5197 0.0000
# 2 32.0273 15.9297 15.1358 0.0000 -1.3372 0.0000
# 3 59.4774 15.1358 94.5330 0.0000 49.4764 0.0000
# 4 0.0000 0.0000 0.0000 24.6237 0.0000 -10.4595
# 5 29.5197 -1.3372 49.4764 0.0000 44.4075 0.0000
# 6 0.0000 0.0000 0.0000 -10.4595 0.0000 21.6187
#
#
#
# Elastic Compliance Matrix: (Units=1/GPa)
#
#
# Indices 1 2 3 4 5 6 
#
# 1 0.063252 -0.154643 0.022566 0.000000 -0.071845 0.000000
# 2 -0.154643 0.490754 -0.102704 0.000000 0.232004 0.000000
# 3 0.022566 -0.102704 0.053478 0.000000 -0.077676 0.000000
# 4 0.000000 0.000000 0.000000 0.051116 0.000000 0.024731
# 5 -0.071845 0.232004 -0.077676 0.000000 0.163807 0.000000
# 6 0.000000 0.000000 0.000000 0.024731 0.000000 0.058222
#
#
# Mechanical properties :
#
#
# Convention : Reuss Voigt Hill
#
# Bulk Modulus (GPa) = 7.25048 47.79635 27.52342
# Shear Modulus (GPa) = 3.58124 25.47967 14.53045
#
# Velocity S-wave (km/s) = 1.40303 3.74239 2.82612
# Velocity P-wave (km/s) = 2.57100 6.70420 5.07722
#
# Compressibility (1/GPa) = 0.13792189
#
# Stress axis : x y z
#
# Youngs Moduli (GPa) = 15.80974 2.03768 18.69912
#
# Poissons Ratio (x) = 0.31511 -0.42197
# Poissons Ratio (y) = 2.44487 1.92047
# Poissons Ratio (z) = -0.35676 0.20928
#
# Static dielectric constant tensor:
#      x y z
#    x 3.861020 0.000000 0.992150 
#    y 0.000000 2.968680 0.000000 
#    z 0.992150 0.000000 4.307380 
# 
# 
# High freq. dielectric constant tensor:
#      x y z
#    x 1.699820 0.000000 0.050500 
#    y 0.000000 1.646000 0.000000 
#    z 0.050500 0.000000 1.710530 
# 
# From -- ./inp_files/12914.got.cif
#   From: 2010.06.25/outbox.cif.g09.slc.cpg/sg15_7_cif.got.tgz:12914.got - 2010.06.28 07:06:18.
