data_PCOD8130955
_publ_section_title
;
Structure prediction by ZEFSAII (Michael W. Deem and Ramdas Pophale) SiO2 
 PCOD8130955
Probable space group: C 2/C
;
_chemical_formula_sum "Si O2"
_cell_formula_units_Z 56
_cell_length_a 23.254930
_cell_length_b 7.470847
_cell_length_c 21.254480
_cell_angle_alpha 90.000000
_cell_angle_beta 50.936786
_cell_angle_gamma 90.000000
_cell_volume 2867.144020
_symmetry_space_group_name_H-M "C 2/C"
_symmetry_group_IT_number 15
_symmetry_cell_setting 'monoclinic'
loop_
_space_group_symop_operation_xyz
x,y,z
-x,y,1/2-z
-x,-y,-z
x,-y,1/2+z
1/2+x,1/2+y,z
1/2-x,1/2+y,1/2-z
1/2-x,1/2-y,-z
1/2+x,1/2-y,1/2+z
loop_
_atom_site_type_symbol
_atom_site_label
_atom_site_fract_x
_atom_site_fract_y
_atom_site_fract_z
Si Si1 0.680723 0.670171 0.293842
Si Si2 0.933962 0.262792 0.035919
Si Si3 0.821391 0.218381 0.755600
Si Si4 0.756920 0.790235 0.122345
Si Si5 0.702918 0.569522 0.600879
Si Si6 0.596252 0.836007 0.915734
Si Si7 0.181589 0.131211 0.479671
O O1 0.597435 0.706608 0.374116
O O2 0.737569 0.701464 0.313553
O O3 0.687955 0.464494 0.275049
O O4 0.702500 0.797466 0.220367
O O5 0.919139 0.473990 0.041752
O O6 0.892953 0.151256 0.009533
O O7 0.021160 0.218799 0.971374
O O8 0.845521 0.167978 0.810198
O O9 0.877664 0.343550 0.676314
O O10 0.724169 0.635583 0.100363
O O11 0.840581 0.752694 0.086123
O O12 0.759637 0.980901 0.085584
O O13 0.779441 0.676966 0.541980
O O14 0.657098 0.574238 0.567488
#
# Coordination Sequence:
#
# PCOD8130955 Si02
#       7
#     8   8   8   8   8   8   8
#     4  10  18  30  54  77 108 132 183 223 275 330
#     4  11  20  36  52  83 110 144 185 229 282 332
#     4  10  19  33  51  79 105 142 176 229 274 323
#     4  10  20  36  57  86 110 141 180 233 278 325
#     4  10  21  36  53  84 111 138 189 220 266 332
#     4  10  22  33  55  79 115 141 180 238 281 329
#     4  11  21  34  58  78 111 149 175 227 269 326
#
# _framework density 19.531631000000001
#
# number of rings (size 3 to 8) (size 9 to 14) (size 15 to 20)
#    0.000    1.714    2.857    3.857    2.000    2.286 
#    0.000    0.714    0.000    0.000    0.000    3.000 
#    0.000    0.000    0.000    0.000    0.000    0.000 
#
# Total GULP energy -346993.526643 kJ/mol
# GULP energy per Si atom -12392.625952 kJ/mol
# Density = 1.948718 g / cm^3
# Si number density = 19.531631 Si / 1000 Ang^3
#
#
#
# Elastic Constant Matrix: (Units=GPa)
#
#
# Indices 1 2 3 4 5 6 
#
# 1 66.3602 16.0522 51.7924 0.0022 4.1574 0.0106
# 2 16.0522 53.5555 20.2997 0.0008 13.3263 0.0242
# 3 51.7924 20.2997 105.5274 0.0129 0.6433 -0.0101
# 4 0.0022 0.0008 0.0129 12.2654 -0.0089 3.1944
# 5 4.1574 13.3263 0.6433 -0.0089 36.1514 0.0043
# 6 0.0106 0.0242 -0.0101 3.1944 0.0043 22.5650
#
#
#
# Elastic Compliance Matrix: (Units=1/GPa)
#
#
# Indices 1 2 3 4 5 6 
#
# 1 0.024973 -0.002611 -0.011744 0.000011 -0.001701 -0.000015
# 2 -0.002611 0.022580 -0.003014 0.000002 -0.007970 -0.000023
# 3 -0.011744 -0.003014 0.015807 -0.000017 0.002180 0.000018
# 4 0.000011 0.000002 -0.000017 0.084651 0.000020 -0.011983
# 5 -0.001701 -0.007970 0.002180 0.000020 0.030756 0.000002
# 6 -0.000015 -0.000023 0.000018 -0.011983 0.000002 0.046013
#
#
# Mechanical properties :
#
#
# Convention : Reuss Voigt Hill
#
# Bulk Modulus (GPa) = 34.93693 44.63686 39.78689
# Shear Modulus (GPa) = 18.58333 23.34963 20.96648
#
# Velocity S-wave (km/s) = 3.08790 3.46132 3.27993
# Velocity P-wave (km/s) = 5.53531 6.23519 5.89564
#
# Compressibility (1/GPa) = 0.02862301
#
# Stress axis : x y z
#
# Youngs Moduli (GPa) = 40.04261 44.28667 63.26425
#
# Poissons Ratio (x) = 0.11561 0.74299
# Poissons Ratio (y) = 0.10453 0.19067
# Poissons Ratio (z) = 0.47027 0.13347
#
# Static dielectric constant tensor:
#      x y z
#    x 3.399720 -0.000050 0.011290 
#    y -0.000050 3.708880 0.000020 
#    z 0.011290 0.000020 4.227530 
# 
# 
# High freq. dielectric constant tensor:
#      x y z
#    x 1.709870 0.000000 0.014640 
#    y 0.000000 1.779420 0.000000 
#    z 0.014640 0.000000 1.763580 
# 
# From -- ./inp_files/256893.got.cif
#   From: 2010.06.25/outbox.cif.g09.slc.cpg/sg15_129_cif.got.tgz:256893.got - 2010.06.28 07:06:18.
