data_PCOD8130570
_publ_section_title
;
Structure prediction by ZEFSAII (Michael W. Deem and Ramdas Pophale) SiO2 
 PCOD8130570
Probable space group: C 2/C
;
_chemical_formula_sum "Si O2"
_cell_formula_units_Z 64
_cell_length_a 11.818444
_cell_length_b 15.760321
_cell_length_c 19.470416
_cell_angle_alpha 90.000000
_cell_angle_beta 60.356467
_cell_angle_gamma 90.000000
_cell_volume 3151.955137
_symmetry_space_group_name_H-M "C 2/C"
_symmetry_group_IT_number 15
_symmetry_cell_setting 'monoclinic'
loop_
_space_group_symop_operation_xyz
x,y,z
-x,y,1/2-z
-x,-y,-z
x,-y,1/2+z
1/2+x,1/2+y,z
1/2-x,1/2+y,1/2-z
1/2-x,1/2-y,-z
1/2+x,1/2-y,1/2+z
loop_
_atom_site_type_symbol
_atom_site_label
_atom_site_fract_x
_atom_site_fract_y
_atom_site_fract_z
Si Si1 0.329542 0.643467 0.064088
Si Si2 0.034875 0.692552 0.121680
Si Si3 0.605734 0.966506 0.814048
Si Si4 0.634573 0.931302 0.056983
Si Si5 0.773981 0.971819 0.147103
Si Si6 0.449627 0.815820 0.041395
Si Si7 0.478851 0.381332 0.378091
Si Si8 0.246363 0.529144 0.895357
O O1 0.181973 0.662815 0.088392
O O2 0.338346 0.562875 0.111349
O O3 0.394184 0.724611 0.082243
O O4 0.405930 0.620763 0.972477
O O5 0.014050 0.787285 0.156613
O O6 0.930697 0.631589 0.191236
O O7 0.001518 0.690084 0.051090
O O8 0.477369 0.004368 0.886909
O O9 0.645502 0.013048 0.731851
O O10 0.723677 0.974280 0.833273
O O11 0.733187 0.919940 0.091043
O O12 0.571992 0.841411 0.053080
O O13 0.711423 0.972170 0.971097
O O14 0.875600 0.915773 0.158507
O O15 0.338593 0.885849 0.081709
O O16 0.397352 0.443112 0.352449
#
# Coordination Sequence:
#
# PCOD8130570 Si02
#       8
#     8   8   8   8   8   8   8   8
#     4  11  20  36  64  92 123 152 204 258 310 346
#     4  11  18  38  65  94 115 151 207 268 294 350
#     4  11  22  38  61  85 123 159 211 244 307 365
#     4  11  20  36  64  86 121 161 206 245 303 364
#     4  12  25  39  55  92 128 170 189 252 315 371
#     4  10  17  34  61  97 109 150 205 254 296 349
#     4  11  22  38  63  92 127 151 207 252 311 360
#     4  11  18  37  65  89 116 157 202 262 300 357
#
# _framework density 20.304856999999998
#
# number of rings (size 3 to 8) (size 9 to 14) (size 15 to 20)
#    0.000    1.000    7.500    2.250    0.000    0.500 
#    4.500    5.000    0.000    0.000    0.000    0.000 
#    0.000    0.000    0.000    0.000    0.000    0.000 
#
# Total GULP energy -396827.349197 kJ/mol
# GULP energy per Si atom -12400.854662 kJ/mol
# Density = 2.025864 g / cm^3
# Si number density = 20.304857 Si / 1000 Ang^3
#
#
#
# Elastic Constant Matrix: (Units=GPa)
#
#
# Indices 1 2 3 4 5 6 
#
# 1 91.3092 39.1869 5.6560 0.0000 -2.7700 0.0000
# 2 39.1869 86.3225 13.4540 0.0000 -7.7385 0.0000
# 3 5.6560 13.4540 36.6102 0.0000 2.8733 0.0000
# 4 0.0000 0.0000 0.0000 17.0206 0.0000 -2.6718
# 5 -2.7700 -7.7385 2.8733 0.0000 19.6791 0.0000
# 6 0.0000 0.0000 0.0000 -2.6718 0.0000 40.1482
#
#
#
# Elastic Compliance Matrix: (Units=1/GPa)
#
#
# Indices 1 2 3 4 5 6 
#
# 1 0.013609 -0.006269 0.000247 0.000000 -0.000586 0.000000
# 2 -0.006269 0.015807 -0.005320 0.000000 0.006110 0.000000
# 3 0.000247 -0.005320 0.029734 0.000000 -0.006399 0.000000
# 4 0.000000 0.000000 0.000000 0.059373 0.000000 0.003951
# 5 -0.000586 0.006110 -0.006399 0.000000 0.054070 0.000000
# 6 0.000000 0.000000 0.000000 0.003951 0.000000 0.025171
#
#
# Mechanical properties :
#
#
# Convention : Reuss Voigt Hill
#
# Bulk Modulus (GPa) = 27.42235 36.75950 32.09093
# Shear Modulus (GPa) = 21.49586 25.76591 23.63089
#
# Velocity S-wave (km/s) = 3.25723 3.56610 3.41516
# Velocity P-wave (km/s) = 5.26124 5.92446 5.60267
#
# Compressibility (1/GPa) = 0.03646661
#
# Stress axis : x y z
#
# Youngs Moduli (GPa) = 73.47982 63.26185 33.63166
#
# Poissons Ratio (x) = 0.39659 -0.00832
# Poissons Ratio (y) = 0.46065 0.17892
# Poissons Ratio (z) = -0.01817 0.33656
#
# Static dielectric constant tensor:
#      x y z
#    x 3.911670 0.000000 0.150620 
#    y 0.000000 3.929280 0.000000 
#    z 0.150620 0.000000 3.517770 
# 
# 
# High freq. dielectric constant tensor:
#      x y z
#    x 1.787640 0.000000 0.004680 
#    y 0.000000 1.786440 0.000000 
#    z 0.004680 0.000000 1.774510 
# 
# From -- ./inp_files/238752.got.cif
#   From: 2010.06.25/outbox.cif.g09.slc.cpg/sg15_120_cif.got.tgz:238752.got - 2010.06.28 07:06:18.
