data_PCOD8130594
_publ_section_title
;
Structure prediction by ZEFSAII (Michael W. Deem and Ramdas Pophale) SiO2 
 PCOD8130594
Probable space group: C 2/C
;
_chemical_formula_sum "Si O2"
_cell_formula_units_Z 64
_cell_length_a 11.060614
_cell_length_b 18.089371
_cell_length_c 21.701301
_cell_angle_alpha 90.000000
_cell_angle_beta 55.266522
_cell_angle_gamma 90.000000
_cell_volume 3568.293474
_symmetry_space_group_name_H-M "C 2/C"
_symmetry_group_IT_number 15
_symmetry_cell_setting 'monoclinic'
loop_
_space_group_symop_operation_xyz
x,y,z
-x,y,1/2-z
-x,-y,-z
x,-y,1/2+z
1/2+x,1/2+y,z
1/2-x,1/2+y,1/2-z
1/2-x,1/2-y,-z
1/2+x,1/2-y,1/2+z
loop_
_atom_site_type_symbol
_atom_site_label
_atom_site_fract_x
_atom_site_fract_y
_atom_site_fract_z
Si Si1 0.866349 0.415027 0.826061
Si Si2 0.486054 0.487518 0.684247
Si Si3 0.334468 0.775405 0.289394
Si Si4 0.697654 0.054672 0.733556
Si Si5 0.003140 0.488727 0.602741
Si Si6 0.865090 0.832999 0.680569
Si Si7 0.707351 0.946594 0.945794
Si Si8 0.181681 0.216114 0.079323
O O1 0.846640 0.499889 0.808824
O O2 0.911192 0.423040 0.884947
O O3 0.727876 0.361126 0.852369
O O4 0.000000 0.377888 0.750000
O O5 0.500000 0.510721 0.750000
O O6 0.372958 0.546899 0.689592
O O7 0.414296 0.406035 0.703002
O O8 0.643808 0.495633 0.604368
O O9 0.500000 0.746603 0.250000
O O10 0.331840 0.861017 0.273891
O O11 0.270272 0.721123 0.253986
O O12 0.263033 0.762954 0.377284
O O13 0.603035 0.035862 0.821981
O O14 0.129270 0.537819 0.533737
O O15 0.903009 0.454988 0.578822
O O16 0.006107 0.786232 0.617752
O O17 0.756413 0.863866 0.928845
O O18 0.250000 0.250000 0.000000
#
# Coordination Sequence:
#
# PCOD8130594 Si02
#       8
#     8   8   8   8   8   8   8   8
#     4   9  19  33  57  80 107 138 184 230 273 323
#     4  10  17  35  56  79 107 139 186 229 268 322
#     4  10  20  34  56  81 108 144 185 226 276 329
#     4  10  20  33  58  82 110 141 186 238 270 324
#     4  10  20  35  57  82 108 144 181 232 277 329
#     4   9  19  35  56  81 103 143 184 228 270 329
#     4  10  21  35  58  81 109 145 185 226 277 337
#     4  10  22  35  55  80 111 143 182 229 278 330
#
# _framework density 17.935745000000001
#
# number of rings (size 3 to 8) (size 9 to 14) (size 15 to 20)
#    0.000    2.250    1.250    3.000    8.750    0.000 
#    2.250    2.500    0.000    0.750    0.000    0.000 
#    0.000    0.000    0.000    0.000    0.000    0.000 
#
# Total GULP energy -396517.233165 kJ/mol
# GULP energy per Si atom -12391.163536 kJ/mol
# Density = 1.789492 g / cm^3
# Si number density = 17.935745 Si / 1000 Ang^3
#
#
#
# Elastic Constant Matrix: (Units=GPa)
#
#
# Indices 1 2 3 4 5 6 
#
# 1 96.3440 27.2437 39.2906 0.0000 0.4423 0.0000
# 2 27.2437 54.3467 28.9852 0.0000 3.3678 0.0000
# 3 39.2906 28.9852 112.9959 0.0002 6.7752 -0.0001
# 4 0.0000 0.0000 0.0002 18.8339 -0.0001 -0.2705
# 5 0.4423 3.3678 6.7752 -0.0001 24.4921 0.0001
# 6 0.0000 0.0000 -0.0001 -0.2705 0.0001 16.7853
#
#
#
# Elastic Compliance Matrix: (Units=1/GPa)
#
#
# Indices 1 2 3 4 5 6 
#
# 1 0.013134 -0.004853 -0.003404 0.000000 0.001372 0.000000
# 2 -0.004853 0.023160 -0.004136 0.000000 -0.001953 0.000000
# 3 -0.003404 -0.004136 0.011243 0.000000 -0.002480 0.000000
# 4 0.000000 0.000000 0.000000 0.053108 0.000000 0.000856
# 5 0.001372 -0.001953 -0.002480 0.000000 0.041759 0.000000
# 6 0.000000 0.000000 0.000000 0.000856 0.000000 0.059590
#
#
# Mechanical properties :
#
#
# Convention : Reuss Voigt Hill
#
# Bulk Modulus (GPa) = 43.95626 50.52505 47.24065
# Shear Modulus (GPa) = 21.33421 23.23341 22.28381
#
# Velocity S-wave (km/s) = 3.45263 3.60303 3.52863
# Velocity P-wave (km/s) = 6.36042 6.74835 6.55726
#
# Compressibility (1/GPa) = 0.02274989
#
# Stress axis : x y z
#
# Youngs Moduli (GPa) = 76.13907 43.17708 88.94195
#
# Poissons Ratio (x) = 0.20955 0.30277
# Poissons Ratio (y) = 0.36953 0.36789
# Poissons Ratio (z) = 0.25919 0.17859
#
# Static dielectric constant tensor:
#      x y z
#    x 3.603110 0.000000 -0.089900 
#    y 0.000000 2.914860 0.000000 
#    z -0.089900 0.000000 3.367490 
# 
# 
# High freq. dielectric constant tensor:
#      x y z
#    x 1.697630 0.000000 0.000510 
#    y 0.000000 1.673080 0.000000 
#    z 0.000510 0.000000 1.689290 
# 
# From -- ./inp_files/270417.got.cif
#   From: 2010.06.25/outbox.cif.g09.slc.cpg/sg15_136_cif.got.tgz:270417.got - 2010.06.28 07:06:18.
