data_PCOD8130967
_publ_section_title
;
Structure prediction by ZEFSAII (Michael W. Deem and Ramdas Pophale) SiO2 
 PCOD8130967
Probable space group: C 2/C
;
_chemical_formula_sum "Si O2"
_cell_formula_units_Z 48
_cell_length_a 17.491920
_cell_length_b 8.767680
_cell_length_c 24.992567
_cell_angle_alpha 90.000000
_cell_angle_beta 137.516342
_cell_angle_gamma 90.000000
_cell_volume 2588.696669
_symmetry_space_group_name_H-M "C 2/C"
_symmetry_group_IT_number 15
_symmetry_cell_setting 'monoclinic'
loop_
_space_group_symop_operation_xyz
x,y,z
-x,y,1/2-z
-x,-y,-z
x,-y,1/2+z
1/2+x,1/2+y,z
1/2-x,1/2+y,1/2-z
1/2-x,1/2-y,-z
1/2+x,1/2-y,1/2+z
loop_
_atom_site_type_symbol
_atom_site_label
_atom_site_fract_x
_atom_site_fract_y
_atom_site_fract_z
Si Si1 0.581324 0.751903 0.677246
Si Si2 0.663374 0.681070 0.192848
Si Si3 0.484675 0.029202 0.909236
Si Si4 0.095016 0.926955 0.085330
Si Si5 0.162993 0.622353 0.077432
Si Si6 0.601378 0.491596 0.764199
O O1 0.710945 0.775601 0.724993
O O2 0.530873 0.646473 0.603794
O O3 0.581006 0.668185 0.734920
O O4 0.514192 0.914995 0.642277
O O5 0.594308 0.827868 0.140781
O O6 0.673753 0.563483 0.148572
O O7 0.599412 0.611052 0.210587
O O8 0.428186 0.930333 0.926529
O O9 0.610662 0.082499 0.991670
O O10 0.170849 0.806292 0.089965
O O11 0.000000 0.000000 0.000000
O O12 0.281439 0.532981 0.143396
O O13 0.500000 0.440110 0.750000
#
# Coordination Sequence:
#
# PCOD8130967 Si02
#       6
#     8   8   8   8   8   8
#     4  10  20  34  56  85 110 150 195 237 278 337
#     4  11  18  34  59  87 110 145 196 237 279 341
#     4  10  18  32  59  85 110 138 201 242 278 328
#     4  10  18  30  54  87 113 137 186 240 284 329
#     4  10  19  34  55  87 114 150 183 242 291 341
#     4  11  23  39  56  82 121 157 186 236 301 346
#
# _framework density 18.542148999999998
#
# number of rings (size 3 to 8) (size 9 to 14) (size 15 to 20)
#    0.000    1.667    6.667    1.000    0.000    0.000 
#    0.000    2.500    0.000    0.000    0.000    0.000 
#    0.000    0.000    0.000    0.000    0.000    0.000 
#
# Total GULP energy -297389.590958 kJ/mol
# GULP energy per Si atom -12391.232957 kJ/mol
# Density = 1.849995 g / cm^3
# Si number density = 18.542149 Si / 1000 Ang^3
#
#
#
# Elastic Constant Matrix: (Units=GPa)
#
#
# Indices 1 2 3 4 5 6 
#
# 1 51.4264 15.8529 23.2432 0.0000 0.2007 0.0000
# 2 15.8529 119.1627 54.3393 0.0000 -16.6712 0.0000
# 3 23.2432 54.3393 122.5204 0.0000 -19.7789 0.0000
# 4 0.0000 0.0000 0.0000 32.2572 0.0000 -3.8010
# 5 0.2007 -16.6712 -19.7789 0.0000 15.2713 0.0000
# 6 0.0000 0.0000 0.0000 -3.8010 0.0000 5.7756
#
#
#
# Elastic Compliance Matrix: (Units=1/GPa)
#
#
# Indices 1 2 3 4 5 6 
#
# 1 0.022228 -0.002010 -0.004712 0.000000 -0.008589 0.000000
# 2 -0.002010 0.011306 -0.003333 0.000000 0.008051 0.000000
# 3 -0.004712 -0.003333 0.012589 0.000000 0.012728 0.000000
# 4 0.000000 0.000000 0.000000 0.033607 0.000000 0.022117
# 5 -0.008589 0.008051 0.012728 0.000000 0.090869 0.000000
# 6 0.000000 0.000000 0.000000 0.022117 0.000000 0.187697
#
#
# Mechanical properties :
#
#
# Convention : Reuss Voigt Hill
#
# Bulk Modulus (GPa) = 38.44340 53.33113 45.88726
# Shear Modulus (GPa) = 12.91733 23.97242 18.44487
#
# Velocity S-wave (km/s) = 2.64227 3.59954 3.15739
# Velocity P-wave (km/s) = 5.48514 6.78971 6.17199
#
# Compressibility (1/GPa) = 0.02601227
#
# Stress axis : x y z
#
# Youngs Moduli (GPa) = 44.98814 88.45142 79.43589
#
# Poissons Ratio (x) = 0.17779 0.37430
# Poissons Ratio (y) = 0.09043 0.26477
# Poissons Ratio (z) = 0.21198 0.29482
#
# Static dielectric constant tensor:
#      x y z
#    x 2.859080 0.000000 -0.375310 
#    y 0.000000 3.943270 0.000000 
#    z -0.375310 0.000000 3.759820 
# 
# 
# High freq. dielectric constant tensor:
#      x y z
#    x 1.645240 0.000000 -0.033160 
#    y 0.000000 1.741440 0.000000 
#    z -0.033160 0.000000 1.732200 
# 
# From -- ./inp_files/159712.got.cif
#   From: 2010.06.25/outbox.cif.g09.slc.cpg/sg15_80_cif.got.tgz:159712.got - 2010.06.28 07:06:18.
