data_PCOD8130552
_publ_section_title
;
Structure prediction by ZEFSAII (Michael W. Deem and Ramdas Pophale) SiO2 
 PCOD8130552
Probable space group: C 2/C
;
_chemical_formula_sum "Si O2"
_cell_formula_units_Z 52
_cell_length_a 9.193658
_cell_length_b 16.318629
_cell_length_c 17.304800
_cell_angle_alpha 90.000000
_cell_angle_beta 86.348614
_cell_angle_gamma 90.000000
_cell_volume 2590.932443
_symmetry_space_group_name_H-M "C 2/C"
_symmetry_group_IT_number 15
_symmetry_cell_setting 'monoclinic'
loop_
_space_group_symop_operation_xyz
x,y,z
-x,y,1/2-z
-x,-y,-z
x,-y,1/2+z
1/2+x,1/2+y,z
1/2-x,1/2+y,1/2-z
1/2-x,1/2-y,-z
1/2+x,1/2-y,1/2+z
loop_
_atom_site_type_symbol
_atom_site_label
_atom_site_fract_x
_atom_site_fract_y
_atom_site_fract_z
Si Si1 0.396792 0.771097 0.392948
Si Si2 0.962641 0.407042 0.629339
Si Si3 0.207460 0.640506 0.214203
Si Si4 0.919022 0.583216 0.670094
Si Si5 0.500000 0.663075 0.250000
Si Si6 0.071770 0.239870 0.940358
Si Si7 0.127575 0.180155 0.684841
O O1 0.490751 0.853185 0.383255
O O2 0.420771 0.717473 0.316714
O O3 0.226358 0.793712 0.404463
O O4 0.446992 0.721134 0.467929
O O5 0.881208 0.370692 0.705436
O O6 0.913898 0.500422 0.617661
O O7 0.931917 0.340572 0.563642
O O8 0.135264 0.406421 0.644471
O O9 0.373377 0.607313 0.216621
O O10 0.215828 0.737811 0.200715
O O11 0.749525 0.609031 0.684442
O O12 0.000000 0.567311 0.750000
O O13 0.945238 0.193246 0.897378
O O14 0.000000 0.160370 0.750000
#
# Coordination Sequence:
#
# PCOD8130552 Si02
#       7
#     8   8   8   8   4   8   8
#     4  11  22  36  64  87 116 152 204 250 283 354
#     4  10  20  38  56  83 119 155 186 236 300 359
#     4  10  17  34  59  82 111 150 191 238 276 351
#     4  12  22  35  59  90 119 147 198 249 293 345
#     4  12  18  34  60  94 104 144 204 254 280 324
#     4  10  22  41  60  84 117 162 199 235 302 345
#     4  11  19  36  62  85 117 155 198 247 285 348
#
# _framework density 20.069996
#
# number of rings (size 3 to 8) (size 9 to 14) (size 15 to 20)
#    0.000    1.231    8.462    0.923    0.000    1.231 
#    1.385    0.000    0.000    1.846    0.000    0.000 
#    0.000    0.000    0.000    0.000    0.000    0.000 
#
# Total GULP energy -322176.624806 kJ/mol
# GULP energy per Si atom -12391.408646 kJ/mol
# Density = 2.002432 g / cm^3
# Si number density = 20.069996 Si / 1000 Ang^3
#
#
#
# Elastic Constant Matrix: (Units=GPa)
#
#
# Indices 1 2 3 4 5 6 
#
# 1 143.7047 33.4034 26.4056 0.0000 10.6392 0.0000
# 2 33.4034 69.7745 1.9275 0.0000 -1.9311 0.0000
# 3 26.4056 1.9275 76.4833 0.0000 -0.2826 0.0000
# 4 0.0000 0.0000 0.0000 5.3058 0.0000 7.3717
# 5 10.6392 -1.9311 -0.2826 0.0000 22.7710 0.0000
# 6 0.0000 0.0000 0.0000 7.3717 0.0000 17.7410
#
#
#
# Elastic Compliance Matrix: (Units=1/GPa)
#
#
# Indices 1 2 3 4 5 6 
#
# 1 0.008830 -0.004271 -0.002958 0.000000 -0.004524 0.000000
# 2 -0.004271 0.016441 0.001073 0.000000 0.003403 0.000000
# 3 -0.002958 0.001073 0.014075 0.000000 0.001648 0.000000
# 4 0.000000 0.000000 0.000000 0.445896 0.000000 -0.185278
# 5 -0.004524 0.003403 0.001648 0.000000 0.046338 0.000000
# 6 0.000000 0.000000 0.000000 -0.185278 0.000000 0.133353
#
#
# Mechanical properties :
#
#
# Convention : Reuss Voigt Hill
#
# Bulk Modulus (GPa) = 36.98967 45.93728 41.46348
# Shear Modulus (GPa) = 7.28591 24.37862 15.83227
#
# Velocity S-wave (km/s) = 1.90739 3.48901 2.81170
# Velocity P-wave (km/s) = 4.82920 6.25852 5.58974
#
# Compressibility (1/GPa) = 0.02703457
#
# Stress axis : x y z
#
# Youngs Moduli (GPa) = 113.25263 60.82374 71.04855
#
# Poissons Ratio (x) = 0.25976 0.21013
# Poissons Ratio (y) = 0.48366 -0.07621
# Poissons Ratio (z) = 0.33495 -0.06524
#
# Static dielectric constant tensor:
#      x y z
#    x 3.982500 0.000000 0.117170 
#    y 0.000000 3.482660 0.000000 
#    z 0.117170 0.000000 3.484780 
# 
# 
# High freq. dielectric constant tensor:
#      x y z
#    x 1.802450 0.000000 0.010030 
#    y 0.000000 1.746680 0.000000 
#    z 0.010030 0.000000 1.768580 
# 
# From -- ./inp_files/190382.got.cif
#   From: 2010.06.25/outbox.cif.g09.slc.cpg/sg15_96_cif.got.tgz:190382.got - 2010.06.28 07:06:18.
