data_PCOD8130750
_publ_section_title
;
Structure prediction by ZEFSAII (Michael W. Deem and Ramdas Pophale) SiO2 
 PCOD8130750
Probable space group: C 2/C
;
_chemical_formula_sum "Si O2"
_cell_formula_units_Z 40
_cell_length_a 16.710643
_cell_length_b 18.978116
_cell_length_c 9.310833
_cell_angle_alpha 90.000000
_cell_angle_beta 124.447780
_cell_angle_gamma 90.000000
_cell_volume 2435.007398
_symmetry_space_group_name_H-M "C 2/C"
_symmetry_group_IT_number 15
_symmetry_cell_setting 'monoclinic'
loop_
_space_group_symop_operation_xyz
x,y,z
-x,y,1/2-z
-x,-y,-z
x,-y,1/2+z
1/2+x,1/2+y,z
1/2-x,1/2+y,1/2-z
1/2-x,1/2-y,-z
1/2+x,1/2-y,1/2+z
loop_
_atom_site_type_symbol
_atom_site_label
_atom_site_fract_x
_atom_site_fract_y
_atom_site_fract_z
Si Si1 0.603614 0.736053 0.799598
Si Si2 0.718408 0.152151 0.593289
Si Si3 0.609498 0.956531 0.805330
Si Si4 0.131505 0.619467 0.785960
Si Si5 0.918807 0.650917 0.461920
O O1 0.500000 0.708617 0.750000
O O2 0.671436 0.668212 0.842656
O O3 0.594901 0.777858 0.641195
O O4 0.647806 0.785964 0.966984
O O5 0.683420 0.077665 0.494484
O O6 0.714596 0.147586 0.763042
O O7 0.500000 0.948761 0.750000
O O8 0.620347 0.916247 0.665536
O O9 0.640245 0.036226 0.815801
O O10 0.030379 0.638229 0.609501
O O11 0.142065 0.656827 0.951713
#
# Coordination Sequence:
#
# PCOD8130750 Si02
#       5
#     8   8   8   8   8
#     4  10  19  35  49  65  96 129 169 197 224 281
#     4  10  20  31  50  71  93 131 163 191 236 287
#     4  11  17  29  47  73 103 126 152 191 241 292
#     4  11  18  27  47  77 100 122 148 195 251 285
#     4  10  18  27  45  72 101 129 148 191 242 284
#
# _framework density 16.427053999999998
#
# number of rings (size 3 to 8) (size 9 to 14) (size 15 to 20)
#    0.000    1.600    6.000    3.000    0.000    0.800 
#    0.000    0.000    0.000    1.200    0.000    0.000 
#    0.000    0.000    0.000    0.000    0.000    0.000 
#
# Total GULP energy -247990.117044 kJ/mol
# GULP energy per Si atom -12399.505852 kJ/mol
# Density = 1.638967 g / cm^3
# Si number density = 16.427054 Si / 1000 Ang^3
#
#
#
# Elastic Constant Matrix: (Units=GPa)
#
#
# Indices 1 2 3 4 5 6 
#
# 1 126.1560 48.4457 55.3517 0.0000 -10.0624 0.0000
# 2 48.4457 68.1632 26.6260 0.0000 -0.4789 0.0000
# 3 55.3517 26.6260 55.0401 0.0000 -23.6096 0.0000
# 4 0.0000 0.0000 0.0000 9.8675 0.0000 -1.3440
# 5 -10.0624 -0.4789 -23.6096 0.0000 32.5939 0.0000
# 6 0.0000 0.0000 0.0000 -1.3440 0.0000 11.8596
#
#
#
# Elastic Compliance Matrix: (Units=1/GPa)
#
#
# Indices 1 2 3 4 5 6 
#
# 1 0.017345 -0.005210 -0.018365 0.000000 -0.008025 0.000000
# 2 -0.005210 0.021584 -0.008350 0.000000 -0.007340 0.000000
# 3 -0.018365 -0.008350 0.055409 0.000000 0.034343 0.000000
# 4 0.000000 0.000000 0.000000 0.102932 0.000000 0.011665
# 5 -0.008025 -0.007340 0.034343 0.000000 0.052972 0.000000
# 6 0.000000 0.000000 0.000000 0.011665 0.000000 0.085642
#
#
# Mechanical properties :
#
#
# Convention : Reuss Voigt Hill
#
# Bulk Modulus (GPa) = 32.80077 56.68957 44.74517
# Shear Modulus (GPa) = 12.19821 18.79326 15.49574
#
# Velocity S-wave (km/s) = 2.72797 3.38604 3.07466
# Velocity P-wave (km/s) = 5.47113 7.06200 6.31685
#
# Compressibility (1/GPa) = 0.03048709
#
# Stress axis : x y z
#
# Youngs Moduli (GPa) = 57.65244 46.33077 18.04775
#
# Poissons Ratio (x) = 0.24140 0.33145
# Poissons Ratio (y) = 0.30039 0.15070
# Poissons Ratio (z) = 1.05879 0.38685
#
# Static dielectric constant tensor:
#      x y z
#    x 3.125980 0.000000 -0.289890 
#    y 0.000000 2.937490 0.000000 
#    z -0.289890 0.000000 3.262840 
# 
# 
# High freq. dielectric constant tensor:
#      x y z
#    x 1.618390 0.000000 -0.030480 
#    y 0.000000 1.610140 0.000000 
#    z -0.030480 0.000000 1.629750 
# 
# From -- ./inp_files/31754.got.cif
#   From: 2010.06.25/outbox.cif.g09.slc.cpg/sg15_16_cif.got.tgz:31754.got - 2010.06.28 07:06:18.
