data_PCOD8130567
_publ_section_title
;
Structure prediction by ZEFSAII (Michael W. Deem and Ramdas Pophale) SiO2 
 PCOD8130567
Probable space group: C 2/C
;
_chemical_formula_sum "Si O2"
_cell_formula_units_Z 64
_cell_length_a 9.625766
_cell_length_b 14.961179
_cell_length_c 22.855218
_cell_angle_alpha 90.000000
_cell_angle_beta 89.784906
_cell_angle_gamma 90.000000
_cell_volume 3291.420931
_symmetry_space_group_name_H-M "C 2/C"
_symmetry_group_IT_number 15
_symmetry_cell_setting 'monoclinic'
loop_
_space_group_symop_operation_xyz
x,y,z
-x,y,1/2-z
-x,-y,-z
x,-y,1/2+z
1/2+x,1/2+y,z
1/2-x,1/2+y,1/2-z
1/2-x,1/2-y,-z
1/2+x,1/2-y,1/2+z
loop_
_atom_site_type_symbol
_atom_site_label
_atom_site_fract_x
_atom_site_fract_y
_atom_site_fract_z
Si Si1 0.988890 0.815320 0.568026
Si Si2 0.654463 0.735511 0.744528
Si Si3 0.143168 0.027793 0.724782
Si Si4 0.697925 0.818529 0.627347
Si Si5 0.516074 0.305082 0.435785
Si Si6 0.468769 0.506923 0.891557
Si Si7 0.792644 0.298401 0.365060
Si Si8 0.227646 0.507995 0.662421
O O1 0.010745 0.776476 0.503368
O O2 0.079399 0.760136 0.613799
O O3 0.829077 0.803672 0.585500
O O4 0.034050 0.919459 0.568053
O O5 0.500000 0.777416 0.750000
O O6 0.639044 0.634326 0.724494
O O7 0.736272 0.787551 0.693089
O O8 0.736680 0.745104 0.805151
O O9 0.155135 0.997635 0.656757
O O10 0.269642 0.994480 0.766395
O O11 0.000000 0.987625 0.750000
O O12 0.567599 0.766022 0.602430
O O13 0.657526 0.924016 0.630341
O O14 0.447568 0.403733 0.430040
O O15 0.674398 0.300808 0.414663
O O16 0.612500 0.519320 0.856899
O O17 0.849352 0.399550 0.353946
#
# Coordination Sequence:
#
# PCOD8130567 Si02
#       8
#     8   8   8   8   8   8   8   8
#     4  11  24  35  55  89 117 144 184 241 284 316
#     4  10  17  34  61  83 106 146 190 227 277 343
#     4   8  13  28  52  79 103 137 180 226 270 328
#     4  11  21  36  59  86 112 146 189 233 285 329
#     4  11  20  40  60  78 113 156 196 220 266 350
#     4   9  17  33  55  83 107 143 191 230 270 324
#     4  10  21  39  59  81 114 151 189 230 280 332
#     4   8  18  32  55  79 113 147 176 226 288 335
#
# _framework density 19.444489000000001
#
# number of rings (size 3 to 8) (size 9 to 14) (size 15 to 20)
#    0.000    2.250    2.500    2.625    1.750    0.500 
#    0.000    1.875    5.500    0.000    0.000    0.000 
#    0.000    0.000    0.000    0.000    0.000    0.000 
#
# Total GULP energy -396672.599132 kJ/mol
# GULP energy per Si atom -12396.018723 kJ/mol
# Density = 1.940023 g / cm^3
# Si number density = 19.444489 Si / 1000 Ang^3
#
#
#
# Elastic Constant Matrix: (Units=GPa)
#
#
# Indices 1 2 3 4 5 6 
#
# 1 24.9087 17.8241 0.9992 0.0000 8.0617 0.0000
# 2 17.8241 79.0350 8.6395 0.0000 17.3575 0.0000
# 3 0.9992 8.6395 92.2717 0.0000 5.0360 0.0000
# 4 0.0000 0.0000 0.0000 23.1031 0.0000 2.0270
# 5 8.0617 17.3575 5.0360 0.0000 24.0706 0.0000
# 6 0.0000 0.0000 0.0000 2.0270 0.0000 21.8318
#
#
#
# Elastic Compliance Matrix: (Units=1/GPa)
#
#
# Indices 1 2 3 4 5 6 
#
# 1 0.049970 -0.009089 0.000876 0.000000 -0.010365 0.000000
# 2 -0.009089 0.016749 -0.000988 0.000000 -0.008827 0.000000
# 3 0.000876 -0.000988 0.011024 0.000000 -0.001887 0.000000
# 4 0.000000 0.000000 0.000000 0.043640 0.000000 -0.004052
# 5 -0.010365 -0.008827 -0.001887 0.000000 0.051776 0.000000
# 6 0.000000 0.000000 0.000000 -0.004052 0.000000 0.046181
#
#
# Mechanical properties :
#
#
# Convention : Reuss Voigt Hill
#
# Bulk Modulus (GPa) = 16.85199 27.90456 22.37828
# Shear Modulus (GPa) = 19.41588 25.05127 22.23358
#
# Velocity S-wave (km/s) = 3.16338 3.59325 3.38515
# Velocity P-wave (km/s) = 4.69342 5.62115 5.17810
#
# Compressibility (1/GPa) = 0.05934016
#
# Stress axis : x y z
#
# Youngs Moduli (GPa) = 20.01207 59.70553 90.71456
#
# Poissons Ratio (x) = 0.54264 -0.07943
# Poissons Ratio (y) = 0.18188 0.08963
# Poissons Ratio (z) = -0.01752 0.05899
#
# Static dielectric constant tensor:
#      x y z
#    x 3.094930 0.000000 0.071420 
#    y 0.000000 3.576330 0.000000 
#    z 0.071420 0.000000 3.592200 
# 
# 
# High freq. dielectric constant tensor:
#      x y z
#    x 1.711120 0.000000 0.008570 
#    y 0.000000 1.756720 0.000000 
#    z 0.008570 0.000000 1.764740 
# 
# From -- ./inp_files/264695.got.cif
#   From: 2010.06.25/outbox.cif.g09.slc.cpg/sg15_133_cif.got.tgz:264695.got - 2010.06.28 07:06:18.
