data_PCOD8130640
_publ_section_title
;
Structure prediction by ZEFSAII (Michael W. Deem and Ramdas Pophale) SiO2 
 PCOD8130640
Probable space group: C 2/C
;
_chemical_formula_sum "Si O2"
_cell_formula_units_Z 64
_cell_length_a 15.560422
_cell_length_b 11.846492
_cell_length_c 23.055787
_cell_angle_alpha 90.000000
_cell_angle_beta 130.693062
_cell_angle_gamma 90.000000
_cell_volume 3222.422508
_symmetry_space_group_name_H-M "C 2/C"
_symmetry_group_IT_number 15
_symmetry_cell_setting 'monoclinic'
loop_
_space_group_symop_operation_xyz
x,y,z
-x,y,1/2-z
-x,-y,-z
x,-y,1/2+z
1/2+x,1/2+y,z
1/2-x,1/2+y,1/2-z
1/2-x,1/2-y,-z
1/2+x,1/2-y,1/2+z
loop_
_atom_site_type_symbol
_atom_site_label
_atom_site_fract_x
_atom_site_fract_y
_atom_site_fract_z
Si Si1 0.524301 0.404133 0.428542
Si Si2 0.245854 0.861255 0.596169
Si Si3 0.044292 0.346534 0.104600
Si Si4 0.885258 0.528937 0.067922
Si Si5 0.952242 0.325483 0.935682
Si Si6 0.311062 0.392195 0.097381
Si Si7 0.868268 0.892147 0.839687
Si Si8 0.740546 0.015211 0.173961
O O1 0.629686 0.407012 0.518227
O O2 0.439178 0.304182 0.410576
O O3 0.567650 0.385860 0.381364
O O4 0.457428 0.520158 0.405224
O O5 0.351419 0.935122 0.618684
O O6 0.260536 0.732195 0.583565
O O7 0.235903 0.872744 0.661188
O O8 0.064598 0.224386 0.141222
O O9 0.156138 0.421659 0.162973
O O10 0.936650 0.402441 0.089943
O O11 0.020913 0.338501 0.025607
O O12 0.979779 0.612824 0.085258
O O13 0.773874 0.535205 0.979523
O O14 0.829044 0.382639 0.886773
O O15 0.323630 0.456829 0.163791
O O16 0.819499 0.935835 0.758334
#
# Coordination Sequence:
#
# PCOD8130640 Si02
#       8
#     8   8   8   8   8   8   8   8
#     4  11  22  36  64  94 126 152 206 257 312 350
#     4  11  20  38  65  94 125 153 209 257 301 362
#     4  11  21  40  62  91 126 163 205 253 305 373
#     4  10  17  35  66  98 113 154 208 261 294 354
#     4  11  18  37  68  96 116 159 209 261 298 362
#     4  11  18  39  67  96 114 155 211 268 293 364
#     4  12  26  39  56  91 133 170 194 256 316 376
#     4  11  23  38  64  87 124 163 213 248 319 366
#
# _framework density 19.860833
#
# number of rings (size 3 to 8) (size 9 to 14) (size 15 to 20)
#    0.000    1.000    7.500    1.875    1.750    0.500 
#    0.000    6.250    2.750    0.000    0.000    0.000 
#    0.000    0.000    0.000    0.000    0.000    0.000 
#
# Total GULP energy -396820.692041 kJ/mol
# GULP energy per Si atom -12400.646626 kJ/mol
# Density = 1.981563 g / cm^3
# Si number density = 19.860833 Si / 1000 Ang^3
#
#
#
# Elastic Constant Matrix: (Units=GPa)
#
#
# Indices 1 2 3 4 5 6 
#
# 1 85.0939 44.7922 21.8564 0.0000 -13.5716 0.0000
# 2 44.7922 149.0349 41.6140 0.0000 6.2531 0.0000
# 3 21.8564 41.6140 70.4156 0.0000 -8.8476 0.0000
# 4 0.0000 0.0000 0.0000 31.5504 0.0000 -2.7228
# 5 -13.5716 6.2531 -8.8476 0.0000 19.4961 0.0000
# 6 0.0000 0.0000 0.0000 -2.7228 0.0000 37.2459
#
#
#
# Elastic Compliance Matrix: (Units=1/GPa)
#
#
# Indices 1 2 3 4 5 6 
#
# 1 0.016890 -0.005565 -0.000268 0.000000 0.013421 0.000000
# 2 -0.005565 0.010361 -0.005620 0.000000 -0.009747 0.000000
# 3 -0.000268 -0.005620 0.018886 0.000000 0.010187 0.000000
# 4 0.000000 0.000000 0.000000 0.031897 0.000000 0.002332
# 5 0.013421 -0.009747 0.010187 0.000000 0.068384 0.000000
# 6 0.000000 0.000000 0.000000 0.002332 0.000000 0.027019
#
#
# Mechanical properties :
#
#
# Convention : Reuss Voigt Hill
#
# Bulk Modulus (GPa) = 43.04541 57.89662 50.47102
# Shear Modulus (GPa) = 24.49953 30.74394 27.62174
#
# Velocity S-wave (km/s) = 3.51602 3.93869 3.73334
# Velocity P-wave (km/s) = 6.18092 7.06391 6.63711
#
# Compressibility (1/GPa) = 0.02323128
#
# Stress axis : x y z
#
# Youngs Moduli (GPa) = 59.20621 96.51957 52.94937
#
# Poissons Ratio (x) = 0.53710 0.01417
# Poissons Ratio (y) = 0.32946 0.29760
# Poissons Ratio (z) = 0.01585 0.54248
#
# Static dielectric constant tensor:
#      x y z
#    x 3.922110 0.000000 -0.149860 
#    y 0.000000 3.803210 0.000000 
#    z -0.149860 0.000000 3.286880 
# 
# 
# High freq. dielectric constant tensor:
#      x y z
#    x 1.770950 0.000000 -0.008890 
#    y 0.000000 1.777770 0.000000 
#    z -0.008890 0.000000 1.745230 
# 
# From -- ./inp_files/248647.got.cif
#   From: 2010.06.25/outbox.cif.g09.slc.cpg/sg15_125_cif.got.tgz:248647.got - 2010.06.28 07:06:18.
