data_PCOD8130545
_publ_section_title
;
Structure prediction by ZEFSAII (Michael W. Deem and Ramdas Pophale) SiO2 
 PCOD8130545
Probable space group: C 2/C
;
_chemical_formula_sum "Si O2"
_cell_formula_units_Z 52
_cell_length_a 10.237857
_cell_length_b 27.598641
_cell_length_c 11.477203
_cell_angle_alpha 90.000000
_cell_angle_beta 122.438234
_cell_angle_gamma 90.000000
_cell_volume 2736.906236
_symmetry_space_group_name_H-M "C 2/C"
_symmetry_group_IT_number 15
_symmetry_cell_setting 'monoclinic'
loop_
_space_group_symop_operation_xyz
x,y,z
-x,y,1/2-z
-x,-y,-z
x,-y,1/2+z
1/2+x,1/2+y,z
1/2-x,1/2+y,1/2-z
1/2-x,1/2-y,-z
1/2+x,1/2-y,1/2+z
loop_
_atom_site_type_symbol
_atom_site_label
_atom_site_fract_x
_atom_site_fract_y
_atom_site_fract_z
Si Si1 0.775857 0.904711 0.929013
Si Si2 0.406557 0.930083 0.436838
Si Si3 0.128363 0.478326 0.712534
Si Si4 0.912572 0.261549 0.519108
Si Si5 0.500000 0.833215 0.750000
Si Si6 0.392895 0.166193 0.808029
Si Si7 0.540525 0.338810 0.132141
O O1 0.777248 0.949630 0.837080
O O2 0.652687 0.865716 0.823593
O O3 0.728975 0.922536 0.034802
O O4 0.944127 0.880813 0.020721
O O5 0.563465 0.951671 0.566698
O O6 0.463126 0.879444 0.410273
O O7 0.334699 0.966252 0.304429
O O8 0.000000 0.476518 0.750000
O O9 0.750000 0.250000 0.500000
O O10 0.009729 0.299763 0.641092
O O11 0.886344 0.284769 0.380193
O O12 0.006492 0.212064 0.553122
O O13 0.500000 0.177765 0.750000
O O14 0.218986 0.149990 0.692658
O O15 0.500000 0.335973 0.250000
#
# Coordination Sequence:
#
# PCOD8130545 Si02
#       7
#     8   8   8   8   4   8   8
#     4  11  19  33  59  90 114 152 206 256 285 354
#     4  10  17  34  58  84 121 157 198 246 296 367
#     4   9  18  31  55  91 116 153 206 250 295 353
#     4  12  20  36  64  92 114 158 205 248 288 363
#     4  12  16  32  58  92 112 146 208 248 286 342
#     4  12  25  40  59  89 125 160 195 253 319 360
#     4  12  22  38  62  89 117 156 207 251 295 362
#
# _framework density 18.999555999999998
#
# number of rings (size 3 to 8) (size 9 to 14) (size 15 to 20)
#    0.000    0.923    9.231    0.462    0.000    0.615 
#    0.000    0.769    0.000    0.000    0.000    0.000 
#    0.000    0.000    0.000    0.000    0.000    0.000 
#
# Total GULP energy -322386.530953 kJ/mol
# GULP energy per Si atom -12399.481960 kJ/mol
# Density = 1.895631 g / cm^3
# Si number density = 18.999556 Si / 1000 Ang^3
#
#
#
# Elastic Constant Matrix: (Units=GPa)
#
#
# Indices 1 2 3 4 5 6 
#
# 1 84.7780 24.0237 39.3678 0.0000 -0.8727 0.0000
# 2 24.0237 107.7364 48.0838 0.0000 -12.2500 0.0000
# 3 39.3678 48.0838 93.4133 0.0000 -1.2785 0.0000
# 4 0.0000 0.0000 0.0000 49.3480 0.0000 -8.5252
# 5 -0.8727 -12.2500 -1.2785 0.0000 26.1778 0.0000
# 6 0.0000 0.0000 0.0000 -8.5252 0.0000 11.8270
#
#
#
# Elastic Compliance Matrix: (Units=1/GPa)
#
#
# Indices 1 2 3 4 5 6 
#
# 1 0.014703 -0.000682 -0.005847 0.000000 -0.000115 0.000000
# 2 -0.000682 0.012877 -0.006263 0.000000 0.005697 0.000000
# 3 -0.005847 -0.006263 0.016361 0.000000 -0.002327 0.000000
# 4 0.000000 0.000000 0.000000 0.023147 0.000000 0.016685
# 5 -0.000115 0.005697 -0.002327 0.000000 0.040749 0.000000
# 6 0.000000 0.000000 0.000000 0.016685 0.000000 0.096580
#
#
# Mechanical properties :
#
#
# Convention : Reuss Voigt Hill
#
# Bulk Modulus (GPa) = 54.47420 56.54204 55.50812
# Shear Modulus (GPa) = 21.17583 29.10071 25.13827
#
# Velocity S-wave (km/s) = 3.34210 3.91788 3.64139
# Velocity P-wave (km/s) = 6.60503 7.09159 6.85263
#
# Compressibility (1/GPa) = 0.01835731
#
# Stress axis : x y z
#
# Youngs Moduli (GPa) = 68.01519 77.65788 61.12069
#
# Poissons Ratio (x) = 0.05297 0.35735
# Poissons Ratio (y) = 0.04639 0.38279
# Poissons Ratio (z) = 0.39766 0.48636
#
# Static dielectric constant tensor:
#      x y z
#    x 3.052360 0.000000 0.004640 
#    y 0.000000 3.947430 0.000000 
#    z 0.004640 0.000000 3.859910 
# 
# 
# High freq. dielectric constant tensor:
#      x y z
#    x 1.685160 0.000000 -0.000400 
#    y 0.000000 1.757820 0.000000 
#    z -0.000400 0.000000 1.745030 
# 
# From -- ./inp_files/82332.got.cif
#   From: 2010.06.25/outbox.cif.g09.slc.cpg/sg15_42_cif.got.tgz:82332.got - 2010.06.28 07:06:18.
