data_PCOD8130836
_publ_section_title
;
Structure prediction by ZEFSAII (Michael W. Deem and Ramdas Pophale) SiO2 
 PCOD8130836
Probable space group: C 2/C
;
_chemical_formula_sum "Si O2"
_cell_formula_units_Z 52
_cell_length_a 15.025893
_cell_length_b 27.799408
_cell_length_c 8.863734
_cell_angle_alpha 90.000000
_cell_angle_beta 136.659936
_cell_angle_gamma 90.000000
_cell_volume 2541.111306
_symmetry_space_group_name_H-M "C 2/C"
_symmetry_group_IT_number 15
_symmetry_cell_setting 'monoclinic'
loop_
_space_group_symop_operation_xyz
x,y,z
-x,y,1/2-z
-x,-y,-z
x,-y,1/2+z
1/2+x,1/2+y,z
1/2-x,1/2+y,1/2-z
1/2-x,1/2-y,-z
1/2+x,1/2-y,1/2+z
loop_
_atom_site_type_symbol
_atom_site_label
_atom_site_fract_x
_atom_site_fract_y
_atom_site_fract_z
Si Si1 0.238676 0.803799 0.929335
Si Si2 0.858949 0.949194 0.017745
Si Si3 0.500000 0.143462 0.750000
Si Si4 0.127074 0.563837 0.739324
Si Si5 0.557652 0.652546 0.970989
Si Si6 0.619576 0.380595 0.994237
Si Si7 0.795849 0.495042 0.416487
O O1 0.142443 0.808657 0.667356
O O2 0.178900 0.832992 0.993232
O O3 0.250000 0.750000 0.000000
O O4 0.379426 0.823480 0.054644
O O5 0.853786 0.893370 0.962217
O O6 0.000000 0.964860 0.250000
O O7 0.759589 0.956834 0.032907
O O8 0.818142 0.981790 0.825439
O O9 0.535746 0.110400 0.647746
O O10 0.092920 0.529783 0.554034
O O11 0.274152 0.577860 0.872280
O O12 0.129058 0.537542 0.903881
O O13 0.500000 0.677856 0.750000
O O14 0.431350 0.633107 0.903721
O O15 0.500000 0.400946 0.750000
#
# Coordination Sequence:
#
# PCOD8130836 Si02
#       7
#     8   8   4   8   8   8   8
#     4  10  22  39  66  89 109 146 196 245 295 377
#     4  10  18  29  48  81 119 159 199 243 290 329
#     4  10  22  38  62  82 116 146 198 242 292 358
#     4  10  20  35  50  81 113 160 197 242 283 330
#     4  10  20  36  60  89 122 156 188 251 312 346
#     4   9  18  34  56  81 116 153 191 242 299 350
#     4  10  20  30  49  76 119 159 209 236 269 341
#
# _framework density 20.463488000000002
#
# number of rings (size 3 to 8) (size 9 to 14) (size 15 to 20)
#    0.000    2.154    0.000    5.077    3.231    4.308 
#    0.000    0.769    0.000   13.846    0.000    0.000 
#    0.000    0.000    0.000    0.000    0.000    0.000 
#
# Total GULP energy -322326.567949 kJ/mol
# GULP energy per Si atom -12397.175690 kJ/mol
# Density = 2.041691 g / cm^3
# Si number density = 20.463488 Si / 1000 Ang^3
#
#
#
# Elastic Constant Matrix: (Units=GPa)
#
#
# Indices 1 2 3 4 5 6 
#
# 1 91.8103 39.6954 55.3072 0.0000 -4.7776 0.0000
# 2 39.6954 106.7383 49.6083 0.0000 -4.6933 0.0000
# 3 55.3072 49.6083 85.7145 0.0000 -17.1396 0.0000
# 4 0.0000 0.0000 0.0000 24.0832 0.0000 4.2321
# 5 -4.7776 -4.6933 -17.1396 0.0000 38.2464 0.0000
# 6 0.0000 0.0000 0.0000 4.2321 0.0000 17.4854
#
#
#
# Elastic Compliance Matrix: (Units=1/GPa)
#
#
# Indices 1 2 3 4 5 6 
#
# 1 0.018382 -0.001605 -0.011547 0.000000 -0.003075 0.000000
# 2 -0.001605 0.013086 -0.006873 0.000000 -0.001675 0.000000
# 3 -0.011547 -0.006873 0.024867 0.000000 0.008858 0.000000
# 4 0.000000 0.000000 0.000000 0.043367 0.000000 -0.010496
# 5 -0.003075 -0.001675 0.008858 0.000000 0.029526 0.000000
# 6 0.000000 0.000000 0.000000 -0.010496 0.000000 0.059731
#
#
# Mechanical properties :
#
#
# Convention : Reuss Voigt Hill
#
# Bulk Modulus (GPa) = 61.40781 63.72056 62.56418
# Shear Modulus (GPa) = 21.32760 25.27314 23.30037
#
# Velocity S-wave (km/s) = 3.23186 3.51812 3.37802
# Velocity P-wave (km/s) = 6.63326 6.90718 6.77161
#
# Compressibility (1/GPa) = 0.01628457
#
# Stress axis : x y z
#
# Youngs Moduli (GPa) = 54.40139 76.41558 40.21434
#
# Poissons Ratio (x) = 0.12262 0.46436
# Poissons Ratio (y) = 0.08729 0.27641
# Poissons Ratio (z) = 0.62818 0.52523
#
# Static dielectric constant tensor:
#      x y z
#    x 3.971010 0.000000 -0.032690 
#    y 0.000000 3.486750 0.000000 
#    z -0.032690 0.000000 3.785230 
# 
# 
# High freq. dielectric constant tensor:
#      x y z
#    x 1.816550 0.000000 -0.001690 
#    y 0.000000 1.778390 0.000000 
#    z -0.001690 0.000000 1.790080 
# 
# From -- ./inp_files/43650.got.cif
#   From: 2010.06.25/outbox.cif.g09.slc.cpg/sg15_22_cif.got.tgz:43650.got - 2010.06.28 07:06:18.
