data_PCOD8130980
_publ_section_title
;
Structure prediction by ZEFSAII (Michael W. Deem and Ramdas Pophale) SiO2 
 PCOD8130980
Probable space group: C 2/C
;
_chemical_formula_sum "Si O2"
_cell_formula_units_Z 40
_cell_length_a 19.304372
_cell_length_b 10.447251
_cell_length_c 8.754907
_cell_angle_alpha 90.000000
_cell_angle_beta 111.399852
_cell_angle_gamma 90.000000
_cell_volume 1643.937873
_symmetry_space_group_name_H-M "C 2/C"
_symmetry_group_IT_number 15
_symmetry_cell_setting 'monoclinic'
loop_
_space_group_symop_operation_xyz
x,y,z
-x,y,1/2-z
-x,-y,-z
x,-y,1/2+z
1/2+x,1/2+y,z
1/2-x,1/2+y,1/2-z
1/2-x,1/2-y,-z
1/2+x,1/2-y,1/2+z
loop_
_atom_site_type_symbol
_atom_site_label
_atom_site_fract_x
_atom_site_fract_y
_atom_site_fract_z
Si Si1 0.549510 0.247395 0.653538
Si Si2 0.048368 0.389173 0.659417
Si Si3 0.736024 0.608320 0.923077
Si Si4 0.823950 0.566299 0.708918
Si Si5 0.574476 0.371474 0.362856
O O1 0.500000 0.308146 0.750000
O O2 0.571419 0.352195 0.543600
O O3 0.501846 0.135406 0.530950
O O4 0.625607 0.190804 0.787733
O O5 0.121339 0.464602 0.664566
O O6 0.074318 0.259531 0.765801
O O7 0.000000 0.465641 0.750000
O O8 0.790129 0.500427 0.033852
O O9 0.750000 0.750000 0.000000
O O10 0.755604 0.609611 0.760613
O O11 0.651548 0.559252 0.882285
O O12 0.500000 0.449999 0.250000
#
# Coordination Sequence:
#
# PCOD8130980 Si02
#       5
#     8   8   8   8   8
#     4  10  18  30  55  94 123 146 196 251 310 372
#     4   9  17  32  56  88 124 157 188 241 316 378
#     4  12  23  43  60  90 131 157 203 253 305 364
#     4  12  21  34  63  91 125 162 195 248 314 362
#     4   9  20  41  63  80 120 170 198 243 305 356
#
# _framework density 24.331818999999999
#
# number of rings (size 3 to 8) (size 9 to 14) (size 15 to 20)
#    0.000    2.000    4.000    3.600    0.000    0.000 
#    0.000    6.000    0.000    0.000    0.000    0.000 
#    0.000    0.000    0.000    0.000    0.000    0.000 
#
# Total GULP energy -247830.011274 kJ/mol
# GULP energy per Si atom -12391.500564 kJ/mol
# Density = 2.427644 g / cm^3
# Si number density = 24.331819 Si / 1000 Ang^3
#
#
#
# Elastic Constant Matrix: (Units=GPa)
#
#
# Indices 1 2 3 4 5 6 
#
# 1 182.5621 11.2852 43.2672 0.0000 -9.0351 0.0000
# 2 11.2852 27.6015 17.3905 0.0000 -3.0819 0.0000
# 3 43.2672 17.3905 77.1649 0.0000 -9.0792 0.0000
# 4 0.0000 0.0000 0.0000 11.5086 0.0000 -8.0923
# 5 -9.0351 -3.0819 -9.0792 0.0000 50.0187 0.0000
# 6 0.0000 0.0000 0.0000 -8.0923 0.0000 30.8642
#
#
#
# Elastic Compliance Matrix: (Units=1/GPa)
#
#
# Indices 1 2 3 4 5 6 
#
# 1 0.006333 -0.000388 -0.003405 0.000000 0.000502 0.000000
# 2 -0.000388 0.042289 -0.009211 0.000000 0.000863 0.000000
# 3 -0.003405 -0.009211 0.017172 0.000000 0.001934 0.000000
# 4 0.000000 0.000000 0.000000 0.106532 0.000000 0.027932
# 5 0.000502 0.000863 0.001934 0.000000 0.020488 0.000000
# 6 0.000000 0.000000 0.000000 0.027932 0.000000 0.039723
#
#
# Mechanical properties :
#
#
# Convention : Reuss Voigt Hill
#
# Bulk Modulus (GPa) = 25.13471 47.91269 36.52370
# Shear Modulus (GPa) = 18.39544 32.83735 25.61640
#
# Velocity S-wave (km/s) = 2.75257 3.67763 3.24820
# Velocity P-wave (km/s) = 4.52268 6.14552 5.39546
#
# Compressibility (1/GPa) = 0.03978562
#
# Stress axis : x y z
#
# Youngs Moduli (GPa) = 157.89498 23.64699 58.23524
#
# Poissons Ratio (x) = 0.00918 0.19827
# Poissons Ratio (y) = 0.06131 0.53641
# Poissons Ratio (z) = 0.53756 0.21782
#
# Static dielectric constant tensor:
#      x y z
#    x 5.207360 0.000000 0.161700 
#    y 0.000000 3.805340 0.000000 
#    z 0.161700 0.000000 4.184330 
# 
# 
# High freq. dielectric constant tensor:
#      x y z
#    x 1.985730 0.000000 -0.004210 
#    y 0.000000 1.925310 0.000000 
#    z -0.004210 0.000000 1.955500 
# 
# From -- ./inp_files/54731.got.cif
#   From: 2010.06.25/outbox.cif.g09.slc.cpg/sg15_28_cif.got.tgz:54731.got - 2010.06.28 07:06:18.
