data_PCOD8130617
_publ_section_title
;
Structure prediction by ZEFSAII (Michael W. Deem and Ramdas Pophale) SiO2 
 PCOD8130617
Probable space group: C 2/C
;
_chemical_formula_sum "Si O2"
_cell_formula_units_Z 64
_cell_length_a 11.105497
_cell_length_b 16.445283
_cell_length_c 19.704025
_cell_angle_alpha 90.000000
_cell_angle_beta 109.534052
_cell_angle_gamma 90.000000
_cell_volume 3391.480812
_symmetry_space_group_name_H-M "C 2/C"
_symmetry_group_IT_number 15
_symmetry_cell_setting 'monoclinic'
loop_
_space_group_symop_operation_xyz
x,y,z
-x,y,1/2-z
-x,-y,-z
x,-y,1/2+z
1/2+x,1/2+y,z
1/2-x,1/2+y,1/2-z
1/2-x,1/2-y,-z
1/2+x,1/2-y,1/2+z
loop_
_atom_site_type_symbol
_atom_site_label
_atom_site_fract_x
_atom_site_fract_y
_atom_site_fract_z
Si Si1 0.226649 0.413438 0.454766
Si Si2 0.964771 0.687740 0.499285
Si Si3 0.628796 0.313025 0.118352
Si Si4 0.166868 0.811483 0.598517
Si Si5 0.525138 0.452505 0.933579
Si Si6 0.173312 0.406526 0.974275
Si Si7 0.141432 0.222590 0.771984
Si Si8 0.110563 0.100544 0.880454
O O1 0.113174 0.354269 0.455278
O O2 0.281054 0.385533 0.392007
O O3 0.341098 0.405375 0.531344
O O4 0.176504 0.505917 0.438277
O O5 0.867190 0.738421 0.433781
O O6 0.074743 0.741939 0.553562
O O7 0.028450 0.617305 0.465013
O O8 0.682530 0.290732 0.202256
O O9 0.479290 0.337382 0.094378
O O10 0.269321 0.835929 0.561486
O O11 0.248958 0.779473 0.677151
O O12 0.086497 0.890271 0.605732
O O13 0.537947 0.513508 0.871639
O O14 0.500000 0.500000 0.000000
O O15 0.253031 0.408776 0.058803
O O16 0.131469 0.134706 0.808560
O O17 0.000000 0.263912 0.750000
#
# Coordination Sequence:
#
# PCOD8130617 Si02
#       8
#     8   8   8   8   8   8   8   8
#     4  11  22  36  59  89 123 152 188 250 308 351
#     4  12  22  34  62  91 116 151 198 253 297 340
#     4  11  20  38  58  84 120 158 192 239 309 354
#     4  12  20  36  66  91 114 156 205 250 293 361
#     4  11  18  35  64  94 116 148 203 250 302 350
#     4  11  19  35  62  90 113 145 203 249 287 342
#     4  10  23  36  60  88 122 155 202 248 300 355
#     4  10  17  35  60  91 109 150 201 248 283 348
#
# _framework density 18.870812999999998
#
# number of rings (size 3 to 8) (size 9 to 14) (size 15 to 20)
#    0.000    1.000    7.500    2.625    0.000    0.000 
#    0.000    0.625   22.000    6.000    0.000    0.000 
#    0.000    0.000    0.000    0.000    0.000    0.000 
#
# Total GULP energy -396723.903674 kJ/mol
# GULP energy per Si atom -12397.621990 kJ/mol
# Density = 1.882786 g / cm^3
# Si number density = 18.870813 Si / 1000 Ang^3
#
#
#
# Elastic Constant Matrix: (Units=GPa)
#
#
# Indices 1 2 3 4 5 6 
#
# 1 67.9002 43.7756 28.5982 0.0000 -0.5049 0.0000
# 2 43.7756 102.1556 51.7828 0.0000 4.4198 0.0000
# 3 28.5982 51.7828 92.6042 0.0000 6.1762 0.0000
# 4 0.0000 0.0000 0.0000 21.9444 0.0000 -3.1086
# 5 -0.5049 4.4198 6.1762 0.0000 13.9603 0.0000
# 6 0.0000 0.0000 0.0000 -3.1086 0.0000 45.0726
#
#
#
# Elastic Compliance Matrix: (Units=1/GPa)
#
#
# Indices 1 2 3 4 5 6 
#
# 1 0.020854 -0.007972 -0.002268 0.000000 0.004281 0.000000
# 2 -0.007972 0.016722 -0.006714 0.000000 -0.002612 0.000000
# 3 -0.002268 -0.006714 0.015577 0.000000 -0.004848 0.000000
# 4 0.000000 0.000000 0.000000 0.046019 0.000000 0.003174
# 5 0.004281 -0.002612 -0.004848 0.000000 0.074758 0.000000
# 6 0.000000 0.000000 0.000000 0.003174 0.000000 0.022405
#
#
# Mechanical properties :
#
#
# Convention : Reuss Voigt Hill
#
# Bulk Modulus (GPa) = 51.96402 56.77481 54.36941
# Shear Modulus (GPa) = 21.12745 25.42900 23.27822
#
# Velocity S-wave (km/s) = 3.34965 3.67485 3.51601
# Velocity P-wave (km/s) = 6.52355 6.93956 6.73476
#
# Compressibility (1/GPa) = 0.01924409
#
# Stress axis : x y z
#
# Youngs Moduli (GPa) = 47.95207 59.80260 64.19750
#
# Poissons Ratio (x) = 0.47675 0.14560
# Poissons Ratio (y) = 0.38227 0.43105
# Poissons Ratio (z) = 0.10875 0.40154
#
# Static dielectric constant tensor:
#      x y z
#    x 3.582910 0.000000 0.029970 
#    y 0.000000 3.660320 0.000000 
#    z 0.029970 0.000000 3.181900 
# 
# 
# High freq. dielectric constant tensor:
#      x y z
#    x 1.735950 0.000000 -0.000580 
#    y 0.000000 1.736580 0.000000 
#    z -0.000580 0.000000 1.695900 
# 
# From -- ./inp_files/238758.got.cif
#   From: 2010.06.25/outbox.cif.g09.slc.cpg/sg15_120_cif.got.tgz:238758.got - 2010.06.28 07:06:18.
