data_PCOD8130441
_publ_section_title
;
Structure prediction by ZEFSAII (Michael W. Deem and Ramdas Pophale) SiO2 
 PCOD8130441
Probable space group: C 2/C
;
_chemical_formula_sum "Si O2"
_cell_formula_units_Z 60
_cell_length_a 12.471107
_cell_length_b 17.186516
_cell_length_c 14.842042
_cell_angle_alpha 90.000000
_cell_angle_beta 81.839301
_cell_angle_gamma 90.000000
_cell_volume 3148.954256
_symmetry_space_group_name_H-M "C 2/C"
_symmetry_group_IT_number 15
_symmetry_cell_setting 'monoclinic'
loop_
_space_group_symop_operation_xyz
x,y,z
-x,y,1/2-z
-x,-y,-z
x,-y,1/2+z
1/2+x,1/2+y,z
1/2-x,1/2+y,1/2-z
1/2-x,1/2-y,-z
1/2+x,1/2-y,1/2+z
loop_
_atom_site_type_symbol
_atom_site_label
_atom_site_fract_x
_atom_site_fract_y
_atom_site_fract_z
Si Si1 0.186125 0.676508 0.539810
Si Si2 0.406242 0.945482 0.189861
Si Si3 0.550385 0.210157 0.905436
Si Si4 0.870035 0.382326 0.642558
Si Si5 0.500000 0.358495 0.250000
Si Si6 0.258365 0.714776 0.212338
Si Si7 0.567673 0.227027 0.113393
Si Si8 0.788870 0.880337 0.196649
O O1 0.250000 0.750000 0.500000
O O2 0.154384 0.622962 0.460037
O O3 0.264106 0.624407 0.593183
O O4 0.077792 0.708728 0.603722
O O5 0.500000 0.928394 0.250000
O O6 0.407359 0.878274 0.113658
O O7 0.292092 0.942552 0.253110
O O8 0.413394 0.030613 0.148151
O O9 0.616427 0.272088 0.834486
O O10 0.569637 0.234821 0.005836
O O11 0.764297 0.356655 0.714716
O O12 0.970266 0.327888 0.658946
O O13 0.548915 0.310210 0.160883
O O14 0.407716 0.410830 0.212215
O O15 0.184397 0.696305 0.133454
O O16 0.220831 0.792433 0.266910
#
# Coordination Sequence:
#
# PCOD8130441 Si02
#       8
#     8   8   8   8   4   8   8   8
#     4  11  20  37  59  88 114 152 198 248 294 349
#     4  11  22  37  54  87 125 157 188 234 300 356
#     4  10  22  33  56  86 120 149 192 242 299 340
#     4  11  21  35  58  84 122 152 197 237 295 352
#     4  10  18  36  64  82 104 154 206 238 286 342
#     4  10  18  34  55  82 112 152 191 242 285 337
#     4  10  17  33  53  87 109 146 191 239 282 338
#     4  10  19  36  59  80 112 152 195 238 286 349
#
# _framework density 19.053946
#
# number of rings (size 3 to 8) (size 9 to 14) (size 15 to 20)
#    0.000    1.600    5.333    2.000    0.000    2.133 
#    2.400    0.000    2.933    0.800    0.000    0.000 
#    0.000    0.000    0.000    0.000    0.000    0.000 
#
# Total GULP energy -371772.634976 kJ/mol
# GULP energy per Si atom -12392.421166 kJ/mol
# Density = 1.901058 g / cm^3
# Si number density = 19.053946 Si / 1000 Ang^3
#
#
#
# Elastic Constant Matrix: (Units=GPa)
#
#
# Indices 1 2 3 4 5 6 
#
# 1 139.4728 18.4033 43.8755 0.0000 3.0285 0.0000
# 2 18.4033 40.2913 12.1986 0.0000 -8.9554 0.0000
# 3 43.8755 12.1986 85.5829 0.0000 1.8138 0.0000
# 4 0.0000 0.0000 0.0000 11.2793 0.0000 -1.5988
# 5 3.0285 -8.9554 1.8138 0.0000 39.6258 0.0000
# 6 0.0000 0.0000 0.0000 -1.5988 0.0000 15.7624
#
#
#
# Elastic Compliance Matrix: (Units=1/GPa)
#
#
# Indices 1 2 3 4 5 6 
#
# 1 0.008890 -0.003086 -0.004093 0.000000 -0.001190 0.000000
# 2 -0.003086 0.028538 -0.002630 0.000000 0.006806 0.000000
# 3 -0.004093 -0.002630 0.014177 0.000000 -0.000930 0.000000
# 4 0.000000 0.000000 0.000000 0.089951 0.000000 0.009124
# 5 -0.001190 0.006806 -0.000930 0.000000 0.026908 0.000000
# 6 0.000000 0.000000 0.000000 0.009124 0.000000 0.064368
#
#
# Mechanical properties :
#
#
# Convention : Reuss Voigt Hill
#
# Bulk Modulus (GPa) = 31.26138 46.03354 38.64746
# Shear Modulus (GPa) = 19.00336 26.05816 22.53076
#
# Velocity S-wave (km/s) = 3.16150 3.70212 3.44244
# Velocity P-wave (km/s) = 5.45612 6.51815 6.01064
#
# Compressibility (1/GPa) = 0.03198835
#
# Stress axis : x y z
#
# Youngs Moduli (GPa) = 112.48121 35.04140 70.53516
#
# Poissons Ratio (x) = 0.10814 0.28868
# Poissons Ratio (y) = 0.34712 0.18549
# Poissons Ratio (z) = 0.46035 0.09215
#
# Static dielectric constant tensor:
#      x y z
#    x 4.006430 0.000000 0.278760 
#    y 0.000000 3.008600 0.000000 
#    z 0.278760 0.000000 4.309020 
# 
# 
# High freq. dielectric constant tensor:
#      x y z
#    x 1.749420 0.000000 0.008220 
#    y 0.000000 1.691680 0.000000 
#    z 0.008220 0.000000 1.748290 
# 
# From -- ./inp_files/145636.got.cif
#   From: 2010.06.25/outbox.cif.g09.slc.cpg/sg15_73_cif.got.tgz:145636.got - 2010.06.28 07:06:18.
