data_PCOD8130523
_publ_section_title
;
Structure prediction by ZEFSAII (Michael W. Deem and Ramdas Pophale) SiO2 
 PCOD8130523
Probable space group: C 2/C
;
_chemical_formula_sum "Si O2"
_cell_formula_units_Z 40
_cell_length_a 15.720142
_cell_length_b 10.553884
_cell_length_c 19.947967
_cell_angle_alpha 90.000000
_cell_angle_beta 34.852668
_cell_angle_gamma 90.000000
_cell_volume 1891.295782
_symmetry_space_group_name_H-M "C 2/C"
_symmetry_group_IT_number 15
_symmetry_cell_setting 'monoclinic'
loop_
_space_group_symop_operation_xyz
x,y,z
-x,y,1/2-z
-x,-y,-z
x,-y,1/2+z
1/2+x,1/2+y,z
1/2-x,1/2+y,1/2-z
1/2-x,1/2-y,-z
1/2+x,1/2-y,1/2+z
loop_
_atom_site_type_symbol
_atom_site_label
_atom_site_fract_x
_atom_site_fract_y
_atom_site_fract_z
Si Si1 0.937135 0.689717 0.565390
Si Si2 0.294405 0.383215 0.504018
Si Si3 0.927958 0.904152 0.098856
Si Si4 0.708379 0.099476 0.212973
Si Si5 0.414227 0.019573 0.459425
O O1 0.800329 0.777208 0.680947
O O2 0.869091 0.583850 0.559147
O O3 0.063729 0.768063 0.442770
O O4 0.023305 0.622153 0.570536
O O5 0.250000 0.250000 0.500000
O O6 0.473439 0.399738 0.396252
O O7 0.222320 0.400044 0.623864
O O8 0.228982 0.490297 0.496626
O O9 0.764792 0.967334 0.213496
O O10 0.000000 0.000000 0.000000
O O11 0.536636 0.109938 0.343747
#
# Coordination Sequence:
#
# PCOD8130523 Si02
#       5
#     8   8   8   8   8
#     4   9  20  35  52  82 112 144 181 236 277 322
#     4  10  17  34  56  81 111 141 184 235 278 318
#     4   8  17  36  53  74 113 147 175 220 291 321
#     4  10  21  36  57  82 112 153 184 222 289 338
#     4  11  20  32  58  85 109 143 192 231 270 332
#
# _framework density 21.149522000000001
#
# number of rings (size 3 to 8) (size 9 to 14) (size 15 to 20)
#    0.000    2.800    4.000    0.600    2.800    0.000 
#    0.000    9.000    0.000    0.000    0.000    0.000 
#    0.000    0.000    0.000    0.000    0.000    0.000 
#
# Total GULP energy -247763.598912 kJ/mol
# GULP energy per Si atom -12388.179946 kJ/mol
# Density = 2.110138 g / cm^3
# Si number density = 21.149522 Si / 1000 Ang^3
#
#
#
# Elastic Constant Matrix: (Units=GPa)
#
#
# Indices 1 2 3 4 5 6 
#
# 1 161.9652 58.4774 12.2282 -0.0001 -7.5996 0.0000
# 2 58.4774 90.1052 -3.8230 -0.0003 -6.6542 0.0001
# 3 12.2282 -3.8230 37.7853 -0.0007 -8.3111 0.0002
# 4 -0.0001 -0.0003 -0.0007 12.0492 0.0002 -0.0968
# 5 -7.5996 -6.6542 -8.3111 0.0002 19.5512 0.0000
# 6 0.0000 0.0001 0.0002 -0.0968 0.0000 44.7298
#
#
#
# Elastic Compliance Matrix: (Units=1/GPa)
#
#
# Indices 1 2 3 4 5 6 
#
# 1 0.008456 -0.005631 -0.003315 0.000000 -0.000039 0.000000
# 2 -0.005631 0.015304 0.004451 0.000001 0.004912 0.000000
# 3 -0.003315 0.004451 0.030930 0.000002 0.013375 0.000000
# 4 0.000000 0.000001 0.000002 0.082995 0.000000 0.000180
# 5 -0.000039 0.004912 0.013375 0.000000 0.058490 0.000000
# 6 0.000000 0.000000 0.000000 0.000180 0.000000 0.022357
#
#
# Mechanical properties :
#
#
# Convention : Reuss Voigt Hill
#
# Bulk Modulus (GPa) = 21.88133 47.06899 34.47516
# Shear Modulus (GPa) = 20.59692 30.13093 25.36393
#
# Velocity S-wave (km/s) = 3.12408 3.77857 3.46680
# Velocity P-wave (km/s) = 4.83545 6.42965 5.68867
#
# Compressibility (1/GPa) = 0.04570106
#
# Stress axis : x y z
#
# Youngs Moduli (GPa) = 118.26278 65.34089 32.33072
#
# Poissons Ratio (x) = 0.36795 0.10717
# Poissons Ratio (y) = 0.66596 -0.14391
# Poissons Ratio (z) = 0.39202 -0.29085
#
# Static dielectric constant tensor:
#      x y z
#    x 4.806480 0.000000 -0.991430 
#    y 0.000000 5.197100 0.000000 
#    z -0.991430 0.000000 4.501680 
# 
# 
# High freq. dielectric constant tensor:
#      x y z
#    x 1.820310 0.000000 -0.003020 
#    y 0.000000 1.827420 0.000000 
#    z -0.003020 0.000000 1.810580 
# 
# From -- ./inp_files/141822.got.cif
#   From: 2010.06.25/outbox.cif.g09.slc.cpg/sg15_71_cif.got.tgz:141822.got - 2010.06.28 07:06:18.
