data_PCOD8130143
_publ_section_title
;
Structure prediction by ZEFSAII (Michael W. Deem and Ramdas Pophale) SiO2 
 PCOD8130143
Probable space group: C 2/C
;
_chemical_formula_sum "Si O2"
_cell_formula_units_Z 64
_cell_length_a 25.026202
_cell_length_b 9.049225
_cell_length_c 20.208608
_cell_angle_alpha 90.000000
_cell_angle_beta 126.405062
_cell_angle_gamma 90.000000
_cell_volume 3683.435096
_symmetry_space_group_name_H-M "C 2/C"
_symmetry_group_IT_number 15
_symmetry_cell_setting 'monoclinic'
loop_
_space_group_symop_operation_xyz
x,y,z
-x,y,1/2-z
-x,-y,-z
x,-y,1/2+z
1/2+x,1/2+y,z
1/2-x,1/2+y,1/2-z
1/2-x,1/2-y,-z
1/2+x,1/2-y,1/2+z
loop_
_atom_site_type_symbol
_atom_site_label
_atom_site_fract_x
_atom_site_fract_y
_atom_site_fract_z
Si Si1 0.376907 0.787355 0.868263
Si Si2 0.994222 0.171929 0.494402
Si Si3 0.664545 0.553456 0.768400
Si Si4 0.924150 0.661191 0.058173
Si Si5 0.684599 0.056871 0.622674
Si Si6 0.424832 0.718056 0.695254
Si Si7 0.616951 0.240407 0.685773
Si Si8 0.944886 0.471459 0.807557
O O1 0.431466 0.734341 0.961572
O O2 0.349440 0.647228 0.808088
O O3 0.320151 0.881900 0.863304
O O4 0.412970 0.905534 0.849433
O O5 0.964708 0.225968 0.542296
O O6 0.949851 0.219430 0.401202
O O7 0.000000 0.000000 0.500000
O O8 0.740230 0.583211 0.844687
O O9 0.619938 0.602398 0.797596
O O10 0.651716 0.381792 0.743748
O O11 0.897543 0.758070 0.100814
O O12 0.974955 0.534520 0.122940
O O13 0.862852 0.590203 0.974395
O O14 0.668586 0.162340 0.673506
O O15 0.500000 0.655105 0.750000
O O16 0.423571 0.878897 0.728200
O O17 0.588549 0.133688 0.723196
#
# Coordination Sequence:
#
# PCOD8130143 Si02
#       8
#     8   8   8   8   8   8   8   8
#     4   9  17  31  49  74 103 130 164 210 257 296
#     4  10  17  29  53  80 103 124 164 220 266 288
#     4  11  20  32  51  76 107 139 166 208 255 309
#     4   9  18  33  53  73 101 135 178 207 246 308
#     4  10  20  32  50  76 106 141 169 201 254 313
#     4   9  19  35  55  71  98 135 178 215 251 291
#     4  10  19  31  52  80 105 126 169 213 257 305
#     4   8  16  32  53  72  94 130 168 213 250 292
#
# _framework density 17.375084999999999
#
# number of rings (size 3 to 8) (size 9 to 14) (size 15 to 20)
#    0.000    2.500    1.250    2.250    0.000    3.500 
#    0.000    1.875    2.750    0.750    0.000    0.000 
#    0.000    0.000    0.000    0.000    0.000    0.000 
#
# Total GULP energy -396590.736483 kJ/mol
# GULP energy per Si atom -12393.460515 kJ/mol
# Density = 1.733554 g / cm^3
# Si number density = 17.375085 Si / 1000 Ang^3
#
#
#
# Elastic Constant Matrix: (Units=GPa)
#
#
# Indices 1 2 3 4 5 6 
#
# 1 89.6831 39.9970 33.8491 0.0000 12.7084 0.0000
# 2 39.9970 104.9514 28.4658 0.0000 7.9272 0.0000
# 3 33.8491 28.4658 63.2269 0.0000 6.5282 0.0000
# 4 0.0000 0.0000 0.0000 19.4457 0.0000 3.5234
# 5 12.7084 7.9272 6.5282 0.0000 26.8433 0.0000
# 6 0.0000 0.0000 0.0000 3.5234 0.0000 19.2041
#
#
#
# Elastic Compliance Matrix: (Units=1/GPa)
#
#
# Indices 1 2 3 4 5 6 
#
# 1 0.015996 -0.004035 -0.006245 0.000000 -0.004863 0.000000
# 2 -0.004035 0.011985 -0.003146 0.000000 -0.000864 0.000000
# 3 -0.006245 -0.003146 0.020694 0.000000 -0.001147 0.000000
# 4 0.000000 0.000000 0.000000 0.053194 0.000000 -0.009759
# 5 -0.004863 -0.000864 -0.001147 0.000000 0.040089 0.000000
# 6 0.000000 0.000000 0.000000 -0.009759 0.000000 0.053863
#
#
# Mechanical properties :
#
#
# Convention : Reuss Voigt Hill
#
# Bulk Modulus (GPa) = 45.82442 51.38726 48.60584
# Shear Modulus (GPa) = 21.74415 23.46859 22.60637
#
# Velocity S-wave (km/s) = 3.54143 3.67918 3.61096
# Velocity P-wave (km/s) = 6.56911 6.90565 6.73948
#
# Compressibility (1/GPa) = 0.02182242
#
# Stress axis : x y z
#
# Youngs Moduli (GPa) = 62.51580 83.44064 48.32251
#
# Poissons Ratio (x) = 0.33668 0.30177
# Poissons Ratio (y) = 0.25225 0.15204
# Poissons Ratio (z) = 0.39040 0.26253
#
# Static dielectric constant tensor:
#      x y z
#    x 3.256210 0.000000 0.043110 
#    y 0.000000 3.737500 0.000000 
#    z 0.043110 0.000000 3.117360 
# 
# 
# High freq. dielectric constant tensor:
#      x y z
#    x 1.656350 0.000000 0.009280 
#    y 0.000000 1.667840 0.000000 
#    z 0.009280 0.000000 1.661460 
# 
# From -- ./inp_files/251927.got.cif
#   From: 2010.06.25/outbox.cif.g09.slc.cpg/sg15_126_cif.got.tgz:251927.got - 2010.06.28 07:06:18.
