data_PCOD8130505
_publ_section_title
;
Structure prediction by ZEFSAII (Michael W. Deem and Ramdas Pophale) SiO2 
 PCOD8130505
Probable space group: C 2/C
;
_chemical_formula_sum "Si O2"
_cell_formula_units_Z 56
_cell_length_a 26.691756
_cell_length_b 17.611412
_cell_length_c 22.295020
_cell_angle_alpha 90.000000
_cell_angle_beta 18.464235
_cell_angle_gamma 90.000000
_cell_volume 3319.285271
_symmetry_space_group_name_H-M "C 2/C"
_symmetry_group_IT_number 15
_symmetry_cell_setting 'monoclinic'
loop_
_space_group_symop_operation_xyz
x,y,z
-x,y,1/2-z
-x,-y,-z
x,-y,1/2+z
1/2+x,1/2+y,z
1/2-x,1/2+y,1/2-z
1/2-x,1/2-y,-z
1/2+x,1/2-y,1/2+z
loop_
_atom_site_type_symbol
_atom_site_label
_atom_site_fract_x
_atom_site_fract_y
_atom_site_fract_z
Si Si1 0.047232 0.809587 0.402962
Si Si2 0.292873 0.157283 0.243105
Si Si3 0.644980 0.450262 0.357011
Si Si4 0.000000 0.043662 0.750000
Si Si5 0.771538 0.992242 0.610877
Si Si6 0.054862 0.466229 0.999886
Si Si7 0.663394 0.339441 0.145271
Si Si8 0.500000 0.780620 0.750000
O O1 0.109772 0.723848 0.335323
O O2 0.115178 0.861203 0.379581
O O3 0.099195 0.854026 0.284201
O O4 0.858336 0.806372 0.617551
O O5 0.245576 0.096076 0.348566
O O6 0.392406 0.120089 0.075093
O O7 0.500000 0.500000 0.500000
O O8 0.666762 0.458475 0.403445
O O9 0.796778 0.482479 0.147266
O O10 0.103979 0.995831 0.584550
O O11 0.129295 0.091417 0.639767
O O12 0.600634 0.025442 0.781328
O O13 0.000000 0.500000 0.000000
O O14 0.566801 0.267167 0.230044
O O15 0.851969 0.330875 0.938844
#
# Coordination Sequence:
#
# PCOD8130505 Si02
#       8
#     8   8   8   4   8   8   8   4
#     4  12  21  30  52  79 107 132 173 211 259 303
#     4  10  21  32  48  82 105 135 167 209 254 309
#     4  10  17  34  52  72 100 137 170 215 263 299
#     4  11  20  36  52  68  98 138 191 208 234 309
#     4  10  21  37  51  72 104 142 175 212 255 304
#     4   8  18  35  50  68 102 136 169 210 263 301
#     4  10  20  32  44  69 102 140 174 207 238 293
#     4   9  20  32  42  60 106 150 169 196 242 285
#
# _framework density 16.871102
#
# number of rings (size 3 to 8) (size 9 to 14) (size 15 to 20)
#    0.000    2.286    4.286    0.857   10.000    1.143 
#    0.000    0.000    0.000    0.000    0.000    1.000 
#    0.000    0.000    0.000    0.000    0.000    0.000 
#
# Total GULP energy -346949.387184 kJ/mol
# GULP energy per Si atom -12391.049542 kJ/mol
# Density = 1.683270 g / cm^3
# Si number density = 16.871102 Si / 1000 Ang^3
#
#
#
# Elastic Constant Matrix: (Units=GPa)
#
#
# Indices 1 2 3 4 5 6 
#
# 1 55.2916 28.4344 45.7940 0.0071 -1.8289 -0.0040
# 2 28.4344 55.8114 27.2110 0.0233 0.9201 -0.0117
# 3 45.7940 27.2110 146.3612 0.0123 -8.2615 -0.0122
# 4 0.0071 0.0233 0.0123 25.7047 -0.0062 -3.9574
# 5 -1.8289 0.9201 -8.2615 -0.0062 32.6091 0.0046
# 6 -0.0040 -0.0117 -0.0122 -3.9574 0.0046 21.1700
#
#
#
# Elastic Compliance Matrix: (Units=1/GPa)
#
#
# Indices 1 2 3 4 5 6 
#
# 1 0.030172 -0.011852 -0.007226 0.000005 0.000196 -0.000004
# 2 -0.011852 0.024432 -0.000924 -0.000018 -0.001588 0.000008
# 3 -0.007226 -0.000924 0.009378 -0.000001 0.001997 0.000003
# 4 0.000005 -0.000018 -0.000001 0.040056 0.000007 0.007488
# 5 0.000196 -0.001588 0.001997 0.000007 0.031228 -0.000005
# 6 -0.000004 0.000008 0.000003 0.007488 -0.000005 0.048636
#
#
# Mechanical properties :
#
#
# Convention : Reuss Voigt Hill
#
# Bulk Modulus (GPa) = 41.70330 51.14921 46.42626
# Shear Modulus (GPa) = 21.56113 26.29841 23.92977
#
# Velocity S-wave (km/s) = 3.57878 3.95243 3.77023
# Velocity P-wave (km/s) = 6.46910 7.15628 6.82135
#
# Compressibility (1/GPa) = 0.02397892
#
# Stress axis : x y z
#
# Youngs Moduli (GPa) = 33.14322 40.92930 106.63629
#
# Poissons Ratio (x) = 0.48510 0.77053
# Poissons Ratio (y) = 0.39282 0.09850
# Poissons Ratio (z) = 0.23949 0.03781
#
# Static dielectric constant tensor:
#      x y z
#    x 2.904000 0.000020 -0.188250 
#    y 0.000020 2.874910 0.000030 
#    z -0.188250 0.000030 4.304680 
# 
# 
# High freq. dielectric constant tensor:
#      x y z
#    x 1.622910 0.000000 -0.026690 
#    y 0.000000 1.618150 0.000000 
#    z -0.026690 0.000000 1.669090 
# 
# From -- ./inp_files/62245.got.cif
#   From: 2010.06.25/outbox.cif.g09.slc.cpg/sg15_32_cif.got.tgz:62245.got - 2010.06.28 07:06:18.
