data_PCOD8130622
_publ_section_title
;
Structure prediction by ZEFSAII (Michael W. Deem and Ramdas Pophale) SiO2 
 PCOD8130622
Probable space group: C 2/C
;
_chemical_formula_sum "Si O2"
_cell_formula_units_Z 60
_cell_length_a 22.863060
_cell_length_b 8.077004
_cell_length_c 23.820573
_cell_angle_alpha 90.000000
_cell_angle_beta 138.873633
_cell_angle_gamma 90.000000
_cell_volume 2893.204954
_symmetry_space_group_name_H-M "C 2/C"
_symmetry_group_IT_number 15
_symmetry_cell_setting 'monoclinic'
loop_
_space_group_symop_operation_xyz
x,y,z
-x,y,1/2-z
-x,-y,-z
x,-y,1/2+z
1/2+x,1/2+y,z
1/2-x,1/2+y,1/2-z
1/2-x,1/2-y,-z
1/2+x,1/2-y,1/2+z
loop_
_atom_site_type_symbol
_atom_site_label
_atom_site_fract_x
_atom_site_fract_y
_atom_site_fract_z
Si Si1 0.109213 0.448879 0.399194
Si Si2 0.638438 0.886964 0.142562
Si Si3 0.952710 0.242777 0.324114
Si Si4 0.500000 0.791090 0.750000
Si Si5 0.620561 0.402086 0.254770
Si Si6 0.809489 0.453571 0.926200
Si Si7 0.289051 0.869890 0.133838
Si Si8 0.226663 0.374470 0.788752
O O1 0.151831 0.518218 0.487185
O O2 0.188866 0.394006 0.415700
O O3 0.048707 0.286755 0.368205
O O4 0.049659 0.594920 0.331026
O O5 0.553797 0.839273 0.120222
O O6 0.680517 0.710843 0.157756
O O7 0.620656 0.994582 0.073125
O O8 0.711333 0.987098 0.231017
O O9 0.878226 0.308806 0.228307
O O10 0.937975 0.044565 0.318152
O O11 0.431548 0.670088 0.730339
O O12 0.715146 0.462828 0.346293
O O13 0.643142 0.253902 0.227615
O O14 0.793494 0.255742 0.917776
O O15 0.262150 0.044728 0.141517
#
# Coordination Sequence:
#
# PCOD8130622 Si02
#       8
#     8   8   8   4   8   8   8   8
#     4  12  22  41  60  90 123 166 196 255 303 369
#     4  10  19  36  58  89 119 161 202 253 292 369
#     4  10  21  36  63  83 119 158 206 242 303 354
#     4  12  22  38  64  84 128 154 202 242 306 372
#     4  10  22  38  58  96 114 162 198 252 295 364
#     4  10  24  37  61  91 124 159 205 250 309 343
#     4  10  19  38  59  88 116 161 201 249 296 367
#     4  10  17  35  61  86 120 151 209 243 301 349
#
# _framework density 20.738247000000001
#
# number of rings (size 3 to 8) (size 9 to 14) (size 15 to 20)
#    0.000    1.600    2.667    4.400    3.733    1.067 
#    0.000    0.000    0.000    2.400    0.000    0.000 
#    0.000    0.000    0.000    0.000    0.000    0.000 
#
# Total GULP energy -371904.211794 kJ/mol
# GULP energy per Si atom -12396.807060 kJ/mol
# Density = 2.069105 g / cm^3
# Si number density = 20.738247 Si / 1000 Ang^3
#
#
#
# Elastic Constant Matrix: (Units=GPa)
#
#
# Indices 1 2 3 4 5 6 
#
# 1 95.9505 42.2412 29.3491 0.0000 -34.9475 0.0000
# 2 42.2412 102.5411 25.7095 0.0000 -12.3918 0.0001
# 3 29.3491 25.7095 79.0838 0.0000 -27.5619 0.0000
# 4 0.0000 0.0000 0.0000 12.6478 0.0000 -9.7443
# 5 -34.9475 -12.3918 -27.5619 0.0000 30.8613 0.0000
# 6 0.0000 0.0001 0.0000 -9.7443 0.0000 35.5312
#
#
#
# Elastic Compliance Matrix: (Units=1/GPa)
#
#
# Indices 1 2 3 4 5 6 
#
# 1 0.021049 -0.006454 0.002455 0.000000 0.023436 0.000000
# 2 -0.006454 0.012659 -0.003624 0.000000 -0.005462 0.000000
# 3 0.002455 -0.003624 0.019417 0.000000 0.018666 0.000000
# 4 0.000000 0.000000 0.000000 0.100246 0.000000 0.027492
# 5 0.023436 -0.005462 0.018666 0.000000 0.073420 0.000000
# 6 0.000000 0.000000 0.000000 0.027492 0.000000 0.035684
#
#
# Mechanical properties :
#
#
# Convention : Reuss Voigt Hill
#
# Bulk Modulus (GPa) = 26.39994 52.46390 39.43192
# Shear Modulus (GPa) = 17.22069 27.82641 22.52355
#
# Velocity S-wave (km/s) = 2.88476 3.66702 3.29916
# Velocity P-wave (km/s) = 4.88401 6.57894 5.79379
#
# Compressibility (1/GPa) = 0.03787887
#
# Stress axis : x y z
#
# Youngs Moduli (GPa) = 47.50904 78.99243 51.50030
#
# Poissons Ratio (x) = 0.50982 -0.12642
# Poissons Ratio (y) = 0.30663 0.18663
# Poissons Ratio (z) = -0.11662 0.28626
#
# Static dielectric constant tensor:
#      x y z
#    x 4.024130 0.000000 -0.248680 
#    y 0.000000 4.111460 0.000000 
#    z -0.248680 0.000000 3.397930 
# 
# 
# High freq. dielectric constant tensor:
#      x y z
#    x 1.826740 0.000000 -0.019590 
#    y 0.000000 1.819700 0.000000 
#    z -0.019590 0.000000 1.768420 
# 
# From -- ./inp_files/252126.got.cif
#   From: 2010.06.25/outbox.cif.g09.slc.cpg/sg15_127_cif.got.tgz:252126.got - 2010.06.28 07:06:18.
