data_PCOD8130676
_publ_section_title
;
Structure prediction by ZEFSAII (Michael W. Deem and Ramdas Pophale) SiO2 
 PCOD8130676
Probable space group: C 2/C
;
_chemical_formula_sum "Si O2"
_cell_formula_units_Z 64
_cell_length_a 9.048865
_cell_length_b 31.191589
_cell_length_c 14.581331
_cell_angle_alpha 90.000000
_cell_angle_beta 114.245877
_cell_angle_gamma 90.000000
_cell_volume 3752.531639
_symmetry_space_group_name_H-M "C 2/C"
_symmetry_group_IT_number 15
_symmetry_cell_setting 'monoclinic'
loop_
_space_group_symop_operation_xyz
x,y,z
-x,y,1/2-z
-x,-y,-z
x,-y,1/2+z
1/2+x,1/2+y,z
1/2-x,1/2+y,1/2-z
1/2-x,1/2-y,-z
1/2+x,1/2-y,1/2+z
loop_
_atom_site_type_symbol
_atom_site_label
_atom_site_fract_x
_atom_site_fract_y
_atom_site_fract_z
Si Si1 0.443676 0.206027 0.371643
Si Si2 0.715143 0.164691 0.996774
Si Si3 0.749059 0.318574 0.655230
Si Si4 0.981697 0.796769 0.454375
Si Si5 0.534711 0.618056 0.652985
Si Si6 0.013047 0.888366 0.647976
Si Si7 0.946002 0.951497 0.480754
Si Si8 0.348402 0.905537 0.152317
O O1 0.399287 0.188265 0.460383
O O2 0.593053 0.178352 0.369795
O O3 0.293534 0.204060 0.262943
O O4 0.492784 0.255648 0.392147
O O5 0.865384 0.142229 0.084400
O O6 0.798495 0.198514 0.947699
O O7 0.606721 0.128949 0.915807
O O8 0.610293 0.290872 0.569682
O O9 0.682311 0.365811 0.663344
O O10 0.037028 0.838362 0.408974
O O11 0.500000 0.612895 0.750000
O O12 0.467271 0.576526 0.578525
O O13 0.729117 0.619747 0.691255
O O14 0.000000 0.900136 0.750000
O O15 0.000594 0.932896 0.591869
O O16 0.749837 0.946208 0.416548
O O17 0.000000 0.000000 0.500000
O O18 0.500000 0.922108 0.250000
#
# Coordination Sequence:
#
# PCOD8130676 Si02
#       8
#     8   8   8   8   8   8   8   8
#     4  11  21  32  51  78 110 137 193 224 259 321
#     4   9  18  34  52  76 101 145 183 220 261 318
#     4  10  21  34  50  76 105 145 179 229 272 305
#     4  10  20  37  49  72 109 148 185 220 265 310
#     4   9  19  33  57  78 107 143 177 219 267 324
#     4  10  17  36  61  74 105 145 176 220 274 319
#     4   9  19  36  61  84 104 136 185 223 263 344
#     4   8  17  35  54  79 110 137 169 218 278 313
#
# _framework density 17.055153000000001
#
# number of rings (size 3 to 8) (size 9 to 14) (size 15 to 20)
#    0.750    1.750    3.750    0.750    1.750    1.500 
#    4.500    0.000    2.750    0.750    0.000    0.000 
#    0.000    0.000    0.000    0.000    0.000    0.000 
#
# Total GULP energy -396475.766027 kJ/mol
# GULP energy per Si atom -12389.867688 kJ/mol
# Density = 1.701634 g / cm^3
# Si number density = 17.055153 Si / 1000 Ang^3
#
#
#
# Elastic Constant Matrix: (Units=GPa)
#
#
# Indices 1 2 3 4 5 6 
#
# 1 65.1825 42.4822 41.6311 0.0000 -12.9614 0.0000
# 2 42.4822 123.3312 61.6234 0.0000 -2.5167 0.0000
# 3 41.6311 61.6234 118.8088 0.0000 -3.9412 0.0000
# 4 0.0000 0.0000 0.0000 14.2589 0.0000 -1.6244
# 5 -12.9614 -2.5167 -3.9412 0.0000 37.7897 0.0000
# 6 0.0000 0.0000 0.0000 -1.6244 0.0000 12.1900
#
#
#
# Elastic Compliance Matrix: (Units=1/GPa)
#
#
# Indices 1 2 3 4 5 6 
#
# 1 0.023627 -0.005365 -0.005258 0.000000 0.007198 0.000000
# 2 -0.005365 0.012163 -0.004479 0.000000 -0.001497 0.000000
# 3 -0.005258 -0.004479 0.012556 0.000000 -0.000792 0.000000
# 4 0.000000 0.000000 0.000000 0.071213 0.000000 0.009490
# 5 0.007198 -0.001497 -0.000792 0.000000 0.028749 0.000000
# 6 0.000000 0.000000 0.000000 0.009490 0.000000 0.083299
#
#
# Mechanical properties :
#
#
# Convention : Reuss Voigt Hill
#
# Bulk Modulus (GPa) = 55.11352 66.53288 60.82320
# Shear Modulus (GPa) = 18.66663 23.62012 21.14338
#
# Velocity S-wave (km/s) = 3.31189 3.72550 3.52477
# Velocity P-wave (km/s) = 6.85637 7.58952 7.23225
#
# Compressibility (1/GPa) = 0.01814437
#
# Stress axis : x y z
#
# Youngs Moduli (GPa) = 42.32384 82.21373 79.64312
#
# Poissons Ratio (x) = 0.44104 0.41875
# Poissons Ratio (y) = 0.22705 0.35670
# Poissons Ratio (z) = 0.22253 0.36822
#
# Static dielectric constant tensor:
#      x y z
#    x 3.095400 0.000000 -0.144560 
#    y 0.000000 2.876900 0.000000 
#    z -0.144560 0.000000 3.357720 
# 
# 
# High freq. dielectric constant tensor:
#      x y z
#    x 1.638970 0.000000 -0.008880 
#    y 0.000000 1.631130 0.000000 
#    z -0.008880 0.000000 1.669190 
# 
# From -- ./inp_files/139543.got.cif
#   From: 2010.06.25/outbox.cif.g09.slc.cpg/sg15_70_cif.got.tgz:139543.got - 2010.06.28 07:06:18.
