data_PCOD8130167
_publ_section_title
;
Structure prediction by ZEFSAII (Michael W. Deem and Ramdas Pophale) SiO2 
 PCOD8130167
Probable space group: C 2/C
;
_chemical_formula_sum "Si O2"
_cell_formula_units_Z 56
_cell_length_a 24.686749
_cell_length_b 13.636609
_cell_length_c 9.434131
_cell_angle_alpha 90.000000
_cell_angle_beta 123.261112
_cell_angle_gamma 90.000000
_cell_volume 2655.656292
_symmetry_space_group_name_H-M "C 2/C"
_symmetry_group_IT_number 15
_symmetry_cell_setting 'monoclinic'
loop_
_space_group_symop_operation_xyz
x,y,z
-x,y,1/2-z
-x,-y,-z
x,-y,1/2+z
1/2+x,1/2+y,z
1/2-x,1/2+y,1/2-z
1/2-x,1/2-y,-z
1/2+x,1/2-y,1/2+z
loop_
_atom_site_type_symbol
_atom_site_label
_atom_site_fract_x
_atom_site_fract_y
_atom_site_fract_z
Si Si1 0.804215 0.953418 0.165987
Si Si2 0.224349 0.371132 0.605809
Si Si3 0.925556 0.745771 0.110388
Si Si4 0.113296 0.964349 0.478124
Si Si5 0.848479 0.747422 0.276018
Si Si6 0.069453 0.833922 0.874069
Si Si7 0.843831 0.261921 0.231337
O O1 0.795847 0.837052 0.189340
O O2 0.738969 0.012493 0.115029
O O3 0.863670 0.005327 0.332664
O O4 0.821624 0.962098 0.025188
O O5 0.180492 0.345538 0.680316
O O6 0.189731 0.348647 0.405861
O O7 0.289658 0.308047 0.723312
O O8 0.877313 0.712849 0.167380
O O9 0.000000 0.712407 0.250000
O O10 0.924899 0.862450 0.082835
O O11 0.894097 0.697255 0.922936
O O12 0.063643 0.048535 0.359304
O O13 0.909376 0.793669 0.443691
O O14 0.119877 0.805190 0.827857
O O15 0.000000 0.785596 0.750000
#
# Coordination Sequence:
#
# PCOD8130167 Si02
#       7
#     8   8   8   8   8   8   8
#     4  10  19  34  51  74 111 143 182 221 261 311
#     4  10  19  38  54  69 112 148 185 229 258 322
#     4  11  20  33  48  76 115 144 177 224 267 321
#     4  10  18  31  46  77 106 153 181 205 253 325
#     4   9  22  32  52  82 107 149 185 215 273 312
#     4  10  17  30  48  73 107 148 186 209 244 322
#     4  10  20  32  51  72  97 151 186 210 271 310
#
# _framework density 21.087064999999999
#
# number of rings (size 3 to 8) (size 9 to 14) (size 15 to 20)
#    0.000    2.000    2.857    1.286    2.000    0.571 
#    0.000    5.714    0.000    0.000    0.000    0.000 
#    0.000   19.429    0.000    0.000    0.000    0.000 
#
# Total GULP energy -346983.999830 kJ/mol
# GULP energy per Si atom -12392.285708 kJ/mol
# Density = 2.103907 g / cm^3
# Si number density = 21.087065 Si / 1000 Ang^3
#
#
#
# Elastic Constant Matrix: (Units=GPa)
#
#
# Indices 1 2 3 4 5 6 
#
# 1 44.7295 23.1776 20.1362 0.0000 7.6160 0.0000
# 2 23.1776 48.4101 13.6578 0.0000 5.9059 0.0000
# 3 20.1362 13.6578 95.3139 0.0000 2.3231 0.0000
# 4 0.0000 0.0000 0.0000 3.7869 0.0000 2.8321
# 5 7.6160 5.9059 2.3231 0.0000 33.9800 0.0000
# 6 0.0000 0.0000 0.0000 2.8321 0.0000 18.6851
#
#
#
# Elastic Compliance Matrix: (Units=1/GPa)
#
#
# Indices 1 2 3 4 5 6 
#
# 1 0.032311 -0.013568 -0.004771 0.000000 -0.004558 0.000000
# 2 -0.013568 0.027657 -0.001055 0.000000 -0.001694 0.000000
# 3 -0.004771 -0.001055 0.011640 0.000000 0.000457 0.000000
# 4 0.000000 0.000000 0.000000 0.297826 0.000000 -0.045141
# 5 -0.004558 -0.001694 0.000457 0.000000 0.030714 0.000000
# 6 0.000000 0.000000 0.000000 -0.045141 0.000000 0.060361
#
#
# Mechanical properties :
#
#
# Convention : Reuss Voigt Hill
#
# Bulk Modulus (GPa) = 30.46947 33.59962 32.03455
# Shear Modulus (GPa) = 9.79941 20.05585 14.92763
#
# Velocity S-wave (km/s) = 2.15806 3.08733 2.66353
# Velocity P-wave (km/s) = 4.54866 5.35511 4.96828
#
# Compressibility (1/GPa) = 0.03281973
#
# Stress axis : x y z
#
# Youngs Moduli (GPa) = 30.94951 36.15709 85.91332
#
# Poissons Ratio (x) = 0.49056 0.40987
# Poissons Ratio (y) = 0.41991 0.09068
# Poissons Ratio (z) = 0.14765 0.03816
#
# Static dielectric constant tensor:
#      x y z
#    x 3.578860 0.000000 -0.090960 
#    y 0.000000 3.479410 0.000000 
#    z -0.090960 0.000000 4.173290 
# 
# 
# High freq. dielectric constant tensor:
#      x y z
#    x 1.809250 0.000000 -0.015060 
#    y 0.000000 1.776670 0.000000 
#    z -0.015060 0.000000 1.842110 
# 
# From -- ./inp_files/61981.got.cif
#   From: 2010.06.25/outbox.cif.g09.slc.cpg/sg15_31_cif.got.tgz:61981.got - 2010.06.28 07:06:18.
