data_PCOD8130692
_publ_section_title
;
Structure prediction by ZEFSAII (Michael W. Deem and Ramdas Pophale) SiO2 
 PCOD8130692
Probable space group: C 2/C
;
_chemical_formula_sum "Si O2"
_cell_formula_units_Z 56
_cell_length_a 23.384223
_cell_length_b 8.593089
_cell_length_c 19.506528
_cell_angle_alpha 90.000000
_cell_angle_beta 33.840155
_cell_angle_gamma 90.000000
_cell_volume 2182.791148
_symmetry_space_group_name_H-M "C 2/C"
_symmetry_group_IT_number 15
_symmetry_cell_setting 'monoclinic'
loop_
_space_group_symop_operation_xyz
x,y,z
-x,y,1/2-z
-x,-y,-z
x,-y,1/2+z
1/2+x,1/2+y,z
1/2-x,1/2+y,1/2-z
1/2-x,1/2-y,-z
1/2+x,1/2-y,1/2+z
loop_
_atom_site_type_symbol
_atom_site_label
_atom_site_fract_x
_atom_site_fract_y
_atom_site_fract_z
Si Si1 0.601742 0.335446 0.190987
Si Si2 0.068435 0.718373 0.742345
Si Si3 0.611789 0.307701 0.847059
Si Si4 0.810407 0.465258 0.691210
Si Si5 0.914157 0.519163 0.455691
Si Si6 0.048897 0.229698 0.883554
Si Si7 0.790128 0.529203 0.451476
O O1 0.500000 0.296922 0.250000
O O2 0.580484 0.392015 0.291543
O O3 0.666133 0.174137 0.135447
O O4 0.665476 0.465747 0.084069
O O5 0.089873 0.825663 0.787117
O O6 0.175857 0.641229 0.609459
O O7 0.000000 0.804879 0.750000
O O8 0.001833 0.570013 0.828540
O O9 0.688679 0.444088 0.797205
O O10 0.665269 0.139265 0.806473
O O11 0.503690 0.337341 0.994636
O O12 0.873268 0.420673 0.560495
O O13 0.851922 0.338836 0.703293
O O14 0.821336 0.557544 0.498718
O O15 0.955473 0.680010 0.442151
#
# Coordination Sequence:
#
# PCOD8130692 Si02
#       7
#     8   8   8   8   8   8   8
#     4  11  20  32  53  94 131 164 209 280 350 387
#     4  10  18  38  66  92 123 170 232 278 314 402
#     4  11  23  41  65  99 130 177 225 276 338 397
#     4  11  23  38  65  95 129 169 224 273 334 398
#     4  10  17  37  59  87 116 162 221 269 312 393
#     4  11  20  36  61  91 126 170 221 273 317 406
#     4  10  20  31  59  89 121 162 220 274 325 389
#
# _framework density 25.655225999999999
#
# number of rings (size 3 to 8) (size 9 to 14) (size 15 to 20)
#    0.000    1.429    5.714    1.286    4.000    1.143 
#    0.000    3.571    3.143    0.000    0.000    0.000 
#    0.000    0.000    0.000    0.000    0.000    0.000 
#
# Total GULP energy -346908.555334 kJ/mol
# GULP energy per Si atom -12389.591262 kJ/mol
# Density = 2.559683 g / cm^3
# Si number density = 25.655226 Si / 1000 Ang^3
#
#
#
# Elastic Constant Matrix: (Units=GPa)
#
#
# Indices 1 2 3 4 5 6 
#
# 1 126.6150 14.8710 49.9087 0.0182 23.7532 -0.0041
# 2 14.8710 59.9030 9.8067 0.0602 0.6947 -0.0172
# 3 49.9087 9.8067 131.6875 -0.0038 6.9814 -0.0029
# 4 0.0182 0.0602 -0.0038 9.2731 -0.0158 -22.9550
# 5 23.7532 0.6947 6.9814 -0.0158 42.0071 0.0049
# 6 -0.0041 -0.0172 -0.0029 -22.9550 0.0049 -4.2877
#
#
#
# Elastic Compliance Matrix: (Units=1/GPa)
#
#
# Indices 1 2 3 4 5 6 
#
# 1 0.010534 -0.001970 -0.003563 -0.000002 -0.005332 0.000007
# 2 -0.001970 0.017268 -0.000588 -0.000019 0.000926 0.000035
# 3 -0.003563 -0.000588 0.008960 0.000001 0.000535 -0.000006
# 4 -0.000002 -0.000019 0.000001 0.007566 0.000009 -0.040507
# 5 -0.005332 0.000926 0.000535 0.000009 0.026716 -0.000017
# 6 0.000007 0.000035 -0.000006 -0.040507 -0.000017 -0.016363
#
#
# Mechanical properties :
#
#
# Convention : Reuss Voigt Hill
#
# Bulk Modulus (GPa) = 40.78454 51.93092 46.35773
# Shear Modulus (GPa) = 66.58095 25.63977 46.11036
#
# Velocity S-wave (km/s) = 5.09986 3.16475 4.24407
# Velocity P-wave (km/s) = 7.11405 5.80000 6.49037
#
# Compressibility (1/GPa) = 0.02451909
#
# Stress axis : x y z
#
# Youngs Moduli (GPa) = 94.93053 57.90955 111.61329
#
# Poissons Ratio (x) = 0.11408 0.39767
# Poissons Ratio (y) = 0.18701 0.06568
# Poissons Ratio (z) = 0.33823 0.03408
#
# Static dielectric constant tensor:
#      x y z
#    x 5.114090 0.000000 0.433560 
#    y 0.000000 4.058590 0.000020 
#    z 0.433560 0.000020 5.234870 
# 
# 
# High freq. dielectric constant tensor:
#      x y z
#    x 2.031390 0.000000 0.009770 
#    y 0.000000 1.996420 0.000000 
#    z 0.009770 0.000000 2.034710 
# 
# From -- ./inp_files/257393.got.cif
#   From: 2010.06.25/outbox.cif.g09.slc.cpg/sg15_129_cif.got.tgz:257393.got - 2010.06.28 07:06:18.
