data_PCOD8130515
_publ_section_title
;
Structure prediction by ZEFSAII (Michael W. Deem and Ramdas Pophale) SiO2 
 PCOD8130515
Probable space group: C 2/C
;
_chemical_formula_sum "Si O2"
_cell_formula_units_Z 60
_cell_length_a 15.938993
_cell_length_b 11.867872
_cell_length_c 23.516139
_cell_angle_alpha 90.000000
_cell_angle_beta 40.354980
_cell_angle_gamma 90.000000
_cell_volume 2880.406799
_symmetry_space_group_name_H-M "C 2/C"
_symmetry_group_IT_number 15
_symmetry_cell_setting 'monoclinic'
loop_
_space_group_symop_operation_xyz
x,y,z
-x,y,1/2-z
-x,-y,-z
x,-y,1/2+z
1/2+x,1/2+y,z
1/2-x,1/2+y,1/2-z
1/2-x,1/2-y,-z
1/2+x,1/2-y,1/2+z
loop_
_atom_site_type_symbol
_atom_site_label
_atom_site_fract_x
_atom_site_fract_y
_atom_site_fract_z
Si Si1 0.000000 0.869254 0.250000
Si Si2 0.397013 0.697295 0.131060
Si Si3 0.087915 0.993295 0.304824
Si Si4 0.169657 0.420415 0.884500
Si Si5 0.372764 0.746877 0.681234
Si Si6 0.465872 0.080906 0.936161
Si Si7 0.620424 0.128466 0.073366
Si Si8 0.261654 0.249058 0.590836
O O1 0.021397 0.944433 0.181647
O O2 0.865593 0.798558 0.309838
O O3 0.462396 0.582060 0.121484
O O4 0.251101 0.693764 0.228284
O O5 0.485145 0.797695 0.110861
O O6 0.376813 0.708462 0.073232
O O7 0.145007 0.887834 0.311450
O O8 0.186191 0.052576 0.210096
O O9 0.115012 0.302422 0.887561
O O10 0.084884 0.527186 0.909024
O O11 0.158699 0.405674 0.958124
O O12 0.502897 0.784352 0.648195
O O13 0.428131 0.001254 0.902238
O O14 0.723366 0.144366 0.070834
O O15 0.680729 0.152867 0.979984
#
# Coordination Sequence:
#
# PCOD8130515 Si02
#       8
#     4   8   8   8   8   8   8   8
#     4  12  20  38  62  80 116 144 196 228 286 336
#     4  11  21  34  58  84 116 145 194 228 289 337
#     4  11  21  34  57  85 112 148 184 240 281 338
#     4   9  18  31  57  80 110 143 193 225 282 330
#     4  10  18  34  53  87 111 145 185 245 272 335
#     4  10  17  34  54  82 110 151 182 231 275 347
#     4  10  21  33  61  85 118 139 195 236 292 323
#     4  11  20  36  58  91 106 148 189 248 278 330
#
# _framework density 20.830390999999999
#
# number of rings (size 3 to 8) (size 9 to 14) (size 15 to 20)
#    0.000    1.600    4.000    3.200    0.000    0.000 
#    0.000    2.667    5.867    1.600    0.000    0.000 
#    0.000    0.000    0.000    0.000    0.000    0.000 
#
# Total GULP energy -371755.723537 kJ/mol
# GULP energy per Si atom -12391.857451 kJ/mol
# Density = 2.078298 g / cm^3
# Si number density = 20.830391 Si / 1000 Ang^3
#
#
#
# Elastic Constant Matrix: (Units=GPa)
#
#
# Indices 1 2 3 4 5 6 
#
# 1 64.8534 37.6112 -2.0197 0.0000 18.4356 0.0000
# 2 37.6112 112.5641 17.0855 0.0000 19.1273 0.0000
# 3 -2.0197 17.0855 56.7492 0.0000 0.8372 0.0000
# 4 0.0000 0.0000 0.0000 23.4954 0.0000 -3.1518
# 5 18.4356 19.1273 0.8372 0.0000 23.2470 0.0000
# 6 0.0000 0.0000 0.0000 -3.1518 0.0000 23.9675
#
#
#
# Elastic Compliance Matrix: (Units=1/GPa)
#
#
# Indices 1 2 3 4 5 6 
#
# 1 0.022598 -0.005698 0.002716 0.000000 -0.013331 0.000000
# 2 -0.005698 0.012296 -0.003824 0.000000 -0.005461 0.000000
# 3 0.002716 -0.003824 0.018865 0.000000 0.000313 0.000000
# 4 0.000000 0.000000 0.000000 0.043326 0.000000 0.005697
# 5 -0.013331 -0.005461 0.000313 0.000000 0.058070 0.000000
# 6 0.000000 0.000000 0.000000 0.005697 0.000000 0.042472
#
#
# Mechanical properties :
#
#
# Convention : Reuss Voigt Hill
#
# Bulk Modulus (GPa) = 24.90823 37.72452 31.31638
# Shear Modulus (GPa) = 22.25981 26.24129 24.25055
#
# Velocity S-wave (km/s) = 3.27252 3.55316 3.41573
# Velocity P-wave (km/s) = 5.12473 5.91463 5.53379
#
# Compressibility (1/GPa) = 0.04014737
#
# Stress axis : x y z
#
# Youngs Moduli (GPa) = 44.25217 81.32743 53.00877
#
# Poissons Ratio (x) = 0.46338 -0.14399
# Poissons Ratio (y) = 0.25214 0.20271
# Poissons Ratio (z) = -0.12020 0.31101
#
# Static dielectric constant tensor:
#      x y z
#    x 3.643480 0.000000 0.083150 
#    y 0.000000 3.788370 0.000000 
#    z 0.083150 0.000000 3.760000 
# 
# 
# High freq. dielectric constant tensor:
#      x y z
#    x 1.784770 0.000000 0.001010 
#    y 0.000000 1.801410 0.000000 
#    z 0.001010 0.000000 1.812770 
# 
# From -- ./inp_files/160941.got.cif
#   From: 2010.06.25/outbox.cif.g09.slc.cpg/sg15_81_cif.got.tgz:160941.got - 2010.06.28 07:06:18.
