data_PCOD8130416
_publ_section_title
;
Structure prediction by ZEFSAII (Michael W. Deem and Ramdas Pophale) SiO2 
 PCOD8130416
Probable space group: C 2/C
;
_chemical_formula_sum "Si O2"
_cell_formula_units_Z 60
_cell_length_a 27.032214
_cell_length_b 22.145325
_cell_length_c 14.539454
_cell_angle_alpha 90.000000
_cell_angle_beta 160.262888
_cell_angle_gamma 90.000000
_cell_volume 2939.336230
_symmetry_space_group_name_H-M "C 2/C"
_symmetry_group_IT_number 15
_symmetry_cell_setting 'monoclinic'
loop_
_space_group_symop_operation_xyz
x,y,z
-x,y,1/2-z
-x,-y,-z
x,-y,1/2+z
1/2+x,1/2+y,z
1/2-x,1/2+y,1/2-z
1/2-x,1/2-y,-z
1/2+x,1/2-y,1/2+z
loop_
_atom_site_type_symbol
_atom_site_label
_atom_site_fract_x
_atom_site_fract_y
_atom_site_fract_z
Si Si1 0.500000 0.057948 0.750000
Si Si2 0.068352 0.011196 0.970586
Si Si3 0.385160 0.175465 0.977541
Si Si4 0.452025 0.692326 0.072074
Si Si5 0.149727 0.458666 0.107427
Si Si6 0.119907 0.241522 0.201443
Si Si7 0.849124 0.079216 0.117527
Si Si8 0.712796 0.380025 0.799563
O O1 0.365918 0.104561 0.520648
O O2 0.472649 0.012463 0.614296
O O3 0.000000 0.009810 0.750000
O O4 0.082016 0.079743 0.028731
O O5 0.957967 0.973808 0.842566
O O6 0.226337 0.978337 0.249922
O O7 0.221039 0.181844 0.728401
O O8 0.425354 0.104848 0.046392
O O9 0.406452 0.201034 0.910664
O O10 0.500000 0.206258 0.250000
O O11 0.500000 0.728678 0.250000
O O12 0.482143 0.726611 0.027557
O O13 0.550392 0.631186 0.253191
O O14 0.225916 0.451345 0.339020
O O15 0.250000 0.250000 0.500000
O O16 0.160857 0.189009 0.199468
O O17 0.762674 0.107417 0.050295
#
# Coordination Sequence:
#
# PCOD8130416 Si02
#       8
#     4   8   8   8   8   8   8   8
#     4  10  22  38  56  86 130 162 188 258 342 366
#     4   9  17  32  57  83 110 146 190 248 311 364
#     4  12  23  38  63  95 131 169 208 275 320 366
#     4  11  19  38  66  89 119 163 220 263 303 377
#     4  10  18  34  59  88 117 153 204 247 306 380
#     4  11  24  41  64  92 118 171 230 255 305 394
#     4  10  17  32  59  88 109 149 211 249 299 373
#     4  10  22  35  54  83 120 153 200 256 305 374
#
# _framework density 20.412770999999999
#
# number of rings (size 3 to 8) (size 9 to 14) (size 15 to 20)
#    0.000    1.600    4.667    1.600    0.000    2.667 
#    0.000    0.000    0.000    3.200    0.000    0.000 
#    0.000    0.000    0.000    0.000    0.000    0.000 
#
# Total GULP energy -371657.549035 kJ/mol
# GULP energy per Si atom -12388.584968 kJ/mol
# Density = 2.036631 g / cm^3
# Si number density = 20.412771 Si / 1000 Ang^3
#
#
#
# Elastic Constant Matrix: (Units=GPa)
#
#
# Indices 1 2 3 4 5 6 
#
# 1 66.5971 28.5399 19.5093 0.0000 0.8704 0.0000
# 2 28.5399 81.8273 12.0028 0.0000 1.3115 0.0000
# 3 19.5093 12.0028 77.9750 0.0000 -9.8919 0.0000
# 4 0.0000 0.0000 0.0000 19.8899 0.0000 -8.8956
# 5 0.8704 1.3115 -9.8919 0.0000 26.9689 0.0000
# 6 0.0000 0.0000 0.0000 -8.8956 0.0000 28.5833
#
#
#
# Elastic Compliance Matrix: (Units=1/GPa)
#
#
# Indices 1 2 3 4 5 6 
#
# 1 0.018751 -0.005924 -0.004006 0.000000 -0.001787 0.000000
# 2 -0.005924 0.014424 -0.000842 0.000000 -0.000819 0.000000
# 3 -0.004006 -0.000842 0.014660 0.000000 0.005548 0.000000
# 4 0.000000 0.000000 0.000000 0.058406 0.000000 0.018177
# 5 -0.001787 -0.000819 0.005548 0.000000 0.039212 0.000000
# 6 0.000000 0.000000 0.000000 0.018177 0.000000 0.040643
#
#
# Mechanical properties :
#
#
# Convention : Reuss Voigt Hill
#
# Bulk Modulus (GPa) = 38.03592 38.50037 38.26814
# Shear Modulus (GPa) = 23.10489 26.17822 24.64155
#
# Velocity S-wave (km/s) = 3.36800 3.58501 3.47820
# Velocity P-wave (km/s) = 5.81364 6.00319 5.90917
#
# Compressibility (1/GPa) = 0.02629094
#
# Stress axis : x y z
#
# Youngs Moduli (GPa) = 53.32964 69.33067 68.21099
#
# Poissons Ratio (x) = 0.41070 0.27328
# Poissons Ratio (y) = 0.31592 0.05743
# Poissons Ratio (z) = 0.21366 0.05838
#
# Static dielectric constant tensor:
#      x y z
#    x 3.757920 0.000000 0.026610 
#    y 0.000000 3.939860 0.000000 
#    z 0.026610 0.000000 3.714580 
# 
# 
# High freq. dielectric constant tensor:
#      x y z
#    x 1.782160 0.000000 -0.004000 
#    y 0.000000 1.792430 0.000000 
#    z -0.004000 0.000000 1.794220 
# 
# From -- ./inp_files/179111.got.cif
#   From: 2010.06.25/outbox.cif.g09.slc.cpg/sg15_90_cif.got.tgz:179111.got - 2010.06.28 07:06:18.
