data_PCOD8130707
_publ_section_title
;
Structure prediction by ZEFSAII (Michael W. Deem and Ramdas Pophale) SiO2 
 PCOD8130707
Probable space group: C 2/C
;
_chemical_formula_sum "Si O2"
_cell_formula_units_Z 56
_cell_length_a 26.047677
_cell_length_b 19.331351
_cell_length_c 9.129450
_cell_angle_alpha 90.000000
_cell_angle_beta 41.182285
_cell_angle_gamma 90.000000
_cell_volume 3026.935043
_symmetry_space_group_name_H-M "C 2/C"
_symmetry_group_IT_number 15
_symmetry_cell_setting 'monoclinic'
loop_
_space_group_symop_operation_xyz
x,y,z
-x,y,1/2-z
-x,-y,-z
x,-y,1/2+z
1/2+x,1/2+y,z
1/2-x,1/2+y,1/2-z
1/2-x,1/2-y,-z
1/2+x,1/2-y,1/2+z
loop_
_atom_site_type_symbol
_atom_site_label
_atom_site_fract_x
_atom_site_fract_y
_atom_site_fract_z
Si Si1 0.233165 0.720405 0.377424
Si Si2 0.267683 0.929928 0.026316
Si Si3 0.919357 0.241589 0.477001
Si Si4 0.928713 0.960570 0.316598
Si Si5 0.409004 0.587243 0.541052
Si Si6 0.319611 0.783072 0.944178
Si Si7 0.253458 0.567049 0.261065
O O1 0.250000 0.750000 0.500000
O O2 0.151661 0.748603 0.485492
O O3 0.226896 0.637412 0.396372
O O4 0.309730 0.744224 0.120225
O O5 0.319928 0.865986 0.969509
O O6 0.282682 0.939020 0.822125
O O7 0.182363 0.903326 0.245034
O O8 0.283443 0.003076 0.070166
O O9 0.943754 0.162125 0.443187
O O10 0.898768 0.268177 0.684978
O O11 0.000000 0.278575 0.250000
O O12 0.940797 0.951427 0.117885
O O13 0.847189 0.931883 0.553649
O O14 0.000000 0.923290 0.250000
O O15 0.930470 0.042681 0.350716
O O16 0.250000 0.750000 0.000000
#
# Coordination Sequence:
#
# PCOD8130707 Si02
#       7
#     8   8   8   8   8   8   8
#     4  11  23  38  60  87 118 150 200 248 285 345
#     4  10  18  33  56  80 111 145 189 232 285 344
#     4  11  22  38  62  83 111 156 200 236 298 354
#     4  10  20  31  48  76 118 156 185 229 276 344
#     4  10  19  33  51  79 115 154 189 223 282 344
#     4  10  17  38  60  77 115 154 186 232 292 342
#     4  10  21  33  52  83 108 148 194 237 284 343
#
# _framework density 18.500563
#
# number of rings (size 3 to 8) (size 9 to 14) (size 15 to 20)
#    0.000    1.714    5.714    1.714    2.000    3.429 
#    0.000    0.714    0.000    0.857    0.000    0.000 
#    0.000    0.000    0.000    0.000    0.000    0.000 
#
# Total GULP energy -346982.368589 kJ/mol
# GULP energy per Si atom -12392.227450 kJ/mol
# Density = 1.845845 g / cm^3
# Si number density = 18.500563 Si / 1000 Ang^3
#
#
#
# Elastic Constant Matrix: (Units=GPa)
#
#
# Indices 1 2 3 4 5 6 
#
# 1 50.5740 30.0306 31.8419 0.0000 11.0457 0.0000
# 2 30.0306 147.0716 44.4266 0.0000 15.0477 0.0000
# 3 31.8419 44.4266 115.4224 0.0000 13.0153 0.0000
# 4 0.0000 0.0000 0.0000 8.7429 0.0000 12.9868
# 5 11.0457 15.0477 13.0153 0.0000 27.9558 0.0000
# 6 0.0000 0.0000 0.0000 12.9868 0.0000 20.7962
#
#
#
# Elastic Compliance Matrix: (Units=1/GPa)
#
#
# Indices 1 2 3 4 5 6 
#
# 1 0.026371 -0.003125 -0.005369 0.000000 -0.006238 0.000000
# 2 -0.003125 0.008296 -0.002076 0.000000 -0.002265 0.000000
# 3 -0.005369 -0.002076 0.011165 0.000000 -0.001959 0.000000
# 4 0.000000 0.000000 0.000000 1.579946 0.000000 -0.986642
# 5 -0.006238 -0.002265 -0.001959 0.000000 0.040367 0.000000
# 6 0.000000 0.000000 0.000000 -0.986642 0.000000 0.664222
#
#
# Mechanical properties :
#
#
# Convention : Reuss Voigt Hill
#
# Bulk Modulus (GPa) = 40.49683 58.40735 49.45209
# Shear Modulus (GPa) = 2.11888 25.28359 13.70123
#
# Velocity S-wave (km/s) = 1.07135 3.70082 2.72432
# Velocity P-wave (km/s) = 4.84432 7.06403 6.05673
#
# Compressibility (1/GPa) = 0.02469329
#
# Stress axis : x y z
#
# Youngs Moduli (GPa) = 37.92018 120.53714 89.56606
#
# Poissons Ratio (x) = 0.37664 0.48088
# Poissons Ratio (y) = 0.11849 0.18593
# Poissons Ratio (z) = 0.20359 0.25022
#
# Static dielectric constant tensor:
#      x y z
#    x 4.142710 0.000000 0.234780 
#    y 0.000000 3.480940 0.000000 
#    z 0.234780 0.000000 3.784120 
# 
# 
# High freq. dielectric constant tensor:
#      x y z
#    x 1.680870 0.000000 0.019960 
#    y 0.000000 1.718710 0.000000 
#    z 0.019960 0.000000 1.723660 
# 
# From -- ./inp_files/67098.got.cif
#   From: 2010.06.25/outbox.cif.g09.slc.cpg/sg15_34_cif.got.tgz:67098.got - 2010.06.28 07:06:18.
