data_PCOD8130460
_publ_section_title
;
Structure prediction by ZEFSAII (Michael W. Deem and Ramdas Pophale) SiO2 
 PCOD8130460
Probable space group: C 2/C
;
_chemical_formula_sum "Si O2"
_cell_formula_units_Z 56
_cell_length_a 12.281139
_cell_length_b 22.533125
_cell_length_c 27.524412
_cell_angle_alpha 90.000000
_cell_angle_beta 153.397581
_cell_angle_gamma 90.000000
_cell_volume 3410.822706
_symmetry_space_group_name_H-M "C 2/C"
_symmetry_group_IT_number 15
_symmetry_cell_setting 'monoclinic'
loop_
_space_group_symop_operation_xyz
x,y,z
-x,y,1/2-z
-x,-y,-z
x,-y,1/2+z
1/2+x,1/2+y,z
1/2-x,1/2+y,1/2-z
1/2-x,1/2-y,-z
1/2+x,1/2-y,1/2+z
loop_
_atom_site_type_symbol
_atom_site_label
_atom_site_fract_x
_atom_site_fract_y
_atom_site_fract_z
Si Si1 0.145089 0.158234 0.458728
Si Si2 0.848004 0.445831 0.640050
Si Si3 0.500000 0.237738 0.250000
Si Si4 0.018864 0.269863 0.471799
Si Si5 0.216209 0.075550 0.567465
Si Si6 0.753995 0.275278 0.835483
Si Si7 0.500000 0.837217 0.250000
Si Si8 0.119082 0.657662 0.208756
O O1 0.340756 0.176216 0.496938
O O2 0.241332 0.098403 0.522370
O O3 0.113255 0.207572 0.488030
O O4 0.896321 0.144673 0.332199
O O5 0.861098 0.513942 0.628620
O O6 0.568222 0.428313 0.534059
O O7 0.000000 0.436181 0.750000
O O8 0.970309 0.404335 0.647441
O O9 0.736369 0.279201 0.346266
O O10 0.491382 0.197349 0.198696
O O11 0.059154 0.271987 0.545333
O O12 0.337570 0.122275 0.651470
O O13 0.500000 0.308099 0.750000
O O14 0.676769 0.207425 0.789216
O O15 0.891349 0.308972 0.847019
#
# Coordination Sequence:
#
# PCOD8130460 Si02
#       8
#     8   8   4   8   8   8   4   8
#     4  10  17  33  57  76 105 145 184 220 265 334
#     4  11  21  36  53  80 110 144 191 229 274 323
#     4  10  22  31  50  80 111 152 170 218 276 334
#     4  10  19  33  51  81 112 143 180 213 275 340
#     4  11  21  34  56  80 113 145 178 237 278 322
#     4  10  20  33  54  86 110 142 184 225 272 332
#     4  10  20  33  52  86 113 140 178 230 284 322
#     4  11  20  35  55  79 113 148 183 223 270 335
#
# _framework density 16.418326
#
# number of rings (size 3 to 8) (size 9 to 14) (size 15 to 20)
#    0.429    1.143    5.714    0.857    4.000    0.571 
#    0.000    0.000    0.000    0.857    1.857    0.000 
#    0.000    0.000    0.000    0.000    0.000    0.000 
#
# Total GULP energy -347081.770644 kJ/mol
# GULP energy per Si atom -12395.777523 kJ/mol
# Density = 1.638096 g / cm^3
# Si number density = 16.418326 Si / 1000 Ang^3
#
#
#
# Elastic Constant Matrix: (Units=GPa)
#
#
# Indices 1 2 3 4 5 6 
#
# 1 86.6390 52.6423 36.4612 0.0001 -3.8240 0.0008
# 2 52.6423 105.1162 43.6570 0.0003 0.3622 0.0016
# 3 36.4612 43.6570 88.3712 0.0325 -0.9812 -0.0089
# 4 0.0001 0.0003 0.0325 21.1647 0.0037 4.5949
# 5 -3.8240 0.3622 -0.9812 0.0037 30.0349 -0.0013
# 6 0.0008 0.0016 -0.0089 4.5949 -0.0013 24.3732
#
#
#
# Elastic Compliance Matrix: (Units=1/GPa)
#
#
# Indices 1 2 3 4 5 6 
#
# 1 0.017615 -0.007324 -0.003625 0.000006 0.002213 -0.000002
# 2 -0.007324 0.015017 -0.004411 0.000008 -0.001258 -0.000004
# 3 -0.003625 -0.004411 0.014992 -0.000025 0.000081 0.000011
# 4 0.000006 0.000008 -0.000025 0.049265 -0.000007 -0.009288
# 5 0.002213 -0.001258 0.000081 -0.000007 0.033594 0.000003
# 6 -0.000002 -0.000004 0.000011 -0.009288 0.000003 0.042780
#
#
# Mechanical properties :
#
#
# Convention : Reuss Voigt Hill
#
# Bulk Modulus (GPa) = 59.15699 60.62748 59.89224
# Shear Modulus (GPa) = 23.85287 24.93896 24.39591
#
# Velocity S-wave (km/s) = 3.81572 3.90163 3.85891
# Velocity P-wave (km/s) = 7.45133 7.56993 7.51086
#
# Compressibility (1/GPa) = 0.01690417
#
# Stress axis : x y z
#
# Youngs Moduli (GPa) = 56.76833 66.58938 66.70325
#
# Poissons Ratio (x) = 0.48769 0.24182
# Poissons Ratio (y) = 0.41576 0.29424
# Poissons Ratio (z) = 0.20580 0.29373
#
# Static dielectric constant tensor:
#      x y z
#    x 2.965010 -0.000010 0.032120 
#    y -0.000010 3.113840 -0.000020 
#    z 0.032120 -0.000020 3.219750 
# 
# 
# High freq. dielectric constant tensor:
#      x y z
#    x 1.607430 0.000000 0.003060 
#    y 0.000000 1.611920 0.000000 
#    z 0.003060 0.000000 1.649690 
# 
# From -- ./inp_files/90388.got.cif
#   From: 2010.06.25/outbox.cif.g09.slc.cpg/sg15_46_cif.got.tgz:90388.got - 2010.06.28 07:06:18.
