data_PCOD8130879
_publ_section_title
;
Structure prediction by ZEFSAII (Michael W. Deem and Ramdas Pophale) SiO2 
 PCOD8130879
Probable space group: C 2/C
;
_chemical_formula_sum "Si O2"
_cell_formula_units_Z 48
_cell_length_a 12.951545
_cell_length_b 25.614347
_cell_length_c 8.383806
_cell_angle_alpha 90.000000
_cell_angle_beta 75.136546
_cell_angle_gamma 90.000000
_cell_volume 2688.226588
_symmetry_space_group_name_H-M "C 2/C"
_symmetry_group_IT_number 15
_symmetry_cell_setting 'monoclinic'
loop_
_space_group_symop_operation_xyz
x,y,z
-x,y,1/2-z
-x,-y,-z
x,-y,1/2+z
1/2+x,1/2+y,z
1/2-x,1/2+y,1/2-z
1/2-x,1/2-y,-z
1/2+x,1/2-y,1/2+z
loop_
_atom_site_type_symbol
_atom_site_label
_atom_site_fract_x
_atom_site_fract_y
_atom_site_fract_z
Si Si1 0.297169 0.127309 0.426500
Si Si2 0.377813 0.143293 0.051537
Si Si3 0.528265 0.056259 0.055228
Si Si4 0.431424 0.781498 0.020612
Si Si5 0.610290 0.322165 0.153169
Si Si6 0.224511 0.707765 0.644807
O O1 0.307539 0.126320 0.231653
O O2 0.348051 0.076072 0.496032
O O3 0.356807 0.179709 0.452442
O O4 0.174716 0.133499 0.529374
O O5 0.458383 0.096252 0.978259
O O6 0.447368 0.196845 0.040607
O O7 0.297542 0.152521 0.936215
O O8 0.500000 0.060810 0.250000
O O9 0.500000 0.000000 0.000000
O O10 0.425201 0.725107 0.945209
O O11 0.384114 0.776397 0.218387
O O12 0.500000 0.349655 0.250000
O O13 0.676880 0.300116 0.276089
O O14 0.250000 0.750000 0.500000
#
# Coordination Sequence:
#
# PCOD8130879 Si02
#       6
#     8   8   8   8   8   8
#     4   9  18  33  49  68  99 133 161 199 247 296
#     4  10  19  33  50  73 101 128 161 208 256 294
#     4   9  19  33  54  80 102 124 153 198 259 311
#     4  10  18  30  47  67  97 134 166 203 249 298
#     4  11  21  32  46  66  97 140 176 203 240 294
#     4  11  20  29  45  70  96 131 173 211 244 287
#
# _framework density 17.855636000000001
#
# number of rings (size 3 to 8) (size 9 to 14) (size 15 to 20)
#    0.000    2.000    0.000    8.000    0.000    4.000 
#    0.000    2.500    0.000    0.000    0.000   10.500 
#    0.000    0.000    0.000    0.000    0.000    0.000 
#
# Total GULP energy -297384.316411 kJ/mol
# GULP energy per Si atom -12391.013184 kJ/mol
# Density = 1.781500 g / cm^3
# Si number density = 17.855636 Si / 1000 Ang^3
#
#
#
# Elastic Constant Matrix: (Units=GPa)
#
#
# Indices 1 2 3 4 5 6 
#
# 1 85.1052 40.7391 39.7094 0.0000 -21.8547 0.0000
# 2 40.7391 92.7815 25.1196 0.0000 0.0369 0.0000
# 3 39.7094 25.1196 85.5053 0.0000 -6.2037 0.0000
# 4 0.0000 0.0000 0.0000 24.6784 0.0000 7.9888
# 5 -21.8547 0.0369 -6.2037 0.0000 29.0876 0.0000
# 6 0.0000 0.0000 0.0000 7.9888 0.0000 23.4676
#
#
#
# Elastic Compliance Matrix: (Units=1/GPa)
#
#
# Indices 1 2 3 4 5 6 
#
# 1 0.023082 -0.008202 -0.007162 0.000000 0.015825 0.000000
# 2 -0.008202 0.014641 -0.000955 0.000000 -0.006385 0.000000
# 3 -0.007162 -0.000955 0.015146 0.000000 -0.002149 0.000000
# 4 0.000000 0.000000 0.000000 0.045540 0.000000 -0.015503
# 5 0.015825 -0.006385 -0.002149 0.000000 0.045819 0.000000
# 6 0.000000 0.000000 0.000000 -0.015503 0.000000 0.047889
#
#
# Mechanical properties :
#
#
# Convention : Reuss Voigt Hill
#
# Bulk Modulus (GPa) = 49.43094 52.72535 51.07815
# Shear Modulus (GPa) = 21.59849 25.96834 23.78342
#
# Velocity S-wave (km/s) = 3.48173 3.81773 3.65359
# Velocity P-wave (km/s) = 6.62624 7.00187 6.81664
#
# Compressibility (1/GPa) = 0.02023025
#
# Stress axis : x y z
#
# Youngs Moduli (GPa) = 43.32384 68.30290 66.02519
#
# Poissons Ratio (x) = 0.56024 0.47285
# Poissons Ratio (y) = 0.35536 0.06306
# Poissons Ratio (z) = 0.31027 0.06524
#
# Static dielectric constant tensor:
#      x y z
#    x 3.608850 0.000000 -0.178780 
#    y 0.000000 2.796600 0.000000 
#    z -0.178780 0.000000 3.603940 
# 
# 
# High freq. dielectric constant tensor:
#      x y z
#    x 1.679810 0.000000 -0.000260 
#    y 0.000000 1.646480 0.000000 
#    z -0.000260 0.000000 1.705780 
# 
# From -- ./inp_files/33038.got.cif
#   From: 2010.06.25/outbox.cif.g09.slc.cpg/sg15_17_cif.got.tgz:33038.got - 2010.06.28 07:06:18.
