data_PCOD8130658
_publ_section_title
;
Structure prediction by ZEFSAII (Michael W. Deem and Ramdas Pophale) SiO2 
 PCOD8130658
Probable space group: C 2/C
;
_chemical_formula_sum "Si O2"
_cell_formula_units_Z 56
_cell_length_a 14.751122
_cell_length_b 17.298701
_cell_length_c 12.244754
_cell_angle_alpha 90.000000
_cell_angle_beta 112.066540
_cell_angle_gamma 90.000000
_cell_volume 2895.678588
_symmetry_space_group_name_H-M "C 2/C"
_symmetry_group_IT_number 15
_symmetry_cell_setting 'monoclinic'
loop_
_space_group_symop_operation_xyz
x,y,z
-x,y,1/2-z
-x,-y,-z
x,-y,1/2+z
1/2+x,1/2+y,z
1/2-x,1/2+y,1/2-z
1/2-x,1/2-y,-z
1/2+x,1/2-y,1/2+z
loop_
_atom_site_type_symbol
_atom_site_label
_atom_site_fract_x
_atom_site_fract_y
_atom_site_fract_z
Si Si1 0.896666 0.930630 0.496929
Si Si2 0.193120 0.365896 0.781764
Si Si3 0.769417 0.568712 0.422317
Si Si4 0.175238 0.785664 0.382637
Si Si5 0.097120 0.891600 0.517484
Si Si6 0.388671 0.976146 0.177884
Si Si7 0.268270 0.578196 0.736065
O O1 0.818760 0.893584 0.546153
O O2 0.863030 0.923463 0.356235
O O3 0.000579 0.885641 0.551075
O O4 0.902222 0.021487 0.529773
O O5 0.190460 0.370372 0.648599
O O6 0.139040 0.286164 0.791873
O O7 0.306459 0.372622 0.869317
O O8 0.132261 0.433851 0.810679
O O9 0.859504 0.544164 0.540604
O O10 0.726901 0.494660 0.341135
O O11 0.250000 0.750000 0.500000
O O12 0.090714 0.831848 0.411358
O O13 0.235420 0.843996 0.334376
O O14 0.500000 0.956130 0.250000
O O15 0.328617 0.923307 0.234310
#
# Coordination Sequence:
#
# PCOD8130658 Si02
#       7
#     8   8   8   8   8   8   8
#     4  10  19  32  55  88 117 143 194 233 285 338
#     4  10  20  36  57  86 115 154 192 233 294 338
#     4  10  17  36  58  86 110 148 196 242 280 336
#     4  10  20  37  59  80 120 154 183 230 290 349
#     4  10  18  34  55  85 115 153 186 230 284 345
#     4  10  21  38  59  81 109 148 202 249 282 327
#     4  10  19  36  59  82 113 150 191 238 286 330
#
# _framework density 19.339162999999999
#
# number of rings (size 3 to 8) (size 9 to 14) (size 15 to 20)
#    0.000    2.000    5.714    0.857    0.000    3.429 
#    2.571    2.857    9.429    0.000    0.000    0.000 
#    0.000    0.000    0.000    0.000    0.000    0.000 
#
# Total GULP energy -347051.311096 kJ/mol
# GULP energy per Si atom -12394.689682 kJ/mol
# Density = 1.929515 g / cm^3
# Si number density = 19.339163 Si / 1000 Ang^3
#
#
#
# Elastic Constant Matrix: (Units=GPa)
#
#
# Indices 1 2 3 4 5 6 
#
# 1 84.3414 20.5023 33.5284 0.0000 -2.4307 0.0000
# 2 20.5023 91.6042 27.9931 0.0000 -24.3028 0.0000
# 3 33.5284 27.9931 93.9340 0.0000 -22.3764 0.0000
# 4 0.0000 0.0000 0.0000 31.9545 0.0000 -14.0849
# 5 -2.4307 -24.3028 -22.3764 0.0000 29.3583 0.0000
# 6 0.0000 0.0000 0.0000 -14.0849 0.0000 28.2015
#
#
#
# Elastic Compliance Matrix: (Units=1/GPa)
#
#
# Indices 1 2 3 4 5 6 
#
# 1 0.014692 -0.003048 -0.005678 0.000000 -0.005634 0.000000
# 2 -0.003048 0.014853 -0.000574 0.000000 0.011606 0.000000
# 3 -0.005678 -0.000574 0.015418 0.000000 0.010806 0.000000
# 4 0.000000 0.000000 0.000000 0.040128 0.000000 0.020042
# 5 -0.005634 0.011606 0.010806 0.000000 0.051439 0.000000
# 6 0.000000 0.000000 0.000000 0.020042 0.000000 0.045469
#
#
# Mechanical properties :
#
#
# Convention : Reuss Voigt Hill
#
# Bulk Modulus (GPa) = 37.93149 48.21412 43.07280
# Shear Modulus (GPa) = 23.87927 30.42658 27.15293
#
# Velocity S-wave (km/s) = 3.51773 3.97081 3.75112
# Velocity P-wave (km/s) = 6.01296 6.78292 6.40951
#
# Compressibility (1/GPa) = 0.02636332
#
# Stress axis : x y z
#
# Youngs Moduli (GPa) = 68.06268 67.32608 64.86096
#
# Poissons Ratio (x) = 0.20521 0.36829
# Poissons Ratio (y) = 0.20746 0.03721
# Poissons Ratio (z) = 0.38647 0.03863
#
# Static dielectric constant tensor:
#      x y z
#    x 3.792140 0.000000 -0.511730 
#    y 0.000000 4.417020 0.000000 
#    z -0.511730 0.000000 4.002890 
# 
# 
# High freq. dielectric constant tensor:
#      x y z
#    x 1.743370 0.000000 -0.013350 
#    y 0.000000 1.727740 0.000000 
#    z -0.013350 0.000000 1.757270 
# 
# From -- ./inp_files/98398.got.cif
#   From: 2010.06.25/outbox.cif.g09.slc.cpg/sg15_50_cif.got.tgz:98398.got - 2010.06.28 07:06:18.
