data_PCOD8130619
_publ_section_title
;
Structure prediction by ZEFSAII (Michael W. Deem and Ramdas Pophale) SiO2 
 PCOD8130619
Probable space group: C 2/C
;
_chemical_formula_sum "Si O2"
_cell_formula_units_Z 48
_cell_length_a 9.017393
_cell_length_b 17.929163
_cell_length_c 28.067936
_cell_angle_alpha 90.000000
_cell_angle_beta 38.717650
_cell_angle_gamma 90.000000
_cell_volume 2838.357062
_symmetry_space_group_name_H-M "C 2/C"
_symmetry_group_IT_number 15
_symmetry_cell_setting 'monoclinic'
loop_
_space_group_symop_operation_xyz
x,y,z
-x,y,1/2-z
-x,-y,-z
x,-y,1/2+z
1/2+x,1/2+y,z
1/2-x,1/2+y,1/2-z
1/2-x,1/2-y,-z
1/2+x,1/2-y,1/2+z
loop_
_atom_site_type_symbol
_atom_site_label
_atom_site_fract_x
_atom_site_fract_y
_atom_site_fract_z
Si Si1 0.017847 0.027239 0.549089
Si Si2 0.874349 0.195381 0.332200
Si Si3 0.542411 0.070192 0.413834
Si Si4 0.482799 0.441295 0.859704
Si Si5 0.238631 0.029321 0.718443
Si Si6 0.088608 0.636255 0.674169
O O1 0.270296 0.064897 0.496591
O O2 0.825514 0.089094 0.609120
O O3 0.000000 0.000000 0.500000
O O4 0.986364 0.955413 0.591648
O O5 0.613875 0.157876 0.390485
O O6 0.854571 0.279319 0.356155
O O7 0.000000 0.190185 0.250000
O O8 0.018923 0.145712 0.335373
O O9 0.716434 0.033830 0.410239
O O10 0.590159 0.027059 0.352527
O O11 0.677654 0.491296 0.783997
O O12 0.382137 0.105328 0.691704
O O13 0.000000 0.048994 0.750000
O O14 0.000000 0.634411 0.750000
#
# Coordination Sequence:
#
# PCOD8130619 Si02
#       6
#     8   8   8   8   8   8
#     4  12  22  32  55  86 114 143 185 234 265 316
#     4   9  18  36  61  78 108 144 184 222 276 327
#     4   9  18  35  59  79 107 146 185 213 273 339
#     4   9  18  36  57  79 102 154 181 218 265 335
#     4  10  17  35  61  78 102 143 189 222 266 330
#     4  11  22  35  57  85 110 137 184 239 272 313
#
# _framework density 16.911190999999999
#
# number of rings (size 3 to 8) (size 9 to 14) (size 15 to 20)
#    1.000    1.000    5.000    0.500    0.000    0.667 
#    0.000    0.833   11.000    0.000    0.000    0.000 
#    0.000    0.000    0.000    0.000    0.000    0.000 
#
# Total GULP energy -297380.486029 kJ/mol
# GULP energy per Si atom -12390.853585 kJ/mol
# Density = 1.687270 g / cm^3
# Si number density = 16.911191 Si / 1000 Ang^3
#
#
#
# Elastic Constant Matrix: (Units=GPa)
#
#
# Indices 1 2 3 4 5 6 
#
# 1 68.2595 52.4925 41.5453 0.0060 10.8002 0.0146
# 2 52.4925 146.3664 49.9073 0.0094 1.5630 -0.0013
# 3 41.5453 49.9073 82.9442 0.0268 1.0885 0.0053
# 4 0.0060 0.0094 0.0268 12.6426 -0.0143 -1.4401
# 5 10.8002 1.5630 1.0885 -0.0143 33.5052 -0.0108
# 6 0.0146 -0.0013 0.0053 -1.4401 -0.0108 26.2419
#
#
#
# Elastic Compliance Matrix: (Units=1/GPa)
#
#
# Indices 1 2 3 4 5 6 
#
# 1 0.026356 -0.006167 -0.009387 0.000001 -0.007903 -0.000016
# 2 -0.006167 0.010041 -0.002974 0.000004 0.001616 0.000005
# 3 -0.009387 -0.002974 0.018514 -0.000030 0.002563 0.000001
# 4 0.000001 0.000004 -0.000030 0.079595 0.000036 0.004368
# 5 -0.007903 0.001616 0.002563 0.000036 0.032235 0.000019
# 6 -0.000016 0.000005 0.000001 0.004368 0.000019 0.038347
#
#
# Mechanical properties :
#
#
# Convention : Reuss Voigt Hill
#
# Bulk Modulus (GPa) = 56.00629 65.05116 60.52872
# Shear Modulus (GPa) = 20.15360 24.71962 22.43661
#
# Velocity S-wave (km/s) = 3.45589 3.82741 3.64638
# Velocity P-wave (km/s) = 7.00814 7.62115 7.32106
#
# Compressibility (1/GPa) = 0.01785514
#
# Stress axis : x y z
#
# Youngs Moduli (GPa) = 37.94146 99.59522 54.01445
#
# Poissons Ratio (x) = 0.61423 0.50703
# Poissons Ratio (y) = 0.23400 0.16061
# Poissons Ratio (z) = 0.35615 0.29615
#
# Static dielectric constant tensor:
#      x y z
#    x 3.045510 0.000020 -0.040800 
#    y 0.000020 3.148910 0.000030 
#    z -0.040800 0.000030 3.037590 
# 
# 
# High freq. dielectric constant tensor:
#      x y z
#    x 1.639880 0.000000 -0.000920 
#    y 0.000000 1.634760 0.000000 
#    z -0.000920 0.000000 1.658370 
# 
# From -- ./inp_files/289844.got.cif
#   From: 2010.06.25/outbox.cif.g09.slc.cpg/sg15_145_cif.got.tgz:289844.got - 2010.06.28 07:06:18.
