data_PCOD8130681
_publ_section_title
;
Structure prediction by ZEFSAII (Michael W. Deem and Ramdas Pophale) SiO2 
 PCOD8130681
Probable space group: C 2/C
;
_chemical_formula_sum "Si O2"
_cell_formula_units_Z 48
_cell_length_a 12.256162
_cell_length_b 19.205027
_cell_length_c 24.100356
_cell_angle_alpha 90.000000
_cell_angle_beta 153.182294
_cell_angle_gamma 90.000000
_cell_volume 2559.275636
_symmetry_space_group_name_H-M "C 2/C"
_symmetry_group_IT_number 15
_symmetry_cell_setting 'monoclinic'
loop_
_space_group_symop_operation_xyz
x,y,z
-x,y,1/2-z
-x,-y,-z
x,-y,1/2+z
1/2+x,1/2+y,z
1/2-x,1/2+y,1/2-z
1/2-x,1/2-y,-z
1/2+x,1/2-y,1/2+z
loop_
_atom_site_type_symbol
_atom_site_label
_atom_site_fract_x
_atom_site_fract_y
_atom_site_fract_z
Si Si1 0.372043 0.695794 0.495744
Si Si2 0.500000 0.425422 0.250000
Si Si3 0.412119 0.545495 0.383108
Si Si4 0.500000 0.139028 0.250000
Si Si5 0.160417 0.353396 0.009013
Si Si6 0.327290 0.559055 0.219430
Si Si7 0.774990 0.912783 0.379939
O O1 0.337178 0.652834 0.536724
O O2 0.449507 0.776131 0.534451
O O3 0.588889 0.660134 0.561964
O O4 0.118369 0.690047 0.348463
O O5 0.328033 0.376484 0.135741
O O6 0.319269 0.475797 0.203460
O O7 0.448256 0.566332 0.335293
O O8 0.345786 0.464724 0.361990
O O9 0.661966 0.556503 0.530417
O O10 0.197228 0.590256 0.311426
O O11 0.940488 0.408059 0.901913
O O12 0.500000 0.594364 0.250000
O O13 0.500000 0.893483 0.250000
#
# Coordination Sequence:
#
# PCOD8130681 Si02
#       7
#     8   4   8   4   8   8   8
#     4  10  22  35  65  82 117 161 190 250 297 353
#     4  10  23  38  60  87 112 164 196 246 286 341
#     4  10  19  36  60  89 118 150 195 242 308 338
#     4  10  17  36  62  87 110 150 196 252 288 347
#     4  11  21  42  56  87 120 154 208 236 290 368
#     4  10  23  38  62  87 121 158 193 249 292 348
#     4  10  21  36  58  92 117 149 192 256 299 351
#
# _framework density 18.755306999999998
#
# number of rings (size 3 to 8) (size 9 to 14) (size 15 to 20)
#    0.500    1.333    2.500    2.000    0.000    2.000 
#    3.000    0.000    0.000    3.000    0.000    0.000 
#    0.000    0.000    0.000    0.000    0.000    0.000 
#
# Total GULP energy -297410.760115 kJ/mol
# GULP energy per Si atom -12392.115005 kJ/mol
# Density = 1.871262 g / cm^3
# Si number density = 18.755307 Si / 1000 Ang^3
#
#
#
# Elastic Constant Matrix: (Units=GPa)
#
#
# Indices 1 2 3 4 5 6 
#
# 1 84.6436 38.2054 43.6248 -0.0016 -22.6157 0.0018
# 2 38.2054 57.4603 31.9413 0.0011 6.8022 0.0005
# 3 43.6248 31.9413 129.2745 0.0038 -9.7664 0.0069
# 4 -0.0016 0.0011 0.0038 20.2554 0.0071 -1.7848
# 5 -22.6157 6.8022 -9.7664 0.0071 29.7997 -0.0005
# 6 0.0018 0.0005 0.0069 -1.7848 -0.0005 28.7020
#
#
#
# Elastic Compliance Matrix: (Units=1/GPa)
#
#
# Indices 1 2 3 4 5 6 
#
# 1 0.030355 -0.021834 -0.002801 -0.000006 0.027103 -0.000001
# 2 -0.021834 0.037143 -0.003796 0.000006 -0.026293 0.000002
# 3 -0.002801 -0.003796 0.009765 -0.000003 0.001941 -0.000002
# 4 -0.000006 0.000006 -0.000003 0.049641 -0.000018 0.003087
# 5 0.027103 -0.026293 0.001941 -0.000018 0.060764 -0.000002
# 6 -0.000001 0.000002 -0.000002 0.003087 -0.000002 0.035033
#
#
# Mechanical properties :
#
#
# Convention : Reuss Voigt Hill
#
# Bulk Modulus (GPa) = 49.01626 55.43571 52.22598
# Shear Modulus (GPa) = 17.46026 26.25855 21.85941
#
# Velocity S-wave (km/s) = 3.05446 3.74580 3.41765
# Velocity P-wave (km/s) = 6.21538 6.95194 6.59395
#
# Compressibility (1/GPa) = 0.02040139
#
# Stress axis : x y z
#
# Youngs Moduli (GPa) = 32.94374 26.92262 102.40440
#
# Poissons Ratio (x) = 0.58784 0.28684
# Poissons Ratio (y) = 0.71930 0.38869
# Poissons Ratio (z) = 0.09228 0.10219
#
# Static dielectric constant tensor:
#      x y z
#    x 3.379550 -0.000010 -0.216740 
#    y -0.000010 3.359820 -0.000020 
#    z -0.216740 -0.000020 3.503980 
# 
# 
# High freq. dielectric constant tensor:
#      x y z
#    x 1.717340 0.000000 -0.015590 
#    y 0.000000 1.723930 0.000000 
#    z -0.015590 0.000000 1.733170 
# 
# From -- ./inp_files/270885.got.cif
#   From: 2010.06.25/outbox.cif.g09.slc.cpg/sg15_136_cif.got.tgz:270885.got - 2010.06.28 07:06:18.
