data_PCOD8130031
_publ_section_title
;
Structure prediction by ZEFSAII (Michael W. Deem and Ramdas Pophale) SiO2 
 PCOD8130031
Probable space group: C 2/C
;
_chemical_formula_sum "Si O2"
_cell_formula_units_Z 44
_cell_length_a 34.145709
_cell_length_b 8.927793
_cell_length_c 17.103844
_cell_angle_alpha 90.000000
_cell_angle_beta 152.300669
_cell_angle_gamma 90.000000
_cell_volume 2423.648969
_symmetry_space_group_name_H-M "C 2/C"
_symmetry_group_IT_number 15
_symmetry_cell_setting 'monoclinic'
loop_
_space_group_symop_operation_xyz
x,y,z
-x,y,1/2-z
-x,-y,-z
x,-y,1/2+z
1/2+x,1/2+y,z
1/2-x,1/2+y,1/2-z
1/2-x,1/2-y,-z
1/2+x,1/2-y,1/2+z
loop_
_atom_site_type_symbol
_atom_site_label
_atom_site_fract_x
_atom_site_fract_y
_atom_site_fract_z
Si Si1 0.972238 0.692607 0.016956
Si Si2 0.716307 0.680242 0.752798
Si Si3 0.345322 0.644336 0.393362
Si Si4 0.608903 0.820855 0.887356
Si Si5 0.055772 0.348599 0.509085
Si Si6 0.500000 0.919045 0.250000
O O1 0.057788 0.714388 0.218587
O O2 0.937293 0.525607 0.964994
O O3 0.996373 0.726345 0.969865
O O4 0.897110 0.804201 0.908111
O O5 0.672323 0.530501 0.644310
O O6 0.756929 0.764938 0.748729
O O7 0.648898 0.782280 0.677956
O O8 0.790583 0.653276 0.948635
O O9 0.403489 0.684074 0.572178
O O10 0.579922 0.974053 0.877605
O O11 0.016182 0.314088 0.353777
#
# Coordination Sequence:
#
# PCOD8130031 Si02
#       6
#     8   8   8   8   8   4
#     4  10  19  36  59  77 112 138 189 210 282 318
#     4  10  20  33  57  80 112 139 186 217 275 307
#     4  10  18  34  56  79 106 149 176 227 259 325
#     4   9  17  33  57  77 102 146 175 222 260 328
#     4  10  20  34  57  85 103 146 173 234 261 336
#     4  10  16  38  56  78 108 142 184 210 288 318
#
# _framework density 18.154444999999999
#
# number of rings (size 3 to 8) (size 9 to 14) (size 15 to 20)
#    1.091    1.091    3.636    2.182    0.000    1.455 
#    3.273    0.000    0.000   10.909    0.000    0.000 
#    0.000    0.000    0.000    0.000    0.000    0.000 
#
# Total GULP energy -272583.217202 kJ/mol
# GULP energy per Si atom -12390.146236 kJ/mol
# Density = 1.811312 g / cm^3
# Si number density = 18.154445 Si / 1000 Ang^3
#
#
#
# Elastic Constant Matrix: (Units=GPa)
#
#
# Indices 1 2 3 4 5 6 
#
# 1 136.0023 34.6313 56.0224 0.0000 8.3951 0.0000
# 2 34.6313 61.2815 54.1037 0.0000 7.4340 0.0000
# 3 56.0224 54.1037 85.6501 0.0000 19.1264 0.0000
# 4 0.0000 0.0000 0.0000 24.7323 0.0000 7.1773
# 5 8.3951 7.4340 19.1264 0.0000 28.5683 0.0000
# 6 0.0000 0.0000 0.0000 7.1773 0.0000 17.7338
#
#
#
# Elastic Compliance Matrix: (Units=1/GPa)
#
#
# Indices 1 2 3 4 5 6 
#
# 1 0.010145 0.000598 -0.007422 0.000000 0.001833 0.000000
# 2 0.000598 0.038180 -0.026162 0.000000 0.007405 0.000000
# 3 -0.007422 -0.026162 0.036507 0.000000 -0.015452 0.000000
# 4 0.000000 0.000000 0.000000 0.045814 0.000000 -0.018542
# 5 0.001833 0.007405 -0.015452 0.000000 0.042884 0.000000
# 6 0.000000 0.000000 0.000000 -0.018542 0.000000 0.063894
#
#
# Mechanical properties :
#
#
# Convention : Reuss Voigt Hill
#
# Bulk Modulus (GPa) = 53.02704 63.60542 58.31623
# Shear Modulus (GPa) = 16.14557 23.41864 19.78210
#
# Velocity S-wave (km/s) = 2.98542 3.59551 3.30458
# Velocity P-wave (km/s) = 6.41529 7.23524 6.83757
#
# Compressibility (1/GPa) = 0.01885830
#
# Stress axis : x y z
#
# Youngs Moduli (GPa) = 98.57098 26.19192 27.39209
#
# Poissons Ratio (x) = -0.01565 0.20331
# Poissons Ratio (y) = -0.05891 0.71663
# Poissons Ratio (z) = 0.73163 0.68523
#
# Static dielectric constant tensor:
#      x y z
#    x 3.441290 0.000000 0.089230 
#    y 0.000000 3.051220 0.000000 
#    z 0.089230 0.000000 3.289280 
# 
# 
# High freq. dielectric constant tensor:
#      x y z
#    x 1.694330 0.000000 0.016660 
#    y 0.000000 1.679800 0.000000 
#    z 0.016660 0.000000 1.697390 
# 
# From -- ./inp_files/224479.got.cif
#   From: 2010.06.25/outbox.cif.g09.slc.cpg/sg15_113_cif.got.tgz:224479.got - 2010.06.28 07:06:18.
