data_PCOD8130058
_publ_section_title
;
Structure prediction by ZEFSAII (Michael W. Deem and Ramdas Pophale) SiO2 
 PCOD8130058
Probable space group: C 2/C
;
_chemical_formula_sum "Si O2"
_cell_formula_units_Z 60
_cell_length_a 26.338162
_cell_length_b 19.338463
_cell_length_c 14.689314
_cell_angle_alpha 90.000000
_cell_angle_beta 152.472398
_cell_angle_gamma 90.000000
_cell_volume 3457.930048
_symmetry_space_group_name_H-M "C 2/C"
_symmetry_group_IT_number 15
_symmetry_cell_setting 'monoclinic'
loop_
_space_group_symop_operation_xyz
x,y,z
-x,y,1/2-z
-x,-y,-z
x,-y,1/2+z
1/2+x,1/2+y,z
1/2-x,1/2+y,1/2-z
1/2-x,1/2-y,-z
1/2+x,1/2-y,1/2+z
loop_
_atom_site_type_symbol
_atom_site_label
_atom_site_fract_x
_atom_site_fract_y
_atom_site_fract_z
Si Si1 0.362364 0.308182 0.802286
Si Si2 0.782344 0.593072 0.545040
Si Si3 0.488540 0.418034 0.403438
Si Si4 0.689748 0.484228 0.273791
Si Si5 0.056119 0.708268 0.709369
Si Si6 0.000000 0.998706 0.250000
Si Si7 0.158628 0.754021 0.053074
Si Si8 0.202856 0.088397 0.620710
O O1 0.314338 0.356669 0.645016
O O2 0.403218 0.237011 0.822397
O O3 0.270419 0.290612 0.731468
O O4 0.467381 0.339551 0.022656
O O5 0.776715 0.520161 0.481530
O O6 0.901188 0.628901 0.715564
O O7 0.770446 0.580493 0.634683
O O8 0.380073 0.421564 0.293207
O O9 0.596946 0.459304 0.605776
O O10 0.449150 0.447179 0.243901
O O11 0.756377 0.453162 0.292352
O O12 0.924305 0.715200 0.509102
O O13 0.109300 0.754801 0.873191
O O14 0.087384 0.050485 0.430008
O O15 0.183162 0.832718 0.119562
#
# Coordination Sequence:
#
# PCOD8130058 Si02
#       8
#     8   8   8   8   8   4   8   8
#     4  10  17  28  41  67  99 124 152 200 239 291
#     4  10  17  29  41  64 104 123 156 196 236 291
#     4   9  17  27  39  62  98 121 157 190 236 289
#     4   9  18  26  40  66  94 129 154 190 238 285
#     4  10  17  27  43  66  96 128 152 194 245 284
#     4  10  18  26  42  64  92 136 150 186 242 284
#     4  10  18  26  43  69  96 126 154 188 246 294
#     4  11  17  26  44  65 101 128 153 189 240 291
#
# _framework density 17.351420999999998
#
# number of rings (size 3 to 8) (size 9 to 14) (size 15 to 20)
#    0.000    2.133    4.000    2.400    1.867    0.000 
#    0.000    0.000    0.000    0.000    0.000   37.333 
#    0.000    0.533    0.000    0.000    0.000    0.000 
#
# Total GULP energy -371661.813862 kJ/mol
# GULP energy per Si atom -12388.727129 kJ/mol
# Density = 1.731193 g / cm^3
# Si number density = 17.351421 Si / 1000 Ang^3
#
#
#
# Elastic Constant Matrix: (Units=GPa)
#
#
# Indices 1 2 3 4 5 6 
#
# 1 103.6284 47.9914 28.7616 0.0000 7.8632 0.0000
# 2 47.9914 83.2886 41.5484 0.0000 4.7028 0.0000
# 3 28.7616 41.5484 33.6393 0.0000 9.6323 0.0000
# 4 0.0000 0.0000 0.0000 22.2935 0.0000 0.0183
# 5 7.8632 4.7028 9.6323 0.0000 15.7632 0.0000
# 6 0.0000 0.0000 0.0000 0.0183 0.0000 27.3922
#
#
#
# Elastic Compliance Matrix: (Units=1/GPa)
#
#
# Indices 1 2 3 4 5 6 
#
# 1 0.013577 -0.005947 -0.003432 0.000000 -0.002901 0.000000
# 2 -0.005947 0.038330 -0.048280 0.000000 0.021033 0.000000
# 3 -0.003432 -0.048280 0.106273 0.000000 -0.048824 0.000000
# 4 0.000000 0.000000 0.000000 0.044856 0.000000 -0.000030
# 5 -0.002901 0.021033 -0.048824 0.000000 0.088445 0.000000
# 6 0.000000 0.000000 0.000000 -0.000030 0.000000 0.036507
#
#
# Mechanical properties :
#
#
# Convention : Reuss Voigt Hill
#
# Bulk Modulus (GPa) = 23.33089 50.79545 37.06317
# Shear Modulus (GPa) = 10.92677 19.90680 15.41678
#
# Velocity S-wave (km/s) = 2.51217 3.39082 2.98401
# Velocity P-wave (km/s) = 4.67867 6.68343 5.76880
#
# Compressibility (1/GPa) = 0.04286164
#
# Stress axis : x y z
#
# Youngs Moduli (GPa) = 73.65562 26.08936 9.40975
#
# Poissons Ratio (x) = 0.15516 0.03229
# Poissons Ratio (y) = 0.43804 0.45430
# Poissons Ratio (z) = 0.25279 1.25958
#
# Static dielectric constant tensor:
#      x y z
#    x 3.413060 0.000000 0.024220 
#    y 0.000000 3.240900 0.000000 
#    z 0.024220 0.000000 2.846450 
# 
# 
# High freq. dielectric constant tensor:
#      x y z
#    x 1.672360 0.000000 0.010680 
#    y 0.000000 1.655570 0.000000 
#    z 0.010680 0.000000 1.604810 
# 
# From -- ./inp_files/174434.got.cif
#   From: 2010.06.25/outbox.cif.g09.slc.cpg/sg15_88_cif.got.tgz:174434.got - 2010.06.28 07:06:18.
