data_PCOD8130342
_publ_section_title
;
Structure prediction by ZEFSAII (Michael W. Deem and Ramdas Pophale) SiO2 
 PCOD8130342
Probable space group: C 2/C
;
_chemical_formula_sum "Si O2"
_cell_formula_units_Z 60
_cell_length_a 21.151884
_cell_length_b 13.806284
_cell_length_c 16.268644
_cell_angle_alpha 90.000000
_cell_angle_beta 143.794370
_cell_angle_gamma 90.000000
_cell_volume 2806.293733
_symmetry_space_group_name_H-M "C 2/C"
_symmetry_group_IT_number 15
_symmetry_cell_setting 'monoclinic'
loop_
_space_group_symop_operation_xyz
x,y,z
-x,y,1/2-z
-x,-y,-z
x,-y,1/2+z
1/2+x,1/2+y,z
1/2-x,1/2+y,1/2-z
1/2-x,1/2-y,-z
1/2+x,1/2-y,1/2+z
loop_
_atom_site_type_symbol
_atom_site_label
_atom_site_fract_x
_atom_site_fract_y
_atom_site_fract_z
Si Si1 0.299561 0.014046 0.971303
Si Si2 0.000000 0.067842 0.250000
Si Si3 0.811321 0.338364 0.260077
Si Si4 0.869388 0.099775 0.826471
Si Si5 0.021413 0.420758 0.955030
Si Si6 0.194825 0.181447 0.378038
Si Si7 0.581420 0.557054 0.989000
Si Si8 0.802562 0.549209 0.164945
O O1 0.278243 0.900182 0.938223
O O2 0.206604 0.073515 0.829064
O O3 0.415838 0.032788 0.055642
O O4 0.299181 0.046718 0.064212
O O5 0.091141 0.136007 0.310098
O O6 0.045577 0.005338 0.372589
O O7 0.694732 0.324950 0.182376
O O8 0.906112 0.337700 0.427462
O O9 0.837574 0.244900 0.234374
O O10 0.808526 0.438920 0.205764
O O11 0.985500 0.133620 0.911105
O O12 0.894635 0.003878 0.904491
O O13 0.904821 0.386387 0.800385
O O14 0.000000 0.500000 0.000000
O O15 0.250000 0.250000 0.500000
O O16 0.695613 0.605088 0.084752
#
# Coordination Sequence:
#
# PCOD8130342 Si02
#       8
#     8   4   8   8   8   8   8   8
#     4  11  19  33  55  81 112 154 191 239 297 351
#     4  12  22  36  54  88 122 156 186 234 306 378
#     4   9  19  35  49  77 116 155 191 238 286 355
#     4   9  18  32  53  74 107 153 193 241 279 339
#     4   9  20  34  52  72 111 157 203 239 277 346
#     4  12  22  35  53  84 126 160 184 230 304 375
#     4  10  17  32  54  76 111 144 192 243 283 346
#     4  10  17  32  51  79 108 143 195 240 287 343
#
# _framework density 21.380514000000002
#
# number of rings (size 3 to 8) (size 9 to 14) (size 15 to 20)
#    0.000    1.867    4.000    2.000    0.000    2.133 
#    0.000    0.000    0.000    0.000    0.000    0.000 
#    8.000   79.467    0.000    0.000    0.000    0.000 
#
# Total GULP energy -371708.254362 kJ/mol
# GULP energy per Si atom -12390.275145 kJ/mol
# Density = 2.133185 g / cm^3
# Si number density = 21.380514 Si / 1000 Ang^3
#
#
#
# Elastic Constant Matrix: (Units=GPa)
#
#
# Indices 1 2 3 4 5 6 
#
# 1 176.3409 17.4410 71.6941 0.0000 25.4182 0.0000
# 2 17.4410 17.8611 8.3391 0.0000 2.9210 0.0000
# 3 71.6941 8.3391 135.8272 0.0000 11.6801 0.0000
# 4 0.0000 0.0000 0.0000 -16.7522 0.0000 28.6830
# 5 25.4182 2.9210 11.6801 0.0000 49.4729 0.0000
# 6 0.0000 0.0000 0.0000 28.6830 0.0000 -15.7555
#
#
#
# Elastic Compliance Matrix: (Units=1/GPa)
#
#
# Indices 1 2 3 4 5 6 
#
# 1 0.008178 -0.005767 -0.003706 0.000000 -0.002986 0.000000
# 2 -0.005767 0.062042 -0.000719 0.000000 -0.000530 0.000000
# 3 -0.003706 -0.000719 0.009386 0.000000 -0.000269 0.000000
# 4 0.000000 0.000000 0.000000 0.028196 0.000000 0.051332
# 5 -0.002986 -0.000530 -0.000269 0.000000 0.021842 0.000000
# 6 0.000000 0.000000 0.000000 0.051332 0.000000 0.029980
#
#
# Mechanical properties :
#
#
# Convention : Reuss Voigt Hill
#
# Bulk Modulus (GPa) = 16.88595 58.33086 37.60840
# Shear Modulus (GPa) = 25.03124 18.89671 21.96398
#
# Velocity S-wave (km/s) = 3.42533 2.97615 3.20861
# Velocity P-wave (km/s) = 4.85375 6.25711 5.59957
#
# Compressibility (1/GPa) = 0.05922084
#
# Stress axis : x y z
#
# Youngs Moduli (GPa) = 122.27262 16.11814 106.54455
#
# Poissons Ratio (x) = 0.09296 0.39485
# Poissons Ratio (y) = 0.70520 0.07663
# Poissons Ratio (z) = 0.45314 0.01159
#
# Static dielectric constant tensor:
#      x y z
#    x 5.465890 0.000000 0.830310 
#    y 0.000000 3.423290 0.000000 
#    z 0.830310 0.000000 4.832500 
# 
# 
# High freq. dielectric constant tensor:
#      x y z
#    x 1.866960 0.000000 0.002940 
#    y 0.000000 1.768720 0.000000 
#    z 0.002940 0.000000 1.864880 
# 
# From -- ./inp_files/168642.got.cif
#   From: 2010.06.25/outbox.cif.g09.slc.cpg/sg15_85_cif.got.tgz:168642.got - 2010.06.28 07:06:18.
