data_PCOD8130166
_publ_section_title
;
Structure prediction by ZEFSAII (Michael W. Deem and Ramdas Pophale) SiO2 
 PCOD8130166
Probable space group: C 2/C
;
_chemical_formula_sum "Si O2"
_cell_formula_units_Z 48
_cell_length_a 13.789716
_cell_length_b 25.289675
_cell_length_c 13.960127
_cell_angle_alpha 90.000000
_cell_angle_beta 33.041585
_cell_angle_gamma 90.000000
_cell_volume 2654.493692
_symmetry_space_group_name_H-M "C 2/C"
_symmetry_group_IT_number 15
_symmetry_cell_setting 'monoclinic'
loop_
_space_group_symop_operation_xyz
x,y,z
-x,y,1/2-z
-x,-y,-z
x,-y,1/2+z
1/2+x,1/2+y,z
1/2-x,1/2+y,1/2-z
1/2-x,1/2-y,-z
1/2+x,1/2-y,1/2+z
loop_
_atom_site_type_symbol
_atom_site_label
_atom_site_fract_x
_atom_site_fract_y
_atom_site_fract_z
Si Si1 0.104287 0.620878 0.450973
Si Si2 0.752448 0.007250 0.377308
Si Si3 0.058785 0.566202 0.309061
Si Si4 0.627475 0.497078 0.507956
Si Si5 0.705874 0.308627 0.568656
Si Si6 0.661710 0.897196 0.178726
O O1 0.208741 0.568727 0.400744
O O2 0.083786 0.619526 0.351941
O O3 0.205477 0.673768 0.403253
O O4 0.908339 0.620673 0.659600
O O5 0.577235 0.970303 0.516027
O O6 0.830760 0.996050 0.415837
O O7 0.914805 0.992536 0.167540
O O8 0.249160 0.537172 0.153936
O O9 0.000000 0.580472 0.250000
O O10 0.676925 0.437193 0.438483
O O11 0.500000 0.316801 0.750000
O O12 0.750000 0.250000 0.500000
O O13 0.777483 0.345089 0.425376
O O14 0.500000 0.924402 0.250000
#
# Coordination Sequence:
#
# PCOD8130166 Si02
#       6
#     8   8   8   8   8   8
#     4  11  20  33  53  77 108 148 182 226 284 327
#     4  10  18  29  48  74 105 148 193 227 269 319
#     4  10  21  36  48  72 113 153 193 230 257 320
#     4  10  17  30  48  71 108 148 188 230 269 319
#     4  11  22  38  58  86 111 138 175 231 293 346
#     4  10  17  30  50  75 106 141 176 228 282 328
#
# _framework density 18.082545
#
# number of rings (size 3 to 8) (size 9 to 14) (size 15 to 20)
#    0.000    1.667    5.000    3.500    0.000    0.667 
#    3.000    0.000    0.000    0.000    0.000    4.667 
#    0.000    0.000    0.000    0.000    0.000    0.000 
#
# Total GULP energy -297387.407219 kJ/mol
# GULP energy per Si atom -12391.141967 kJ/mol
# Density = 1.804139 g / cm^3
# Si number density = 18.082545 Si / 1000 Ang^3
#
#
#
# Elastic Constant Matrix: (Units=GPa)
#
#
# Indices 1 2 3 4 5 6 
#
# 1 83.6659 44.0959 34.8384 -0.0122 10.6309 0.0086
# 2 44.0959 78.1601 33.5774 -0.0057 11.1709 0.0041
# 3 34.8384 33.5774 144.4675 -0.0109 -9.2783 0.0045
# 4 -0.0122 -0.0057 -0.0109 24.9399 0.0154 7.2113
# 5 10.6309 11.1709 -9.2783 0.0154 14.6424 -0.0101
# 6 0.0086 0.0041 0.0045 7.2113 -0.0101 21.2211
#
#
#
# Elastic Compliance Matrix: (Units=1/GPa)
#
#
# Indices 1 2 3 4 5 6 
#
# 1 0.018633 -0.007681 -0.003336 0.000016 -0.009782 -0.000016
# 2 -0.007681 0.020494 -0.003708 0.000010 -0.012408 -0.000009
# 3 -0.003336 -0.003708 0.009304 -0.000008 0.011147 0.000008
# 4 0.000016 0.000010 -0.000008 0.044465 -0.000081 -0.015110
# 5 -0.009782 -0.012408 0.011147 -0.000081 0.091928 0.000075
# 6 -0.000016 -0.000009 0.000008 -0.015110 0.000075 0.052257
#
#
# Mechanical properties :
#
#
# Convention : Reuss Voigt Hill
#
# Bulk Modulus (GPa) = 52.68472 59.03521 55.85997
# Shear Modulus (GPa) = 18.32456 25.07947 21.70201
#
# Velocity S-wave (km/s) = 3.18682 3.72821 3.46810
# Velocity P-wave (km/s) = 6.53759 7.15900 6.85534
#
# Compressibility (1/GPa) = 0.01898084
#
# Stress axis : x y z
#
# Youngs Moduli (GPa) = 53.66943 48.79523 107.47769
#
# Poissons Ratio (x) = 0.37477 0.35859
# Poissons Ratio (y) = 0.41221 0.39852
# Poissons Ratio (z) = 0.17906 0.18093
#
# Static dielectric constant tensor:
#      x y z
#    x 3.337130 -0.000010 0.012850 
#    y -0.000010 2.937500 0.000000 
#    z 0.012850 0.000000 3.924240 
# 
# 
# High freq. dielectric constant tensor:
#      x y z
#    x 1.691850 0.000000 0.002620 
#    y 0.000000 1.642280 0.000000 
#    z 0.002620 0.000000 1.733810 
# 
# From -- ./inp_files/50043.got.cif
#   From: 2010.06.25/outbox.cif.g09.slc.cpg/sg15_26_cif.got.tgz:50043.got - 2010.06.28 07:06:18.
