data_PCOD8130687
_publ_section_title
;
Structure prediction by ZEFSAII (Michael W. Deem and Ramdas Pophale) SiO2 
 PCOD8130687
Probable space group: C 2/C
;
_chemical_formula_sum "Si O2"
_cell_formula_units_Z 52
_cell_length_a 17.136943
_cell_length_b 9.018861
_cell_length_c 16.094543
_cell_angle_alpha 90.000000
_cell_angle_beta 85.176327
_cell_angle_gamma 90.000000
_cell_volume 2478.693233
_symmetry_space_group_name_H-M "C 2/C"
_symmetry_group_IT_number 15
_symmetry_cell_setting 'monoclinic'
loop_
_space_group_symop_operation_xyz
x,y,z
-x,y,1/2-z
-x,-y,-z
x,-y,1/2+z
1/2+x,1/2+y,z
1/2-x,1/2+y,1/2-z
1/2-x,1/2-y,-z
1/2+x,1/2-y,1/2+z
loop_
_atom_site_type_symbol
_atom_site_label
_atom_site_fract_x
_atom_site_fract_y
_atom_site_fract_z
Si Si1 0.165053 0.342173 0.279684
Si Si2 0.623589 0.425925 0.879596
Si Si3 0.956650 0.088866 0.408338
Si Si4 0.696469 0.827477 0.797403
Si Si5 0.087387 0.117785 0.723911
Si Si6 0.000000 0.286491 0.250000
Si Si7 0.673515 0.311507 0.464080
O O1 0.155096 0.242278 0.364828
O O2 0.217399 0.247489 0.210146
O O3 0.208713 0.496454 0.292011
O O4 0.079549 0.382772 0.249837
O O5 0.542358 0.449059 0.942441
O O6 0.613333 0.493385 0.788033
O O7 0.686563 0.520818 0.927375
O O8 0.900099 0.191786 0.467369
O O9 0.994240 0.184832 0.330756
O O10 0.909958 0.951090 0.370037
O O11 0.645877 0.759103 0.725384
O O12 0.652322 0.792570 0.887752
O O13 0.000000 0.175122 0.750000
O O14 0.750000 0.250000 0.500000
#
# Coordination Sequence:
#
# PCOD8130687 Si02
#       7
#     8   8   8   8   8   4   8
#     4  11  22  40  65  87 125 160 210 254 307 363
#     4   9  19  39  59  84 117 165 204 243 295 367
#     4  10  17  36  65  85 119 159 208 243 299 371
#     4  11  24  37  62  91 124 158 207 259 312 360
#     4   9  17  35  62  90 116 154 208 250 301 369
#     4  10  20  38  66  92 118 164 206 248 302 370
#     4  11  23  34  60  91 127 161 200 249 312 359
#
# _framework density 20.978795999999999
#
# number of rings (size 3 to 8) (size 9 to 14) (size 15 to 20)
#    0.000    1.846    3.846    3.231    3.231    0.000 
#    0.000    3.846    6.769    0.000    0.000    0.000 
#    0.000    0.000    0.000    0.000    0.000    0.000 
#
# Total GULP energy -322169.961266 kJ/mol
# GULP energy per Si atom -12391.152356 kJ/mol
# Density = 2.093105 g / cm^3
# Si number density = 20.978796 Si / 1000 Ang^3
#
#
#
# Elastic Constant Matrix: (Units=GPa)
#
#
# Indices 1 2 3 4 5 6 
#
# 1 123.1500 52.6957 47.7688 0.0000 -7.2734 0.0000
# 2 52.6957 135.1543 42.9736 0.0000 -8.8469 0.0000
# 3 47.7688 42.9736 38.2328 0.0000 -11.0364 0.0000
# 4 0.0000 0.0000 0.0000 24.1167 0.0000 -0.6730
# 5 -7.2734 -8.8469 -11.0364 0.0000 32.3931 0.0000
# 6 0.0000 0.0000 0.0000 -0.6730 0.0000 34.7331
#
#
#
# Elastic Compliance Matrix: (Units=1/GPa)
#
#
# Indices 1 2 3 4 5 6 
#
# 1 0.016135 0.000334 -0.021586 0.000000 -0.003640 0.000000
# 2 0.000334 0.011579 -0.013861 0.000000 -0.001485 0.000000
# 3 -0.021586 -0.013861 0.073436 0.000000 0.016387 0.000000
# 4 0.000000 0.000000 0.000000 0.041487 0.000000 0.000804
# 5 -0.003640 -0.001485 0.016387 0.000000 0.035231 0.000000
# 6 0.000000 0.000000 0.000000 0.000804 0.000000 0.028807
#
#
# Mechanical properties :
#
#
# Convention : Reuss Voigt Hill
#
# Bulk Modulus (GPa) = 32.33708 64.82372 48.58040
# Shear Modulus (GPa) = 17.40901 28.45519 22.93210
#
# Velocity S-wave (km/s) = 2.88382 3.68690 3.30981
# Velocity P-wave (km/s) = 5.15133 7.00650 6.14928
#
# Compressibility (1/GPa) = 0.03092425
#
# Stress axis : x y z
#
# Youngs Moduli (GPa) = 61.97602 86.36686 13.61738
#
# Poissons Ratio (x) = -0.02887 0.29395
# Poissons Ratio (y) = -0.02072 0.18874
# Poissons Ratio (z) = 1.33783 1.19709
#
# Static dielectric constant tensor:
#      x y z
#    x 4.144040 0.000000 -0.033970 
#    y 0.000000 3.626720 0.000000 
#    z -0.033970 0.000000 3.814780 
# 
# 
# High freq. dielectric constant tensor:
#      x y z
#    x 1.834950 0.000000 -0.012030 
#    y 0.000000 1.795990 0.000000 
#    z -0.012030 0.000000 1.806140 
# 
# From -- ./inp_files/209069.got.cif
#   From: 2010.06.25/outbox.cif.g09.slc.cpg/sg15_105_cif.got.tgz:209069.got - 2010.06.28 07:06:18.
