data_PCOD8130839
_publ_section_title
;
Structure prediction by ZEFSAII (Michael W. Deem and Ramdas Pophale) SiO2 
 PCOD8130839
Probable space group: C 2/C
;
_chemical_formula_sum "Si O2"
_cell_formula_units_Z 44
_cell_length_a 20.136361
_cell_length_b 21.730212
_cell_length_c 5.169358
_cell_angle_alpha 90.000000
_cell_angle_beta 117.639740
_cell_angle_gamma 90.000000
_cell_volume 2003.814212
_symmetry_space_group_name_H-M "C 2/C"
_symmetry_group_IT_number 15
_symmetry_cell_setting 'monoclinic'
loop_
_space_group_symop_operation_xyz
x,y,z
-x,y,1/2-z
-x,-y,-z
x,-y,1/2+z
1/2+x,1/2+y,z
1/2-x,1/2+y,1/2-z
1/2-x,1/2-y,-z
1/2+x,1/2-y,1/2+z
loop_
_atom_site_type_symbol
_atom_site_label
_atom_site_fract_x
_atom_site_fract_y
_atom_site_fract_z
Si Si1 0.656262 0.766415 0.079661
Si Si2 0.000000 0.864572 0.750000
Si Si3 0.000000 0.540825 0.750000
Si Si4 0.164185 0.457724 0.556907
Si Si5 0.500000 0.712706 0.750000
Si Si6 0.280955 0.827844 0.798307
Si Si7 0.582886 0.525260 0.215950
O O1 0.681099 0.799190 0.383624
O O2 0.697851 0.700646 0.116697
O O3 0.568436 0.755690 0.951720
O O4 0.670673 0.811481 0.866283
O O5 0.926935 0.904502 0.706903
O O6 0.974804 0.826230 0.455242
O O7 0.000000 0.500000 0.500000
O O8 0.919286 0.575557 0.597487
O O9 0.176635 0.496884 0.320242
O O10 0.223644 0.401807 0.679068
O O11 0.625303 0.485017 0.517879
O O12 0.500000 0.500000 0.000000
#
# Coordination Sequence:
#
# PCOD8130839 Si02
#       7
#     8   4   4   8   4   8   8
#     4  10  23  39  60  85 115 158 199 239 285 338
#     4  10  18  29  49  74 108 139 169 234 296 332
#     4   8  16  28  44  78 116 142 174 222 286 344
#     4  10  19  33  58  87 115 146 183 233 290 348
#     4  12  22  35  55  88 114 141 197 250 292 326
#     4  10  21  42  62  82 116 158 198 233 284 357
#     4   8  13  24  42  63  90 133 181 214 267 346
#
# _framework density 21.958123000000001
#
# number of rings (size 3 to 8) (size 9 to 14) (size 15 to 20)
#    0.000    2.545    0.000    4.364    0.000    1.455 
#    0.000    1.818    0.000   19.636    0.000    0.000 
#    0.000    0.000    0.000    0.000    0.000    0.000 
#
# Total GULP energy -272566.316682 kJ/mol
# GULP energy per Si atom -12389.378031 kJ/mol
# Density = 2.190814 g / cm^3
# Si number density = 21.958123 Si / 1000 Ang^3
#
#
#
# Elastic Constant Matrix: (Units=GPa)
#
#
# Indices 1 2 3 4 5 6 
#
# 1 60.2719 28.8875 38.7711 0.0000 -9.0381 0.0000
# 2 28.8875 105.9276 33.2609 0.0000 -2.5690 0.0000
# 3 38.7711 33.2609 133.0627 0.0000 -39.8090 0.0000
# 4 0.0000 0.0000 0.0000 29.7133 0.0000 -8.2589
# 5 -9.0381 -2.5690 -39.8090 0.0000 50.2374 0.0000
# 6 0.0000 0.0000 0.0000 -8.2589 0.0000 9.0981
#
#
#
# Elastic Compliance Matrix: (Units=1/GPa)
#
#
# Indices 1 2 3 4 5 6 
#
# 1 0.022140 -0.004305 -0.005570 0.000000 -0.000650 0.000000
# 2 -0.004305 0.011233 -0.002115 0.000000 -0.001876 0.000000
# 3 -0.005570 -0.002115 0.012235 0.000000 0.008585 0.000000
# 4 0.000000 0.000000 0.000000 0.045012 0.000000 0.040860
# 5 -0.000650 -0.001876 0.008585 0.000000 0.026496 0.000000
# 6 0.000000 0.000000 0.000000 0.040860 0.000000 0.147004
#
#
# Mechanical properties :
#
#
# Convention : Reuss Voigt Hill
#
# Bulk Modulus (GPa) = 46.23225 55.67792 50.95509
# Shear Modulus (GPa) = 16.93148 31.03261 23.98205
#
# Velocity S-wave (km/s) = 2.77985 3.76342 3.30839
# Velocity P-wave (km/s) = 5.60391 6.65552 6.15222
#
# Compressibility (1/GPa) = 0.02162992
#
# Stress axis : x y z
#
# Youngs Moduli (GPa) = 45.16744 89.02447 81.73175
#
# Poissons Ratio (x) = 0.38322 0.45521
# Poissons Ratio (y) = 0.19443 0.17284
# Poissons Ratio (z) = 0.25156 0.18826
#
# Static dielectric constant tensor:
#      x y z
#    x 4.979420 0.000000 -1.218010 
#    y 0.000000 3.701970 0.000000 
#    z -1.218010 0.000000 5.395600 
# 
# 
# High freq. dielectric constant tensor:
#      x y z
#    x 1.844440 0.000000 -0.028660 
#    y 0.000000 1.838310 0.000000 
#    z -0.028660 0.000000 1.887550 
# 
# From -- ./inp_files/13287.got.cif
#   From: 2010.06.25/outbox.cif.g09.slc.cpg/sg15_7_cif.got.tgz:13287.got - 2010.06.28 07:06:18.
