data_PCOD8130064
_publ_section_title
;
Structure prediction by ZEFSAII (Michael W. Deem and Ramdas Pophale) SiO2 
 PCOD8130064
Probable space group: C 2/C
;
_chemical_formula_sum "Si O2"
_cell_formula_units_Z 40
_cell_length_a 16.913994
_cell_length_b 8.183762
_cell_length_c 12.041830
_cell_angle_alpha 90.000000
_cell_angle_beta 126.140202
_cell_angle_gamma 90.000000
_cell_volume 1346.093429
_symmetry_space_group_name_H-M "C 2/C"
_symmetry_group_IT_number 15
_symmetry_cell_setting 'monoclinic'
loop_
_space_group_symop_operation_xyz
x,y,z
-x,y,1/2-z
-x,-y,-z
x,-y,1/2+z
1/2+x,1/2+y,z
1/2-x,1/2+y,1/2-z
1/2-x,1/2-y,-z
1/2+x,1/2-y,1/2+z
loop_
_atom_site_type_symbol
_atom_site_label
_atom_site_fract_x
_atom_site_fract_y
_atom_site_fract_z
Si Si1 0.191393 0.027818 0.048547
Si Si2 0.501889 0.675718 0.623290
Si Si3 0.606024 0.043667 0.834586
Si Si4 0.636092 0.391086 0.763347
Si Si5 0.842130 0.679862 0.386831
O O1 0.167447 0.976864 0.902548
O O2 0.308409 0.076547 0.144657
O O3 0.177031 0.869207 0.110750
O O4 0.111553 0.170037 0.016152
O O5 0.500000 0.715381 0.750000
O O6 0.547279 0.494199 0.636870
O O7 0.565489 0.824682 0.621442
O O8 0.500000 0.956536 0.750000
O O9 0.599158 0.207771 0.755004
O O10 0.632056 0.082939 0.982156
O O11 0.732794 0.390017 0.758886
#
# Coordination Sequence:
#
# PCOD8130064 Si02
#       5
#     8   8   8   8   8
#     4   8  15  25  41  69  96 116 153 204 241 271
#     4  10  17  27  45  74 100 121 154 195 232 283
#     4   9  15  26  43  69  97 122 154 201 244 273
#     4   8  15  26  40  66 100 121 148 197 241 276
#     4   9  16  26  43  70  97 126 155 189 238 285
#
# _framework density 29.715620999999999
#
# number of rings (size 3 to 8) (size 9 to 14) (size 15 to 20)
#    0.000    3.200    0.000    6.000    0.000    0.000 
#    0.000    0.000    0.000    0.000    0.000  163.800 
#    0.000    0.000    0.000    0.000    0.000    0.000 
#
# Total GULP energy -247813.642211 kJ/mol
# GULP energy per Si atom -12390.682111 kJ/mol
# Density = 2.964799 g / cm^3
# Si number density = 29.715621 Si / 1000 Ang^3
#
#
#
# Elastic Constant Matrix: (Units=GPa)
#
#
# Indices 1 2 3 4 5 6 
#
# 1 286.6243 52.9005 74.1638 0.0000 27.9031 0.0000
# 2 52.9005 72.2195 21.9749 0.0000 19.8864 0.0000
# 3 74.1638 21.9749 103.8368 0.0000 53.9771 0.0000
# 4 0.0000 0.0000 0.0000 -19.6380 0.0000 22.0784
# 5 27.9031 19.8864 53.9771 0.0000 57.1281 0.0000
# 6 0.0000 0.0000 0.0000 22.0784 0.0000 58.2815
#
#
#
# Elastic Compliance Matrix: (Units=1/GPa)
#
#
# Indices 1 2 3 4 5 6 
#
# 1 0.004883 -0.003023 -0.004235 0.000000 0.002669 0.000000
# 2 -0.003023 0.017231 0.001696 0.000000 -0.006124 0.000000
# 3 -0.004235 0.001696 0.022655 0.000000 -0.019928 0.000000
# 4 0.000000 0.000000 0.000000 -0.035712 0.000000 0.013529
# 5 0.002669 -0.006124 -0.019928 0.000000 0.037161 0.000000
# 6 0.000000 0.000000 0.000000 0.013529 0.000000 0.012033
#
#
# Mechanical properties :
#
#
# Convention : Reuss Voigt Hill
#
# Bulk Modulus (GPa) = 29.72191 84.52878 57.12534
# Shear Modulus (GPa) = 62.04174 40.06374 51.05274
#
# Velocity S-wave (km/s) = 4.57426 3.67582 4.14943
# Velocity P-wave (km/s) = 6.15810 6.82079 6.49790
#
# Compressibility (1/GPa) = 0.03364521
#
# Stress axis : x y z
#
# Youngs Moduli (GPa) = 204.79987 58.03406 44.13982
#
# Poissons Ratio (x) = 0.17543 0.18694
# Poissons Ratio (y) = 0.61909 -0.07486
# Poissons Ratio (z) = 0.86735 -0.09842
#
# Static dielectric constant tensor:
#      x y z
#    x 7.305630 0.000000 1.591670 
#    y 0.000000 5.164020 0.000000 
#    z 1.591670 0.000000 10.096860 
# 
# 
# High freq. dielectric constant tensor:
#      x y z
#    x 2.260850 0.000000 -0.006290 
#    y 0.000000 2.178030 0.000000 
#    z -0.006290 0.000000 2.235130 
# 
# From -- ./inp_files/153118.got.cif
#   From: 2010.06.25/outbox.cif.g09.slc.cpg/sg15_77_cif.got.tgz:153118.got - 2010.06.28 07:06:18.
