data_PCOD8130245
_publ_section_title
;
Structure prediction by ZEFSAII (Michael W. Deem and Ramdas Pophale) SiO2 
 PCOD8130245
Probable space group: C 2/C
;
_chemical_formula_sum "Si O2"
_cell_formula_units_Z 44
_cell_length_a 17.441666
_cell_length_b 16.170624
_cell_length_c 8.925214
_cell_angle_alpha 90.000000
_cell_angle_beta 104.948902
_cell_angle_gamma 90.000000
_cell_volume 2432.096242
_symmetry_space_group_name_H-M "C 2/C"
_symmetry_group_IT_number 15
_symmetry_cell_setting 'monoclinic'
loop_
_space_group_symop_operation_xyz
x,y,z
-x,y,1/2-z
-x,-y,-z
x,-y,1/2+z
1/2+x,1/2+y,z
1/2-x,1/2+y,1/2-z
1/2-x,1/2-y,-z
1/2+x,1/2-y,1/2+z
loop_
_atom_site_type_symbol
_atom_site_label
_atom_site_fract_x
_atom_site_fract_y
_atom_site_fract_z
Si Si1 0.377642 0.732302 0.586069
Si Si2 0.270364 0.488010 0.765810
Si Si3 0.626813 0.575341 0.435252
Si Si4 0.500000 0.460870 0.250000
Si Si5 0.548200 0.687195 0.590970
Si Si6 0.271242 0.115912 0.996294
O O1 0.456273 0.714131 0.525037
O O2 0.404117 0.748506 0.773161
O O3 0.337729 0.815017 0.502389
O O4 0.317023 0.655472 0.545441
O O5 0.326881 0.426268 0.698942
O O6 0.220876 0.548767 0.632445
O O7 0.317030 0.544862 0.904767
O O8 0.213405 0.428625 0.835734
O O9 0.551730 0.515555 0.387323
O O10 0.593984 0.669105 0.456900
O O11 0.444730 0.402033 0.322799
#
# Coordination Sequence:
#
# PCOD8130245 Si02
#       6
#     8   8   8   4   8   8
#     4   9  19  33  52  71 105 138 172 198 258 311
#     4  10  19  31  51  77 104 132 173 206 252 296
#     4  11  18  28  45  79 105 131 159 208 255 311
#     4  10  18  24  44  72 108 126 154 196 250 306
#     4  10  17  31  48  73  98 135 169 205 244 311
#     4  10  19  35  52  75 100 141 171 209 249 308
#
# _framework density 18.091388999999999
#
# number of rings (size 3 to 8) (size 9 to 14) (size 15 to 20)
#    0.000    2.182    3.636    3.818    2.545    0.000 
#    0.000    0.909    0.000    4.364    0.000    0.000 
#    0.000    0.000    0.000    0.000    0.000    0.000 
#
# Total GULP energy -272570.257424 kJ/mol
# GULP energy per Si atom -12389.557156 kJ/mol
# Density = 1.805021 g / cm^3
# Si number density = 18.091389 Si / 1000 Ang^3
#
#
#
# Elastic Constant Matrix: (Units=GPa)
#
#
# Indices 1 2 3 4 5 6 
#
# 1 49.4059 28.1402 25.7464 0.0000 3.7863 0.0000
# 2 28.1402 63.3599 29.0320 0.0000 1.0230 0.0000
# 3 25.7464 29.0320 74.4901 0.0000 -5.5535 0.0000
# 4 0.0000 0.0000 0.0000 21.3845 0.0000 11.3859
# 5 3.7863 1.0230 -5.5535 0.0000 22.3697 0.0000
# 6 0.0000 0.0000 0.0000 11.3859 0.0000 19.9857
#
#
#
# Elastic Compliance Matrix: (Units=1/GPa)
#
#
# Indices 1 2 3 4 5 6 
#
# 1 0.030087 -0.010078 -0.006945 0.000000 -0.006356 0.000000
# 2 -0.010078 0.022762 -0.005439 0.000000 -0.000686 0.000000
# 3 -0.006945 -0.005439 0.018392 0.000000 0.005990 0.000000
# 4 0.000000 0.000000 0.000000 0.067123 0.000000 -0.038240
# 5 -0.006356 -0.000686 0.005990 0.000000 0.047298 0.000000
# 6 0.000000 0.000000 0.000000 -0.038240 0.000000 0.071821
#
#
# Mechanical properties :
#
#
# Convention : Reuss Voigt Hill
#
# Bulk Modulus (GPa) = 37.99929 39.23255 38.61592
# Shear Modulus (GPa) = 16.06792 19.70380 17.88586
#
# Velocity S-wave (km/s) = 2.98342 3.30377 3.14767
# Velocity P-wave (km/s) = 5.73737 6.02379 5.88232
#
# Compressibility (1/GPa) = 0.02631628
#
# Stress axis : x y z
#
# Youngs Moduli (GPa) = 33.23717 43.93290 54.37251
#
# Poissons Ratio (x) = 0.44273 0.37763
# Poissons Ratio (y) = 0.33495 0.29575
# Poissons Ratio (z) = 0.23084 0.23896
#
# Static dielectric constant tensor:
#      x y z
#    x 3.126590 0.000000 -0.152010 
#    y 0.000000 3.141940 0.000000 
#    z -0.152010 0.000000 3.717410 
# 
# 
# High freq. dielectric constant tensor:
#      x y z
#    x 1.671390 0.000000 0.001520 
#    y 0.000000 1.664760 0.000000 
#    z 0.001520 0.000000 1.703470 
# 
# From -- ./inp_files/39282.got.cif
#   From: 2010.06.25/outbox.cif.g09.slc.cpg/sg15_20_cif.got.tgz:39282.got - 2010.06.28 07:06:18.
