data_PCOD8130849
_publ_section_title
;
Structure prediction by ZEFSAII (Michael W. Deem and Ramdas Pophale) SiO2 
 PCOD8130849
Probable space group: C 2/C
;
_chemical_formula_sum "Si O2"
_cell_formula_units_Z 64
_cell_length_a 20.833232
_cell_length_b 12.956747
_cell_length_c 21.687966
_cell_angle_alpha 90.000000
_cell_angle_beta 144.701593
_cell_angle_gamma 90.000000
_cell_volume 3382.791620
_symmetry_space_group_name_H-M "C 2/C"
_symmetry_group_IT_number 15
_symmetry_cell_setting 'monoclinic'
loop_
_space_group_symop_operation_xyz
x,y,z
-x,y,1/2-z
-x,-y,-z
x,-y,1/2+z
1/2+x,1/2+y,z
1/2-x,1/2+y,1/2-z
1/2-x,1/2-y,-z
1/2+x,1/2-y,1/2+z
loop_
_atom_site_type_symbol
_atom_site_label
_atom_site_fract_x
_atom_site_fract_y
_atom_site_fract_z
Si Si1 0.561693 0.920306 0.239347
Si Si2 0.629398 0.952768 0.160986
Si Si3 0.429972 0.151855 0.449197
Si Si4 0.773084 0.908493 0.477953
Si Si5 0.879265 0.120517 0.875887
Si Si6 0.698740 0.813742 0.532997
Si Si7 0.525994 0.467577 0.923434
Si Si8 0.444386 0.309547 0.767350
O O1 0.500000 0.975822 0.250000
O O2 0.561799 0.973292 0.172345
O O3 0.691212 0.917124 0.356884
O O4 0.505527 0.806784 0.185987
O O5 0.748145 0.897392 0.263078
O O6 0.643440 0.066454 0.143690
O O7 0.559256 0.882325 0.057299
O O8 0.411453 0.259095 0.398734
O O9 0.393321 0.157689 0.490771
O O10 0.708308 0.911229 0.492570
O O11 0.834806 0.794928 0.526746
O O12 0.872173 0.992069 0.545056
O O13 0.916648 0.073147 0.969728
O O14 0.949096 0.066424 0.875478
O O15 0.813905 0.795352 0.657535
O O16 0.453403 0.377181 0.836085
O O17 0.500000 0.362202 0.750000
#
# Coordination Sequence:
#
# PCOD8130849 Si02
#       8
#     8   8   8   8   8   8   8   8
#     4  10  19  31  51  79 109 146 185 235 290 345
#     4  11  23  39  57  83 113 151 196 233 290 355
#     4  11  23  39  57  84 116 153 194 236 289 354
#     4  10  18  30  50  81 117 139 185 228 288 350
#     4  11  23  38  58  81 118 155 189 240 283 343
#     4  10  18  31  51  80 116 150 171 234 295 345
#     4  11  20  34  52  82 114 148 193 225 280 346
#     4  10  18  29  51  80 116 146 179 231 290 344
#
# _framework density 18.919286
#
# number of rings (size 3 to 8) (size 9 to 14) (size 15 to 20)
#    0.000    1.500    3.750    3.000    1.750    2.000 
#    0.000    0.000    0.000    0.750    0.000    2.625 
#    0.000    0.125    0.000    0.000    0.000    0.000 
#
# Total GULP energy -396519.716375 kJ/mol
# GULP energy per Si atom -12391.241137 kJ/mol
# Density = 1.887622 g / cm^3
# Si number density = 18.919286 Si / 1000 Ang^3
#
#
#
# Elastic Constant Matrix: (Units=GPa)
#
#
# Indices 1 2 3 4 5 6 
#
# 1 83.7827 44.9549 18.4806 0.0000 -0.8287 0.0000
# 2 44.9549 84.5111 31.9791 0.0000 3.4021 0.0000
# 3 18.4806 31.9791 65.3431 0.0000 0.5622 0.0000
# 4 0.0000 0.0000 0.0000 22.0247 0.0000 -1.6591
# 5 -0.8287 3.4021 0.5622 0.0000 25.7476 0.0000
# 6 0.0000 0.0000 0.0000 -1.6591 0.0000 27.3317
#
#
#
# Elastic Compliance Matrix: (Units=1/GPa)
#
#
# Indices 1 2 3 4 5 6 
#
# 1 0.016790 -0.008834 -0.000440 0.000000 0.001717 0.000000
# 2 -0.008834 0.019250 -0.006900 0.000000 -0.002677 0.000000
# 3 -0.000440 -0.006900 0.018801 0.000000 0.000487 0.000000
# 4 0.000000 0.000000 0.000000 0.045612 0.000000 0.002769
# 5 0.001717 -0.002677 0.000487 0.000000 0.039237 0.000000
# 6 0.000000 0.000000 0.000000 0.002769 0.000000 0.036756
#
#
# Mechanical properties :
#
#
# Convention : Reuss Voigt Hill
#
# Bulk Modulus (GPa) = 44.45664 47.16291 45.80977
# Shear Modulus (GPa) = 23.11707 24.23562 23.67635
#
# Velocity S-wave (km/s) = 3.49933 3.58299 3.54141
# Velocity P-wave (km/s) = 6.31476 6.48843 6.40218
#
# Compressibility (1/GPa) = 0.02249383
#
# Stress axis : x y z
#
# Youngs Moduli (GPa) = 59.56103 51.94700 53.18901
#
# Poissons Ratio (x) = 0.45888 0.02341
# Poissons Ratio (y) = 0.52614 0.36699
# Poissons Ratio (z) = 0.02621 0.35842
#
# Static dielectric constant tensor:
#      x y z
#    x 3.656770 0.000000 0.063910 
#    y 0.000000 3.148330 0.000000 
#    z 0.063910 0.000000 3.643450 
# 
# 
# High freq. dielectric constant tensor:
#      x y z
#    x 1.737660 0.000000 0.010500 
#    y 0.000000 1.667740 0.000000 
#    z 0.010500 0.000000 1.766240 
# 
# From -- ./inp_files/252545.got.cif
#   From: 2010.06.25/outbox.cif.g09.slc.cpg/sg15_127_cif.got.tgz:252545.got - 2010.06.28 07:06:18.
