data_PCOD8130203
_publ_section_title
;
Structure prediction by ZEFSAII (Michael W. Deem and Ramdas Pophale) SiO2 
 PCOD8130203
Probable space group: C 2/C
;
_chemical_formula_sum "Si O2"
_cell_formula_units_Z 60
_cell_length_a 17.251452
_cell_length_b 11.745345
_cell_length_c 24.982742
_cell_angle_alpha 90.000000
_cell_angle_beta 36.207472
_cell_angle_gamma 90.000000
_cell_volume 2990.243253
_symmetry_space_group_name_H-M "C 2/C"
_symmetry_group_IT_number 15
_symmetry_cell_setting 'monoclinic'
loop_
_space_group_symop_operation_xyz
x,y,z
-x,y,1/2-z
-x,-y,-z
x,-y,1/2+z
1/2+x,1/2+y,z
1/2-x,1/2+y,1/2-z
1/2-x,1/2-y,-z
1/2+x,1/2-y,1/2+z
loop_
_atom_site_type_symbol
_atom_site_label
_atom_site_fract_x
_atom_site_fract_y
_atom_site_fract_z
Si Si1 0.377331 0.901509 0.014321
Si Si2 0.500000 0.043441 0.750000
Si Si3 0.108526 0.348371 0.967067
Si Si4 0.565825 0.292259 0.867676
Si Si5 0.697824 0.810893 0.195834
Si Si6 0.206950 0.812355 0.192701
Si Si7 0.963443 0.380859 0.675102
Si Si8 0.705453 0.490330 0.282017
O O1 0.243722 0.839105 0.109918
O O2 0.350571 0.036860 0.024860
O O3 0.487547 0.875515 0.996543
O O4 0.422477 0.853751 0.931575
O O5 0.371692 0.121763 0.813632
O O6 0.523618 0.966588 0.684794
O O7 0.229674 0.300900 0.865573
O O8 0.071420 0.251281 0.031600
O O9 0.586898 0.230052 0.799262
O O10 0.679627 0.262934 0.845450
O O11 0.576398 0.429388 0.857058
O O12 0.801930 0.893879 0.167746
O O13 0.075511 0.736734 0.272957
O O14 0.199545 0.933233 0.227011
O O15 0.841656 0.439161 0.711331
#
# Coordination Sequence:
#
# PCOD8130203 Si02
#       8
#     8   4   8   8   8   8   8   8
#     4  10  17  30  53  81 105 129 163 210 265 315
#     4  10  22  38  52  66 100 148 180 206 244 298
#     4  10  18  29  53  82 106 131 164 209 266 312
#     4   9  17  29  48  78 105 128 163 211 266 309
#     4  10  19  33  50  73 105 140 176 213 249 299
#     4   9  17  29  51  78 102 129 163 210 262 306
#     4  10  19  34  52  72 102 138 172 206 251 308
#     4   9  16  29  51  78 107 130 161 212 264 306
#
# _framework density 20.065258
#
# number of rings (size 3 to 8) (size 9 to 14) (size 15 to 20)
#    0.000    2.400    0.000    7.200    0.000    0.533 
#    0.000    6.000    0.000    3.200    0.000    0.000 
#    0.000    0.000    0.000    0.000    0.000    0.000 
#
# Total GULP energy -371861.388268 kJ/mol
# GULP energy per Si atom -12395.379609 kJ/mol
# Density = 2.001959 g / cm^3
# Si number density = 20.065258 Si / 1000 Ang^3
#
#
#
# Elastic Constant Matrix: (Units=GPa)
#
#
# Indices 1 2 3 4 5 6 
#
# 1 35.1807 22.0444 20.7160 0.0000 8.6254 0.0000
# 2 22.0444 102.9996 57.5343 0.0000 5.9215 0.0000
# 3 20.7160 57.5343 128.5812 -0.0002 23.3973 0.0001
# 4 0.0000 0.0000 -0.0002 35.9914 0.0001 1.5711
# 5 8.6254 5.9215 23.3973 0.0001 12.5343 0.0000
# 6 0.0000 0.0000 0.0001 1.5711 0.0000 13.0409
#
#
#
# Elastic Compliance Matrix: (Units=1/GPa)
#
#
# Indices 1 2 3 4 5 6 
#
# 1 0.038753 -0.008005 0.002276 0.000000 -0.027134 0.000000
# 2 -0.008005 0.015030 -0.007793 0.000000 0.012955 0.000000
# 3 0.002276 -0.007793 0.015920 0.000000 -0.027602 0.000000
# 4 0.000000 0.000000 0.000000 0.027931 0.000000 -0.003365
# 5 -0.027134 0.012955 -0.027602 0.000000 0.143857 0.000001
# 6 0.000000 0.000000 0.000000 -0.003365 0.000001 0.077087
#
#
# Mechanical properties :
#
#
# Convention : Reuss Voigt Hill
#
# Bulk Modulus (GPa) = 23.44186 51.92788 37.68487
# Shear Modulus (GPa) = 13.89490 23.41110 18.65300
#
# Velocity S-wave (km/s) = 2.63437 3.41948 3.05227
# Velocity P-wave (km/s) = 4.57836 6.44407 5.58961
#
# Compressibility (1/GPa) = 0.04265872
#
# Stress axis : x y z
#
# Youngs Moduli (GPa) = 25.80425 66.53164 62.81332
#
# Poissons Ratio (x) = 0.53262 -0.14296
# Poissons Ratio (y) = 0.20658 0.48951
# Poissons Ratio (z) = -0.05873 0.51849
#
# Static dielectric constant tensor:
#      x y z
#    x 3.150410 0.000000 0.213550 
#    y 0.000000 3.929850 0.000000 
#    z 0.213550 0.000000 3.734310 
# 
# 
# High freq. dielectric constant tensor:
#      x y z
#    x 1.723590 0.000000 0.027920 
#    y 0.000000 1.795500 0.000000 
#    z 0.027920 0.000000 1.774430 
# 
# From -- ./inp_files/277256.got.cif
#   From: 2010.06.25/outbox.cif.g09.slc.cpg/sg15_139_cif.got.tgz:277256.got - 2010.06.28 07:06:18.
