data_PCOD8130497
_publ_section_title
;
Structure prediction by ZEFSAII (Michael W. Deem and Ramdas Pophale) SiO2 
 PCOD8130497
Probable space group: C 2/C
;
_chemical_formula_sum "Si O2"
_cell_formula_units_Z 48
_cell_length_a 25.052333
_cell_length_b 13.506605
_cell_length_c 10.595893
_cell_angle_alpha 90.000000
_cell_angle_beta 143.699904
_cell_angle_gamma 90.000000
_cell_volume 2122.581156
_symmetry_space_group_name_H-M "C 2/C"
_symmetry_group_IT_number 15
_symmetry_cell_setting 'monoclinic'
loop_
_space_group_symop_operation_xyz
x,y,z
-x,y,1/2-z
-x,-y,-z
x,-y,1/2+z
1/2+x,1/2+y,z
1/2-x,1/2+y,1/2-z
1/2-x,1/2-y,-z
1/2+x,1/2-y,1/2+z
loop_
_atom_site_type_symbol
_atom_site_label
_atom_site_fract_x
_atom_site_fract_y
_atom_site_fract_z
Si Si1 0.674198 0.359898 0.498641
Si Si2 0.285910 0.047076 0.745106
Si Si3 0.108281 0.907622 0.623238
Si Si4 0.183732 0.572566 0.961642
Si Si5 0.053235 0.872952 0.030879
Si Si6 0.178314 0.239349 0.602656
O O1 0.701756 0.474596 0.563778
O O2 0.609231 0.341678 0.496750
O O3 0.622286 0.341242 0.272012
O O4 0.765647 0.295190 0.679771
O O5 0.353289 0.044929 0.749618
O O6 0.246746 0.156618 0.683420
O O7 0.338304 0.010915 0.973272
O O8 0.209232 0.923197 0.863132
O O9 0.049166 0.851156 0.618340
O O10 0.060643 0.012808 0.505086
O O11 0.151087 0.680966 0.943340
O O12 0.083554 0.805391 0.971040
#
# Coordination Sequence:
#
# PCOD8130497 Si02
#       6
#     8   8   8   8   8   8
#     4  10  19  31  49  72 106 146 180 216 273 318
#     4  10  17  34  48  72 107 135 185 217 268 319
#     4   9  19  29  47  73 105 142 171 215 270 320
#     4  10  20  33  51  75 106 145 176 222 271 318
#     4  11  17  31  48  73 108 141 179 217 267 331
#     4  10  19  30  48  74 102 143 182 222 262 317
#
# _framework density 22.613976999999998
#
# number of rings (size 3 to 8) (size 9 to 14) (size 15 to 20)
#    0.000    2.333    5.000    1.500    0.000    1.333 
#    0.000    0.833    0.000    0.000    0.000   18.667 
#    0.000   42.667    0.000    0.000    0.000    0.000 
#
# Total GULP energy -297342.696651 kJ/mol
# GULP energy per Si atom -12389.279027 kJ/mol
# Density = 2.256251 g / cm^3
# Si number density = 22.613977 Si / 1000 Ang^3
#
#
#
# Elastic Constant Matrix: (Units=GPa)
#
#
# Indices 1 2 3 4 5 6 
#
# 1 135.6060 45.1037 11.5857 0.0000 -25.9820 0.0000
# 2 45.1037 90.2443 -1.8996 0.0000 -11.0816 0.0000
# 3 11.5857 -1.8996 20.3060 0.0000 -12.2940 0.0000
# 4 0.0000 0.0000 0.0000 10.6528 0.0000 0.1413
# 5 -25.9820 -11.0816 -12.2940 0.0000 39.9269 0.0000
# 6 0.0000 0.0000 0.0000 0.1413 0.0000 34.7329
#
#
#
# Elastic Compliance Matrix: (Units=1/GPa)
#
#
# Indices 1 2 3 4 5 6 
#
# 1 0.009992 -0.004565 -0.003636 0.000000 0.004115 0.000000
# 2 -0.004565 0.013787 0.005424 0.000000 0.002526 0.000000
# 3 -0.003636 0.005424 0.063064 0.000000 0.018557 0.000000
# 4 0.000000 0.000000 0.000000 0.093877 0.000000 -0.000382
# 5 0.004115 0.002526 0.018557 0.000000 0.034139 0.000000
# 6 0.000000 0.000000 0.000000 -0.000382 0.000000 0.028793
#
#
# Mechanical properties :
#
#
# Convention : Reuss Voigt Hill
#
# Bulk Modulus (GPa) = 12.30210 39.52620 25.91415
# Shear Modulus (GPa) = 18.09614 29.82030 23.95822
#
# Velocity S-wave (km/s) = 2.83188 3.63528 3.25844
# Velocity P-wave (km/s) = 4.01803 5.92765 5.06367
#
# Compressibility (1/GPa) = 0.08128691
#
# Stress axis : x y z
#
# Youngs Moduli (GPa) = 100.08127 72.53231 15.85698
#
# Poissons Ratio (x) = 0.33112 0.05766
# Poissons Ratio (y) = 0.45688 -0.08600
# Poissons Ratio (z) = 0.36393 -0.39339
#
# Static dielectric constant tensor:
#      x y z
#    x 4.602040 0.000000 -0.494090 
#    y 0.000000 3.963120 0.000000 
#    z -0.494090 0.000000 3.677800 
# 
# 
# High freq. dielectric constant tensor:
#      x y z
#    x 1.901380 0.000000 -0.038590 
#    y 0.000000 1.875520 0.000000 
#    z -0.038590 0.000000 1.841850 
# 
# From -- ./inp_files/117727.got.cif
#   From: 2010.06.25/outbox.cif.g09.slc.cpg/sg15_59_cif.got.tgz:117727.got - 2010.06.28 07:06:18.
