data_PCOD8130612
_publ_section_title
;
Structure prediction by ZEFSAII (Michael W. Deem and Ramdas Pophale) SiO2 
 PCOD8130612
Probable space group: C 2/C
;
_chemical_formula_sum "Si O2"
_cell_formula_units_Z 48
_cell_length_a 26.617666
_cell_length_b 14.350896
_cell_length_c 12.046746
_cell_angle_alpha 90.000000
_cell_angle_beta 150.098489
_cell_angle_gamma 90.000000
_cell_volume 2293.998557
_symmetry_space_group_name_H-M "C 2/C"
_symmetry_group_IT_number 15
_symmetry_cell_setting 'monoclinic'
loop_
_space_group_symop_operation_xyz
x,y,z
-x,y,1/2-z
-x,-y,-z
x,-y,1/2+z
1/2+x,1/2+y,z
1/2-x,1/2+y,1/2-z
1/2-x,1/2-y,-z
1/2+x,1/2-y,1/2+z
loop_
_atom_site_type_symbol
_atom_site_label
_atom_site_fract_x
_atom_site_fract_y
_atom_site_fract_z
Si Si1 0.665846 0.413650 0.755745
Si Si2 0.656569 0.839963 0.513219
Si Si3 0.581626 0.414603 0.991059
Si Si4 0.051193 0.728460 0.466239
Si Si5 0.038043 0.289593 0.481069
Si Si6 0.758256 0.145949 0.867864
O O1 0.762633 0.421170 0.856600
O O2 0.601074 0.508282 0.622377
O O3 0.595126 0.326789 0.590248
O O4 0.707898 0.412108 0.960549
O O5 0.639390 0.828689 0.614189
O O6 0.707408 0.751781 0.550971
O O7 0.551231 0.848896 0.247121
O O8 0.530584 0.321061 0.942092
O O9 0.689327 0.395719 0.140487
O O10 0.500000 0.456965 0.750000
O O11 0.136762 0.648089 0.622410
O O12 0.000000 0.740590 0.250000
O O13 0.966813 0.695622 0.395583
#
# Coordination Sequence:
#
# PCOD8130612 Si02
#       6
#     8   8   8   8   8   8
#     4  11  20  33  57  87 119 151 192 237 300 353
#     4   9  16  34  59  81 106 157 201 223 276 364
#     4  11  21  34  56  90 120 145 184 254 304 330
#     4  11  21  35  58  85 114 152 202 241 277 346
#     4  10  17  35  60  83 111 153 200 234 280 347
#     4  10  19  38  55  78 120 156 189 233 302 349
#
# _framework density 20.924161999999999
#
# number of rings (size 3 to 8) (size 9 to 14) (size 15 to 20)
#    0.000    1.667    6.667    1.500    0.000    4.000 
#    0.000    9.167    3.667    2.000    0.000    0.000 
#    0.000    0.000    0.000    0.000    0.000    0.000 
#
# Total GULP energy -297392.640932 kJ/mol
# GULP energy per Si atom -12391.360039 kJ/mol
# Density = 2.087654 g / cm^3
# Si number density = 20.924162 Si / 1000 Ang^3
#
#
#
# Elastic Constant Matrix: (Units=GPa)
#
#
# Indices 1 2 3 4 5 6 
#
# 1 142.2976 -2.7332 28.6349 0.0000 -0.2325 0.0000
# 2 -2.7332 27.5042 16.5141 0.0000 1.4810 0.0000
# 3 28.6349 16.5141 67.6636 0.0000 -7.6446 0.0000
# 4 0.0000 0.0000 0.0000 14.9826 0.0000 0.3412
# 5 -0.2325 1.4810 -7.6446 0.0000 30.0017 0.0000
# 6 0.0000 0.0000 0.0000 0.3412 0.0000 9.1405
#
#
#
# Elastic Compliance Matrix: (Units=1/GPa)
#
#
# Indices 1 2 3 4 5 6 
#
# 1 0.007969 0.003475 -0.004358 0.000000 -0.001220 0.000000
# 2 0.003475 0.044825 -0.013033 0.000000 -0.005507 0.000000
# 3 -0.004358 -0.013033 0.020462 0.000000 0.005823 0.000000
# 4 0.000000 0.000000 0.000000 0.066801 0.000000 -0.002493
# 5 -0.001220 -0.005507 0.005823 0.000000 0.035078 0.000000
# 6 0.000000 0.000000 0.000000 -0.002493 0.000000 0.109496
#
#
# Mechanical properties :
#
#
# Convention : Reuss Voigt Hill
#
# Bulk Modulus (GPa) = 22.01507 35.81078 28.91293
# Shear Modulus (GPa) = 15.26225 23.82826 19.54526
#
# Velocity S-wave (km/s) = 2.70369 3.37826 3.05962
# Velocity P-wave (km/s) = 4.50453 5.68934 5.13124
#
# Compressibility (1/GPa) = 0.04542343
#
# Stress axis : x y z
#
# Youngs Moduli (GPa) = 125.48111 22.30901 48.87071
#
# Poissons Ratio (x) = -0.07751 0.21300
# Poissons Ratio (y) = -0.43599 0.63691
# Poissons Ratio (z) = 0.54690 0.29074
#
# Static dielectric constant tensor:
#      x y z
#    x 4.256700 0.000000 0.344240 
#    y 0.000000 3.427270 0.000000 
#    z 0.344240 0.000000 3.599650 
# 
# 
# High freq. dielectric constant tensor:
#      x y z
#    x 1.845230 0.000000 0.017370 
#    y 0.000000 1.773880 0.000000 
#    z 0.017370 0.000000 1.792540 
# 
# From -- ./inp_files/123604.got.cif
#   From: 2010.06.25/outbox.cif.g09.slc.cpg/sg15_62_cif.got.tgz:123604.got - 2010.06.28 07:06:18.
