data_PCOD8130954
_publ_section_title
;
Structure prediction by ZEFSAII (Michael W. Deem and Ramdas Pophale) SiO2 
 PCOD8130954
Probable space group: C 2/C
;
_chemical_formula_sum "Si O2"
_cell_formula_units_Z 60
_cell_length_a 29.438149
_cell_length_b 18.222375
_cell_length_c 11.815243
_cell_angle_alpha 90.000000
_cell_angle_beta 32.230537
_cell_angle_gamma 90.000000
_cell_volume 3380.273712
_symmetry_space_group_name_H-M "C 2/C"
_symmetry_group_IT_number 15
_symmetry_cell_setting 'monoclinic'
loop_
_space_group_symop_operation_xyz
x,y,z
-x,y,1/2-z
-x,-y,-z
x,-y,1/2+z
1/2+x,1/2+y,z
1/2-x,1/2+y,1/2-z
1/2-x,1/2-y,-z
1/2+x,1/2-y,1/2+z
loop_
_atom_site_type_symbol
_atom_site_label
_atom_site_fract_x
_atom_site_fract_y
_atom_site_fract_z
Si Si1 0.974105 0.126178 0.537698
Si Si2 0.293311 0.352113 0.702992
Si Si3 0.720715 0.183606 0.980024
Si Si4 0.823383 0.219986 0.546361
Si Si5 0.435750 0.254899 0.291164
Si Si6 0.839820 0.090392 0.338881
Si Si7 0.707102 0.566619 0.516873
Si Si8 0.000000 0.808058 0.750000
O O1 0.985995 0.200631 0.587399
O O2 0.891826 0.083897 0.754162
O O3 0.058534 0.076543 0.371926
O O4 0.961422 0.142485 0.431746
O O5 0.220125 0.295898 0.895786
O O6 0.376123 0.309525 0.486645
O O7 0.314568 0.403113 0.762375
O O8 0.260224 0.404411 0.672622
O O9 0.622180 0.193205 0.149003
O O10 0.750000 0.250000 0.000000
O O11 0.780136 0.183512 0.745852
O O12 0.732766 0.105658 0.016444
O O13 0.815532 0.162704 0.460334
O O14 0.922144 0.239549 0.364321
O O15 0.500000 0.220207 0.250000
O O16 0.785816 0.021244 0.498366
#
# Coordination Sequence:
#
# PCOD8130954 Si02
#       8
#     8   8   8   8   8   8   8   4
#     4  10  19  32  49  79 114 145 174 212 269 338
#     4  10  21  36  54  75 109 143 184 223 267 326
#     4  11  18  35  58  75 109 146 192 228 248 330
#     4  10  20  35  53  79 104 142 183 226 272 318
#     4  10  18  33  56  79 106 142 191 229 267 313
#     4  11  23  33  52  80 117 143 172 225 283 338
#     4  11  22  34  53  80 108 152 181 215 270 330
#     4  10  18  30  54  76 106 136 178 228 268 324
#
# _framework density 17.750042000000001
#
# number of rings (size 3 to 8) (size 9 to 14) (size 15 to 20)
#    0.000    1.600    6.667    0.800    1.867    0.000 
#    0.000    0.000    0.000    0.000    1.733    4.667 
#    0.000    0.000    0.000    0.000    0.000    0.000 
#
# Total GULP energy -371888.445149 kJ/mol
# GULP energy per Si atom -12396.281505 kJ/mol
# Density = 1.770964 g / cm^3
# Si number density = 17.750042 Si / 1000 Ang^3
#
#
#
# Elastic Constant Matrix: (Units=GPa)
#
#
# Indices 1 2 3 4 5 6 
#
# 1 110.1319 36.1637 19.0468 0.0000 -2.0491 0.0000
# 2 36.1637 82.9021 22.9339 0.0000 -7.0454 0.0000
# 3 19.0468 22.9339 42.3833 0.0000 4.9182 0.0000
# 4 0.0000 0.0000 0.0000 21.5600 0.0000 -1.5942
# 5 -2.0491 -7.0454 4.9182 0.0000 30.3725 0.0000
# 6 0.0000 0.0000 0.0000 -1.5942 0.0000 22.6955
#
#
#
# Elastic Compliance Matrix: (Units=1/GPa)
#
#
# Indices 1 2 3 4 5 6 
#
# 1 0.010861 -0.003947 -0.002776 0.000000 0.000267 0.000000
# 2 -0.003947 0.016287 -0.007589 0.000000 0.004741 0.000000
# 3 -0.002776 -0.007589 0.029733 0.000000 -0.006762 0.000000
# 4 0.000000 0.000000 0.000000 0.046624 0.000000 0.003275
# 5 0.000267 0.004741 -0.006762 0.000000 0.035137 0.000000
# 6 0.000000 0.000000 0.000000 0.003275 0.000000 0.044292
#
#
# Mechanical properties :
#
#
# Convention : Reuss Voigt Hill
#
# Bulk Modulus (GPa) = 35.39057 43.52291 39.45674
# Shear Modulus (GPa) = 22.62675 25.41045 24.01860
#
# Velocity S-wave (km/s) = 3.57423 3.78772 3.68252
# Velocity P-wave (km/s) = 6.08400 6.61076 6.35284
#
# Compressibility (1/GPa) = 0.02825611
#
# Stress axis : x y z
#
# Youngs Moduli (GPa) = 92.07048 61.40013 33.63276
#
# Poissons Ratio (x) = 0.24236 0.09336
# Poissons Ratio (y) = 0.36343 0.25524
# Poissons Ratio (z) = 0.25559 0.46597
#
# Static dielectric constant tensor:
#      x y z
#    x 3.574540 0.000000 0.070890 
#    y 0.000000 3.001070 0.000000 
#    z 0.070890 0.000000 3.338930 
# 
# 
# High freq. dielectric constant tensor:
#      x y z
#    x 1.703620 0.000000 0.014220 
#    y 0.000000 1.646540 0.000000 
#    z 0.014220 0.000000 1.677790 
# 
# From -- ./inp_files/127208.got.cif
#   From: 2010.06.25/outbox.cif.g09.slc.cpg/sg15_64_cif.got.tgz:127208.got - 2010.06.28 07:06:18.
