data_PCOD8130819
_publ_section_title
;
Structure prediction by ZEFSAII (Michael W. Deem and Ramdas Pophale) SiO2 
 PCOD8130819
Probable space group: C 2/C
;
_chemical_formula_sum "Si O2"
_cell_formula_units_Z 56
_cell_length_a 25.666637
_cell_length_b 27.029060
_cell_length_c 5.266833
_cell_angle_alpha 90.000000
_cell_angle_beta 72.493321
_cell_angle_gamma 90.000000
_cell_volume 3484.600502
_symmetry_space_group_name_H-M "C 2/C"
_symmetry_group_IT_number 15
_symmetry_cell_setting 'monoclinic'
loop_
_space_group_symop_operation_xyz
x,y,z
-x,y,1/2-z
-x,-y,-z
x,-y,1/2+z
1/2+x,1/2+y,z
1/2-x,1/2+y,1/2-z
1/2-x,1/2-y,-z
1/2+x,1/2-y,1/2+z
loop_
_atom_site_type_symbol
_atom_site_label
_atom_site_fract_x
_atom_site_fract_y
_atom_site_fract_z
Si Si1 0.562577 0.981606 0.530271
Si Si2 0.376886 0.204784 0.797643
Si Si3 0.339774 0.245303 0.353499
Si Si4 0.221061 0.629707 0.526567
Si Si5 0.817308 0.477524 0.539299
Si Si6 0.034507 0.375769 0.447654
Si Si7 0.240582 0.169033 0.528045
O O1 0.571531 0.924010 0.452182
O O2 0.532096 0.013889 0.350525
O O3 0.618666 0.008635 0.540382
O O4 0.373535 0.242821 0.566656
O O5 0.322382 0.173076 0.893225
O O6 0.429201 0.170876 0.678831
O O7 0.380692 0.234783 0.057273
O O8 0.292376 0.204806 0.436817
O O9 0.314749 0.299810 0.356167
O O10 0.188963 0.579139 0.527431
O O11 0.262311 0.638528 0.230844
O O12 0.254422 0.630836 0.742716
O O13 0.789805 0.509599 0.350485
O O14 0.000000 0.389233 0.250000
O O15 0.000000 0.362467 0.750000
#
# Coordination Sequence:
#
# PCOD8130819 Si02
#       7
#     8   8   8   8   8   8   8
#     4  10  21  35  48  59  77 102 143 192 236 278
#     4  10  19  32  47  62  81 109 136 169 226 279
#     4   9  17  29  47  66  86 104 125 159 210 285
#     4  10  18  29  46  63  85 109 134 174 220 268
#     4  10  19  30  44  60  80 109 146 180 214 260
#     4  12  25  37  48  63  83 110 151 200 243 275
#     4   9  17  28  44  69  88 102 125 160 215 272
#
# _framework density 16.070708
#
# number of rings (size 3 to 8) (size 9 to 14) (size 15 to 20)
#    0.000    2.000    0.000    5.143    0.000   12.000 
#    0.000    0.000    0.000    0.000    0.000    0.000 
#    0.000    0.000    0.000    0.000    0.000    0.000 
#
# Total GULP energy -347040.794011 kJ/mol
# GULP energy per Si atom -12394.314072 kJ/mol
# Density = 1.603413 g / cm^3
# Si number density = 16.070708 Si / 1000 Ang^3
#
#
#
# Elastic Constant Matrix: (Units=GPa)
#
#
# Indices 1 2 3 4 5 6 
#
# 1 38.0984 40.3270 42.1268 0.0000 7.1135 0.0000
# 2 40.3270 61.8957 51.6686 0.0000 3.8593 0.0000
# 3 42.1268 51.6686 164.1619 0.0000 23.0747 0.0000
# 4 0.0000 0.0000 0.0000 27.8505 0.0000 1.6713
# 5 7.1135 3.8593 23.0747 0.0000 25.8070 0.0000
# 6 0.0000 0.0000 0.0000 1.6713 0.0000 19.0594
#
#
#
# Elastic Compliance Matrix: (Units=1/GPa)
#
#
# Indices 1 2 3 4 5 6 
#
# 1 0.092849 -0.056071 -0.004301 0.000000 -0.013363 0.000000
# 2 -0.056071 0.056024 -0.004848 0.000000 0.011413 0.000000
# 3 -0.004301 -0.004848 0.009668 0.000000 -0.006734 0.000000
# 4 0.000000 0.000000 0.000000 0.036096 0.000000 -0.003165
# 5 -0.013363 0.011413 -0.006734 0.000000 0.046747 0.000000
# 6 0.000000 0.000000 0.000000 -0.003165 0.000000 0.052745
#
#
# Mechanical properties :
#
#
# Convention : Reuss Voigt Hill
#
# Bulk Modulus (GPa) = 35.58625 59.15562 47.37093
# Shear Modulus (GPa) = 11.52248 23.21229 17.36738
#
# Velocity S-wave (km/s) = 2.68057 3.80463 3.29094
# Velocity P-wave (km/s) = 5.63668 7.49598 6.63182
#
# Compressibility (1/GPa) = 0.02810074
#
# Stress axis : x y z
#
# Youngs Moduli (GPa) = 10.77019 17.84953 103.43800
#
# Poissons Ratio (x) = 1.00084 0.44484
# Poissons Ratio (y) = 0.60389 0.50151
# Poissons Ratio (z) = 0.04632 0.08654
#
# Static dielectric constant tensor:
#      x y z
#    x 2.676330 0.000000 0.277710 
#    y 0.000000 2.832360 0.000000 
#    z 0.277710 0.000000 4.045150 
# 
# 
# High freq. dielectric constant tensor:
#      x y z
#    x 1.560600 0.000000 0.025520 
#    y 0.000000 1.585320 0.000000 
#    z 0.025520 0.000000 1.659440 
# 
# From -- ./inp_files/13669.got.cif
#   From: 2010.06.25/outbox.cif.g09.slc.cpg/sg15_7_cif.got.tgz:13669.got - 2010.06.28 07:06:18.
