data_PCOD8130273
_publ_section_title
;
Structure prediction by ZEFSAII (Michael W. Deem and Ramdas Pophale) SiO2 
 PCOD8130273
Probable space group: C 2/C
;
_chemical_formula_sum "Si O2"
_cell_formula_units_Z 56
_cell_length_a 14.431784
_cell_length_b 9.218454
_cell_length_c 24.542293
_cell_angle_alpha 90.000000
_cell_angle_beta 63.538696
_cell_angle_gamma 90.000000
_cell_volume 2923.011667
_symmetry_space_group_name_H-M "C 2/C"
_symmetry_group_IT_number 15
_symmetry_cell_setting 'monoclinic'
loop_
_space_group_symop_operation_xyz
x,y,z
-x,y,1/2-z
-x,-y,-z
x,-y,1/2+z
1/2+x,1/2+y,z
1/2-x,1/2+y,1/2-z
1/2-x,1/2-y,-z
1/2+x,1/2-y,1/2+z
loop_
_atom_site_type_symbol
_atom_site_label
_atom_site_fract_x
_atom_site_fract_y
_atom_site_fract_z
Si Si1 0.996469 0.032031 0.912617
Si Si2 0.424777 0.799023 0.563905
Si Si3 0.430803 0.318655 0.320863
Si Si4 0.481507 0.796029 0.075457
Si Si5 0.423332 0.052267 0.396596
Si Si6 0.723036 0.583093 0.502167
Si Si7 0.721602 0.045748 0.894028
O O1 0.028341 0.866164 0.900623
O O2 0.977845 0.084135 0.856217
O O3 0.897423 0.053217 0.979468
O O4 0.087642 0.130108 0.915832
O O5 0.436590 0.816892 0.495525
O O6 0.530849 0.854903 0.564771
O O7 0.326971 0.891310 0.613247
O O8 0.500000 0.332870 0.250000
O O9 0.430740 0.148461 0.339552
O O10 0.317457 0.384936 0.335190
O O11 0.368606 0.835465 0.083118
O O12 0.516087 0.897837 0.117932
O O13 0.301429 0.016168 0.437391
O O14 0.750000 0.750000 0.500000
O O15 0.739905 0.509123 0.555937
#
# Coordination Sequence:
#
# PCOD8130273 Si02
#       7
#     8   8   8   8   8   8   8
#     4  10  22  32  52  83 119 138 174 220 271 321
#     4  10  17  31  52  83 114 142 165 203 275 346
#     4  10  22  41  57  71  99 149 198 227 260 317
#     4  11  19  32  51  90 117 136 163 223 280 328
#     4  10  18  32  57  76 107 141 184 210 264 331
#     4  11  15  31  51  78 109 144 173 211 262 335
#     4  10  18  32  57  77 104 145 176 214 274 332
#
# _framework density 19.158322999999999
#
# number of rings (size 3 to 8) (size 9 to 14) (size 15 to 20)
#    0.000    1.714    7.143    1.286    0.000    0.571 
#    0.000    5.000    0.000    0.000    0.000    0.000 
#    0.000    0.000    0.000    0.000    0.000    0.000 
#
# Total GULP energy -346883.388032 kJ/mol
# GULP energy per Si atom -12388.692430 kJ/mol
# Density = 1.911472 g / cm^3
# Si number density = 19.158323 Si / 1000 Ang^3
#
#
#
# Elastic Constant Matrix: (Units=GPa)
#
#
# Indices 1 2 3 4 5 6 
#
# 1 60.2404 44.1003 29.1483 0.0000 -12.4096 0.0000
# 2 44.1003 156.3306 31.9283 0.0000 -6.2441 0.0000
# 3 29.1483 31.9283 92.5815 0.0000 -18.0256 0.0000
# 4 0.0000 0.0000 0.0000 13.8659 0.0000 2.8087
# 5 -12.4096 -6.2441 -18.0256 0.0000 18.0293 0.0000
# 6 0.0000 0.0000 0.0000 2.8087 0.0000 25.7562
#
#
#
# Elastic Compliance Matrix: (Units=1/GPa)
#
#
# Indices 1 2 3 4 5 6 
#
# 1 0.025020 -0.005860 -0.003599 0.000000 0.011593 0.000000
# 2 -0.005860 0.008254 -0.001528 0.000000 -0.002702 0.000000
# 3 -0.003599 -0.001528 0.014747 0.000000 0.011737 0.000000
# 4 0.000000 0.000000 0.000000 0.073749 0.000000 -0.008042
# 5 0.011593 -0.002702 0.011737 0.000000 0.074244 0.000000
# 6 0.000000 0.000000 0.000000 -0.008042 0.000000 0.039703
#
#
# Mechanical properties :
#
#
# Convention : Reuss Voigt Hill
#
# Bulk Modulus (GPa) = 38.39248 57.72293 48.05771
# Shear Modulus (GPa) = 18.77084 25.12864 21.94974
#
# Velocity S-wave (km/s) = 3.13353 3.62557 3.38849
# Velocity P-wave (km/s) = 5.75978 6.90805 6.35989
#
# Compressibility (1/GPa) = 0.02604677
#
# Stress axis : x y z
#
# Youngs Moduli (GPa) = 39.96854 121.15607 67.81266
#
# Poissons Ratio (x) = 0.70996 0.24407
# Poissons Ratio (y) = 0.23421 0.10359
# Poissons Ratio (z) = 0.14385 0.18509
#
# Static dielectric constant tensor:
#      x y z
#    x 3.686420 0.000000 -0.162860 
#    y 0.000000 3.656340 0.000000 
#    z -0.162860 0.000000 2.721670 
# 
# 
# High freq. dielectric constant tensor:
#      x y z
#    x 1.746240 0.000000 -0.001110 
#    y 0.000000 1.750430 0.000000 
#    z -0.001110 0.000000 1.679190 
# 
# From -- ./inp_files/272620.got.cif
#   From: 2010.06.25/outbox.cif.g09.slc.cpg/sg15_137_cif.got.tgz:272620.got - 2010.06.28 07:06:18.
