data_PCOD8130375
_publ_section_title
;
Structure prediction by ZEFSAII (Michael W. Deem and Ramdas Pophale) SiO2 
 PCOD8130375
Probable space group: C 2/C
;
_chemical_formula_sum "Si O2"
_cell_formula_units_Z 52
_cell_length_a 14.066175
_cell_length_b 20.343412
_cell_length_c 12.455238
_cell_angle_alpha 90.000000
_cell_angle_beta 123.613065
_cell_angle_gamma 90.000000
_cell_volume 2968.178169
_symmetry_space_group_name_H-M "C 2/C"
_symmetry_group_IT_number 15
_symmetry_cell_setting 'monoclinic'
loop_
_space_group_symop_operation_xyz
x,y,z
-x,y,1/2-z
-x,-y,-z
x,-y,1/2+z
1/2+x,1/2+y,z
1/2-x,1/2+y,1/2-z
1/2-x,1/2-y,-z
1/2+x,1/2-y,1/2+z
loop_
_atom_site_type_symbol
_atom_site_label
_atom_site_fract_x
_atom_site_fract_y
_atom_site_fract_z
Si Si1 0.521240 0.074422 0.036082
Si Si2 0.116741 0.913393 0.597460
Si Si3 0.240785 0.325753 0.968386
Si Si4 0.500000 0.124025 0.250000
Si Si5 0.241121 0.936929 0.887089
Si Si6 0.645331 0.438343 0.057851
Si Si7 0.224481 0.587760 0.652304
O O1 0.538343 0.079057 0.174845
O O2 0.636372 0.099516 0.050156
O O3 0.408297 0.111002 0.922055
O O4 0.500000 0.000000 0.000000
O O5 0.174736 0.852185 0.572078
O O6 0.152262 0.910001 0.744103
O O7 0.980645 0.909478 0.505567
O O8 0.155407 0.982849 0.571039
O O9 0.108895 0.333567 0.852608
O O10 0.250000 0.250000 0.000000
O O11 0.280519 0.364366 0.100001
O O12 0.259007 0.014610 0.883347
O O13 0.193522 0.917464 0.973009
O O14 0.719620 0.403709 0.196662
#
# Coordination Sequence:
#
# PCOD8130375 Si02
#       7
#     8   8   8   4   8   8   8
#     4   9  18  28  53  77 109 144 173 232 293 345
#     4  10  20  34  51  82 111 152 187 232 293 340
#     4  11  22  38  59  81 113 153 198 239 282 345
#     4  10  20  38  52  82 116 140 190 242 280 332
#     4  10  17  32  54  81 110 146 177 236 296 349
#     4  10  20  32  53  79 122 142 181 243 286 358
#     4   9  20  32  48  84 112 140 187 230 293 339
#
# _framework density 17.519162999999999
#
# number of rings (size 3 to 8) (size 9 to 14) (size 15 to 20)
#    0.000    2.154    3.077    0.462    0.000    2.462 
#    0.000    0.000    0.000    0.923    8.000    0.000 
#    0.000    0.000    0.000    0.000    0.000    0.000 
#
# Total GULP energy -322249.924507 kJ/mol
# GULP energy per Si atom -12394.227866 kJ/mol
# Density = 1.747929 g / cm^3
# Si number density = 17.519163 Si / 1000 Ang^3
#
#
#
# Elastic Constant Matrix: (Units=GPa)
#
#
# Indices 1 2 3 4 5 6 
#
# 1 114.7638 34.4793 71.7434 0.0000 -14.1744 0.0000
# 2 34.4793 70.5169 41.0192 0.0000 -8.6157 0.0000
# 3 71.7434 41.0192 155.0895 0.0000 -10.7330 0.0000
# 4 0.0000 0.0000 0.0000 16.5127 0.0000 -1.4189
# 5 -14.1744 -8.6157 -10.7330 0.0000 32.8776 0.0000
# 6 0.0000 0.0000 0.0000 -1.4189 0.0000 17.7818
#
#
#
# Elastic Compliance Matrix: (Units=1/GPa)
#
#
# Indices 1 2 3 4 5 6 
#
# 1 0.013216 -0.003122 -0.005065 0.000000 0.003226 0.000000
# 2 -0.003122 0.017794 -0.003103 0.000000 0.002304 0.000000
# 3 -0.005065 -0.003103 0.009621 0.000000 0.000144 0.000000
# 4 0.000000 0.000000 0.000000 0.060978 0.000000 0.004866
# 5 0.003226 0.002304 0.000144 0.000000 0.032458 0.000000
# 6 0.000000 0.000000 0.000000 0.004866 0.000000 0.056626
#
#
# Mechanical properties :
#
#
# Convention : Reuss Voigt Hill
#
# Bulk Modulus (GPa) = 55.39255 70.53931 62.96593
# Shear Modulus (GPa) = 22.80106 26.30963 24.55534
#
# Velocity S-wave (km/s) = 3.61153 3.87946 3.74789
# Velocity P-wave (km/s) = 7.00556 7.77293 7.39920
#
# Compressibility (1/GPa) = 0.01805297
#
# Stress axis : x y z
#
# Youngs Moduli (GPa) = 75.66548 56.19976 103.93493
#
# Poissons Ratio (x) = 0.17544 0.52640
# Poissons Ratio (y) = 0.23620 0.32248
# Poissons Ratio (z) = 0.38323 0.17437
#
# Static dielectric constant tensor:
#      x y z
#    x 3.621740 0.000000 0.026380 
#    y 0.000000 2.761990 0.000000 
#    z 0.026380 0.000000 3.087050 
# 
# 
# High freq. dielectric constant tensor:
#      x y z
#    x 1.688020 0.000000 0.006500 
#    y 0.000000 1.618090 0.000000 
#    z 0.006500 0.000000 1.695530 
# 
# From -- ./inp_files/99494.got.cif
#   From: 2010.06.25/outbox.cif.g09.slc.cpg/sg15_50_cif.got.tgz:99494.got - 2010.06.28 07:06:18.
