data_PCOD8130404
_publ_section_title
;
Structure prediction by ZEFSAII (Michael W. Deem and Ramdas Pophale) SiO2 
 PCOD8130404
Probable space group: C 2/C
;
_chemical_formula_sum "Si O2"
_cell_formula_units_Z 56
_cell_length_a 15.867833
_cell_length_b 12.661586
_cell_length_c 31.237873
_cell_angle_alpha 90.000000
_cell_angle_beta 26.635871
_cell_angle_gamma 90.000000
_cell_volume 2813.676329
_symmetry_space_group_name_H-M "C 2/C"
_symmetry_group_IT_number 15
_symmetry_cell_setting 'monoclinic'
loop_
_space_group_symop_operation_xyz
x,y,z
-x,y,1/2-z
-x,-y,-z
x,-y,1/2+z
1/2+x,1/2+y,z
1/2-x,1/2+y,1/2-z
1/2-x,1/2-y,-z
1/2+x,1/2-y,1/2+z
loop_
_atom_site_type_symbol
_atom_site_label
_atom_site_fract_x
_atom_site_fract_y
_atom_site_fract_z
Si Si1 0.500000 0.533762 0.250000
Si Si2 0.031424 0.204247 0.167972
Si Si3 0.685018 0.551032 0.397470
Si Si4 0.934543 0.625313 0.979480
Si Si5 0.581239 0.774668 0.666739
Si Si6 0.817886 0.415317 0.058518
Si Si7 0.000000 0.616269 0.750000
Si Si8 0.177943 0.212189 0.325017
O O1 0.452826 0.607500 0.231170
O O2 0.683226 0.465440 0.156166
O O3 0.009415 0.314440 0.202677
O O4 0.912026 0.192077 0.179547
O O5 0.251618 0.197115 0.056569
O O6 0.500000 0.500000 0.500000
O O7 0.793172 0.620405 0.384455
O O8 0.819317 0.455671 0.323319
O O9 0.626271 0.622646 0.383434
O O10 0.997164 0.627437 0.000993
O O11 0.101706 0.672767 0.874878
O O12 0.879148 0.501935 0.994760
O O13 0.500000 0.740146 0.750000
O O14 0.708903 0.683356 0.587218
O O15 0.403528 0.789453 0.716269
#
# Coordination Sequence:
#
# PCOD8130404 Si02
#       8
#     4   8   8   8   8   8   4   8
#     4   9  18  37  54  84 114 159 196 251 316 372
#     4  10  23  37  59  84 125 156 208 261 309 364
#     4  11  22  40  66  88 122 170 213 253 307 382
#     4  10  19  32  57  87 116 152 195 251 309 366
#     4  10  18  36  60  85 118 155 200 246 307 368
#     4  10  17  32  57  88 110 151 198 243 305 376
#     4  11  22  43  60  92 118 173 214 245 318 378
#     4  11  20  40  58  89 119 160 208 260 305 366
#
# _framework density 19.902787
#
# number of rings (size 3 to 8) (size 9 to 14) (size 15 to 20)
#    0.000    1.714    5.714    1.286    0.000    0.000 
#    7.714    1.429    0.000    0.857    0.000    0.000 
#    0.000    0.000    0.000    0.000    0.000    0.000 
#
# Total GULP energy -347007.594452 kJ/mol
# GULP energy per Si atom -12393.128373 kJ/mol
# Density = 1.985749 g / cm^3
# Si number density = 19.902787 Si / 1000 Ang^3
#
#
#
# Elastic Constant Matrix: (Units=GPa)
#
#
# Indices 1 2 3 4 5 6 
#
# 1 134.5133 56.5087 51.6689 0.0004 -21.8384 -0.0005
# 2 56.5087 117.0656 45.8173 -0.0012 -17.0021 -0.0009
# 3 51.6689 45.8173 73.1730 -0.0077 -29.7819 -0.0021
# 4 0.0004 -0.0012 -0.0077 44.2576 -0.0044 -12.6546
# 5 -21.8384 -17.0021 -29.7819 -0.0044 27.7722 0.0003
# 6 -0.0005 -0.0009 -0.0021 -12.6546 0.0003 15.9886
#
#
#
# Elastic Compliance Matrix: (Units=1/GPa)
#
#
# Indices 1 2 3 4 5 6 
#
# 1 0.010950 -0.003009 -0.005489 -0.000002 0.000882 -0.000002
# 2 -0.003009 0.012164 -0.006076 -0.000001 -0.001435 -0.000001
# 3 -0.005489 -0.006076 0.032075 0.000012 0.026361 0.000012
# 4 -0.000002 -0.000001 0.000012 0.029204 0.000015 0.023114
# 5 0.000882 -0.001435 0.026361 0.000015 0.064091 0.000014
# 6 -0.000002 -0.000001 0.000012 0.023114 0.000014 0.080839
#
#
# Mechanical properties :
#
#
# Convention : Reuss Voigt Hill
#
# Bulk Modulus (GPa) = 38.39918 70.30464 54.35191
# Shear Modulus (GPa) = 18.71597 28.98747 23.85172
#
# Velocity S-wave (km/s) = 3.06987 3.82049 3.46556
# Velocity P-wave (km/s) = 5.64807 7.40690 6.58646
#
# Compressibility (1/GPa) = 0.02604222
#
# Stress axis : x y z
#
# Youngs Moduli (GPa) = 91.32475 82.20689 31.17682
#
# Poissons Ratio (x) = 0.24739 0.17111
# Poissons Ratio (y) = 0.27483 0.18942
# Poissons Ratio (z) = 0.50124 0.49947
#
# Static dielectric constant tensor:
#      x y z
#    x 3.337890 0.000000 -0.336480 
#    y 0.000000 3.895100 0.000000 
#    z -0.336480 0.000000 3.558680 
# 
# 
# High freq. dielectric constant tensor:
#      x y z
#    x 1.744090 0.000000 -0.037560 
#    y 0.000000 1.790550 0.000000 
#    z -0.037560 0.000000 1.771150 
# 
# From -- ./inp_files/313753.got.cif
#   From: 2010.06.25/outbox.cif.g09.slc.cpg/sg15_157_cif.got.tgz:313753.got - 2010.06.28 07:06:18.
