data_PCOD8130297
_publ_section_title
;
Structure prediction by ZEFSAII (Michael W. Deem and Ramdas Pophale) SiO2 
 PCOD8130297
Probable space group: C 2/C
;
_chemical_formula_sum "Si O2"
_cell_formula_units_Z 64
_cell_length_a 29.211421
_cell_length_b 21.828167
_cell_length_c 8.966548
_cell_angle_alpha 90.000000
_cell_angle_beta 36.795638
_cell_angle_gamma 90.000000
_cell_volume 3424.482576
_symmetry_space_group_name_H-M "C 2/C"
_symmetry_group_IT_number 15
_symmetry_cell_setting 'monoclinic'
loop_
_space_group_symop_operation_xyz
x,y,z
-x,y,1/2-z
-x,-y,-z
x,-y,1/2+z
1/2+x,1/2+y,z
1/2-x,1/2+y,1/2-z
1/2-x,1/2-y,-z
1/2+x,1/2-y,1/2+z
loop_
_atom_site_type_symbol
_atom_site_label
_atom_site_fract_x
_atom_site_fract_y
_atom_site_fract_z
Si Si1 0.820610 0.027216 0.612156
Si Si2 0.705561 0.839262 0.701888
Si Si3 0.796735 0.206899 0.688390
Si Si4 0.785845 0.878700 0.953983
Si Si5 0.653992 0.606590 0.507359
Si Si6 0.169592 0.532301 0.627413
Si Si7 0.085418 0.874557 0.475977
Si Si8 0.589259 0.938097 0.044578
O O1 0.822521 0.067781 0.458307
O O2 0.864923 0.064245 0.624980
O O3 0.865399 0.964865 0.461659
O O4 0.734675 0.012443 0.890010
O O5 0.732202 0.818287 0.468844
O O6 0.699797 0.780099 0.824550
O O7 0.763649 0.886823 0.626830
O O8 0.625399 0.874047 0.892502
O O9 0.775138 0.182646 0.579688
O O10 0.879650 0.182756 0.525340
O O11 0.706289 0.905223 0.097720
O O12 0.842547 0.863003 0.666650
O O13 0.590642 0.637230 0.782261
O O14 0.106559 0.553249 0.673318
O O15 0.124593 0.496550 0.871191
O O16 0.000000 0.884834 0.750000
O O17 0.500000 0.933804 0.250000
#
# Coordination Sequence:
#
# PCOD8130297 Si02
#       8
#     8   8   8   8   8   8   8   8
#     4  10  18  33  56  76 108 147 184 225 279 338
#     4  10  19  38  57  79 104 146 194 230 272 333
#     4   9  21  36  58  79 104 146 195 234 272 330
#     4  10  17  31  56  82 105 140 189 235 276 315
#     4  10  18  32  54  79 105 138 184 231 273 326
#     4  11  20  36  54  82 115 152 181 233 282 343
#     4  10  21  35  52  79 112 146 181 227 279 337
#     4  12  23  35  55  86 117 148 183 231 295 350
#
# _framework density 18.688955
#
# number of rings (size 3 to 8) (size 9 to 14) (size 15 to 20)
#    0.000    1.750    3.750    4.125    0.000    1.500 
#    0.000    2.500    0.000    0.000    0.000    3.500 
#    0.000    0.000    0.000    0.000    0.000    0.000 
#
# Total GULP energy -396719.707156 kJ/mol
# GULP energy per Si atom -12397.490849 kJ/mol
# Density = 1.864642 g / cm^3
# Si number density = 18.688955 Si / 1000 Ang^3
#
#
#
# Elastic Constant Matrix: (Units=GPa)
#
#
# Indices 1 2 3 4 5 6 
#
# 1 94.3546 33.0955 52.5662 0.0000 16.2197 0.0000
# 2 33.0955 80.5353 30.7900 0.0000 -0.2929 0.0000
# 3 52.5662 30.7900 104.5231 0.0000 5.1151 0.0000
# 4 0.0000 0.0000 0.0000 14.3845 0.0000 6.2042
# 5 16.2197 -0.2929 5.1151 0.0000 32.2653 0.0000
# 6 0.0000 0.0000 0.0000 6.2042 0.0000 19.7968
#
#
#
# Elastic Compliance Matrix: (Units=1/GPa)
#
#
# Indices 1 2 3 4 5 6 
#
# 1 0.017431 -0.004489 -0.007068 0.000000 -0.007683 0.000000
# 2 -0.004489 0.015169 -0.002346 0.000000 0.002766 0.000000
# 3 -0.007068 -0.002346 0.013747 0.000000 0.001353 0.000000
# 4 0.000000 0.000000 0.000000 0.080385 0.000000 -0.025192
# 5 -0.007683 0.002766 0.001353 0.000000 0.034666 0.000000
# 6 0.000000 0.000000 0.000000 -0.025192 0.000000 0.058408
#
#
# Mechanical properties :
#
#
# Convention : Reuss Voigt Hill
#
# Bulk Modulus (GPa) = 53.93637 56.92403 55.43020
# Shear Modulus (GPa) = 19.70110 24.15340 21.92725
#
# Velocity S-wave (km/s) = 3.25030 3.59888 3.42902
# Velocity P-wave (km/s) = 6.55810 6.91332 6.73805
#
# Compressibility (1/GPa) = 0.01854036
#
# Stress axis : x y z
#
# Youngs Moduli (GPa) = 57.36808 65.92539 72.74396
#
# Poissons Ratio (x) = 0.29594 0.51416
# Poissons Ratio (y) = 0.25752 0.17067
# Poissons Ratio (z) = 0.40548 0.15467
#
# Static dielectric constant tensor:
#      x y z
#    x 3.509670 0.000000 0.344220 
#    y 0.000000 3.423040 0.000000 
#    z 0.344220 0.000000 3.390720 
# 
# 
# High freq. dielectric constant tensor:
#      x y z
#    x 1.719160 0.000000 0.029160 
#    y 0.000000 1.715990 0.000000 
#    z 0.029160 0.000000 1.709360 
# 
# From -- ./inp_files/51239.got.cif
#   From: 2010.06.25/outbox.cif.g09.slc.cpg/sg15_26_cif.got.tgz:51239.got - 2010.06.28 07:06:18.
