data_PCOD8130483
_publ_section_title
;
Structure prediction by ZEFSAII (Michael W. Deem and Ramdas Pophale) SiO2 
 PCOD8130483
Probable space group: C 2/C
;
_chemical_formula_sum "Si O2"
_cell_formula_units_Z 64
_cell_length_a 10.011448
_cell_length_b 22.858307
_cell_length_c 17.918913
_cell_angle_alpha 90.000000
_cell_angle_beta 132.274764
_cell_angle_gamma 90.000000
_cell_volume 3034.182916
_symmetry_space_group_name_H-M "C 2/C"
_symmetry_group_IT_number 15
_symmetry_cell_setting 'monoclinic'
loop_
_space_group_symop_operation_xyz
x,y,z
-x,y,1/2-z
-x,-y,-z
x,-y,1/2+z
1/2+x,1/2+y,z
1/2-x,1/2+y,1/2-z
1/2-x,1/2-y,-z
1/2+x,1/2-y,1/2+z
loop_
_atom_site_type_symbol
_atom_site_label
_atom_site_fract_x
_atom_site_fract_y
_atom_site_fract_z
Si Si1 0.577638 0.748655 0.857446
Si Si2 0.930440 0.137272 0.866463
Si Si3 0.183589 0.817551 0.023248
Si Si4 0.466999 0.219579 0.001733
Si Si5 0.600874 0.531241 0.865458
Si Si6 0.472064 0.087879 0.973838
Si Si7 0.034176 0.620142 0.683021
Si Si8 0.370345 0.401712 0.634096
O O1 0.500000 0.770845 0.750000
O O2 0.554727 0.679322 0.863166
O O3 0.791343 0.761526 0.933278
O O4 0.478809 0.782806 0.889420
O O5 0.932757 0.153112 0.954265
O O6 0.734798 0.145094 0.755627
O O7 0.006162 0.071441 0.891373
O O8 0.395262 0.825472 0.120646
O O9 0.128406 0.849569 0.925501
O O10 0.125482 0.748186 0.007631
O O11 0.414408 0.155964 0.952639
O O12 0.500000 0.545465 0.750000
O O13 0.817675 0.545181 0.947312
O O14 0.564907 0.464016 0.875003
O O15 0.498499 0.073009 0.895381
O O16 0.666257 0.084562 0.088382
O O17 0.000000 0.588500 0.750000
O O18 0.500000 0.381677 0.750000
#
# Coordination Sequence:
#
# PCOD8130483 Si02
#       8
#     8   8   8   8   8   8   8   8
#     4  10  19  33  53  85 114 147 191 241 290 334
#     4  10  17  33  61  86 115 135 190 252 294 338
#     4   9  21  38  54  83 121 151 186 233 293 356
#     4  10  21  34  56  84 114 155 192 236 285 350
#     4  11  20  35  63  91 108 145 196 254 298 334
#     4  11  20  37  59  84 118 151 194 243 289 344
#     4   9  18  32  54  85 114 141 179 242 297 339
#     4  10  24  40  55  79 118 162 198 229 282 358
#
# _framework density 21.092994000000001
#
# number of rings (size 3 to 8) (size 9 to 14) (size 15 to 20)
#    0.000    2.000    2.500    1.500    0.000    3.500 
#    0.000    3.750    0.000    0.000    0.000    0.000 
#    0.000    0.000    0.000    0.000    0.000    0.000 
#
# Total GULP energy -396526.560812 kJ/mol
# GULP energy per Si atom -12391.455025 kJ/mol
# Density = 2.104499 g / cm^3
# Si number density = 21.092994 Si / 1000 Ang^3
#
#
#
# Elastic Constant Matrix: (Units=GPa)
#
#
# Indices 1 2 3 4 5 6 
#
# 1 62.6584 12.7156 41.5321 0.0000 10.6138 0.0000
# 2 12.7156 67.2189 15.1416 0.0000 -7.6210 0.0000
# 3 41.5321 15.1416 130.8486 0.0000 0.8434 0.0000
# 4 0.0000 0.0000 0.0000 21.4974 0.0000 2.7361
# 5 10.6138 -7.6210 0.8434 0.0000 36.1831 0.0000
# 6 0.0000 0.0000 0.0000 2.7361 0.0000 20.5295
#
#
#
# Elastic Compliance Matrix: (Units=1/GPa)
#
#
# Indices 1 2 3 4 5 6 
#
# 1 0.022265 -0.003530 -0.006613 0.000000 -0.007120 0.000000
# 2 -0.003530 0.016229 -0.000786 0.000000 0.004472 0.000000
# 3 -0.006613 -0.000786 0.009822 0.000000 0.001545 0.000000
# 4 0.000000 0.000000 0.000000 0.047320 0.000000 -0.006307
# 5 -0.007120 0.004472 0.001545 0.000000 0.030632 0.000000
# 6 0.000000 0.000000 0.000000 -0.006307 0.000000 0.049551
#
#
# Mechanical properties :
#
#
# Convention : Reuss Voigt Hill
#
# Bulk Modulus (GPa) = 37.79490 44.38940 41.09215
# Shear Modulus (GPa) = 24.21357 28.39778 26.30568
#
# Velocity S-wave (km/s) = 3.39181 3.67319 3.53530
# Velocity P-wave (km/s) = 5.77029 6.25141 6.01566
#
# Compressibility (1/GPa) = 0.02645860
#
# Stress axis : x y z
#
# Youngs Moduli (GPa) = 44.91328 61.61963 101.80815
#
# Poissons Ratio (x) = 0.21749 0.67323
# Poissons Ratio (y) = 0.15852 0.08007
# Poissons Ratio (z) = 0.29700 0.04846
#
# Static dielectric constant tensor:
#      x y z
#    x 4.011770 0.000000 0.023060 
#    y 0.000000 3.579000 0.000000 
#    z 0.023060 0.000000 3.934700 
# 
# 
# High freq. dielectric constant tensor:
#      x y z
#    x 1.832600 0.000000 0.008270 
#    y 0.000000 1.796070 0.000000 
#    z 0.008270 0.000000 1.827940 
# 
# From -- ./inp_files/240712.got.cif
#   From: 2010.06.25/outbox.cif.g09.slc.cpg/sg15_121_cif.got.tgz:240712.got - 2010.06.28 07:06:18.
