data_PCOD8130663
_publ_section_title
;
Structure prediction by ZEFSAII (Michael W. Deem and Ramdas Pophale) SiO2 
 PCOD8130663
Probable space group: C 2/C
;
_chemical_formula_sum "Si O2"
_cell_formula_units_Z 52
_cell_length_a 8.996782
_cell_length_b 16.422010
_cell_length_c 29.632476
_cell_angle_alpha 90.000000
_cell_angle_beta 146.460020
_cell_angle_gamma 90.000000
_cell_volume 2418.958677
_symmetry_space_group_name_H-M "C 2/C"
_symmetry_group_IT_number 15
_symmetry_cell_setting 'monoclinic'
loop_
_space_group_symop_operation_xyz
x,y,z
-x,y,1/2-z
-x,-y,-z
x,-y,1/2+z
1/2+x,1/2+y,z
1/2-x,1/2+y,1/2-z
1/2-x,1/2-y,-z
1/2+x,1/2-y,1/2+z
loop_
_atom_site_type_symbol
_atom_site_label
_atom_site_fract_x
_atom_site_fract_y
_atom_site_fract_z
Si Si1 0.684826 0.556587 0.376076
Si Si2 0.323629 0.958825 0.246561
Si Si3 0.438821 0.695793 0.638816
Si Si4 0.563442 0.906161 0.469845
Si Si5 0.224451 0.228719 0.344425
Si Si6 0.434935 0.141772 0.623149
Si Si7 0.500000 0.707931 0.750000
O O1 0.379219 0.529301 0.289047
O O2 0.900905 0.488484 0.417152
O O3 0.737893 0.634430 0.358933
O O4 0.708802 0.577116 0.435400
O O5 0.500000 0.991213 0.250000
O O6 0.550010 0.937731 0.341460
O O7 0.151378 0.878447 0.191358
O O8 0.135718 0.662528 0.559877
O O9 0.490647 0.748845 0.607097
O O10 0.494417 0.751524 0.698979
O O11 0.718130 0.875926 0.463107
O O12 0.000000 0.249108 0.250000
O O13 0.180191 0.280342 0.379220
O O14 0.739390 0.151508 0.682239
#
# Coordination Sequence:
#
# PCOD8130663 Si02
#       7
#     8   8   8   8   8   8   4
#     4  10  24  37  59  87 127 148 200 250 299 343
#     4  10  17  36  59  85 113 160 193 244 292 360
#     4   9  16  33  62  82 114 153 201 233 292 357
#     4   9  21  42  60  83 116 172 194 228 299 383
#     4  12  21  35  57  95 115 145 198 269 289 331
#     4  10  18  34  63  83 110 158 205 230 299 354
#     4   8  14  28  50  86 106 142 188 238 270 346
#
# _framework density 21.496853000000002
#
# number of rings (size 3 to 8) (size 9 to 14) (size 15 to 20)
#    0.000    2.154    4.615    0.923    2.154    1.231 
#    1.385    0.769    0.000    0.000    0.000    0.000 
#    0.000    0.000    0.000    0.000    0.000    0.000 
#
# Total GULP energy -322089.704408 kJ/mol
# GULP energy per Si atom -12388.065554 kJ/mol
# Density = 2.144793 g / cm^3
# Si number density = 21.496853 Si / 1000 Ang^3
#
#
#
# Elastic Constant Matrix: (Units=GPa)
#
#
# Indices 1 2 3 4 5 6 
#
# 1 117.1484 55.4550 5.5167 0.0001 -19.9228 0.0002
# 2 55.4550 98.5113 15.9470 0.0002 -7.0239 0.0003
# 3 5.5167 15.9470 23.6372 0.0015 -6.3317 0.0015
# 4 0.0001 0.0002 0.0015 17.9646 -0.0001 -9.9173
# 5 -19.9228 -7.0239 -6.3317 -0.0001 21.7610 0.0001
# 6 0.0002 0.0003 0.0015 -9.9173 0.0001 20.4194
#
#
#
# Elastic Compliance Matrix: (Units=1/GPa)
#
#
# Indices 1 2 3 4 5 6 
#
# 1 0.014045 -0.007909 0.005226 -0.000001 0.011827 -0.000001
# 2 -0.007909 0.015899 -0.010244 0.000001 -0.005090 0.000001
# 3 0.005226 -0.010244 0.052484 -0.000009 0.016749 -0.000008
# 4 -0.000001 0.000001 -0.000009 0.076057 -0.000003 0.036939
# 5 0.011827 -0.005090 0.016749 -0.000003 0.060012 -0.000003
# 6 -0.000001 0.000001 -0.000008 0.036939 -0.000003 0.066914
#
#
# Mechanical properties :
#
#
# Convention : Reuss Voigt Hill
#
# Bulk Modulus (GPa) = 17.67588 43.68158 30.67873
# Shear Modulus (GPa) = 15.14584 22.85423 19.00004
#
# Velocity S-wave (km/s) = 2.65724 3.26412 2.97619
# Velocity P-wave (km/s) = 4.20178 5.87964 5.11004
#
# Compressibility (1/GPa) = 0.05657427
#
# Stress axis : x y z
#
# Youngs Moduli (GPa) = 71.19734 62.89754 19.05338
#
# Poissons Ratio (x) = 0.49748 -0.09957
# Poissons Ratio (y) = 0.56313 0.19518
# Poissons Ratio (z) = -0.37208 0.64431
#
# Static dielectric constant tensor:
#      x y z
#    x 4.230080 0.000000 -0.353300 
#    y 0.000000 3.538840 0.000000 
#    z -0.353300 0.000000 3.832040 
# 
# 
# High freq. dielectric constant tensor:
#      x y z
#    x 1.854360 0.000000 -0.024230 
#    y 0.000000 1.807120 0.000000 
#    z -0.024230 0.000000 1.820880 
# 
# From -- ./inp_files/190327.got.cif
#   From: 2010.06.25/outbox.cif.g09.slc.cpg/sg15_96_cif.got.tgz:190327.got - 2010.06.28 07:06:18.
