data_PCOD8130327
_publ_section_title
;
Structure prediction by ZEFSAII (Michael W. Deem and Ramdas Pophale) SiO2 
 PCOD8130327
Probable space group: C 2/C
;
_chemical_formula_sum "Si O2"
_cell_formula_units_Z 36
_cell_length_a 30.450528
_cell_length_b 10.751003
_cell_length_c 8.764410
_cell_angle_alpha 90.000000
_cell_angle_beta 144.654451
_cell_angle_gamma 90.000000
_cell_volume 1659.871833
_symmetry_space_group_name_H-M "C 2/C"
_symmetry_group_IT_number 15
_symmetry_cell_setting 'monoclinic'
loop_
_space_group_symop_operation_xyz
x,y,z
-x,y,1/2-z
-x,-y,-z
x,-y,1/2+z
1/2+x,1/2+y,z
1/2-x,1/2+y,1/2-z
1/2-x,1/2-y,-z
1/2+x,1/2-y,1/2+z
loop_
_atom_site_type_symbol
_atom_site_label
_atom_site_fract_x
_atom_site_fract_y
_atom_site_fract_z
Si Si1 0.702050 0.910189 0.766829
Si Si2 0.565792 0.891829 0.191062
Si Si3 0.143519 0.795866 0.320522
Si Si4 0.100914 0.629192 0.457394
Si Si5 0.000000 0.220808 0.250000
O O1 0.653080 0.859168 0.484981
O O2 0.678549 0.831260 0.849906
O O3 0.678034 0.054390 0.724460
O O4 0.791697 0.901228 0.987544
O O5 0.554145 0.852593 0.981720
O O6 0.511504 0.805234 0.135283
O O7 0.551873 0.039821 0.200234
O O8 0.118344 0.759417 0.422022
O O9 0.075497 0.853701 0.020309
#
# Coordination Sequence:
#
# PCOD8130327 Si02
#       5
#     8   8   8   8   4
#     4   8  17  33  45  69  96 132 165 193 236 297
#     4   9  18  30  45  73 100 125 164 191 248 287
#     4  10  18  31  50  67 103 128 163 197 243 289
#     4  10  17  32  48  74  96 132 161 200 236 295
#     4  10  20  32  46  76  98 140 150 196 254 300
#
# _framework density 21.688421999999999
#
# number of rings (size 3 to 8) (size 9 to 14) (size 15 to 20)
#    1.333    1.333    2.222    0.000    0.000    5.333 
#    0.000    0.000    0.000    0.000    0.000   24.889 
#    0.000    0.000    0.000    0.667    0.000    0.222 
#
# Total GULP energy -222991.930994 kJ/mol
# GULP energy per Si atom -12388.440611 kJ/mol
# Density = 2.163906 g / cm^3
# Si number density = 21.688422 Si / 1000 Ang^3
#
#
#
# Elastic Constant Matrix: (Units=GPa)
#
#
# Indices 1 2 3 4 5 6 
#
# 1 143.9960 10.0646 47.7898 0.0000 -19.2765 0.0000
# 2 10.0646 14.4635 13.9682 0.0000 -2.1513 0.0000
# 3 47.7898 13.9682 135.2170 0.0000 7.3286 0.0000
# 4 0.0000 0.0000 0.0000 23.0387 0.0000 8.6517
# 5 -19.2765 -2.1513 7.3286 0.0000 28.5976 0.0000
# 6 0.0000 0.0000 0.0000 8.6517 0.0000 14.1161
#
#
#
# Elastic Compliance Matrix: (Units=1/GPa)
#
#
# Indices 1 2 3 4 5 6 
#
# 1 0.009132 -0.002062 -0.003387 0.000000 0.006869 0.000000
# 2 -0.002062 0.079078 -0.007795 0.000000 0.006556 0.000000
# 3 -0.003387 -0.007795 0.009688 0.000000 -0.005352 0.000000
# 4 0.000000 0.000000 0.000000 0.056382 0.000000 -0.034557
# 5 0.006869 0.006556 -0.005352 0.000000 0.041463 0.000000
# 6 0.000000 0.000000 0.000000 -0.034557 0.000000 0.092020
#
#
# Mechanical properties :
#
#
# Convention : Reuss Voigt Hill
#
# Bulk Modulus (GPa) = 14.00379 48.59131 31.29755
# Shear Modulus (GPa) = 14.79045 27.94074 21.36559
#
# Velocity S-wave (km/s) = 2.61425 3.59315 3.14206
# Velocity P-wave (km/s) = 3.94756 6.29819 5.25597
#
# Compressibility (1/GPa) = 0.07140926
#
# Stress axis : x y z
#
# Youngs Moduli (GPa) = 109.50139 12.64570 103.22154
#
# Poissons Ratio (x) = 0.02608 0.34960
# Poissons Ratio (y) = 0.22583 0.80466
# Poissons Ratio (z) = 0.37087 0.09858
#
# Static dielectric constant tensor:
#      x y z
#    x 3.775490 0.000000 0.075840 
#    y 0.000000 3.032710 0.000000 
#    z 0.075840 0.000000 4.318280 
# 
# 
# High freq. dielectric constant tensor:
#      x y z
#    x 1.854110 0.000000 -0.000070 
#    y 0.000000 1.751330 0.000000 
#    z -0.000070 0.000000 1.891660 
# 
# From -- ./inp_files/38285.got.cif
#   From: 2010.06.25/outbox.cif.g09.slc.cpg/sg15_20_cif.got.tgz:38285.got - 2010.06.28 07:06:18.
