data_PCOD8130254
_publ_section_title
;
Structure prediction by ZEFSAII (Michael W. Deem and Ramdas Pophale) SiO2 
 PCOD8130254
Probable space group: C 2/C
;
_chemical_formula_sum "Si O2"
_cell_formula_units_Z 48
_cell_length_a 19.964277
_cell_length_b 26.741455
_cell_length_c 5.183077
_cell_angle_alpha 90.000000
_cell_angle_beta 84.999163
_cell_angle_gamma 90.000000
_cell_volume 2756.575883
_symmetry_space_group_name_H-M "C 2/C"
_symmetry_group_IT_number 15
_symmetry_cell_setting 'monoclinic'
loop_
_space_group_symop_operation_xyz
x,y,z
-x,y,1/2-z
-x,-y,-z
x,-y,1/2+z
1/2+x,1/2+y,z
1/2-x,1/2+y,1/2-z
1/2-x,1/2-y,-z
1/2+x,1/2-y,1/2+z
loop_
_atom_site_type_symbol
_atom_site_label
_atom_site_fract_x
_atom_site_fract_y
_atom_site_fract_z
Si Si1 0.826012 0.195649 0.069391
Si Si2 0.042061 0.135849 0.476669
Si Si3 0.104202 0.969763 0.830702
Si Si4 0.762745 0.470050 0.770039
Si Si5 0.803229 0.695501 0.673998
Si Si6 0.708159 0.858516 0.814192
O O1 0.897589 0.173123 0.971933
O O2 0.836531 0.250051 0.195974
O O3 0.787002 0.158093 0.277921
O O4 0.778460 0.201911 0.829823
O O5 0.068274 0.082564 0.375346
O O6 0.000000 0.158483 0.250000
O O7 0.000000 0.129909 0.750000
O O8 0.183529 0.960741 0.802555
O O9 0.081466 0.993133 0.566717
O O10 0.785054 0.508279 0.538599
O O11 0.799837 0.417927 0.704144
O O12 0.831823 0.667495 0.409370
O O13 0.822821 0.661068 0.908807
#
# Coordination Sequence:
#
# PCOD8130254 Si02
#       6
#     8   8   8   8   8   8
#     4   9  21  34  50  71  91 112 161 203 238 290
#     4  12  26  35  48  66  93 128 154 203 253 279
#     4  10  20  35  49  59  81 120 172 210 234 266
#     4  10  19  29  46  68  92 124 152 194 243 278
#     4   9  19  30  57  70  86 113 150 214 238 265
#     4  10  17  31  50  72  90 115 152 200 235 284
#
# _framework density 17.412907000000001
#
# number of rings (size 3 to 8) (size 9 to 14) (size 15 to 20)
#    1.000    1.000    1.667    2.500    2.333    3.333 
#    0.000    0.000    0.000    0.000    0.000    0.000 
#    0.000    0.000    0.000    0.000    0.000   58.333 
#
# Total GULP energy -297478.564589 kJ/mol
# GULP energy per Si atom -12394.940191 kJ/mol
# Density = 1.737327 g / cm^3
# Si number density = 17.412907 Si / 1000 Ang^3
#
#
#
# Elastic Constant Matrix: (Units=GPa)
#
#
# Indices 1 2 3 4 5 6 
#
# 1 22.3186 18.3704 6.0793 0.0000 -0.1139 0.0000
# 2 18.3704 117.1576 33.3700 0.0000 -6.4501 0.0000
# 3 6.0793 33.3700 112.2780 0.0000 10.6693 0.0000
# 4 0.0000 0.0000 0.0000 24.0247 0.0000 3.5965
# 5 -0.1139 -6.4501 10.6693 0.0000 11.1273 0.0000
# 6 0.0000 0.0000 0.0000 3.5965 0.0000 12.9772
#
#
#
# Elastic Compliance Matrix: (Units=1/GPa)
#
#
# Indices 1 2 3 4 5 6 
#
# 1 0.051645 -0.008375 0.000114 0.000000 -0.004435 0.000000
# 2 -0.008375 0.011553 -0.003970 0.000000 0.010418 0.000000
# 3 0.000114 -0.003970 0.011331 0.000000 -0.013165 0.000000
# 4 0.000000 0.000000 0.000000 0.043425 0.000000 -0.012035
# 5 -0.004435 0.010418 -0.013165 0.000000 0.108486 0.000000
# 6 0.000000 0.000000 0.000000 -0.012035 0.000000 0.080394
#
#
# Mechanical properties :
#
#
# Convention : Reuss Voigt Hill
#
# Bulk Modulus (GPa) = 19.97285 40.82151 30.39718
# Shear Modulus (GPa) = 14.36845 22.55482 18.46163
#
# Velocity S-wave (km/s) = 2.87568 3.60292 3.25964
# Velocity P-wave (km/s) = 4.74564 6.38766 5.62687
#
# Compressibility (1/GPa) = 0.05006798
#
# Stress axis : x y z
#
# Youngs Moduli (GPa) = 19.36294 86.55725 88.25128
#
# Poissons Ratio (x) = 0.72489 -0.01008
# Poissons Ratio (y) = 0.16216 0.35037
# Poissons Ratio (z) = -0.00221 0.34365
#
# Static dielectric constant tensor:
#      x y z
#    x 2.713090 0.000000 0.153920 
#    y 0.000000 3.189000 0.000000 
#    z 0.153920 0.000000 3.260270 
# 
# 
# High freq. dielectric constant tensor:
#      x y z
#    x 1.598510 0.000000 0.017830 
#    y 0.000000 1.681410 0.000000 
#    z 0.017830 0.000000 1.680790 
# 
# From -- ./inp_files/13528.got.cif
#   From: 2010.06.25/outbox.cif.g09.slc.cpg/sg15_7_cif.got.tgz:13528.got - 2010.06.28 07:06:18.
