data_PCOD8130485
_publ_section_title
;
Structure prediction by ZEFSAII (Michael W. Deem and Ramdas Pophale) SiO2 
 PCOD8130485
Probable space group: C 2/C
;
_chemical_formula_sum "Si O2"
_cell_formula_units_Z 56
_cell_length_a 12.385018
_cell_length_b 18.797248
_cell_length_c 14.534174
_cell_angle_alpha 90.000000
_cell_angle_beta 129.431437
_cell_angle_gamma 90.000000
_cell_volume 2613.456095
_symmetry_space_group_name_H-M "C 2/C"
_symmetry_group_IT_number 15
_symmetry_cell_setting 'monoclinic'
loop_
_space_group_symop_operation_xyz
x,y,z
-x,y,1/2-z
-x,-y,-z
x,-y,1/2+z
1/2+x,1/2+y,z
1/2-x,1/2+y,1/2-z
1/2-x,1/2-y,-z
1/2+x,1/2-y,1/2+z
loop_
_atom_site_type_symbol
_atom_site_label
_atom_site_fract_x
_atom_site_fract_y
_atom_site_fract_z
Si Si1 0.670337 0.968447 0.194129
Si Si2 0.921103 0.337767 0.448954
Si Si3 0.622755 0.658134 0.878908
Si Si4 0.904585 0.619728 0.286006
Si Si5 0.393315 0.562386 0.962823
Si Si6 0.862125 0.001542 0.130827
Si Si7 0.391829 0.684209 0.424900
O O1 0.560500 0.905354 0.109803
O O2 0.784440 0.931939 0.321226
O O3 0.594344 0.033983 0.202999
O O4 0.737296 0.998719 0.136226
O O5 0.764750 0.339758 0.401211
O O6 0.931618 0.261338 0.402952
O O7 0.033500 0.343027 0.590762
O O8 0.500000 0.692485 0.750000
O O9 0.589253 0.575498 0.881831
O O10 0.633077 0.699745 0.980253
O O11 0.747146 0.648490 0.191418
O O12 0.000000 0.638911 0.250000
O O13 0.500000 0.500000 0.000000
O O14 0.313401 0.547085 0.016022
O O15 0.474052 0.635944 0.018608
O O16 0.000000 0.037824 0.250000
#
# Coordination Sequence:
#
# PCOD8130485 Si02
#       7
#     8   8   8   8   8   8   8
#     4  11  24  43  64  93 128 166 215 262 316 370
#     4  11  26  38  59  90 136 167 198 260 326 378
#     4  10  19  33  58  89 126 164 199 247 317 376
#     4  12  25  42  64  94 129 169 210 254 320 390
#     4  12  20  38  65  98 121 163 221 264 306 368
#     4  10  17  33  61  94 121 155 207 262 302 353
#     4  12  23  38  60  94 129 165 208 258 318 383
#
# _framework density 21.427565999999999
#
# number of rings (size 3 to 8) (size 9 to 14) (size 15 to 20)
#    0.000    0.857    5.714    2.571    6.000    0.000 
#    0.000    0.000    0.000    3.429    0.000    0.000 
#    0.000    0.000    0.000    0.000    0.000    0.000 
#
# Total GULP energy -347209.162451 kJ/mol
# GULP energy per Si atom -12400.327230 kJ/mol
# Density = 2.137880 g / cm^3
# Si number density = 21.427566 Si / 1000 Ang^3
#
#
#
# Elastic Constant Matrix: (Units=GPa)
#
#
# Indices 1 2 3 4 5 6 
#
# 1 37.8202 16.6169 20.2228 0.0000 -3.7827 0.0000
# 2 16.6169 133.5024 39.9589 0.0000 -1.0137 0.0000
# 3 20.2228 39.9589 133.1777 0.0000 1.9504 0.0000
# 4 0.0000 0.0000 0.0000 26.3196 0.0000 -0.2603
# 5 -3.7827 -1.0137 1.9504 0.0000 26.7668 0.0000
# 6 0.0000 0.0000 0.0000 -0.2603 0.0000 17.6769
#
#
#
# Elastic Compliance Matrix: (Units=1/GPa)
#
#
# Indices 1 2 3 4 5 6 
#
# 1 0.030073 -0.002552 -0.003866 0.000000 0.004435 0.000000
# 2 -0.002552 0.008453 -0.002150 0.000000 0.000116 0.000000
# 3 -0.003866 -0.002150 0.008759 0.000000 -0.001266 0.000000
# 4 0.000000 0.000000 0.000000 0.038000 0.000000 0.000560
# 5 0.004435 0.000116 -0.001266 0.000000 0.038083 0.000000
# 6 0.000000 0.000000 0.000000 0.000560 0.000000 0.056579
#
#
# Mechanical properties :
#
#
# Convention : Reuss Voigt Hill
#
# Bulk Modulus (GPa) = 33.16931 50.89975 42.03453
# Shear Modulus (GPa) = 24.13901 29.33277 26.73589
#
# Velocity S-wave (km/s) = 3.36004 3.70391 3.53616
# Velocity P-wave (km/s) = 5.52870 6.48829 6.02762
#
# Compressibility (1/GPa) = 0.03014835
#
# Stress axis : x y z
#
# Youngs Moduli (GPa) = 33.25255 118.30555 114.16224
#
# Poissons Ratio (x) = 0.30197 0.44131
# Poissons Ratio (y) = 0.08488 0.24548
# Poissons Ratio (z) = 0.12854 0.25439
#
# Static dielectric constant tensor:
#      x y z
#    x 3.537310 0.000000 -0.005320 
#    y 0.000000 4.394100 0.000000 
#    z -0.005320 0.000000 4.193900 
# 
# 
# High freq. dielectric constant tensor:
#      x y z
#    x 1.798470 0.000000 0.007690 
#    y 0.000000 1.837840 0.000000 
#    z 0.007690 0.000000 1.856240 
# 
# From -- ./inp_files/155229.got.cif
#   From: 2010.06.25/outbox.cif.g09.slc.cpg/sg15_78_cif.got.tgz:155229.got - 2010.06.28 07:06:18.
