data_PCOD8130131
_publ_section_title
;
Structure prediction by ZEFSAII (Michael W. Deem and Ramdas Pophale) SiO2 
 PCOD8130131
Probable space group: C 2/C
;
_chemical_formula_sum "Si O2"
_cell_formula_units_Z 64
_cell_length_a 20.226774
_cell_length_b 9.735398
_cell_length_c 16.579972
_cell_angle_alpha 90.000000
_cell_angle_beta 68.331100
_cell_angle_gamma 90.000000
_cell_volume 3034.139514
_symmetry_space_group_name_H-M "C 2/C"
_symmetry_group_IT_number 15
_symmetry_cell_setting 'monoclinic'
loop_
_space_group_symop_operation_xyz
x,y,z
-x,y,1/2-z
-x,-y,-z
x,-y,1/2+z
1/2+x,1/2+y,z
1/2-x,1/2+y,1/2-z
1/2-x,1/2-y,-z
1/2+x,1/2-y,1/2+z
loop_
_atom_site_type_symbol
_atom_site_label
_atom_site_fract_x
_atom_site_fract_y
_atom_site_fract_z
Si Si1 0.076657 0.764061 0.434487
Si Si2 0.947411 0.197122 0.093338
Si Si3 0.451754 0.436369 0.193503
Si Si4 0.147734 0.058697 0.148100
Si Si5 0.220033 0.661006 0.332583
Si Si6 0.851421 0.031895 0.028275
Si Si7 0.722258 0.039323 0.682393
Si Si8 0.920023 0.327971 0.267823
O O1 0.048584 0.794383 0.356053
O O2 0.139095 0.650941 0.402706
O O3 0.109490 0.903758 0.451240
O O4 0.012171 0.719801 0.521640
O O5 0.912312 0.293729 0.176291
O O6 0.977940 0.058898 0.122509
O O7 0.888086 0.165539 0.051689
O O8 0.500000 0.422907 0.250000
O O9 0.372778 0.469780 0.263372
O O10 0.229564 0.103646 0.119142
O O11 0.095999 0.193390 0.170052
O O12 0.137958 0.967411 0.072686
O O13 0.244662 0.816377 0.301777
O O14 0.227142 0.571701 0.250068
O O15 0.767790 0.021859 0.087376
O O16 0.640496 0.057584 0.688590
O O17 0.000000 0.381542 0.250000
#
# Coordination Sequence:
#
# PCOD8130131 Si02
#       8
#     8   8   8   8   8   8   8   8
#     4  10  19  30  50  77 110 146 183 225 276 332
#     4  10  18  31  51  81 117 147 179 227 280 330
#     4  10  17  29  50  77 110 144 182 230 278 327
#     4  10  18  30  52  82 110 140 186 237 278 321
#     4  10  21  37  57  81 110 148 188 228 277 329
#     4  10  18  30  53  84 112 139 183 237 281 318
#     4  10  21  38  59  81 110 149 186 228 278 328
#     4  10  20  33  53  78 111 148 185 225 275 333
#
# _framework density 21.093292999999999
#
# number of rings (size 3 to 8) (size 9 to 14) (size 15 to 20)
#    0.000    2.000    0.000    9.000    0.000    5.500 
#    0.000    1.250    0.000    8.250    0.000    0.000 
#    0.000    0.000    0.000    0.000    0.000    0.000 
#
# Total GULP energy -396637.132411 kJ/mol
# GULP energy per Si atom -12394.910388 kJ/mol
# Density = 2.104528 g / cm^3
# Si number density = 21.093293 Si / 1000 Ang^3
#
#
#
# Elastic Constant Matrix: (Units=GPa)
#
#
# Indices 1 2 3 4 5 6 
#
# 1 113.7867 18.3836 55.4110 0.0000 -20.3103 0.0000
# 2 18.3836 24.1756 21.1528 0.0000 -3.9792 0.0000
# 3 55.4110 21.1528 128.6161 0.0000 -10.3665 0.0000
# 4 0.0000 0.0000 0.0000 12.6410 0.0000 -3.6175
# 5 -20.3103 -3.9792 -10.3665 0.0000 39.5672 0.0000
# 6 0.0000 0.0000 0.0000 -3.6175 0.0000 19.8352
#
#
#
# Elastic Compliance Matrix: (Units=1/GPa)
#
#
# Indices 1 2 3 4 5 6 
#
# 1 0.012492 -0.005067 -0.004161 0.000000 0.004813 0.000000
# 2 -0.005067 0.050686 -0.006080 0.000000 0.000904 0.000000
# 3 -0.004161 -0.006080 0.010569 0.000000 0.000022 0.000000
# 4 0.000000 0.000000 0.000000 0.083464 0.000000 0.015222
# 5 0.004813 0.000904 0.000022 0.000000 0.027841 0.000000
# 6 0.000000 0.000000 0.000000 0.015222 0.000000 0.053192
#
#
# Mechanical properties :
#
#
# Convention : Reuss Voigt Hill
#
# Bulk Modulus (GPa) = 23.18476 50.71924 36.95200
# Shear Modulus (GPa) = 17.65311 25.85073 21.75192
#
# Velocity S-wave (km/s) = 2.89607 3.50457 3.21475
# Velocity P-wave (km/s) = 4.71151 6.36187 5.59785
#
# Compressibility (1/GPa) = 0.04313177
#
# Stress axis : x y z
#
# Youngs Moduli (GPa) = 80.05017 19.72946 94.61282
#
# Poissons Ratio (x) = 0.09996 0.39366
# Poissons Ratio (y) = 0.40559 0.57528
# Poissons Ratio (z) = 0.33307 0.11996
#
# Static dielectric constant tensor:
#      x y z
#    x 4.061280 0.000000 -0.274720 
#    y 0.000000 3.335420 0.000000 
#    z -0.274720 0.000000 4.134250 
# 
# 
# High freq. dielectric constant tensor:
#      x y z
#    x 1.830280 0.000000 -0.014070 
#    y 0.000000 1.757270 0.000000 
#    z -0.014070 0.000000 1.837770 
# 
# From -- ./inp_files/214821.got.cif
#   From: 2010.06.25/outbox.cif.g09.slc.cpg/sg15_108_cif.got.tgz:214821.got - 2010.06.28 07:06:18.
