data_PCOD8130454
_publ_section_title
;
Structure prediction by ZEFSAII (Michael W. Deem and Ramdas Pophale) SiO2 
 PCOD8130454
Probable space group: C 2/C
;
_chemical_formula_sum "Si O2"
_cell_formula_units_Z 60
_cell_length_a 17.990797
_cell_length_b 9.348033
_cell_length_c 22.885132
_cell_angle_alpha 90.000000
_cell_angle_beta 128.125461
_cell_angle_gamma 90.000000
_cell_volume 3027.690945
_symmetry_space_group_name_H-M "C 2/C"
_symmetry_group_IT_number 15
_symmetry_cell_setting 'monoclinic'
loop_
_space_group_symop_operation_xyz
x,y,z
-x,y,1/2-z
-x,-y,-z
x,-y,1/2+z
1/2+x,1/2+y,z
1/2-x,1/2+y,1/2-z
1/2-x,1/2-y,-z
1/2+x,1/2-y,1/2+z
loop_
_atom_site_type_symbol
_atom_site_label
_atom_site_fract_x
_atom_site_fract_y
_atom_site_fract_z
Si Si1 0.500000 0.245685 0.750000
Si Si2 0.297269 0.458078 0.426429
Si Si3 0.703870 0.683286 0.349630
Si Si4 0.217500 0.491572 0.009031
Si Si5 0.986891 0.411973 0.122961
Si Si6 0.536067 0.753221 0.502073
Si Si7 0.144473 0.467961 0.631253
Si Si8 0.831415 0.263660 0.428381
O O1 0.407761 0.348699 0.707997
O O2 0.501110 0.145776 0.806687
O O3 0.214683 0.354476 0.362786
O O4 0.292354 0.491602 0.493253
O O5 0.397675 0.385350 0.460110
O O6 0.284157 0.611758 0.388548
O O7 0.753594 0.611778 0.429861
O O8 0.758932 0.627640 0.317314
O O9 0.113343 0.511190 0.931851
O O10 0.219661 0.334591 0.039921
O O11 0.075870 0.521423 0.154259
O O12 0.991348 0.281745 0.078719
O O13 0.441952 0.728426 0.494673
O O14 0.585314 0.898297 0.549169
O O15 0.177350 0.627468 0.629824
#
# Coordination Sequence:
#
# PCOD8130454 Si02
#       8
#     4   8   8   8   8   8   8   8
#     4  12  24  34  56  90 112 148 198 246 276 342
#     4  11  19  28  50  87 118 132 179 237 284 319
#     4  10  21  36  57  84 107 150 194 236 276 333
#     4  11  18  35  57  80 114 147 184 234 282 337
#     4  11  18  35  59  85 110 144 194 227 290 337
#     4  10  17  33  56  81 111 142 182 236 271 334
#     4   9  18  36  62  80 110 148 188 226 282 346
#     4  10  18  29  51  89 111 137 176 234 291 329
#
# _framework density 19.817083
#
# number of rings (size 3 to 8) (size 9 to 14) (size 15 to 20)
#    0.000    1.600    6.667    2.800    0.000    0.000 
#    0.000    2.667    0.000    4.800    6.933    0.000 
#    0.000    0.000    0.000    0.000    0.000    0.000 
#
# Total GULP energy -371681.896320 kJ/mol
# GULP energy per Si atom -12389.396544 kJ/mol
# Density = 1.977198 g / cm^3
# Si number density = 19.817083 Si / 1000 Ang^3
#
#
#
# Elastic Constant Matrix: (Units=GPa)
#
#
# Indices 1 2 3 4 5 6 
#
# 1 113.8335 30.0977 30.2816 0.0000 18.1277 0.0000
# 2 30.0977 118.6217 12.5611 0.0000 4.4230 0.0000
# 3 30.2816 12.5611 54.5260 0.0000 3.0457 0.0000
# 4 0.0000 0.0000 0.0000 6.0118 0.0000 -1.9312
# 5 18.1277 4.4230 3.0457 0.0000 28.5636 0.0000
# 6 0.0000 0.0000 0.0000 -1.9312 0.0000 34.8519
#
#
#
# Elastic Compliance Matrix: (Units=1/GPa)
#
#
# Indices 1 2 3 4 5 6 
#
# 1 0.011949 -0.002174 -0.005765 0.000000 -0.006632 0.000000
# 2 -0.002174 0.009073 -0.000887 0.000000 0.000069 0.000000
# 3 -0.005765 -0.000887 0.021663 0.000000 0.001486 0.000000
# 4 0.000000 0.000000 0.000000 0.169355 0.000000 0.009384
# 5 -0.006632 0.000069 0.001486 0.000000 0.039049 0.000000
# 6 0.000000 0.000000 0.000000 0.009384 0.000000 0.029213
#
#
# Mechanical properties :
#
#
# Convention : Reuss Voigt Hill
#
# Bulk Modulus (GPa) = 39.94586 48.09578 44.02082
# Shear Modulus (GPa) = 16.32394 28.15484 22.23939
#
# Velocity S-wave (km/s) = 2.87318 3.77335 3.35361
# Velocity P-wave (km/s) = 5.58641 6.58079 6.10388
#
# Compressibility (1/GPa) = 0.02503388
#
# Stress axis : x y z
#
# Youngs Moduli (GPa) = 83.68682 110.21592 46.16231
#
# Poissons Ratio (x) = 0.23962 0.26612
# Poissons Ratio (y) = 0.18195 0.04093
# Poissons Ratio (z) = 0.48244 0.09772
#
# Static dielectric constant tensor:
#      x y z
#    x 4.256480 0.000000 0.097200 
#    y 0.000000 3.556530 0.000000 
#    z 0.097200 0.000000 3.084320 
# 
# 
# High freq. dielectric constant tensor:
#      x y z
#    x 1.799860 0.000000 0.003940 
#    y 0.000000 1.760220 0.000000 
#    z 0.003940 0.000000 1.712040 
# 
# From -- ./inp_files/252133.got.cif
#   From: 2010.06.25/outbox.cif.g09.slc.cpg/sg15_127_cif.got.tgz:252133.got - 2010.06.28 07:06:18.
