data_PCOD8130711
_publ_section_title
;
Structure prediction by ZEFSAII (Michael W. Deem and Ramdas Pophale) SiO2 
 PCOD8130711
Probable space group: C 2/C
;
_chemical_formula_sum "Si O2"
_cell_formula_units_Z 44
_cell_length_a 28.533411
_cell_length_b 10.557885
_cell_length_c 17.088630
_cell_angle_alpha 90.000000
_cell_angle_beta 153.430474
_cell_angle_gamma 90.000000
_cell_volume 2302.611632
_symmetry_space_group_name_H-M "C 2/C"
_symmetry_group_IT_number 15
_symmetry_cell_setting 'monoclinic'
loop_
_space_group_symop_operation_xyz
x,y,z
-x,y,1/2-z
-x,-y,-z
x,-y,1/2+z
1/2+x,1/2+y,z
1/2-x,1/2+y,1/2-z
1/2-x,1/2-y,-z
1/2+x,1/2-y,1/2+z
loop_
_atom_site_type_symbol
_atom_site_label
_atom_site_fract_x
_atom_site_fract_y
_atom_site_fract_z
Si Si1 0.165169 0.856257 0.866610
Si Si2 0.190983 0.429009 0.961337
Si Si3 0.281184 0.819956 0.664485
Si Si4 0.500000 0.079382 0.750000
Si Si5 0.554842 0.268711 0.966851
Si Si6 0.389353 0.514414 0.057927
O O1 0.139489 0.889505 0.916906
O O2 0.060701 0.799083 0.670713
O O3 0.250000 0.750000 0.000000
O O4 0.210290 0.975068 0.885568
O O5 0.173978 0.388608 0.845684
O O6 0.086225 0.491003 0.838088
O O7 0.218817 0.307598 0.053540
O O8 0.379228 0.791373 0.865235
O O9 0.198646 0.908609 0.586904
O O10 0.447214 0.167238 0.605985
O O11 0.603066 0.402290 0.009563
O O12 0.500000 0.450563 0.250000
#
# Coordination Sequence:
#
# PCOD8130711 Si02
#       6
#     8   8   8   4   8   8
#     4  10  17  38  62  80 119 161 198 248 303 355
#     4  10  23  42  60  87 129 164 199 256 311 367
#     4  10  24  40  60  92 127 160 206 249 317 361
#     4  12  22  40  64  92 120 162 214 254 304 358
#     4  11  21  38  64  94 116 160 214 252 297 369
#     4   9  19  38  59  83 121 161 195 246 308 364
#
# _framework density 19.108737000000001
#
# number of rings (size 3 to 8) (size 9 to 14) (size 15 to 20)
#    0.000    1.818    4.545    0.000    3.818    1.455 
#    0.000    1.818    0.000    0.000    0.000    0.000 
#    0.000    0.000    0.000    0.000    0.000    0.000 
#
# Total GULP energy -272777.653347 kJ/mol
# GULP energy per Si atom -12398.984243 kJ/mol
# Density = 1.906524 g / cm^3
# Si number density = 19.108737 Si / 1000 Ang^3
#
#
#
# Elastic Constant Matrix: (Units=GPa)
#
#
# Indices 1 2 3 4 5 6 
#
# 1 80.3078 51.9737 66.5596 0.0000 14.8220 0.0000
# 2 51.9737 122.9605 78.4362 0.0000 10.4568 0.0000
# 3 66.5596 78.4362 160.8859 0.0000 6.0908 0.0000
# 4 0.0000 0.0000 0.0000 40.2370 0.0000 7.5919
# 5 14.8220 10.4568 6.0908 0.0000 35.4494 0.0000
# 6 0.0000 0.0000 0.0000 7.5919 0.0000 9.8121
#
#
#
# Elastic Compliance Matrix: (Units=1/GPa)
#
#
# Indices 1 2 3 4 5 6 
#
# 1 0.022205 -0.004517 -0.006727 0.000000 -0.006796 0.000000
# 2 -0.004517 0.012948 -0.004400 0.000000 -0.001175 0.000000
# 3 -0.006727 -0.004400 0.011060 0.000000 0.002210 0.000000
# 4 0.000000 0.000000 0.000000 0.029101 0.000000 -0.022516
# 5 -0.006796 -0.001175 0.002210 0.000000 0.031018 0.000000
# 6 0.000000 0.000000 0.000000 -0.022516 0.000000 0.119336
#
#
# Mechanical properties :
#
#
# Convention : Reuss Voigt Hill
#
# Bulk Modulus (GPa) = 66.99485 84.23258 75.61372
# Shear Modulus (GPa) = 19.08910 28.24535 23.66722
#
# Velocity S-wave (km/s) = 3.16408 3.84883 3.52313
# Velocity P-wave (km/s) = 6.96308 7.99548 7.49707
#
# Compressibility (1/GPa) = 0.01492652
#
# Stress axis : x y z
#
# Youngs Moduli (GPa) = 45.03510 77.23103 90.41703
#
# Poissons Ratio (x) = 0.34882 0.60824
# Poissons Ratio (y) = 0.20340 0.39780
# Poissons Ratio (z) = 0.30296 0.33978
#
# Static dielectric constant tensor:
#      x y z
#    x 3.901410 0.000000 0.647940 
#    y 0.000000 3.252390 0.000000 
#    z 0.647940 0.000000 3.993790 
# 
# 
# High freq. dielectric constant tensor:
#      x y z
#    x 1.736750 0.000000 0.020590 
#    y 0.000000 1.757730 0.000000 
#    z 0.020590 0.000000 1.735850 
# 
# From -- ./inp_files/151764.got.cif
#   From: 2010.06.25/outbox.cif.g09.slc.cpg/sg15_76_cif.got.tgz:151764.got - 2010.06.28 07:06:18.
