data_PCOD8130214
_publ_section_title
;
Structure prediction by ZEFSAII (Michael W. Deem and Ramdas Pophale) SiO2 
 PCOD8130214
Probable space group: C 2/C
;
_chemical_formula_sum "Si O2"
_cell_formula_units_Z 56
_cell_length_a 8.647125
_cell_length_b 20.765608
_cell_length_c 18.466376
_cell_angle_alpha 90.000000
_cell_angle_beta 59.454008
_cell_angle_gamma 90.000000
_cell_volume 2855.702184
_symmetry_space_group_name_H-M "C 2/C"
_symmetry_group_IT_number 15
_symmetry_cell_setting 'monoclinic'
loop_
_space_group_symop_operation_xyz
x,y,z
-x,y,1/2-z
-x,-y,-z
x,-y,1/2+z
1/2+x,1/2+y,z
1/2-x,1/2+y,1/2-z
1/2-x,1/2-y,-z
1/2+x,1/2-y,1/2+z
loop_
_atom_site_type_symbol
_atom_site_label
_atom_site_fract_x
_atom_site_fract_y
_atom_site_fract_z
Si Si1 0.024493 0.818659 0.939377
Si Si2 0.015297 0.276961 0.930358
Si Si3 0.835159 0.137449 0.344351
Si Si4 0.663040 0.731386 0.665394
Si Si5 0.818476 0.914126 0.332802
Si Si6 0.259479 0.894272 0.988969
Si Si7 0.929452 0.521119 0.094070
O O1 0.177253 0.780812 0.858787
O O2 0.109356 0.876212 0.966498
O O3 0.889768 0.849300 0.914386
O O4 0.928383 0.766979 0.014817
O O5 0.196511 0.306504 0.852982
O O6 0.904845 0.231337 0.901746
O O7 0.882113 0.334194 0.987179
O O8 0.740099 0.068750 0.368314
O O9 0.000000 0.137148 0.250000
O O10 0.500000 0.759478 0.750000
O O11 0.718341 0.660142 0.678590
O O12 0.834492 0.923296 0.416475
O O13 0.000000 0.937709 0.250000
O O14 0.648823 0.957803 0.345811
O O15 0.394025 0.944230 0.914345
O O16 0.000000 0.500000 0.000000
#
# Coordination Sequence:
#
# PCOD8130214 Si02
#       7
#     8   8   8   8   8   8   8
#     4  11  19  34  55  79 109 135 176 216 265 315
#     4  10  18  34  52  77 113 138 171 210 258 323
#     4  11  23  36  54  80 107 139 174 223 271 305
#     4  10  18  30  55  84 106 138 176 210 259 313
#     4  10  17  30  54  80 105 136 177 213 253 312
#     4   9  17  34  56  78 101 141 179 212 249 314
#     4   9  20  37  57  75 101 141 184 212 256 311
#
# _framework density 19.609888999999999
#
# number of rings (size 3 to 8) (size 9 to 14) (size 15 to 20)
#    0.000    2.000    2.857    2.571    0.000    0.000 
#    0.000    2.857    0.000    1.714    0.000    0.000 
#    0.000    0.000    0.000    0.000    0.000    0.000 
#
# Total GULP energy -346983.956966 kJ/mol
# GULP energy per Si atom -12392.284177 kJ/mol
# Density = 1.956526 g / cm^3
# Si number density = 19.609889 Si / 1000 Ang^3
#
#
#
# Elastic Constant Matrix: (Units=GPa)
#
#
# Indices 1 2 3 4 5 6 
#
# 1 52.4674 21.8409 7.6389 0.0000 -3.8979 0.0000
# 2 21.8409 81.9424 33.3219 0.0000 -12.5178 0.0000
# 3 7.6389 33.3219 111.7123 0.0000 -24.8700 0.0000
# 4 0.0000 0.0000 0.0000 22.2064 0.0000 -8.5041
# 5 -3.8979 -12.5178 -24.8700 0.0000 27.2755 0.0000
# 6 0.0000 0.0000 0.0000 -8.5041 0.0000 20.1648
#
#
#
# Elastic Compliance Matrix: (Units=1/GPa)
#
#
# Indices 1 2 3 4 5 6 
#
# 1 0.021460 -0.005773 0.000436 0.000000 0.000815 0.000000
# 2 -0.005773 0.015676 -0.003592 0.000000 0.003094 0.000000
# 3 0.000436 -0.003592 0.012095 0.000000 0.009442 0.000000
# 4 0.000000 0.000000 0.000000 0.053706 0.000000 0.022649
# 5 0.000815 0.003094 0.009442 0.000000 0.046809 0.000000
# 6 0.000000 0.000000 0.000000 0.022649 0.000000 0.059143
#
#
# Mechanical properties :
#
#
# Convention : Reuss Voigt Hill
#
# Bulk Modulus (GPa) = 31.87498 41.30284 36.58891
# Shear Modulus (GPa) = 21.07892 26.15072 23.61482
#
# Velocity S-wave (km/s) = 3.28214 3.65574 3.47397
# Velocity P-wave (km/s) = 5.53653 6.23917 5.89832
#
# Compressibility (1/GPa) = 0.03137257
#
# Stress axis : x y z
#
# Youngs Moduli (GPa) = 46.59940 63.79282 82.67625
#
# Poissons Ratio (x) = 0.36825 -0.03604
# Poissons Ratio (y) = 0.26900 0.29700
# Poissons Ratio (z) = -0.02031 0.22916
#
# Static dielectric constant tensor:
#      x y z
#    x 3.325340 0.000000 -0.305840 
#    y 0.000000 3.829590 0.000000 
#    z -0.305840 0.000000 3.723800 
# 
# 
# High freq. dielectric constant tensor:
#      x y z
#    x 1.721580 0.000000 -0.023770 
#    y 0.000000 1.767940 0.000000 
#    z -0.023770 0.000000 1.774940 
# 
# From -- ./inp_files/233765.got.cif
#   From: 2010.06.25/outbox.cif.g09.slc.cpg/sg15_117_cif.got.tgz:233765.got - 2010.06.28 07:06:18.
