data_PCOD8130399
_publ_section_title
;
Structure prediction by ZEFSAII (Michael W. Deem and Ramdas Pophale) SiO2 
 PCOD8130399
Probable space group: C 2/C
;
_chemical_formula_sum "Si O2"
_cell_formula_units_Z 40
_cell_length_a 17.303712
_cell_length_b 23.241130
_cell_length_c 9.799399
_cell_angle_alpha 90.000000
_cell_angle_beta 149.650638
_cell_angle_gamma 90.000000
_cell_volume 1991.226072
_symmetry_space_group_name_H-M "C 2/C"
_symmetry_group_IT_number 15
_symmetry_cell_setting 'monoclinic'
loop_
_space_group_symop_operation_xyz
x,y,z
-x,y,1/2-z
-x,-y,-z
x,-y,1/2+z
1/2+x,1/2+y,z
1/2-x,1/2+y,1/2-z
1/2-x,1/2-y,-z
1/2+x,1/2-y,1/2+z
loop_
_atom_site_type_symbol
_atom_site_label
_atom_site_fract_x
_atom_site_fract_y
_atom_site_fract_z
Si Si1 0.891229 0.516792 0.711777
Si Si2 0.606665 0.706875 0.785049
Si Si3 0.779111 0.597864 0.989714
Si Si4 0.396230 0.880543 0.387063
Si Si5 0.574437 0.237248 0.716273
O O1 0.750456 0.471553 0.463801
O O2 0.825542 0.579128 0.658900
O O3 0.000000 0.526013 0.750000
O O4 0.000000 0.500000 0.000000
O O5 0.500000 0.723323 0.750000
O O6 0.661748 0.640387 0.888005
O O7 0.511658 0.712683 0.499475
O O8 0.750000 0.750000 0.000000
O O9 0.775064 0.619741 0.826793
O O10 0.946512 0.597777 0.309560
O O11 0.437738 0.818962 0.393020
O O12 0.500000 0.228838 0.750000
O O13 0.750000 0.250000 0.000000
#
# Coordination Sequence:
#
# PCOD8130399 Si02
#       5
#     8   8   8   8   8
#     4  10  17  32  56  93 121 155 209 264 301 359
#     4  12  24  42  67  90 125 171 214 256 317 391
#     4  10  19  35  60  90 121 156 211 256 305 366
#     4  10  19  35  61  91 122 160 207 264 304 366
#     4  12  25  40  59  92 126 159 204 262 319 371
#
# _framework density 20.088125000000002
#
# number of rings (size 3 to 8) (size 9 to 14) (size 15 to 20)
#    0.000    1.200    6.000    4.200    0.000    0.000 
#    0.000    0.000    0.000    6.000    0.000    0.000 
#    0.000    0.000    0.000    0.000    0.000    0.000 
#
# Total GULP energy -247775.849845 kJ/mol
# GULP energy per Si atom -12388.792492 kJ/mol
# Density = 2.004240 g / cm^3
# Si number density = 20.088125 Si / 1000 Ang^3
#
#
#
# Elastic Constant Matrix: (Units=GPa)
#
#
# Indices 1 2 3 4 5 6 
#
# 1 131.4931 36.4512 37.9863 0.0000 -13.4551 0.0000
# 2 36.4512 101.2481 20.4987 0.0000 -1.1421 0.0000
# 3 37.9863 20.4987 73.6919 0.0000 -4.2613 0.0000
# 4 0.0000 0.0000 0.0000 29.7644 0.0000 -4.3991
# 5 -13.4551 -1.1421 -4.2613 0.0000 35.3382 0.0000
# 6 0.0000 0.0000 0.0000 -4.3991 0.0000 31.1803
#
#
#
# Elastic Compliance Matrix: (Units=1/GPa)
#
#
# Indices 1 2 3 4 5 6 
#
# 1 0.009874 -0.002676 -0.004162 0.000000 0.003171 0.000000
# 2 -0.002676 0.011192 -0.001784 0.000000 -0.000872 0.000000
# 3 -0.004162 -0.001784 0.016230 0.000000 0.000315 0.000000
# 4 0.000000 0.000000 0.000000 0.034313 0.000000 0.004841
# 5 0.003171 -0.000872 0.000315 0.000000 0.029515 0.000000
# 6 0.000000 0.000000 0.000000 0.004841 0.000000 0.032755
#
#
# Mechanical properties :
#
#
# Convention : Reuss Voigt Hill
#
# Bulk Modulus (GPa) = 49.87340 55.14506 52.50923
# Shear Modulus (GPa) = 31.68465 33.35637 32.52051
#
# Velocity S-wave (km/s) = 3.97581 4.07935 4.02791
# Velocity P-wave (km/s) = 6.77918 7.04977 6.91580
#
# Compressibility (1/GPa) = 0.02005077
#
# Stress axis : x y z
#
# Youngs Moduli (GPa) = 101.28012 89.35266 61.61525
#
# Poissons Ratio (x) = 0.23914 0.25643
# Poissons Ratio (y) = 0.27106 0.10992
# Poissons Ratio (z) = 0.42150 0.15941
#
# Static dielectric constant tensor:
#      x y z
#    x 3.651160 0.000000 -0.259190 
#    y 0.000000 4.989230 0.000000 
#    z -0.259190 0.000000 3.435860 
# 
# 
# High freq. dielectric constant tensor:
#      x y z
#    x 1.783070 0.000000 -0.030430 
#    y 0.000000 1.798730 0.000000 
#    z -0.030430 0.000000 1.751890 
# 
# From -- ./inp_files/24568.got.cif
#   From: 2010.06.25/outbox.cif.g09.slc.cpg/sg15_13_cif.got.tgz:24568.got - 2010.06.28 07:06:18.
