data_PCOD8130194
_publ_section_title
;
Structure prediction by ZEFSAII (Michael W. Deem and Ramdas Pophale) SiO2 
 PCOD8130194
Probable space group: C 2/C
;
_chemical_formula_sum "Si O2"
_cell_formula_units_Z 64
_cell_length_a 26.155309
_cell_length_b 8.741735
_cell_length_c 19.061033
_cell_angle_alpha 90.000000
_cell_angle_beta 48.794818
_cell_angle_gamma 90.000000
_cell_volume 3278.890614
_symmetry_space_group_name_H-M "C 2/C"
_symmetry_group_IT_number 15
_symmetry_cell_setting 'monoclinic'
loop_
_space_group_symop_operation_xyz
x,y,z
-x,y,1/2-z
-x,-y,-z
x,-y,1/2+z
1/2+x,1/2+y,z
1/2-x,1/2+y,1/2-z
1/2-x,1/2-y,-z
1/2+x,1/2-y,1/2+z
loop_
_atom_site_type_symbol
_atom_site_label
_atom_site_fract_x
_atom_site_fract_y
_atom_site_fract_z
Si Si1 0.451811 0.306445 0.233167
Si Si2 0.222941 0.680678 0.932354
Si Si3 0.800314 0.580553 0.146778
Si Si4 0.632984 0.372587 0.477488
Si Si5 0.841712 0.690938 0.248010
Si Si6 0.652973 0.529763 0.319044
Si Si7 0.989275 0.045892 0.089201
Si Si8 0.165264 0.927432 0.073439
O O1 0.500000 0.236239 0.250000
O O2 0.409483 0.167865 0.234234
O O3 0.495015 0.400761 0.136745
O O4 0.398753 0.424422 0.316738
O O5 0.188449 0.581390 0.901745
O O6 0.273672 0.812446 0.856527
O O7 0.265465 0.564036 0.943594
O O8 0.165439 0.769038 0.028069
O O9 0.829305 0.715640 0.073257
O O10 0.838704 0.568702 0.187382
O O11 0.721013 0.618038 0.234591
O O12 0.647982 0.509864 0.408075
O O13 0.550987 0.340887 0.554750
O O14 0.660132 0.425068 0.528587
O O15 0.846484 0.858736 0.210609
O O16 0.587680 0.616192 0.342552
O O17 0.000000 0.000000 0.000000
#
# Coordination Sequence:
#
# PCOD8130194 Si02
#       8
#     8   8   8   8   8   8   8   8
#     4  10  17  30  52  81 106 141 185 238 274 323
#     4   9  19  33  49  75 111 145 176 224 274 339
#     4  10  18  32  52  79 111 147 178 231 286 329
#     4  10  18  29  52  83 104 140 189 236 274 327
#     4   8  16  29  49  75 104 141 182 225 269 321
#     4   8  16  29  48  76 110 144 179 227 282 322
#     4   9  17  31  50  81 108 136 185 244 275 314
#     4  10  19  32  51  79 107 142 184 223 276 334
#
# _framework density 19.518796999999999
#
# number of rings (size 3 to 8) (size 9 to 14) (size 15 to 20)
#    0.000    2.750    1.250    2.250    0.000    0.500 
#    0.000    0.000    0.000    0.750   19.500    0.000 
#    0.000    0.000    0.000    0.000    0.000    0.000 
#
# Total GULP energy -396473.089892 kJ/mol
# GULP energy per Si atom -12389.784059 kJ/mol
# Density = 1.947437 g / cm^3
# Si number density = 19.518797 Si / 1000 Ang^3
#
#
#
# Elastic Constant Matrix: (Units=GPa)
#
#
# Indices 1 2 3 4 5 6 
#
# 1 115.8598 24.1965 26.3961 0.0074 11.4149 -0.0087
# 2 24.1965 29.7085 17.9903 0.0089 1.0000 -0.0137
# 3 26.3961 17.9903 82.0624 0.0021 2.7647 -0.0009
# 4 0.0074 0.0089 0.0021 27.2540 -0.0042 6.8493
# 5 11.4149 1.0000 2.7647 -0.0042 39.2763 0.0042
# 6 -0.0087 -0.0137 -0.0009 6.8493 0.0042 26.3886
#
#
#
# Elastic Compliance Matrix: (Units=1/GPa)
#
#
# Indices 1 2 3 4 5 6 
#
# 1 0.010925 -0.007762 -0.001716 -0.000001 -0.002857 0.000000
# 2 -0.007762 0.044334 -0.007278 -0.000018 0.001640 0.000025
# 3 -0.001716 -0.007278 0.014344 0.000003 -0.000326 -0.000005
# 4 -0.000001 -0.000018 0.000003 0.039252 0.000006 -0.010188
# 5 -0.002857 0.001640 -0.000326 0.000006 0.026272 -0.000006
# 6 0.000000 0.000025 -0.000005 -0.010188 -0.000006 0.040539
#
#
# Mechanical properties :
#
#
# Convention : Reuss Voigt Hill
#
# Bulk Modulus (GPa) = 27.70767 40.53296 34.12032
# Shear Modulus (GPa) = 22.60297 29.18698 25.89498
#
# Velocity S-wave (km/s) = 3.40665 3.87114 3.64630
# Velocity P-wave (km/s) = 5.44976 6.38687 5.93684
#
# Compressibility (1/GPa) = 0.03609108
#
# Stress axis : x y z
#
# Youngs Moduli (GPa) = 91.53611 22.55581 69.71420
#
# Poissons Ratio (x) = 0.17509 0.11963
# Poissons Ratio (y) = 0.71054 0.50736
# Poissons Ratio (z) = 0.15708 0.16415
#
# Static dielectric constant tensor:
#      x y z
#    x 4.192780 0.000000 0.032310 
#    y 0.000000 2.811120 0.000010 
#    z 0.032310 0.000010 3.982260 
# 
# 
# High freq. dielectric constant tensor:
#      x y z
#    x 1.776920 0.000000 0.011320 
#    y 0.000000 1.675650 0.000000 
#    z 0.011320 0.000000 1.776830 
# 
# From -- ./inp_files/256995.got.cif
#   From: 2010.06.25/outbox.cif.g09.slc.cpg/sg15_129_cif.got.tgz:256995.got - 2010.06.28 07:06:18.
