data_PCOD8130103
_publ_section_title
;
Structure prediction by ZEFSAII (Michael W. Deem and Ramdas Pophale) SiO2 
 PCOD8130103
Probable space group: C 2/C
;
_chemical_formula_sum "Si O2"
_cell_formula_units_Z 28
_cell_length_a 17.976078
_cell_length_b 15.355273
_cell_length_c 5.155764
_cell_angle_alpha 90.000000
_cell_angle_beta 116.550942
_cell_angle_gamma 90.000000
_cell_volume 1273.045616
_symmetry_space_group_name_H-M "C 2/C"
_symmetry_group_IT_number 15
_symmetry_cell_setting 'monoclinic'
loop_
_space_group_symop_operation_xyz
x,y,z
-x,y,1/2-z
-x,-y,-z
x,-y,1/2+z
1/2+x,1/2+y,z
1/2-x,1/2+y,1/2-z
1/2-x,1/2-y,-z
1/2+x,1/2-y,1/2+z
loop_
_atom_site_type_symbol
_atom_site_label
_atom_site_fract_x
_atom_site_fract_y
_atom_site_fract_z
Si Si1 0.686170 0.350507 0.103653
Si Si2 0.356392 0.179691 0.694248
Si Si3 0.593182 0.344567 0.466347
Si Si4 0.000000 0.559339 0.750000
O O1 0.683907 0.244388 0.083785
O O2 0.625843 0.390375 0.783249
O O3 0.782531 0.378056 0.210262
O O4 0.653388 0.379037 0.332392
O O5 0.418691 0.118689 0.635527
O O6 0.402955 0.239240 0.985163
O O7 0.500000 0.372602 0.250000
O O8 0.000000 0.500000 0.500000
#
# Coordination Sequence:
#
# PCOD8130103 Si02
#       4
#     8   8   8   4
#     4   9  19  30  55  74  94 146 167 237 275 294
#     4   9  21  35  51  69 107 137 194 211 263 311
#     4  10  17  28  50  79 103 128 160 222 287 317
#     4  12  28  36  52  76 114 164 182 204 248 330
#
# _framework density 21.994498
#
# number of rings (size 3 to 8) (size 9 to 14) (size 15 to 20)
#    1.714    0.571    0.000    3.429    6.000    0.000 
#    0.000    0.000    0.000    0.000    0.000    0.000 
#    0.000   22.857    0.000    0.000    0.000    0.000 
#
# Total GULP energy -173445.480589 kJ/mol
# GULP energy per Si atom -12388.962899 kJ/mol
# Density = 2.194444 g / cm^3
# Si number density = 21.994498 Si / 1000 Ang^3
#
#
#
# Elastic Constant Matrix: (Units=GPa)
#
#
# Indices 1 2 3 4 5 6 
#
# 1 167.4399 23.9838 26.6585 0.0000 -19.2102 0.0000
# 2 23.9838 20.1888 8.6510 0.0000 -5.3982 0.0000
# 3 26.6585 8.6510 110.6066 0.0000 -27.6005 0.0000
# 4 0.0000 0.0000 0.0000 10.2960 0.0000 -3.9069
# 5 -19.2102 -5.3982 -27.6005 0.0000 40.3354 0.0000
# 6 0.0000 0.0000 0.0000 -3.9069 0.0000 8.0956
#
#
#
# Elastic Compliance Matrix: (Units=1/GPa)
#
#
# Indices 1 2 3 4 5 6 
#
# 1 0.007462 -0.008038 -0.000665 0.000000 0.002023 0.000000
# 2 -0.008038 0.060747 -0.002099 0.000000 0.002865 0.000000
# 3 -0.000665 -0.002099 0.011114 0.000000 0.007008 0.000000
# 4 0.000000 0.000000 0.000000 0.118898 0.000000 0.057379
# 5 0.002023 0.002865 0.007008 0.000000 0.030934 0.000000
# 6 0.000000 0.000000 0.000000 0.057379 0.000000 0.151215
#
#
# Mechanical properties :
#
#
# Convention : Reuss Voigt Hill
#
# Bulk Modulus (GPa) = 17.32539 46.31353 31.81946
# Shear Modulus (GPa) = 11.87046 27.67487 19.77266
#
# Velocity S-wave (km/s) = 2.32567 3.55105 3.00156
# Velocity P-wave (km/s) = 3.88663 6.15758 5.14887
#
# Compressibility (1/GPa) = 0.05771876
#
# Stress axis : x y z
#
# Youngs Moduli (GPa) = 134.01862 16.46164 89.97570
#
# Poissons Ratio (x) = 0.13233 0.05982
# Poissons Ratio (y) = 1.07730 0.18884
# Poissons Ratio (z) = 0.08911 0.03455
#
# Static dielectric constant tensor:
#      x y z
#    x 4.039930 0.000000 -0.054850 
#    y 0.000000 3.264530 0.000000 
#    z -0.054850 0.000000 3.733020 
# 
# 
# High freq. dielectric constant tensor:
#      x y z
#    x 1.882890 0.000000 -0.007490 
#    y 0.000000 1.791440 0.000000 
#    z -0.007490 0.000000 1.860670 
# 
# From -- ./inp_files/9396.got.cif
#   From: 2010.06.25/outbox.cif.g09.slc.cpg/sg15_5_cif.got.tgz:9396.got - 2010.06.28 07:06:18.
