data_PCOD8130134
_publ_section_title
;
Structure prediction by ZEFSAII (Michael W. Deem and Ramdas Pophale) SiO2 
 PCOD8130134
Probable space group: C 2/C
;
_chemical_formula_sum "Si O2"
_cell_formula_units_Z 48
_cell_length_a 14.156983
_cell_length_b 28.370236
_cell_length_c 9.137078
_cell_angle_alpha 90.000000
_cell_angle_beta 139.314246
_cell_angle_gamma 90.000000
_cell_volume 2392.371144
_symmetry_space_group_name_H-M "C 2/C"
_symmetry_group_IT_number 15
_symmetry_cell_setting 'monoclinic'
loop_
_space_group_symop_operation_xyz
x,y,z
-x,y,1/2-z
-x,-y,-z
x,-y,1/2+z
1/2+x,1/2+y,z
1/2-x,1/2+y,1/2-z
1/2-x,1/2-y,-z
1/2+x,1/2-y,1/2+z
loop_
_atom_site_type_symbol
_atom_site_label
_atom_site_fract_x
_atom_site_fract_y
_atom_site_fract_z
Si Si1 0.209253 0.446351 0.703085
Si Si2 0.091652 0.395352 0.128188
Si Si3 0.180791 0.218007 0.293874
Si Si4 0.662205 0.036512 0.471081
Si Si5 0.645068 0.385184 0.844286
Si Si6 0.523176 0.797249 0.450833
O O1 0.236960 0.495349 0.651711
O O2 0.245083 0.454366 0.916147
O O3 0.327975 0.409633 0.780893
O O4 0.045079 0.427566 0.487001
O O5 0.211913 0.397196 0.395109
O O6 0.040498 0.341911 0.037874
O O7 0.162337 0.414653 0.062034
O O8 0.250000 0.250000 0.500000
O O9 0.120031 0.170318 0.292376
O O10 0.304003 0.206765 0.317403
O O11 0.049773 0.249145 0.074046
O O12 0.500000 0.019394 0.250000
O O13 0.500000 0.405354 0.750000
O O14 0.500000 0.805813 0.250000
#
# Coordination Sequence:
#
# PCOD8130134 Si02
#       6
#     8   8   8   8   8   8
#     4  11  21  39  59  88 113 145 191 238 290 340
#     4  11  19  35  57  86 114 150 189 236 287 335
#     4  10  18  30  49  83 117 145 190 234 282 321
#     4  10  21  36  64  88 112 143 191 243 286 343
#     4  12  22  34  55  86 118 154 191 235 285 338
#     4  10  17  29  50  82 116 149 183 239 279 329
#
# _framework density 20.063776000000001
#
# number of rings (size 3 to 8) (size 9 to 14) (size 15 to 20)
#    0.000    1.333    5.000    6.000    0.000    0.000 
#    0.000    4.167    0.000    1.000    0.000    0.000 
#    0.000    0.000    0.000    0.000    0.000    0.000 
#
# Total GULP energy -297540.476706 kJ/mol
# GULP energy per Si atom -12397.519863 kJ/mol
# Density = 2.001811 g / cm^3
# Si number density = 20.063776 Si / 1000 Ang^3
#
#
#
# Elastic Constant Matrix: (Units=GPa)
#
#
# Indices 1 2 3 4 5 6 
#
# 1 141.5437 71.1860 40.7505 0.0000 -6.3675 0.0000
# 2 71.1860 135.8614 31.9990 0.0000 -18.9070 0.0000
# 3 40.7505 31.9990 31.5858 0.0000 -2.4172 0.0000
# 4 0.0000 0.0000 0.0000 21.5598 0.0000 -1.4972
# 5 -6.3675 -18.9070 -2.4172 0.0000 31.0801 0.0000
# 6 0.0000 0.0000 0.0000 -1.4972 0.0000 26.4229
#
#
#
# Elastic Compliance Matrix: (Units=1/GPa)
#
#
# Indices 1 2 3 4 5 6 
#
# 1 0.012462 -0.003708 -0.012372 0.000000 -0.000665 0.000000
# 2 -0.003708 0.011666 -0.006589 0.000000 0.005825 0.000000
# 3 -0.012372 -0.006589 0.054117 0.000000 -0.002334 0.000000
# 4 0.000000 0.000000 0.000000 0.046566 0.000000 0.002639
# 5 -0.000665 0.005825 -0.002334 0.000000 0.035400 0.000000
# 6 0.000000 0.000000 0.000000 0.002639 0.000000 0.037996
#
#
# Mechanical properties :
#
#
# Convention : Reuss Voigt Hill
#
# Bulk Modulus (GPa) = 30.38781 66.31798 48.35289
# Shear Modulus (GPa) = 19.64535 26.81625 23.23080
#
# Velocity S-wave (km/s) = 3.13252 3.65985 3.40641
# Velocity P-wave (km/s) = 5.31621 7.14036 6.29471
#
# Compressibility (1/GPa) = 0.03290794
#
# Stress axis : x y z
#
# Youngs Moduli (GPa) = 80.24500 85.72148 18.47831
#
# Poissons Ratio (x) = 0.31787 0.22861
# Poissons Ratio (y) = 0.29756 0.12174
# Poissons Ratio (z) = 0.99278 0.56478
#
# Static dielectric constant tensor:
#      x y z
#    x 4.226120 0.000000 0.320770 
#    y 0.000000 3.887280 0.000000 
#    z 0.320770 0.000000 3.408320 
# 
# 
# High freq. dielectric constant tensor:
#      x y z
#    x 1.777120 0.000000 0.013440 
#    y 0.000000 1.799050 0.000000 
#    z 0.013440 0.000000 1.725130 
# 
# From -- ./inp_files/44647.got.cif
#   From: 2010.06.25/outbox.cif.g09.slc.cpg/sg15_23_cif.got.tgz:44647.got - 2010.06.28 07:06:18.
