data_PCOD8130583
_publ_section_title
;
Structure prediction by ZEFSAII (Michael W. Deem and Ramdas Pophale) SiO2 
 PCOD8130583
Probable space group: C 2/C
;
_chemical_formula_sum "Si O2"
_cell_formula_units_Z 44
_cell_length_a 12.883251
_cell_length_b 20.042572
_cell_length_c 15.219045
_cell_angle_alpha 90.000000
_cell_angle_beta 145.174869
_cell_angle_gamma 90.000000
_cell_volume 2244.184040
_symmetry_space_group_name_H-M "C 2/C"
_symmetry_group_IT_number 15
_symmetry_cell_setting 'monoclinic'
loop_
_space_group_symop_operation_xyz
x,y,z
-x,y,1/2-z
-x,-y,-z
x,-y,1/2+z
1/2+x,1/2+y,z
1/2-x,1/2+y,1/2-z
1/2-x,1/2-y,-z
1/2+x,1/2-y,1/2+z
loop_
_atom_site_type_symbol
_atom_site_label
_atom_site_fract_x
_atom_site_fract_y
_atom_site_fract_z
Si Si1 0.635757 0.668388 0.971539
Si Si2 0.518885 0.103107 0.572483
Si Si3 0.500000 0.931402 0.250000
Si Si4 0.169045 0.981200 0.480064
Si Si5 0.744193 0.794721 0.131897
Si Si6 0.226119 0.993483 0.820994
O O1 0.651713 0.591776 0.012182
O O2 0.754496 0.677294 0.966132
O O3 0.428072 0.689005 0.810628
O O4 0.713862 0.714799 0.104227
O O5 0.487223 0.114846 0.654719
O O6 0.576444 0.172208 0.567620
O O7 0.671633 0.046185 0.669271
O O8 0.331774 0.077020 0.398156
O O9 0.676999 0.978022 0.362770
O O10 0.217912 0.972906 0.411548
O O11 0.975961 0.019243 0.356669
#
# Coordination Sequence:
#
# PCOD8130583 Si02
#       6
#     8   8   4   8   8   8
#     4  10  19  33  53  79 104 146 166 232 259 322
#     4  10  18  35  50  79 105 148 175 217 262 328
#     4  10  24  30  54  80 112 142 178 220 266 306
#     4  10  17  35  50  83 108 134 174 226 267 325
#     4  10  19  34  53  75 112 138 184 206 274 316
#     4   9  17  31  58  72 110 143 167 212 282 312
#
# _framework density 19.606235000000002
#
# number of rings (size 3 to 8) (size 9 to 14) (size 15 to 20)
#    0.000    2.182    3.636    1.091    0.000    3.636 
#    0.000    0.000    0.000    1.091    0.000    0.000 
#    0.000    0.000    0.000    0.000    0.000    0.000 
#
# Total GULP energy -272785.452641 kJ/mol
# GULP energy per Si atom -12399.338756 kJ/mol
# Density = 1.956161 g / cm^3
# Si number density = 19.606235 Si / 1000 Ang^3
#
#
#
# Elastic Constant Matrix: (Units=GPa)
#
#
# Indices 1 2 3 4 5 6 
#
# 1 79.2615 41.0191 31.1751 0.0001 11.6252 0.0000
# 2 41.0191 86.3811 37.1169 0.0002 9.4039 0.0000
# 3 31.1751 37.1169 76.9210 0.0008 22.4068 0.0003
# 4 0.0001 0.0002 0.0008 16.7892 0.0004 5.3450
# 5 11.6252 9.4039 22.4068 0.0004 28.7147 0.0001
# 6 0.0000 0.0000 0.0003 5.3450 0.0001 32.1477
#
#
#
# Elastic Compliance Matrix: (Units=1/GPa)
#
#
# Indices 1 2 3 4 5 6 
#
# 1 0.017748 -0.006784 -0.003201 0.000000 -0.002466 0.000000
# 2 -0.006784 0.017217 -0.006103 0.000000 0.001871 0.000000
# 3 -0.003201 -0.006103 0.021073 -0.000001 -0.013149 0.000000
# 4 0.000000 0.000000 -0.000001 0.062891 0.000000 -0.010456
# 5 -0.002466 0.001871 -0.013149 0.000000 0.045471 0.000000
# 6 0.000000 0.000000 0.000000 -0.010456 0.000000 0.032845
#
#
# Mechanical properties :
#
#
# Convention : Reuss Voigt Hill
#
# Bulk Modulus (GPa) = 41.90920 51.24286 46.57603
# Shear Modulus (GPa) = 21.06366 24.41384 22.73875
#
# Velocity S-wave (km/s) = 3.28126 3.53258 3.40924
# Velocity P-wave (km/s) = 5.98142 6.54458 6.26933
#
# Compressibility (1/GPa) = 0.02386111
#
# Stress axis : x y z
#
# Youngs Moduli (GPa) = 56.34440 58.08284 47.45389
#
# Poissons Ratio (x) = 0.39402 0.15192
# Poissons Ratio (y) = 0.38223 0.28962
# Poissons Ratio (z) = 0.18038 0.35449
#
# Static dielectric constant tensor:
#      x y z
#    x 3.552520 0.000000 0.232780 
#    y 0.000000 3.348680 0.000000 
#    z 0.232780 0.000000 3.537590 
# 
# 
# High freq. dielectric constant tensor:
#      x y z
#    x 1.753220 0.000000 0.015360 
#    y 0.000000 1.727950 0.000000 
#    z 0.015360 0.000000 1.759310 
# 
# From -- ./inp_files/147262.got.cif
#   From: 2010.06.25/outbox.cif.g09.slc.cpg/sg15_74_cif.got.tgz:147262.got - 2010.06.28 07:06:18.
