data_PCOD8130526
_publ_section_title
;
Structure prediction by ZEFSAII (Michael W. Deem and Ramdas Pophale) SiO2 
 PCOD8130526
Probable space group: C 2/C
;
_chemical_formula_sum "Si O2"
_cell_formula_units_Z 52
_cell_length_a 15.935108
_cell_length_b 9.911615
_cell_length_c 19.531097
_cell_angle_alpha 90.000000
_cell_angle_beta 57.048719
_cell_angle_gamma 90.000000
_cell_volume 2588.553034
_symmetry_space_group_name_H-M "C 2/C"
_symmetry_group_IT_number 15
_symmetry_cell_setting 'monoclinic'
loop_
_space_group_symop_operation_xyz
x,y,z
-x,y,1/2-z
-x,-y,-z
x,-y,1/2+z
1/2+x,1/2+y,z
1/2-x,1/2+y,1/2-z
1/2-x,1/2-y,-z
1/2+x,1/2-y,1/2+z
loop_
_atom_site_type_symbol
_atom_site_label
_atom_site_fract_x
_atom_site_fract_y
_atom_site_fract_z
Si Si1 0.504813 0.331450 0.857451
Si Si2 0.719059 0.547340 0.672460
Si Si3 0.840928 0.777743 0.831726
Si Si4 0.366783 0.719519 0.077162
Si Si5 0.793855 0.939397 0.163163
Si Si6 0.000000 0.846507 0.250000
Si Si7 0.501286 0.644555 0.604353
O O1 0.402577 0.265307 0.875153
O O2 0.590404 0.314746 0.763370
O O3 0.542278 0.256009 0.909701
O O4 0.482934 0.488265 0.882056
O O5 0.741562 0.398914 0.630675
O O6 0.790826 0.656158 0.605027
O O7 0.741766 0.550702 0.742974
O O8 0.601875 0.567110 0.707497
O O9 0.789410 0.633746 0.845070
O O10 0.305813 0.588022 0.127422
O O11 0.411277 0.699259 0.981995
O O12 0.894878 0.849428 0.113161
O O13 0.997644 0.767358 0.324434
#
# Coordination Sequence:
#
# PCOD8130526 Si02
#       7
#     8   8   8   8   8   4   8
#     4  10  17  34  56  82 109 154 191 221 273 350
#     4  11  18  35  59  87 110 152 197 230 279 344
#     4  11  18  33  62  82 111 153 196 221 278 349
#     4  11  22  35  59  88 116 146 196 242 277 331
#     4  10  19  35  56  86 115 149 188 237 281 335
#     4  10  18  36  60  80 110 154 194 232 284 352
#     4  10  19  37  59  82 113 153 196 232 278 348
#
# _framework density 20.088443999999999
#
# number of rings (size 3 to 8) (size 9 to 14) (size 15 to 20)
#    0.000    1.538    7.692    1.846    0.000    0.615 
#    0.000    5.385    3.385    0.000    0.000    0.000 
#    0.000    0.000    0.000    0.000    0.000    0.000 
#
# Total GULP energy -322136.055037 kJ/mol
# GULP energy per Si atom -12389.848271 kJ/mol
# Density = 2.004272 g / cm^3
# Si number density = 20.088444 Si / 1000 Ang^3
#
#
#
# Elastic Constant Matrix: (Units=GPa)
#
#
# Indices 1 2 3 4 5 6 
#
# 1 119.1838 43.1397 10.4639 0.0000 20.0228 0.0000
# 2 43.1397 61.7232 5.3778 0.0000 3.9360 0.0000
# 3 10.4639 5.3778 64.2886 0.0000 8.5738 0.0000
# 4 0.0000 0.0000 0.0000 15.2601 0.0000 0.3878
# 5 20.0228 3.9360 8.5738 0.0000 18.0491 0.0000
# 6 0.0000 0.0000 0.0000 0.3878 0.0000 22.9006
#
#
#
# Elastic Compliance Matrix: (Units=1/GPa)
#
#
# Indices 1 2 3 4 5 6 
#
# 1 0.013842 -0.008835 0.000296 0.000000 -0.013570 0.000000
# 2 -0.008835 0.022124 -0.001149 0.000000 0.005522 0.000000
# 3 0.000296 -0.001149 0.016669 0.000000 -0.007996 0.000000
# 4 0.000000 0.000000 0.000000 0.065559 0.000000 -0.001110
# 5 -0.013570 0.005522 -0.007996 0.000000 0.073052 0.000000
# 6 0.000000 0.000000 0.000000 -0.001110 0.000000 0.043686
#
#
# Mechanical properties :
#
#
# Convention : Reuss Voigt Hill
#
# Bulk Modulus (GPa) = 30.06726 40.35093 35.20910
# Shear Modulus (GPa) = 18.83985 23.65623 21.24804
#
# Velocity S-wave (km/s) = 3.06575 3.43535 3.25580
# Velocity P-wave (km/s) = 5.24706 5.98880 5.63016
#
# Compressibility (1/GPa) = 0.03325877
#
# Stress axis : x y z
#
# Youngs Moduli (GPa) = 72.24400 45.19926 59.99089
#
# Poissons Ratio (x) = 0.39933 -0.01774
# Poissons Ratio (y) = 0.63827 0.06894
# Poissons Ratio (z) = -0.02137 0.05194
#
# Static dielectric constant tensor:
#      x y z
#    x 3.898530 0.000000 0.257140 
#    y 0.000000 3.298260 0.000000 
#    z 0.257140 0.000000 3.656640 
# 
# 
# High freq. dielectric constant tensor:
#      x y z
#    x 1.790650 0.000000 0.015970 
#    y 0.000000 1.741400 0.000000 
#    z 0.015970 0.000000 1.771200 
# 
# From -- ./inp_files/209467.got.cif
#   From: 2010.06.25/outbox.cif.g09.slc.cpg/sg15_105_cif.got.tgz:209467.got - 2010.06.28 07:06:18.
