data_PCOD8130229
_publ_section_title
;
Structure prediction by ZEFSAII (Michael W. Deem and Ramdas Pophale) SiO2 
 PCOD8130229
Probable space group: C 2/C
;
_chemical_formula_sum "Si O2"
_cell_formula_units_Z 56
_cell_length_a 10.482471
_cell_length_b 14.621747
_cell_length_c 21.873133
_cell_angle_alpha 90.000000
_cell_angle_beta 63.550323
_cell_angle_gamma 90.000000
_cell_volume 3001.615660
_symmetry_space_group_name_H-M "C 2/C"
_symmetry_group_IT_number 15
_symmetry_cell_setting 'monoclinic'
loop_
_space_group_symop_operation_xyz
x,y,z
-x,y,1/2-z
-x,-y,-z
x,-y,1/2+z
1/2+x,1/2+y,z
1/2-x,1/2+y,1/2-z
1/2-x,1/2-y,-z
1/2+x,1/2-y,1/2+z
loop_
_atom_site_type_symbol
_atom_site_label
_atom_site_fract_x
_atom_site_fract_y
_atom_site_fract_z
Si Si1 0.823667 0.051181 0.674531
Si Si2 0.331097 0.674769 0.561772
Si Si3 0.159091 0.151158 0.080769
Si Si4 0.661242 0.332432 0.993725
Si Si5 0.840391 0.046996 0.896704
Si Si6 0.329834 0.332190 0.287244
Si Si7 0.325137 0.349864 0.649987
O O1 0.777471 0.097187 0.620254
O O2 0.766859 0.111868 0.743033
O O3 0.991502 0.046857 0.645084
O O4 0.768618 0.946333 0.689556
O O5 0.244257 0.767133 0.594506
O O6 0.302674 0.642145 0.499004
O O7 0.496838 0.695294 0.536290
O O8 0.991635 0.167160 0.127105
O O9 0.212793 0.057091 0.100710
O O10 0.700616 0.420000 0.026631
O O11 0.750000 0.250000 0.000000
O O12 0.703920 0.355149 0.915914
O O13 0.775399 0.113745 0.859083
O O14 0.500000 0.322632 0.250000
O O15 0.263353 0.231248 0.300053
#
# Coordination Sequence:
#
# PCOD8130229 Si02
#       7
#     8   8   8   8   8   8   8
#     4   9  19  33  52  73 100 140 174 203 248 310
#     4   9  18  33  52  78 107 132 164 207 258 303
#     4   9  18  33  56  76 102 133 168 209 254 303
#     4  10  17  30  56  81 104 127 166 215 259 300
#     4   9  17  32  53  77  99 134 173 208 247 308
#     4  10  20  34  51  73 104 133 174 215 248 295
#     4  10  19  34  55  77 100 134 174 209 254 304
#
# _framework density 18.656618000000002
#
# number of rings (size 3 to 8) (size 9 to 14) (size 15 to 20)
#    0.000    2.571    1.429    0.857    0.000    4.571 
#    0.000    4.286    3.143    0.000    0.000    0.000 
#    0.000    0.000    0.000    0.000    0.000    0.000 
#
# Total GULP energy -347115.186807 kJ/mol
# GULP energy per Si atom -12396.970957 kJ/mol
# Density = 1.861416 g / cm^3
# Si number density = 18.656618 Si / 1000 Ang^3
#
#
#
# Elastic Constant Matrix: (Units=GPa)
#
#
# Indices 1 2 3 4 5 6 
#
# 1 35.3509 40.9650 21.2234 0.0000 7.2357 0.0000
# 2 40.9650 180.6976 59.6926 0.0000 5.3804 0.0000
# 3 21.2234 59.6926 83.1825 0.0000 8.1494 0.0000
# 4 0.0000 0.0000 0.0000 31.8524 0.0000 0.2024
# 5 7.2357 5.3804 8.1494 0.0000 15.3100 0.0000
# 6 0.0000 0.0000 0.0000 0.2024 0.0000 31.6216
#
#
#
# Elastic Compliance Matrix: (Units=1/GPa)
#
#
# Indices 1 2 3 4 5 6 
#
# 1 0.043035 -0.008086 -0.003654 0.000000 -0.015552 0.000000
# 2 -0.008086 0.008774 -0.004542 0.000000 0.003156 0.000000
# 3 -0.003654 -0.004542 0.016762 0.000000 -0.005599 0.000000
# 4 0.000000 0.000000 0.000000 0.031396 0.000000 -0.000201
# 5 -0.015552 0.003156 -0.005599 0.000000 0.074538 0.000000
# 6 0.000000 0.000000 0.000000 -0.000201 0.000000 0.031625
#
#
# Mechanical properties :
#
#
# Convention : Reuss Voigt Hill
#
# Bulk Modulus (GPa) = 27.77265 60.33254 44.05259
# Shear Modulus (GPa) = 19.94444 27.58015 23.76230
#
# Velocity S-wave (km/s) = 3.27315 3.84904 3.57272
# Velocity P-wave (km/s) = 5.40400 7.22234 6.37830
#
# Compressibility (1/GPa) = 0.03600665
#
# Stress axis : x y z
#
# Youngs Moduli (GPa) = 23.23695 113.97555 59.65845
#
# Poissons Ratio (x) = 0.92162 0.21797
# Poissons Ratio (y) = 0.18790 0.27098
# Poissons Ratio (z) = 0.08490 0.51770
#
# Static dielectric constant tensor:
#      x y z
#    x 3.295390 0.000000 0.331090 
#    y 0.000000 4.512750 0.000000 
#    z 0.331090 0.000000 3.416270 
# 
# 
# High freq. dielectric constant tensor:
#      x y z
#    x 1.688710 0.000000 0.016470 
#    y 0.000000 1.738350 0.000000 
#    z 0.016470 0.000000 1.718010 
# 
# From -- ./inp_files/236951.got.cif
#   From: 2010.06.25/outbox.cif.g09.slc.cpg/sg15_119_cif.got.tgz:236951.got - 2010.06.28 07:06:18.
