data_PCOD8130207
_publ_section_title
;
Structure prediction by ZEFSAII (Michael W. Deem and Ramdas Pophale) SiO2 
 PCOD8130207
Probable space group: C 2/C
;
_chemical_formula_sum "Si O2"
_cell_formula_units_Z 52
_cell_length_a 12.015107
_cell_length_b 21.601846
_cell_length_c 11.743931
_cell_angle_alpha 90.000000
_cell_angle_beta 124.461976
_cell_angle_gamma 90.000000
_cell_volume 2513.180375
_symmetry_space_group_name_H-M "C 2/C"
_symmetry_group_IT_number 15
_symmetry_cell_setting 'monoclinic'
loop_
_space_group_symop_operation_xyz
x,y,z
-x,y,1/2-z
-x,-y,-z
x,-y,1/2+z
1/2+x,1/2+y,z
1/2-x,1/2+y,1/2-z
1/2-x,1/2-y,-z
1/2+x,1/2-y,1/2+z
loop_
_atom_site_type_symbol
_atom_site_label
_atom_site_fract_x
_atom_site_fract_y
_atom_site_fract_z
Si Si1 0.300104 0.002578 0.914050
Si Si2 0.854825 0.411674 0.135143
Si Si3 0.040922 0.573705 0.148095
Si Si4 0.500000 0.706925 0.750000
Si Si5 0.283165 0.622517 0.710376
Si Si6 0.900743 0.277613 0.089286
Si Si7 0.948868 0.299651 0.538806
O O1 0.184713 0.054584 0.827060
O O2 0.318905 0.958574 0.812962
O O3 0.430072 0.048001 0.995709
O O4 0.273308 0.961493 0.011176
O O5 0.767381 0.389606 0.191112
O O6 0.888355 0.351745 0.079658
O O7 0.000000 0.442176 0.250000
O O8 0.000000 0.552436 0.250000
O O9 0.052334 0.648033 0.147184
O O10 0.417822 0.662842 0.788259
O O11 0.410889 0.751218 0.616482
O O12 0.183182 0.665595 0.580281
O O13 0.000000 0.255255 0.250000
O O14 0.750000 0.250000 0.000000
O O15 0.977152 0.260312 0.017374
#
# Coordination Sequence:
#
# PCOD8130207 Si02
#       7
#     8   8   8   4   8   8   8
#     4  10  19  31  57  87 119 152 214 264 332 383
#     4  11  18  37  64  91 126 158 211 283 329 383
#     4  10  17  30  53  89 119 145 195 273 327 370
#     4  12  26  42  60  86 138 174 222 260 330 414
#     4  11  23  40  60  91 124 173 208 269 334 397
#     4  11  22  39  65  95 131 170 216 269 336 397
#     4  11  21  38  62  90 123 165 216 272 325 382
#
# _framework density 20.690915
#
# number of rings (size 3 to 8) (size 9 to 14) (size 15 to 20)
#    0.000    1.231    5.385    4.615    0.000    0.000 
#    0.000    0.769    1.692    0.000    0.000    0.000 
#    0.000    0.000    0.000    0.000    0.000    0.000 
#
# Total GULP energy -322125.096658 kJ/mol
# GULP energy per Si atom -12389.426795 kJ/mol
# Density = 2.064382 g / cm^3
# Si number density = 20.690915 Si / 1000 Ang^3
#
#
#
# Elastic Constant Matrix: (Units=GPa)
#
#
# Indices 1 2 3 4 5 6 
#
# 1 68.5616 38.0864 34.7032 0.0000 -19.7606 0.0000
# 2 38.0864 101.5367 39.7166 0.0000 -11.6235 0.0000
# 3 34.7032 39.7166 79.8562 0.0000 -23.5062 0.0000
# 4 0.0000 0.0000 0.0000 21.7861 0.0000 -3.5803
# 5 -19.7606 -11.6235 -23.5062 0.0000 37.7865 0.0000
# 6 0.0000 0.0000 0.0000 -3.5803 0.0000 23.7973
#
#
#
# Elastic Compliance Matrix: (Units=1/GPa)
#
#
# Indices 1 2 3 4 5 6 
#
# 1 0.022117 -0.005638 -0.004790 0.000000 0.006852 0.000000
# 2 -0.005638 0.013665 -0.004868 0.000000 -0.001773 0.000000
# 3 -0.004790 -0.004868 0.019400 0.000000 0.008065 0.000000
# 4 0.000000 0.000000 0.000000 0.047064 0.000000 0.007081
# 5 0.006852 -0.001773 0.008065 0.000000 0.034519 0.000000
# 6 0.000000 0.000000 0.000000 0.007081 0.000000 0.043087
#
#
# Mechanical properties :
#
#
# Convention : Reuss Voigt Hill
#
# Bulk Modulus (GPa) = 40.66982 52.77409 46.72196
# Shear Modulus (GPa) = 22.86860 25.83721 24.35290
#
# Velocity S-wave (km/s) = 3.32813 3.53756 3.43444
# Velocity P-wave (km/s) = 5.87088 6.49977 6.19331
#
# Compressibility (1/GPa) = 0.02458825
#
# Stress axis : x y z
#
# Youngs Moduli (GPa) = 45.21445 73.18201 51.54768
#
# Poissons Ratio (x) = 0.41259 0.24694
# Poissons Ratio (y) = 0.25491 0.25094
# Poissons Ratio (z) = 0.21660 0.35625
#
# Static dielectric constant tensor:
#      x y z
#    x 3.391350 0.000000 -0.211120 
#    y 0.000000 4.073920 0.000000 
#    z -0.211120 0.000000 3.619170 
# 
# 
# High freq. dielectric constant tensor:
#      x y z
#    x 1.766530 0.000000 -0.041820 
#    y 0.000000 1.826540 0.000000 
#    z -0.041820 0.000000 1.792810 
# 
# From -- ./inp_files/89088.got.cif
#   From: 2010.06.25/outbox.cif.g09.slc.cpg/sg15_45_cif.got.tgz:89088.got - 2010.06.28 07:06:18.
