data_PCOD8130728
_publ_section_title
;
Structure prediction by ZEFSAII (Michael W. Deem and Ramdas Pophale) SiO2 
 PCOD8130728
Probable space group: C 2/C
;
_chemical_formula_sum "Si O2"
_cell_formula_units_Z 60
_cell_length_a 15.240973
_cell_length_b 19.095013
_cell_length_c 23.217416
_cell_angle_alpha 90.000000
_cell_angle_beta 150.319855
_cell_angle_gamma 90.000000
_cell_volume 3345.723204
_symmetry_space_group_name_H-M "C 2/C"
_symmetry_group_IT_number 15
_symmetry_cell_setting 'monoclinic'
loop_
_space_group_symop_operation_xyz
x,y,z
-x,y,1/2-z
-x,-y,-z
x,-y,1/2+z
1/2+x,1/2+y,z
1/2-x,1/2+y,1/2-z
1/2-x,1/2-y,-z
1/2+x,1/2-y,1/2+z
loop_
_atom_site_type_symbol
_atom_site_label
_atom_site_fract_x
_atom_site_fract_y
_atom_site_fract_z
Si Si1 0.000000 0.071627 0.250000
Si Si2 0.219746 0.533517 0.574690
Si Si3 0.653735 0.001790 0.670409
Si Si4 0.690857 0.316043 0.342290
Si Si5 0.262954 0.848546 0.252691
Si Si6 0.560390 0.247588 0.063569
Si Si7 0.674903 0.363171 0.744062
Si Si8 0.421031 0.748373 0.057469
O O1 0.892997 0.122413 0.230492
O O2 0.871090 0.020267 0.139749
O O3 0.180252 0.518464 0.618707
O O4 0.282488 0.613707 0.604497
O O5 0.051435 0.518922 0.438104
O O6 0.707454 0.068500 0.739568
O O7 0.773251 0.935717 0.757790
O O8 0.500000 0.282874 0.250000
O O9 0.691432 0.332453 0.275249
O O10 0.847612 0.260976 0.445755
O O11 0.117350 0.821717 0.123752
O O12 0.450858 0.810864 0.348802
O O13 0.650921 0.185100 0.151328
O O14 0.632127 0.242624 0.039255
O O15 0.522545 0.325655 0.620565
O O16 0.250000 0.750000 0.000000
#
# Coordination Sequence:
#
# PCOD8130728 Si02
#       8
#     4   8   8   8   8   8   8   8
#     4  10  18  24  48  78 106 126 166 212 272 316
#     4   9  16  26  46  74 104 127 158 219 268 302
#     4   9  17  30  48  70 102 135 169 211 262 308
#     4  10  18  32  52  78 103 131 173 218 264 317
#     4   9  21  34  50  75 106 138 171 212 270 314
#     4  10  20  37  51  71 108 142 171 218 266 318
#     4  10  19  31  50  76 102 137 172 209 268 320
#     4  10  21  34  53  78 106 138 179 219 261 318
#
# _framework density 17.933342
#
# number of rings (size 3 to 8) (size 9 to 14) (size 15 to 20)
#    0.000    2.400    2.000    0.800    7.467    2.133 
#    0.000    0.667    0.000    0.000    0.000    0.000 
#    0.000    0.000    0.000    0.000    0.000    0.000 
#
# Total GULP energy -371940.886154 kJ/mol
# GULP energy per Si atom -12398.029538 kJ/mol
# Density = 1.789253 g / cm^3
# Si number density = 17.933342 Si / 1000 Ang^3
#
#
#
# Elastic Constant Matrix: (Units=GPa)
#
#
# Indices 1 2 3 4 5 6 
#
# 1 57.4185 21.1798 33.9798 -0.0003 25.3767 -0.0001
# 2 21.1798 116.7126 50.6177 -0.0031 7.9969 -0.0007
# 3 33.9798 50.6177 93.7526 -0.0156 18.1789 -0.0028
# 4 -0.0003 -0.0031 -0.0156 29.2976 -0.0031 -2.9860
# 5 25.3767 7.9969 18.1789 -0.0031 28.5677 -0.0003
# 6 -0.0001 -0.0007 -0.0028 -2.9860 -0.0003 18.2677
#
#
#
# Elastic Compliance Matrix: (Units=1/GPa)
#
#
# Indices 1 2 3 4 5 6 
#
# 1 0.032457 -0.001527 -0.006196 -0.000006 -0.024461 -0.000002
# 2 -0.001527 0.011276 -0.005916 -0.000002 0.001964 -0.000001
# 3 -0.006196 -0.005916 0.016789 0.000008 -0.003524 0.000004
# 4 -0.000006 -0.000002 0.000008 0.034711 0.000004 0.005674
# 5 -0.024461 0.001964 -0.003524 0.000004 0.058426 0.000001
# 6 -0.000002 -0.000001 0.000004 0.005674 0.000001 0.055669
#
#
# Mechanical properties :
#
#
# Convention : Reuss Voigt Hill
#
# Bulk Modulus (GPa) = 30.07958 53.27092 41.67525
# Shear Modulus (GPa) = 20.18681 26.03369 23.11025
#
# Velocity S-wave (km/s) = 3.35872 3.81424 3.59371
# Velocity P-wave (km/s) = 5.64365 7.01194 6.36467
#
# Compressibility (1/GPa) = 0.03324514
#
# Stress axis : x y z
#
# Youngs Moduli (GPa) = 30.81009 88.68346 59.56183
#
# Poissons Ratio (x) = 0.13538 0.36907
# Poissons Ratio (y) = 0.04703 0.35234
# Poissons Ratio (z) = 0.19091 0.52461
#
# Static dielectric constant tensor:
#      x y z
#    x 3.044870 0.000000 0.271610 
#    y 0.000000 3.482960 0.000000 
#    z 0.271610 0.000000 3.304790 
# 
# 
# High freq. dielectric constant tensor:
#      x y z
#    x 1.660620 0.000000 0.032830 
#    y 0.000000 1.693810 0.000000 
#    z 0.032830 0.000000 1.683020 
# 
# From -- ./inp_files/245455.got.cif
#   From: 2010.06.25/outbox.cif.g09.slc.cpg/sg15_123_cif.got.tgz:245455.got - 2010.06.28 07:06:18.
