data_PCOD8130080
_publ_section_title
;
Structure prediction by ZEFSAII (Michael W. Deem and Ramdas Pophale) SiO2 
 PCOD8130080
Probable space group: C 2/C
;
_chemical_formula_sum "Si O2"
_cell_formula_units_Z 60
_cell_length_a 17.030740
_cell_length_b 5.484674
_cell_length_c 30.723811
_cell_angle_alpha 90.000000
_cell_angle_beta 103.846928
_cell_angle_gamma 90.000000
_cell_volume 2786.449537
_symmetry_space_group_name_H-M "C 2/C"
_symmetry_group_IT_number 15
_symmetry_cell_setting 'monoclinic'
loop_
_space_group_symop_operation_xyz
x,y,z
-x,y,1/2-z
-x,-y,-z
x,-y,1/2+z
1/2+x,1/2+y,z
1/2-x,1/2+y,1/2-z
1/2-x,1/2-y,-z
1/2+x,1/2-y,1/2+z
loop_
_atom_site_type_symbol
_atom_site_label
_atom_site_fract_x
_atom_site_fract_y
_atom_site_fract_z
Si Si1 0.168353 0.489369 0.579865
Si Si2 0.837246 0.027415 0.553169
Si Si3 0.883081 0.369690 0.687323
Si Si4 0.500000 0.431904 0.250000
Si Si5 0.165401 0.991671 0.549864
Si Si6 0.766145 0.446728 0.320376
Si Si7 0.348404 0.750990 0.251757
Si Si8 0.148334 0.470537 0.406949
O O1 0.248169 0.523111 0.561231
O O2 0.119872 0.247510 0.556494
O O3 0.183814 0.442325 0.632996
O O4 0.122680 0.750768 0.565715
O O5 0.882839 0.275547 0.575169
O O6 0.830157 0.039544 0.500800
O O7 0.882963 0.775603 0.572965
O O8 0.966471 0.222548 0.704552
O O9 0.807345 0.196891 0.667002
O O10 0.870120 0.495625 0.732078
O O11 0.888838 0.550171 0.646852
O O12 0.426724 0.582933 0.260441
O O13 0.254586 0.028734 0.581981
O O14 0.730078 0.652011 0.284015
O O15 0.825578 0.280635 0.299252
#
# Coordination Sequence:
#
# PCOD8130080 Si02
#       8
#     8   8   8   4   8   8   8   8
#     4  10  18  28  44  75 108 152 178 237 278 363
#     4  10  17  28  44  75 111 153 181 232 297 361
#     4  11  21  39  54  83 113 159 195 245 303 348
#     4  10  26  40  58  80 116 160 202 252 300 354
#     4  10  17  28  45  71 117 151 182 226 305 356
#     4  11  21  33  58  84 113 150 203 239 306 351
#     4  11  22  39  59  83 114 156 199 257 298 361
#     4  10  18  28  49  72 109 147 190 233 285 357
#
# _framework density 21.532778
#
# number of rings (size 3 to 8) (size 9 to 14) (size 15 to 20)
#    0.000    1.600    4.000    6.000    1.867    0.000 
#    0.000    0.000    0.000    0.000    0.000    0.000 
#    0.000   11.733    0.000    0.000    0.000    0.000 
#
# Total GULP energy -371769.524602 kJ/mol
# GULP energy per Si atom -12392.317487 kJ/mol
# Density = 2.148377 g / cm^3
# Si number density = 21.532778 Si / 1000 Ang^3
#
#
#
# Elastic Constant Matrix: (Units=GPa)
#
#
# Indices 1 2 3 4 5 6 
#
# 1 32.9297 8.1382 17.8002 0.0000 -0.8812 0.0000
# 2 8.1382 159.8362 25.6749 0.0000 -4.4176 0.0001
# 3 17.8002 25.6749 111.9563 0.0000 -14.5319 0.0000
# 4 0.0000 0.0000 0.0000 31.4604 0.0000 2.4280
# 5 -0.8812 -4.4176 -14.5319 0.0000 11.1452 0.0000
# 6 0.0000 0.0001 0.0000 2.4280 0.0000 -0.3267
#
#
#
# Elastic Compliance Matrix: (Units=1/GPa)
#
#
# Indices 1 2 3 4 5 6 
#
# 1 0.033599 -0.000923 -0.005818 0.000000 -0.005295 0.000002
# 2 -0.000923 0.006526 -0.001232 0.000000 0.000907 0.000002
# 3 -0.005818 -0.001232 0.012057 0.000000 0.014772 0.000000
# 4 0.000000 0.000000 0.000000 0.020201 0.000000 0.150115
# 5 -0.005295 0.000907 0.014772 0.000000 0.108927 0.000002
# 6 0.000002 0.000002 0.000000 0.150115 0.000002 -1.945122
#
#
# Mechanical properties :
#
#
# Convention : Reuss Voigt Hill
#
# Bulk Modulus (GPa) = 27.59584 45.32764 36.46174
# Shear Modulus (GPa) = -2.88054 25.32972 11.22459
#
# Velocity S-wave (km/s) = -1.15786 3.43349 2.28563
# Velocity P-wave (km/s) = 3.32506 6.06751 4.89238
#
# Compressibility (1/GPa) = 0.03623734
#
# Stress axis : x y z
#
# Youngs Moduli (GPa) = 29.76305 153.22400 82.93887
#
# Poissons Ratio (x) = 0.14136 0.48251
# Poissons Ratio (y) = 0.02746 0.10220
# Poissons Ratio (z) = 0.17315 0.18881
#
# Static dielectric constant tensor:
#      x y z
#    x 3.190300 0.000000 -0.042340 
#    y 0.000000 5.113520 0.000000 
#    z -0.042340 0.000000 3.854550 
# 
# 
# High freq. dielectric constant tensor:
#      x y z
#    x 1.755490 0.000000 -0.008440 
#    y 0.000000 1.875220 0.000000 
#    z -0.008440 0.000000 1.854930 
# 
# From -- ./inp_files/299955.got.cif
#   From: 2010.06.25/outbox.cif.g09.slc.cpg/sg15_150_cif.got.tgz:299955.got - 2010.06.28 07:06:18.
