data_PCOD8130863
_publ_section_title
;
Structure prediction by ZEFSAII (Michael W. Deem and Ramdas Pophale) SiO2 
 PCOD8130863
Probable space group: C 2/C
;
_chemical_formula_sum "Si O2"
_cell_formula_units_Z 40
_cell_length_a 10.302593
_cell_length_b 16.208412
_cell_length_c 16.705593
_cell_angle_alpha 90.000000
_cell_angle_beta 38.413817
_cell_angle_gamma 90.000000
_cell_volume 1733.308832
_symmetry_space_group_name_H-M "C 2/C"
_symmetry_group_IT_number 15
_symmetry_cell_setting 'monoclinic'
loop_
_space_group_symop_operation_xyz
x,y,z
-x,y,1/2-z
-x,-y,-z
x,-y,1/2+z
1/2+x,1/2+y,z
1/2-x,1/2+y,1/2-z
1/2-x,1/2-y,-z
1/2+x,1/2-y,1/2+z
loop_
_atom_site_type_symbol
_atom_site_label
_atom_site_fract_x
_atom_site_fract_y
_atom_site_fract_z
Si Si1 0.339560 0.005031 0.191772
Si Si2 0.044990 0.209696 0.638320
Si Si3 0.782982 0.034186 0.919135
Si Si4 0.707408 0.161440 0.689953
Si Si5 0.487237 0.427663 0.943184
O O1 0.192001 0.976582 0.188623
O O2 0.373340 0.924679 0.231585
O O3 0.225394 0.079707 0.295511
O O4 0.541966 0.048670 0.058673
O O5 0.250000 0.250000 0.500000
O O6 0.084456 0.111998 0.615937
O O7 0.000000 0.242312 0.750000
O O8 0.825828 0.222054 0.695267
O O9 0.846838 0.952121 0.935095
O O10 0.500000 0.202782 0.750000
O O11 0.883832 0.151026 0.535029
O O12 0.500000 0.500000 0.000000
#
# Coordination Sequence:
#
# PCOD8130863 Si02
#       5
#     8   8   8   8   8
#     4  10  20  31  60  94 130 162 193 259 326 387
#     4  12  26  46  66  89 128 181 224 258 308 390
#     4  11  19  36  60  91 129 162 205 254 323 383
#     4  11  21  39  63  95 128 158 210 267 334 370
#     4  10  18  29  54  91 125 152 193 256 316 378
#
# _framework density 23.077248999999998
#
# number of rings (size 3 to 8) (size 9 to 14) (size 15 to 20)
#    0.000    1.200    8.000    0.600    0.000    1.600 
#    0.000    1.000    0.000    2.400    0.000    0.000 
#    0.000    0.000    0.000    0.000    0.000    0.000 
#
# Total GULP energy -247798.840838 kJ/mol
# GULP energy per Si atom -12389.942042 kJ/mol
# Density = 2.302472 g / cm^3
# Si number density = 23.077249 Si / 1000 Ang^3
#
#
#
# Elastic Constant Matrix: (Units=GPa)
#
#
# Indices 1 2 3 4 5 6 
#
# 1 158.5127 12.9697 38.2491 -0.0088 -1.5064 0.0031
# 2 12.9697 17.2089 17.2544 -0.0075 0.9573 0.0060
# 3 38.2491 17.2544 152.0955 -0.0038 14.0047 0.0093
# 4 -0.0088 -0.0075 -0.0038 24.0579 0.0047 -8.0927
# 5 -1.5064 0.9573 14.0047 0.0047 31.3695 -0.0036
# 6 0.0031 0.0060 0.0093 -8.0927 -0.0036 14.3911
#
#
#
# Elastic Compliance Matrix: (Units=1/GPa)
#
#
# Indices 1 2 3 4 5 6 
#
# 1 0.006979 -0.003904 -0.001412 0.000002 0.001085 0.000002
# 2 -0.003904 0.067809 -0.006782 0.000013 0.000771 -0.000015
# 3 -0.001412 -0.006782 0.008016 -0.000002 -0.003440 -0.000004
# 4 0.000002 0.000013 -0.000002 0.051263 -0.000004 0.028828
# 5 0.001085 0.000771 -0.003440 -0.000004 0.033442 0.000008
# 6 0.000002 -0.000015 -0.000004 0.028828 0.000008 0.085698
#
#
# Mechanical properties :
#
#
# Convention : Reuss Voigt Hill
#
# Bulk Modulus (GPa) = 17.06264 51.64038 34.35151
# Shear Modulus (GPa) = 16.83842 31.25329 24.04585
#
# Velocity S-wave (km/s) = 2.70414 3.68406 3.23146
# Velocity P-wave (km/s) = 4.14242 6.36570 5.37037
#
# Compressibility (1/GPa) = 0.05860758
#
# Stress axis : x y z
#
# Youngs Moduli (GPa) = 143.28393 14.74737 124.75105
#
# Poissons Ratio (x) = 0.05758 0.17616
# Poissons Ratio (y) = 0.55945 0.84601
# Poissons Ratio (z) = 0.20233 0.10001
#
# Static dielectric constant tensor:
#      x y z
#    x 4.401680 -0.000020 0.101420 
#    y -0.000020 2.918620 0.000110 
#    z 0.101420 0.000110 5.030980 
# 
# 
# High freq. dielectric constant tensor:
#      x y z
#    x 1.931540 0.000000 -0.002590 
#    y 0.000000 1.825490 0.000000 
#    z -0.002590 0.000000 1.949540 
# 
# From -- ./inp_files/135758.got.cif
#   From: 2010.06.25/outbox.cif.g09.slc.cpg/sg15_68_cif.got.tgz:135758.got - 2010.06.28 07:06:18.
