data_PCOD8130479
_publ_section_title
;
Structure prediction by ZEFSAII (Michael W. Deem and Ramdas Pophale) SiO2 
 PCOD8130479
Probable space group: C 2/C
;
_chemical_formula_sum "Si O2"
_cell_formula_units_Z 56
_cell_length_a 23.830453
_cell_length_b 16.356405
_cell_length_c 19.957661
_cell_angle_alpha 90.000000
_cell_angle_beta 21.146046
_cell_angle_gamma 90.000000
_cell_volume 2806.285665
_symmetry_space_group_name_H-M "C 2/C"
_symmetry_group_IT_number 15
_symmetry_cell_setting 'monoclinic'
loop_
_space_group_symop_operation_xyz
x,y,z
-x,y,1/2-z
-x,-y,-z
x,-y,1/2+z
1/2+x,1/2+y,z
1/2-x,1/2+y,1/2-z
1/2-x,1/2-y,-z
1/2+x,1/2-y,1/2+z
loop_
_atom_site_type_symbol
_atom_site_label
_atom_site_fract_x
_atom_site_fract_y
_atom_site_fract_z
Si Si1 0.609113 0.849540 0.569520
Si Si2 0.982777 0.860424 0.513011
Si Si3 0.186832 0.288628 0.343405
Si Si4 0.936793 0.514721 0.751973
Si Si5 0.530870 0.486399 0.562611
Si Si6 0.613350 0.061012 0.835462
Si Si7 0.362755 0.432850 0.360887
O O1 0.500000 0.812282 0.750000
O O2 0.608197 0.793398 0.504759
O O3 0.783543 0.861973 0.404233
O O4 0.552788 0.939331 0.610079
O O5 0.837105 0.803422 0.656576
O O6 0.130477 0.801132 0.353506
O O7 0.951258 0.906584 0.618110
O O8 0.017466 0.930196 0.420519
O O9 0.111038 0.352455 0.375656
O O10 0.941556 0.572829 0.681108
O O11 0.000000 0.559675 0.750000
O O12 0.764131 0.477996 0.951765
O O13 0.716156 0.478450 0.354923
O O14 0.452042 0.494150 0.722397
O O15 0.500000 0.000000 0.000000
O O16 0.500000 0.388333 0.250000
#
# Coordination Sequence:
#
# PCOD8130479 Si02
#       7
#     8   8   8   8   8   8   8
#     4   9  19  35  56  85 124 153 197 240 291 366
#     4  10  24  39  59  85 119 157 198 249 306 348
#     4  11  22  40  56  86 124 155 199 253 300 357
#     4   9  19  32  55  88 117 152 196 242 293 356
#     4  10  21  39  62  87 114 155 208 246 293 363
#     4  11  21  34  61  91 116 156 201 241 302 360
#     4  10  17  33  60  85 113 152 203 245 289 348
#
# _framework density 19.955202
#
# number of rings (size 3 to 8) (size 9 to 14) (size 15 to 20)
#    0.000    2.286    4.286    0.000    2.000    0.000 
#    0.000    1.429    0.000    1.714    0.000    0.000 
#    0.000    0.000    0.000    0.000    0.000    0.000 
#
# Total GULP energy -347030.123046 kJ/mol
# GULP energy per Si atom -12393.932966 kJ/mol
# Density = 1.990978 g / cm^3
# Si number density = 19.955202 Si / 1000 Ang^3
#
#
#
# Elastic Constant Matrix: (Units=GPa)
#
#
# Indices 1 2 3 4 5 6 
#
# 1 131.7717 33.9718 35.7960 -0.0024 -9.0497 -0.0081
# 2 33.9718 73.1937 28.7976 0.0013 -6.5389 -0.0037
# 3 35.7960 28.7976 73.3958 -0.0074 -17.9152 0.0028
# 4 -0.0024 0.0013 -0.0074 17.7504 0.0018 -11.9137
# 5 -9.0497 -6.5389 -17.9152 0.0018 29.4781 -0.0043
# 6 -0.0081 -0.0037 0.0028 -11.9137 -0.0043 27.6045
#
#
#
# Elastic Compliance Matrix: (Units=1/GPa)
#
#
# Indices 1 2 3 4 5 6 
#
# 1 0.009269 -0.002985 -0.003307 0.000003 0.000174 0.000004
# 2 -0.002985 0.017121 -0.005352 -0.000004 -0.000371 0.000000
# 3 -0.003307 -0.005352 0.019726 0.000008 0.009786 0.000001
# 4 0.000003 -0.000004 0.000008 0.079311 0.000005 0.034229
# 5 0.000174 -0.000371 0.009786 0.000005 0.039842 0.000007
# 6 0.000004 0.000000 0.000001 0.034229 0.000007 0.050999
#
#
# Mechanical properties :
#
#
# Convention : Reuss Voigt Hill
#
# Bulk Modulus (GPa) = 43.80788 52.83241 48.32014
# Shear Modulus (GPa) = 20.22945 26.95300 23.59123
#
# Velocity S-wave (km/s) = 3.18739 3.67914 3.44206
# Velocity P-wave (km/s) = 5.96210 6.67691 6.32960
#
# Compressibility (1/GPa) = 0.02282695
#
# Stress axis : x y z
#
# Youngs Moduli (GPa) = 107.88932 58.40920 50.69419
#
# Poissons Ratio (x) = 0.17438 0.16763
# Poissons Ratio (y) = 0.32210 0.27132
# Poissons Ratio (z) = 0.35676 0.31261
#
# Static dielectric constant tensor:
#      x y z
#    x 4.041690 -0.000020 -0.073750 
#    y -0.000020 3.184670 0.000030 
#    z -0.073750 0.000030 3.614470 
# 
# 
# High freq. dielectric constant tensor:
#      x y z
#    x 1.794180 0.000000 -0.008000 
#    y 0.000000 1.728840 0.000000 
#    z -0.008000 0.000000 1.785170 
# 
# From -- ./inp_files/255882.got.cif
#   From: 2010.06.25/outbox.cif.g09.slc.cpg/sg15_128_cif.got.tgz:255882.got - 2010.06.28 07:06:18.
