data_PCOD8130251
_publ_section_title
;
Structure prediction by ZEFSAII (Michael W. Deem and Ramdas Pophale) SiO2 
 PCOD8130251
Probable space group: C 2/C
;
_chemical_formula_sum "Si O2"
_cell_formula_units_Z 56
_cell_length_a 8.917574
_cell_length_b 29.934308
_cell_length_c 19.249988
_cell_angle_alpha 90.000000
_cell_angle_beta 31.693510
_cell_angle_gamma 90.000000
_cell_volume 2699.703304
_symmetry_space_group_name_H-M "C 2/C"
_symmetry_group_IT_number 15
_symmetry_cell_setting 'monoclinic'
loop_
_space_group_symop_operation_xyz
x,y,z
-x,y,1/2-z
-x,-y,-z
x,-y,1/2+z
1/2+x,1/2+y,z
1/2-x,1/2+y,1/2-z
1/2-x,1/2-y,-z
1/2+x,1/2-y,1/2+z
loop_
_atom_site_type_symbol
_atom_site_label
_atom_site_fract_x
_atom_site_fract_y
_atom_site_fract_z
Si Si1 0.097949 0.477414 0.032321
Si Si2 0.981609 0.760582 0.011639
Si Si3 0.805900 0.635806 0.162499
Si Si4 0.945862 0.701003 0.914040
Si Si5 0.167607 0.615962 0.885621
Si Si6 0.173252 0.959339 0.753989
Si Si7 0.901810 0.729178 0.192769
O O1 0.995365 0.426850 0.077422
O O2 0.945053 0.507155 0.152013
O O3 0.443379 0.474983 0.903229
O O4 0.000000 0.500000 0.000000
O O5 0.853439 0.713406 0.030325
O O6 0.321878 0.767089 0.866343
O O7 0.802414 0.801302 0.046031
O O8 0.932018 0.760458 0.112924
O O9 0.500000 0.644231 0.250000
O O10 0.788843 0.591174 0.217228
O O11 0.869744 0.677007 0.187937
O O12 0.056473 0.629258 0.006170
O O13 0.112752 0.654731 0.850052
O O14 0.129068 0.747313 0.834577
O O15 0.500000 0.605551 0.750000
O O16 0.000000 0.962238 0.750000
#
# Coordination Sequence:
#
# PCOD8130251 Si02
#       7
#     8   8   8   8   8   8   8
#     4  10  17  31  49  79 114 148 180 231 293 348
#     4  10  22  37  56  77 108 149 202 244 294 338
#     4  11  20  35  54  81 112 153 192 232 288 344
#     4  11  23  38  54  82 114 152 195 248 294 345
#     4  12  22  33  53  84 118 151 191 237 291 354
#     4   9  17  29  49  74 112 145 181 226 289 345
#     4  11  22  38  58  78 111 157 202 245 288 350
#
# _framework density 20.743020999999999
#
# number of rings (size 3 to 8) (size 9 to 14) (size 15 to 20)
#    0.000    1.429    5.714    3.857    4.000    0.000 
#    0.000    0.000    0.000    0.000    0.000    1.000 
#    0.000    4.857    0.000    0.286    0.000    0.000 
#
# Total GULP energy -346870.223510 kJ/mol
# GULP energy per Si atom -12388.222268 kJ/mol
# Density = 2.069581 g / cm^3
# Si number density = 20.743021 Si / 1000 Ang^3
#
#
#
# Elastic Constant Matrix: (Units=GPa)
#
#
# Indices 1 2 3 4 5 6 
#
# 1 65.2509 19.6929 20.0869 0.0000 -17.6460 0.0000
# 2 19.6929 142.2996 44.0481 0.0002 -3.7509 -0.0001
# 3 20.0869 44.0481 136.6481 0.0001 -13.4899 -0.0006
# 4 0.0000 0.0002 0.0001 32.7799 0.0001 0.8755
# 5 -17.6460 -3.7509 -13.4899 0.0001 13.6066 0.0000
# 6 0.0000 -0.0001 -0.0006 0.8755 0.0000 18.4161
#
#
#
# Elastic Compliance Matrix: (Units=1/GPa)
#
#
# Indices 1 2 3 4 5 6 
#
# 1 0.024518 -0.002676 0.000360 0.000000 0.031416 0.000000
# 2 -0.002676 0.008100 -0.002594 0.000000 -0.003810 0.000000
# 3 0.000360 -0.002594 0.008953 0.000000 0.008628 0.000000
# 4 0.000000 0.000000 0.000000 0.030545 0.000000 -0.001452
# 5 0.031416 -0.003810 0.008628 0.000000 0.121741 0.000000
# 6 0.000000 0.000000 0.000000 -0.001452 0.000000 0.054369
#
#
# Mechanical properties :
#
#
# Convention : Reuss Voigt Hill
#
# Bulk Modulus (GPa) = 31.49478 56.87271 44.18375
# Shear Modulus (GPa) = 18.61290 30.31856 24.46573
#
# Velocity S-wave (km/s) = 2.99876 3.82727 3.43806
# Velocity P-wave (km/s) = 5.21597 6.85623 6.09156
#
# Compressibility (1/GPa) = 0.03175130
#
# Stress axis : x y z
#
# Youngs Moduli (GPa) = 40.78574 123.45240 111.69447
#
# Poissons Ratio (x) = 0.33041 -0.04021
# Poissons Ratio (y) = 0.10916 0.28971
# Poissons Ratio (z) = -0.01468 0.32020
#
# Static dielectric constant tensor:
#      x y z
#    x 3.289100 0.000000 -0.023040 
#    y 0.000000 3.951930 0.000000 
#    z -0.023040 0.000000 4.245080 
# 
# 
# High freq. dielectric constant tensor:
#      x y z
#    x 1.757500 0.000000 -0.005960 
#    y 0.000000 1.810750 0.000000 
#    z -0.005960 0.000000 1.837960 
# 
# From -- ./inp_files/234912.got.cif
#   From: 2010.06.25/outbox.cif.g09.slc.cpg/sg15_118_cif.got.tgz:234912.got - 2010.06.28 07:06:18.
