data_PCOD8130823
_publ_section_title
;
Structure prediction by ZEFSAII (Michael W. Deem and Ramdas Pophale) SiO2 
 PCOD8130823
Probable space group: C 2/C
;
_chemical_formula_sum "Si O2"
_cell_formula_units_Z 56
_cell_length_a 14.091079
_cell_length_b 27.615182
_cell_length_c 9.005521
_cell_angle_alpha 90.000000
_cell_angle_beta 109.115121
_cell_angle_gamma 90.000000
_cell_volume 3311.079636
_symmetry_space_group_name_H-M "C 2/C"
_symmetry_group_IT_number 15
_symmetry_cell_setting 'monoclinic'
loop_
_space_group_symop_operation_xyz
x,y,z
-x,y,1/2-z
-x,-y,-z
x,-y,1/2+z
1/2+x,1/2+y,z
1/2-x,1/2+y,1/2-z
1/2-x,1/2-y,-z
1/2+x,1/2-y,1/2+z
loop_
_atom_site_type_symbol
_atom_site_label
_atom_site_fract_x
_atom_site_fract_y
_atom_site_fract_z
Si Si1 0.383674 0.052251 0.174827
Si Si2 0.162588 0.643378 0.536505
Si Si3 0.189562 0.711520 0.064782
Si Si4 0.477786 0.764278 0.566958
Si Si5 0.100737 0.529385 0.006032
Si Si6 0.390770 0.872648 0.167822
Si Si7 0.703901 0.293980 0.566404
O O1 0.500000 0.039309 0.250000
O O2 0.338917 0.049083 0.318698
O O3 0.376360 0.104293 0.099160
O O4 0.331937 0.010209 0.047831
O O5 0.082879 0.686745 0.495736
O O6 0.169337 0.621987 0.706484
O O7 0.271098 0.659803 0.526141
O O8 0.245275 0.700120 0.247206
O O9 0.081446 0.735594 0.032531
O O10 0.250000 0.750000 0.000000
O O11 0.177527 0.660841 0.972264
O O12 0.500000 0.758824 0.750000
O O13 0.414775 0.717040 0.478657
O O14 0.083794 0.575496 0.891518
O O15 0.000000 0.500000 0.000000
O O16 0.500000 0.847956 0.250000
O O17 0.750000 0.250000 0.500000
#
# Coordination Sequence:
#
# PCOD8130823 Si02
#       7
#     8   8   8   8   8   8   8
#     4  10  18  29  47  66 101 133 180 210 256 311
#     4  11  20  33  51  74 101 142 185 215 262 324
#     4  12  24  35  54  78 105 139 185 230 269 322
#     4  11  21  36  56  72 105 142 181 225 276 318
#     4  10  20  31  45  71 101 140 181 217 258 323
#     4  12  22  32  50  72 106 143 183 220 272 315
#     4  10  21  35  51  74  99 136 182 222 269 323
#
# _framework density 16.912911000000001
#
# number of rings (size 3 to 8) (size 9 to 14) (size 15 to 20)
#    0.000    1.143    4.286    6.857    0.000    0.000 
#    0.000    0.000    0.000    0.000    0.000    0.000 
#    0.000    1.143    0.857    0.429    0.000    0.857 
#
# Total GULP energy -346903.322373 kJ/mol
# GULP energy per Si atom -12389.404370 kJ/mol
# Density = 1.687442 g / cm^3
# Si number density = 16.912911 Si / 1000 Ang^3
#
#
#
# Elastic Constant Matrix: (Units=GPa)
#
#
# Indices 1 2 3 4 5 6 
#
# 1 81.1650 42.6960 37.2587 0.0000 -10.1058 0.0000
# 2 42.6960 88.6389 44.8780 0.0000 -14.4147 0.0000
# 3 37.2587 44.8780 109.5938 0.0000 -27.9081 0.0000
# 4 0.0000 0.0000 0.0000 35.1337 0.0000 -9.8513
# 5 -10.1058 -14.4147 -27.9081 0.0000 24.4171 0.0000
# 6 0.0000 0.0000 0.0000 -9.8513 0.0000 22.4588
#
#
#
# Elastic Compliance Matrix: (Units=1/GPa)
#
#
# Indices 1 2 3 4 5 6 
#
# 1 0.017311 -0.006784 -0.003248 0.000000 -0.000553 0.000000
# 2 -0.006784 0.016996 -0.003968 0.000000 0.002690 0.000000
# 3 -0.003248 -0.003968 0.015396 0.000000 0.013910 0.000000
# 4 0.000000 0.000000 0.000000 0.032454 0.000000 0.014236
# 5 -0.000553 0.002690 0.013910 0.000000 0.058213 0.000000
# 6 0.000000 0.000000 0.000000 0.014236 0.000000 0.050770
#
#
# Mechanical properties :
#
#
# Convention : Reuss Voigt Hill
#
# Bulk Modulus (GPa) = 46.07706 58.78479 52.43093
# Shear Modulus (GPa) = 22.08702 26.70624 24.39663
#
# Velocity S-wave (km/s) = 3.61768 3.97803 3.80213
# Velocity P-wave (km/s) = 6.68977 7.47880 7.09526
#
# Compressibility (1/GPa) = 0.02170277
#
# Stress axis : x y z
#
# Youngs Moduli (GPa) = 57.76516 58.83681 64.95128
#
# Poissons Ratio (x) = 0.39915 0.21097
# Poissons Ratio (y) = 0.39188 0.25775
# Poissons Ratio (z) = 0.18763 0.23349
#
# Static dielectric constant tensor:
#      x y z
#    x 3.713200 0.000000 -0.804810 
#    y 0.000000 3.423780 0.000000 
#    z -0.804810 0.000000 4.764970 
# 
# 
# High freq. dielectric constant tensor:
#      x y z
#    x 1.606110 0.000000 -0.037650 
#    y 0.000000 1.647070 0.000000 
#    z -0.037650 0.000000 1.670630 
# 
# From -- ./inp_files/43594.got.cif
#   From: 2010.06.25/outbox.cif.g09.slc.cpg/sg15_22_cif.got.tgz:43594.got - 2010.06.28 07:06:18.
