data_PCOD8130653
_publ_section_title
;
Structure prediction by ZEFSAII (Michael W. Deem and Ramdas Pophale) SiO2 
 PCOD8130653
Probable space group: C 2/C
;
_chemical_formula_sum "Si O2"
_cell_formula_units_Z 60
_cell_length_a 18.367468
_cell_length_b 14.805885
_cell_length_c 11.975307
_cell_angle_alpha 90.000000
_cell_angle_beta 81.067957
_cell_angle_gamma 90.000000
_cell_volume 3217.151539
_symmetry_space_group_name_H-M "C 2/C"
_symmetry_group_IT_number 15
_symmetry_cell_setting 'monoclinic'
loop_
_space_group_symop_operation_xyz
x,y,z
-x,y,1/2-z
-x,-y,-z
x,-y,1/2+z
1/2+x,1/2+y,z
1/2-x,1/2+y,1/2-z
1/2-x,1/2-y,-z
1/2+x,1/2-y,1/2+z
loop_
_atom_site_type_symbol
_atom_site_label
_atom_site_fract_x
_atom_site_fract_y
_atom_site_fract_z
Si Si1 0.952680 0.675782 0.079080
Si Si2 0.000000 0.464016 0.750000
Si Si3 0.824483 0.252580 0.760034
Si Si4 0.612604 0.931133 0.095016
Si Si5 0.249494 0.574506 0.702327
Si Si6 0.711420 0.614553 0.390163
Si Si7 0.400170 0.736730 0.980220
Si Si8 0.326198 0.086844 0.554622
O O1 0.878414 0.702818 0.158653
O O2 0.989919 0.596110 0.141888
O O3 0.010877 0.758960 0.052631
O O4 0.931917 0.647240 0.957712
O O5 0.930613 0.529572 0.787520
O O6 0.803102 0.157407 0.711432
O O7 0.753181 0.316609 0.795599
O O8 0.866444 0.236944 0.865104
O O9 0.693062 0.898715 0.116513
O O10 0.620563 0.010988 0.004520
O O11 0.296479 0.484893 0.660941
O O12 0.202850 0.550426 0.821975
O O13 0.629558 0.650324 0.442547
O O14 0.757482 0.610026 0.492523
O O15 0.374260 0.823156 0.057698
#
# Coordination Sequence:
#
# PCOD8130653 Si02
#       8
#     8   4   8   8   8   8   8   8
#     4  12  23  37  57  87 121 153 193 238 285 356
#     4  12  20  36  56  86 122 156 182 228 308 356
#     4  11  20  39  61  85 114 154 199 238 289 334
#     4  11  24  32  53  90 124 150 181 237 302 359
#     4  11  22  36  60  85 116 154 193 240 294 336
#     4  10  20  35  60  90 112 147 204 246 276 337
#     4  11  19  36  61  86 111 150 198 243 278 339
#     4  10  17  36  57  84 116 148 191 238 286 342
#
# _framework density 18.650037999999999
#
# number of rings (size 3 to 8) (size 9 to 14) (size 15 to 20)
#    0.000    1.067    5.333    4.400    1.867    0.533 
#    0.000    0.667    0.000    0.000    0.000    0.000 
#    0.000    0.000    0.000    0.000    0.000    0.000 
#
# Total GULP energy -371957.817881 kJ/mol
# GULP energy per Si atom -12398.593929 kJ/mol
# Density = 1.860759 g / cm^3
# Si number density = 18.650038 Si / 1000 Ang^3
#
#
#
# Elastic Constant Matrix: (Units=GPa)
#
#
# Indices 1 2 3 4 5 6 
#
# 1 76.2947 42.2219 31.4805 0.0000 -10.9546 0.0000
# 2 42.2219 87.3892 32.6024 0.0000 6.3438 0.0000
# 3 31.4805 32.6024 73.7788 0.0000 -8.7855 0.0000
# 4 0.0000 0.0000 0.0000 34.9567 0.0000 -7.2357
# 5 -10.9546 6.3438 -8.7855 0.0000 24.2385 0.0000
# 6 0.0000 0.0000 0.0000 -7.2357 0.0000 33.7323
#
#
#
# Elastic Compliance Matrix: (Units=1/GPa)
#
#
# Indices 1 2 3 4 5 6 
#
# 1 0.021672 -0.009966 -0.003518 0.000000 0.011128 0.000000
# 2 -0.009966 0.019187 -0.005602 0.000000 -0.011557 0.000000
# 3 -0.003518 -0.005602 0.018306 0.000000 0.006512 0.000000
# 4 0.000000 0.000000 0.000000 0.029936 0.000000 0.006421
# 5 0.011128 -0.011557 0.006512 0.000000 0.051671 0.000000
# 6 0.000000 0.000000 0.000000 0.006421 0.000000 0.031023
#
#
# Mechanical properties :
#
#
# Convention : Reuss Voigt Hill
#
# Bulk Modulus (GPa) = 47.63703 50.00803 48.82253
# Shear Modulus (GPa) = 23.04526 27.32935 25.18730
#
# Velocity S-wave (km/s) = 3.51902 3.83218 3.67893
# Velocity P-wave (km/s) = 6.48917 6.81564 6.65441
#
# Compressibility (1/GPa) = 0.02099207
#
# Stress axis : x y z
#
# Youngs Moduli (GPa) = 46.14338 52.11841 54.62615
#
# Poissons Ratio (x) = 0.51940 0.19218
# Poissons Ratio (y) = 0.45986 0.30604
# Poissons Ratio (z) = 0.16234 0.29199
#
# Static dielectric constant tensor:
#      x y z
#    x 3.371890 0.000000 -0.129260 
#    y 0.000000 3.374610 0.000000 
#    z -0.129260 0.000000 3.446470 
# 
# 
# High freq. dielectric constant tensor:
#      x y z
#    x 1.708770 0.000000 -0.012260 
#    y 0.000000 1.704180 0.000000 
#    z -0.012260 0.000000 1.728080 
# 
# From -- ./inp_files/112377.got.cif
#   From: 2010.06.25/outbox.cif.g09.slc.cpg/sg15_57_cif.got.tgz:112377.got - 2010.06.28 07:06:18.
