data_PCOD8130437
_publ_section_title
;
Structure prediction by ZEFSAII (Michael W. Deem and Ramdas Pophale) SiO2 
 PCOD8130437
Probable space group: C 2/C
;
_chemical_formula_sum "Si O2"
_cell_formula_units_Z 48
_cell_length_a 15.992825
_cell_length_b 11.925106
_cell_length_c 29.059258
_cell_angle_alpha 90.000000
_cell_angle_beta 151.208409
_cell_angle_gamma 90.000000
_cell_volume 2669.199460
_symmetry_space_group_name_H-M "C 2/C"
_symmetry_group_IT_number 15
_symmetry_cell_setting 'monoclinic'
loop_
_space_group_symop_operation_xyz
x,y,z
-x,y,1/2-z
-x,-y,-z
x,-y,1/2+z
1/2+x,1/2+y,z
1/2-x,1/2+y,1/2-z
1/2-x,1/2-y,-z
1/2+x,1/2-y,1/2+z
loop_
_atom_site_type_symbol
_atom_site_label
_atom_site_fract_x
_atom_site_fract_y
_atom_site_fract_z
Si Si1 0.478637 0.932755 0.872409
Si Si2 0.128244 0.696874 0.269403
Si Si3 0.663555 0.589055 0.728786
Si Si4 0.992522 0.118868 0.020254
Si Si5 0.458013 0.291782 0.412030
Si Si6 0.849606 0.007972 0.529990
O O1 0.432570 0.886080 0.800126
O O2 0.504256 0.835003 0.922058
O O3 0.657457 0.001826 0.957417
O O4 0.332342 0.016249 0.820688
O O5 0.320050 0.663973 0.376323
O O6 0.000000 0.681742 0.250000
O O7 0.127260 0.826100 0.252966
O O8 0.691833 0.660322 0.694620
O O9 0.494935 0.507987 0.640893
O O10 0.903507 0.202532 0.939775
O O11 0.879204 0.101413 0.011796
O O12 0.000000 0.000000 0.000000
O O13 0.628241 0.372470 0.486759
#
# Coordination Sequence:
#
# PCOD8130437 Si02
#       6
#     8   8   8   8   8   8
#     4  11  18  35  57  79 104 150 172 217 278 315
#     4  11  21  32  58  81 108 138 186 221 263 313
#     4   9  21  34  50  84 108 138 180 225 261 322
#     4  10  17  33  51  84 109 132 175 235 255 305
#     4   8  18  31  55  76 110 131 184 223 261 307
#     4   9  18  30  55  79 109 130 181 223 261 311
#
# _framework density 17.98292
#
# number of rings (size 3 to 8) (size 9 to 14) (size 15 to 20)
#    1.000    1.333    1.667    2.500    2.333    0.000 
#    0.000    1.667    0.000    0.000    0.000    0.000 
#    0.000    0.000    0.000    0.000    0.000    0.000 
#
# Total GULP energy -297350.218243 kJ/mol
# GULP energy per Si atom -12389.592427 kJ/mol
# Density = 1.794199 g / cm^3
# Si number density = 17.982920 Si / 1000 Ang^3
#
#
#
# Elastic Constant Matrix: (Units=GPa)
#
#
# Indices 1 2 3 4 5 6 
#
# 1 48.3737 32.8689 20.4570 -0.0001 -6.4772 0.0001
# 2 32.8689 33.2611 16.7035 0.0000 0.0307 0.0000
# 3 20.4570 16.7035 72.3721 -0.0013 2.1255 0.0006
# 4 -0.0001 0.0000 -0.0013 23.1600 -0.0001 0.4903
# 5 -6.4772 0.0307 2.1255 -0.0001 23.9975 0.0002
# 6 0.0001 0.0000 0.0006 0.4903 0.0002 21.0557
#
#
#
# Elastic Compliance Matrix: (Units=1/GPa)
#
#
# Indices 1 2 3 4 5 6 
#
# 1 0.072426 -0.069012 -0.005134 0.000000 0.020092 0.000000
# 2 -0.069012 0.099776 -0.002978 -0.000001 -0.018491 0.000000
# 3 -0.005134 -0.002978 0.016038 0.000001 -0.002803 0.000000
# 4 0.000000 -0.000001 0.000001 0.043199 0.000000 -0.001006
# 5 0.020092 -0.018491 -0.002803 0.000000 0.047366 0.000000
# 6 0.000000 0.000000 0.000000 -0.001006 0.000000 0.047517
#
#
# Mechanical properties :
#
#
# Convention : Reuss Voigt Hill
#
# Bulk Modulus (GPa) = 29.41906 32.67398 31.04652
# Shear Modulus (GPa) = 10.16461 19.24113 14.70287
#
# Velocity S-wave (km/s) = 2.38005 3.27458 2.86248
# Velocity P-wave (km/s) = 4.89365 5.70141 5.31290
#
# Compressibility (1/GPa) = 0.03399157
#
# Stress axis : x y z
#
# Youngs Moduli (GPa) = 13.80712 10.02242 62.35035
#
# Poissons Ratio (x) = 0.69167 0.32012
# Poissons Ratio (y) = 0.95286 0.18568
# Poissons Ratio (z) = 0.07089 0.02985
#
# Static dielectric constant tensor:
#      x y z
#    x 3.292640 0.000000 -0.241460 
#    y 0.000000 3.179720 0.000000 
#    z -0.241460 0.000000 3.264250 
# 
# 
# High freq. dielectric constant tensor:
#      x y z
#    x 1.672570 0.000000 -0.015620 
#    y 0.000000 1.672640 0.000000 
#    z -0.015620 0.000000 1.691500 
# 
# From -- ./inp_files/313643.got.cif
#   From: 2010.06.25/outbox.cif.g09.slc.cpg/sg15_157_cif.got.tgz:313643.got - 2010.06.28 07:06:18.
