data_PCOD8130958
_publ_section_title
;
Structure prediction by ZEFSAII (Michael W. Deem and Ramdas Pophale) SiO2 
 PCOD8130958
Probable space group: C 2/C
;
_chemical_formula_sum "Si O2"
_cell_formula_units_Z 56
_cell_length_a 10.761489
_cell_length_b 13.305628
_cell_length_c 23.286739
_cell_angle_alpha 90.000000
_cell_angle_beta 114.585519
_cell_angle_gamma 90.000000
_cell_volume 3032.098677
_symmetry_space_group_name_H-M "C 2/C"
_symmetry_group_IT_number 15
_symmetry_cell_setting 'monoclinic'
loop_
_space_group_symop_operation_xyz
x,y,z
-x,y,1/2-z
-x,-y,-z
x,-y,1/2+z
1/2+x,1/2+y,z
1/2-x,1/2+y,1/2-z
1/2-x,1/2-y,-z
1/2+x,1/2-y,1/2+z
loop_
_atom_site_type_symbol
_atom_site_label
_atom_site_fract_x
_atom_site_fract_y
_atom_site_fract_z
Si Si1 0.893726 0.064340 0.356055
Si Si2 0.845038 0.839505 0.348193
Si Si3 0.153758 0.844344 0.412654
Si Si4 0.871185 0.818724 0.964201
Si Si5 0.844309 0.271661 0.964229
Si Si6 0.344951 0.321867 0.736179
Si Si7 0.295628 0.449659 0.619865
O O1 0.878378 0.095731 0.418539
O O2 0.828064 0.141974 0.298375
O O3 0.054403 0.061523 0.377123
O O4 0.817631 0.957728 0.334868
O O5 0.809978 0.806310 0.406536
O O6 0.747494 0.777340 0.286926
O O7 0.002230 0.819691 0.360258
O O8 0.140577 0.875957 0.477230
O O9 0.235565 0.742092 0.423411
O O10 0.233614 0.931159 0.392060
O O11 0.998151 0.740862 0.987468
O O12 0.815218 0.385191 0.937155
O O13 0.750000 0.250000 0.000000
O O14 0.500000 0.292859 0.750000
O O15 0.293388 0.412887 0.685352
#
# Coordination Sequence:
#
# PCOD8130958 Si02
#       7
#     8   8   8   8   8   8   8
#     4  10  19  33  55  76 101 142 175 212 258 315
#     4   9  20  35  54  76 102 136 175 213 257 310
#     4   9  20  35  52  76 109 138 170 210 258 318
#     4  10  20  33  50  80 110 135 170 214 261 307
#     4  10  18  30  54  80 106 131 171 219 258 302
#     4   9  19  36  53  75 104 130 178 221 255 302
#     4   9  18  33  54  76 101 139 174 213 258 310
#
# _framework density 18.469055000000001
#
# number of rings (size 3 to 8) (size 9 to 14) (size 15 to 20)
#    0.000    2.571    1.429    0.000    2.000    3.429 
#    0.000    3.571    0.000    0.000    0.000    0.000 
#    0.000    0.000    0.000    0.000    0.000    0.000 
#
# Total GULP energy -347115.876432 kJ/mol
# GULP energy per Si atom -12396.995587 kJ/mol
# Density = 1.842702 g / cm^3
# Si number density = 18.469055 Si / 1000 Ang^3
#
#
#
# Elastic Constant Matrix: (Units=GPa)
#
#
# Indices 1 2 3 4 5 6 
#
# 1 41.3129 24.7706 13.0743 0.0000 10.4142 0.0000
# 2 24.7706 90.5779 27.8881 0.0000 18.0322 0.0000
# 3 13.0743 27.8881 53.9235 0.0000 13.6005 0.0000
# 4 0.0000 0.0000 0.0000 24.8477 0.0000 0.0293
# 5 10.4142 18.0322 13.6005 0.0000 25.1251 0.0000
# 6 0.0000 0.0000 0.0000 0.0293 0.0000 26.6358
#
#
#
# Elastic Compliance Matrix: (Units=1/GPa)
#
#
# Indices 1 2 3 4 5 6 
#
# 1 0.030423 -0.006208 -0.002443 0.000000 -0.006833 0.000000
# 2 -0.006208 0.015435 -0.005018 0.000000 -0.005789 0.000000
# 3 -0.002443 -0.005018 0.023821 0.000000 -0.008281 0.000000
# 4 0.000000 0.000000 0.000000 0.040245 0.000000 -0.000044
# 5 -0.006833 -0.005789 -0.008281 0.000000 0.051270 0.000000
# 6 0.000000 0.000000 0.000000 -0.000044 0.000000 0.037544
#
#
# Mechanical properties :
#
#
# Convention : Reuss Voigt Hill
#
# Bulk Modulus (GPa) = 23.61661 35.25336 29.43498
# Shear Modulus (GPa) = 20.81711 23.32714 22.07212
#
# Velocity S-wave (km/s) = 3.36092 3.55778 3.46075
# Velocity P-wave (km/s) = 5.27977 6.00053 5.65165
#
# Compressibility (1/GPa) = 0.04234308
#
# Stress axis : x y z
#
# Youngs Moduli (GPa) = 32.86999 64.78744 41.98044
#
# Poissons Ratio (x) = 0.40217 0.10254
# Poissons Ratio (y) = 0.20404 0.21064
# Poissons Ratio (z) = 0.08029 0.32508
#
# Static dielectric constant tensor:
#      x y z
#    x 3.347860 0.000000 0.028290 
#    y 0.000000 3.406280 0.000000 
#    z 0.028290 0.000000 3.508410 
# 
# 
# High freq. dielectric constant tensor:
#      x y z
#    x 1.702190 0.000000 0.001800 
#    y 0.000000 1.708610 0.000000 
#    z 0.001800 0.000000 1.717500 
# 
# From -- ./inp_files/236956.got.cif
#   From: 2010.06.25/outbox.cif.g09.slc.cpg/sg15_119_cif.got.tgz:236956.got - 2010.06.28 07:06:18.
