data_PCOD8130972
_publ_section_title
;
Structure prediction by ZEFSAII (Michael W. Deem and Ramdas Pophale) SiO2 
 PCOD8130972
Probable space group: C 2/C
;
_chemical_formula_sum "Si O2"
_cell_formula_units_Z 64
_cell_length_a 21.524851
_cell_length_b 15.727566
_cell_length_c 10.464479
_cell_angle_alpha 90.000000
_cell_angle_beta 106.276639
_cell_angle_gamma 90.000000
_cell_volume 3400.589126
_symmetry_space_group_name_H-M "C 2/C"
_symmetry_group_IT_number 15
_symmetry_cell_setting 'monoclinic'
loop_
_space_group_symop_operation_xyz
x,y,z
-x,y,1/2-z
-x,-y,-z
x,-y,1/2+z
1/2+x,1/2+y,z
1/2-x,1/2+y,1/2-z
1/2-x,1/2-y,-z
1/2+x,1/2-y,1/2+z
loop_
_atom_site_type_symbol
_atom_site_label
_atom_site_fract_x
_atom_site_fract_y
_atom_site_fract_z
Si Si1 0.440351 0.189322 0.431411
Si Si2 0.289411 0.958143 0.032320
Si Si3 0.654476 0.393617 0.911295
Si Si4 0.046441 0.380821 0.156576
Si Si5 0.643389 0.791015 0.368056
Si Si6 0.948343 0.950172 0.822323
Si Si7 0.639314 0.037276 0.195932
Si Si8 0.455594 0.378232 0.439555
O O1 0.508069 0.143075 0.505070
O O2 0.405468 0.205518 0.543463
O O3 0.395563 0.130005 0.315440
O O4 0.453977 0.282865 0.379016
O O5 0.304431 0.865178 0.095963
O O6 0.316623 0.026664 0.151010
O O7 0.211628 0.959567 0.979070
O O8 0.318602 0.972476 0.908594
O O9 0.680700 0.298707 0.893743
O O10 0.622906 0.421428 0.759118
O O11 0.601881 0.393633 0.992512
O O12 0.098132 0.305481 0.216834
O O13 0.083074 0.468583 0.153565
O O14 0.000000 0.396834 0.250000
O O15 0.000000 0.918573 0.750000
O O16 0.944582 0.052668 0.823449
O O17 0.972773 0.902225 0.964410
#
# Coordination Sequence:
#
# PCOD8130972 Si02
#       8
#     8   8   8   8   8   8   8   8
#     4   9  16  29  51  74 101 135 166 214 269 312
#     4  10  21  34  52  74 110 142 178 216 252 305
#     4  10  18  30  55  73  96 136 176 215 270 304
#     4   9  16  30  54  78 107 134 168 219 276 310
#     4   8  16  30  48  80  99 123 173 230 255 298
#     4   9  18  32  49  75 101 122 163 222 270 318
#     4  10  21  35  49  78 112 140 181 218 249 312
#     4   9  18  32  51  76 101 126 168 223 268 317
#
# _framework density 18.820269
#
# number of rings (size 3 to 8) (size 9 to 14) (size 15 to 20)
#    0.000    2.750    0.000    2.250    1.750    3.000 
#    0.000    1.875    0.000    2.250    0.000    0.000 
#    0.000    0.000    0.000    0.000    0.000    0.000 
#
# Total GULP energy -396462.206053 kJ/mol
# GULP energy per Si atom -12389.443939 kJ/mol
# Density = 1.877743 g / cm^3
# Si number density = 18.820269 Si / 1000 Ang^3
#
#
#
# Elastic Constant Matrix: (Units=GPa)
#
#
# Indices 1 2 3 4 5 6 
#
# 1 65.2565 20.4170 29.2071 0.0000 22.8844 0.0000
# 2 20.4170 105.2782 33.3783 0.0000 17.5831 0.0000
# 3 29.2071 33.3783 73.2841 0.0000 20.2667 0.0000
# 4 0.0000 0.0000 0.0000 25.7662 0.0000 3.6004
# 5 22.8844 17.5831 20.2667 0.0000 25.5448 0.0000
# 6 0.0000 0.0000 0.0000 3.6004 0.0000 23.0916
#
#
#
# Elastic Compliance Matrix: (Units=1/GPa)
#
#
# Indices 1 2 3 4 5 6 
#
# 1 0.023468 -0.000247 -0.004450 0.000000 -0.017324 0.000000
# 2 -0.000247 0.011553 -0.003876 0.000000 -0.004656 0.000000
# 3 -0.004450 -0.003876 0.019657 0.000000 -0.008941 0.000000
# 4 0.000000 0.000000 0.000000 0.039675 0.000000 -0.006186
# 5 -0.017324 -0.004656 -0.008941 0.000000 0.064965 0.000000
# 6 0.000000 0.000000 0.000000 -0.006186 0.000000 0.044270
#
#
# Mechanical properties :
#
#
# Convention : Reuss Voigt Hill
#
# Bulk Modulus (GPa) = 26.64358 45.53599 36.08978
# Shear Modulus (GPa) = 21.43670 25.60160 23.51915
#
# Velocity S-wave (km/s) = 3.37860 3.69225 3.53890
# Velocity P-wave (km/s) = 5.42287 6.51342 5.99300
#
# Compressibility (1/GPa) = 0.03753249
#
# Stress axis : x y z
#
# Youngs Moduli (GPa) = 42.61080 86.55749 50.87247
#
# Poissons Ratio (x) = 0.02140 0.22637
# Poissons Ratio (y) = 0.01053 0.19718
# Poissons Ratio (z) = 0.18961 0.33549
#
# Static dielectric constant tensor:
#      x y z
#    x 3.254290 0.000000 0.268840 
#    y 0.000000 3.672890 0.000000 
#    z 0.268840 0.000000 3.397780 
# 
# 
# High freq. dielectric constant tensor:
#      x y z
#    x 1.710800 0.000000 0.024260 
#    y 0.000000 1.731530 0.000000 
#    z 0.024260 0.000000 1.712130 
# 
# From -- ./inp_files/118560.got.cif
#   From: 2010.06.25/outbox.cif.g09.slc.cpg/sg15_60_cif.got.tgz:118560.got - 2010.06.28 07:06:18.
