data_PCOD8130448
_publ_section_title
;
Structure prediction by ZEFSAII (Michael W. Deem and Ramdas Pophale) SiO2 
 PCOD8130448
Probable space group: C 2/C
;
_chemical_formula_sum "Si O2"
_cell_formula_units_Z 44
_cell_length_a 11.448643
_cell_length_b 22.028274
_cell_length_c 9.136643
_cell_angle_alpha 90.000000
_cell_angle_beta 75.045686
_cell_angle_gamma 90.000000
_cell_volume 2226.166064
_symmetry_space_group_name_H-M "C 2/C"
_symmetry_group_IT_number 15
_symmetry_cell_setting 'monoclinic'
loop_
_space_group_symop_operation_xyz
x,y,z
-x,y,1/2-z
-x,-y,-z
x,-y,1/2+z
1/2+x,1/2+y,z
1/2-x,1/2+y,1/2-z
1/2-x,1/2-y,-z
1/2+x,1/2-y,1/2+z
loop_
_atom_site_type_symbol
_atom_site_label
_atom_site_fract_x
_atom_site_fract_y
_atom_site_fract_z
Si Si1 0.428138 0.188337 0.142650
Si Si2 0.522321 0.697012 0.014956
Si Si3 0.325262 0.735679 0.290075
Si Si4 0.621258 0.426710 0.438205
Si Si5 0.000000 0.013503 0.250000
Si Si6 0.378016 0.130933 0.856815
O O1 0.500000 0.153959 0.250000
O O2 0.301790 0.216905 0.235996
O O3 0.511636 0.247146 0.079570
O O4 0.407165 0.142387 0.017395
O O5 0.419374 0.694732 0.169390
O O6 0.654401 0.714129 0.046670
O O7 0.541307 0.633222 0.927818
O O8 0.352615 0.807557 0.271555
O O9 0.589327 0.474766 0.323583
O O10 0.585501 0.447202 0.614746
O O11 0.764868 0.414705 0.381847
O O12 0.500000 0.100802 0.750000
#
# Coordination Sequence:
#
# PCOD8130448 Si02
#       6
#     8   8   8   8   4   8
#     4  11  21  32  50  93 134 156 194 229 277 381
#     4  10  18  32  61  84 121 159 187 232 304 350
#     4  10  17  33  54  87 123 161 192 221 280 384
#     4  11  22  43  66  87 117 156 202 261 304 338
#     4  10  26  44  64  94 106 144 224 272 292 336
#     4  11  20  39  61  85 124 167 190 231 304 368
#
# _framework density 19.764921999999999
#
# number of rings (size 3 to 8) (size 9 to 14) (size 15 to 20)
#    0.000    1.455    7.273    2.182    1.273    0.727 
#    3.273    0.909    0.000    0.000    0.000    0.000 
#    0.000    0.000    0.000    0.000    0.000    0.000 
#
# Total GULP energy -272667.948315 kJ/mol
# GULP energy per Si atom -12393.997651 kJ/mol
# Density = 1.971994 g / cm^3
# Si number density = 19.764922 Si / 1000 Ang^3
#
#
#
# Elastic Constant Matrix: (Units=GPa)
#
#
# Indices 1 2 3 4 5 6 
#
# 1 124.3221 23.4025 56.4470 0.0000 -5.9434 0.0000
# 2 23.4025 53.3539 19.7310 0.0000 -10.5455 0.0000
# 3 56.4470 19.7310 74.6456 0.0000 -5.6913 0.0000
# 4 0.0000 0.0000 0.0000 19.3536 0.0000 -4.1860
# 5 -5.9434 -10.5455 -5.6913 0.0000 29.8714 0.0000
# 6 0.0000 0.0000 0.0000 -4.1860 0.0000 24.5938
#
#
#
# Elastic Compliance Matrix: (Units=1/GPa)
#
#
# Indices 1 2 3 4 5 6 
#
# 1 0.012478 -0.002195 -0.008854 0.000000 0.000021 0.000000
# 2 -0.002195 0.022431 -0.003754 0.000000 0.006767 0.000000
# 3 -0.008854 -0.003754 0.021156 0.000000 0.000944 0.000000
# 4 0.000000 0.000000 0.000000 0.053645 0.000000 0.009131
# 5 0.000021 0.006767 0.000944 0.000000 0.036050 0.000000
# 6 0.000000 0.000000 0.000000 0.009131 0.000000 0.042215
#
#
# Mechanical properties :
#
#
# Convention : Reuss Voigt Hill
#
# Bulk Modulus (GPa) = 37.79220 50.16474 43.97847
# Shear Modulus (GPa) = 22.08486 24.94649 23.51568
#
# Velocity S-wave (km/s) = 3.34634 3.55654 3.45304
# Velocity P-wave (km/s) = 5.83893 6.50393 6.18038
#
# Compressibility (1/GPa) = 0.02646048
#
# Stress axis : x y z
#
# Youngs Moduli (GPa) = 80.14219 44.58102 47.26739
#
# Poissons Ratio (x) = 0.09784 0.41851
# Poissons Ratio (y) = 0.17588 0.17743
# Poissons Ratio (z) = 0.70958 0.16734
#
# Static dielectric constant tensor:
#      x y z
#    x 3.565790 0.000000 -0.169980 
#    y 0.000000 3.300680 0.000000 
#    z -0.169980 0.000000 3.592440 
# 
# 
# High freq. dielectric constant tensor:
#      x y z
#    x 1.768770 0.000000 -0.016440 
#    y 0.000000 1.731000 0.000000 
#    z -0.016440 0.000000 1.772840 
# 
# From -- ./inp_files/30685.got.cif
#   From: 2010.06.25/outbox.cif.g09.slc.cpg/sg15_16_cif.got.tgz:30685.got - 2010.06.28 07:06:18.
