data_PCOD8130767
_publ_section_title
;
Structure prediction by ZEFSAII (Michael W. Deem and Ramdas Pophale) SiO2 
 PCOD8130767
Probable space group: C 2/C
;
_chemical_formula_sum "Si O2"
_cell_formula_units_Z 64
_cell_length_a 30.674319
_cell_length_b 4.967997
_cell_length_c 22.723997
_cell_angle_alpha 90.000000
_cell_angle_beta 91.323814
_cell_angle_gamma 90.000000
_cell_volume 3461.983920
_symmetry_space_group_name_H-M "C 2/C"
_symmetry_group_IT_number 15
_symmetry_cell_setting 'monoclinic'
loop_
_space_group_symop_operation_xyz
x,y,z
-x,y,1/2-z
-x,-y,-z
x,-y,1/2+z
1/2+x,1/2+y,z
1/2-x,1/2+y,1/2-z
1/2-x,1/2-y,-z
1/2+x,1/2-y,1/2+z
loop_
_atom_site_type_symbol
_atom_site_label
_atom_site_fract_x
_atom_site_fract_y
_atom_site_fract_z
Si Si1 0.357443 0.193597 0.448361
Si Si2 0.546332 0.280843 0.085494
Si Si3 0.983982 0.698744 0.185509
Si Si4 0.997923 0.740698 0.956794
Si Si5 0.792433 0.209313 0.575931
Si Si6 0.562186 0.715398 0.360419
Si Si7 0.347220 0.199964 0.585341
Si Si8 0.302441 0.704349 0.439508
O O1 0.402358 0.247756 0.416239
O O2 0.365127 0.197158 0.518898
O O3 0.320969 0.409331 0.428935
O O4 0.339586 0.914946 0.421669
O O5 0.525969 0.156503 0.144301
O O6 0.537214 0.603642 0.086614
O O7 0.524115 0.073031 0.032094
O O8 0.956455 0.422709 0.188717
O O9 0.000000 0.785710 0.250000
O O10 0.950959 0.916080 0.157757
O O11 0.042833 0.700122 0.923368
O O12 0.000000 0.000000 0.000000
O O13 0.826685 0.417915 0.605329
O O14 0.742943 0.255201 0.597573
O O15 0.792784 0.267219 0.506866
O O16 0.808113 0.911690 0.591703
O O17 0.614147 0.730051 0.368406
#
# Coordination Sequence:
#
# PCOD8130767 Si02
#       8
#     8   8   8   8   8   8   8   8
#     4  10  18  28  44  66  96 125 154 188 219 263
#     4  10  20  31  46  68  90 121 158 190 227 273
#     4  10  21  37  52  66  91 121 154 201 243 276
#     4  10  19  30  44  64  96 126 149 179 223 278
#     4   9  17  28  42  62  93 130 158 181 216 260
#     4  10  20  32  49  71  91 120 158 191 232 281
#     4  10  18  28  44  67  96 123 152 189 221 265
#     4   9  17  28  42  62  92 131 160 180 214 261
#
# _framework density 18.486509999999999
#
# number of rings (size 3 to 8) (size 9 to 14) (size 15 to 20)
#    0.000    2.250    0.000    3.750    0.000    7.000 
#    0.000    0.000    0.000    0.000    0.000    0.000 
#    0.000   20.000    0.000    0.000    0.000    0.000 
#
# Total GULP energy -396551.060839 kJ/mol
# GULP energy per Si atom -12392.220651 kJ/mol
# Density = 1.844443 g / cm^3
# Si number density = 18.486510 Si / 1000 Ang^3
#
#
#
# Elastic Constant Matrix: (Units=GPa)
#
#
# Indices 1 2 3 4 5 6 
#
# 1 103.0736 10.5112 18.6935 0.0000 6.2765 0.0000
# 2 10.5112 85.1266 10.3227 0.0000 -1.7514 0.0000
# 3 18.6935 10.3227 45.1042 0.0000 5.6203 0.0000
# 4 0.0000 0.0000 0.0000 15.7681 0.0000 3.1196
# 5 6.2765 -1.7514 5.6203 0.0000 10.7593 0.0000
# 6 0.0000 0.0000 0.0000 3.1196 0.0000 24.4647
#
#
#
# Elastic Compliance Matrix: (Units=1/GPa)
#
#
# Indices 1 2 3 4 5 6 
#
# 1 0.010741 -0.000974 -0.003667 0.000000 -0.004509 0.000000
# 2 -0.000974 0.012306 -0.002923 0.000000 0.004099 0.000000
# 3 -0.003667 -0.002923 0.025834 0.000000 -0.011831 0.000000
# 4 0.000000 0.000000 0.000000 0.065060 0.000000 -0.008296
# 5 -0.004509 0.004099 -0.011831 0.000000 0.102420 0.000000
# 6 0.000000 0.000000 0.000000 -0.008296 0.000000 0.041933
#
#
# Mechanical properties :
#
#
# Convention : Reuss Voigt Hill
#
# Bulk Modulus (GPa) = 29.62777 34.70658 32.16717
# Shear Modulus (GPa) = 17.56393 23.11689 20.34041
#
# Velocity S-wave (km/s) = 3.08570 3.54004 3.32065
# Velocity P-wave (km/s) = 5.36255 5.96020 5.66925
#
# Compressibility (1/GPa) = 0.03375212
#
# Stress axis : x y z
#
# Youngs Moduli (GPa) = 93.10354 81.25887 38.70890
#
# Poissons Ratio (x) = 0.07918 0.14193
# Poissons Ratio (y) = 0.09072 0.11316
# Poissons Ratio (z) = 0.34138 0.23755
#
# Static dielectric constant tensor:
#      x y z
#    x 3.407970 0.000000 0.067560 
#    y 0.000000 2.267130 0.000000 
#    z 0.067560 0.000000 2.782050 
# 
# 
# High freq. dielectric constant tensor:
#      x y z
#    x 1.720300 0.000000 0.012240 
#    y 0.000000 1.748970 0.000000 
#    z 0.012240 0.000000 1.640690 
# 
# From -- ./inp_files/282879.got.cif
#   From: 2010.06.25/outbox.cif.g09.slc.cpg/sg15_142_cif.got.tgz:282879.got - 2010.06.28 07:06:18.
