data_PCOD8130623
_publ_section_title
;
Structure prediction by ZEFSAII (Michael W. Deem and Ramdas Pophale) SiO2 
 PCOD8130623
Probable space group: C 2/C
;
_chemical_formula_sum "Si O2"
_cell_formula_units_Z 60
_cell_length_a 12.415380
_cell_length_b 16.369995
_cell_length_c 15.744154
_cell_angle_alpha 90.000000
_cell_angle_beta 102.350253
_cell_angle_gamma 90.000000
_cell_volume 3125.787768
_symmetry_space_group_name_H-M "C 2/C"
_symmetry_group_IT_number 15
_symmetry_cell_setting 'monoclinic'
loop_
_space_group_symop_operation_xyz
x,y,z
-x,y,1/2-z
-x,-y,-z
x,-y,1/2+z
1/2+x,1/2+y,z
1/2-x,1/2+y,1/2-z
1/2-x,1/2-y,-z
1/2+x,1/2-y,1/2+z
loop_
_atom_site_type_symbol
_atom_site_label
_atom_site_fract_x
_atom_site_fract_y
_atom_site_fract_z
Si Si1 0.500000 0.208310 0.750000
Si Si2 0.735348 0.285916 0.768538
Si Si3 0.618530 0.526237 0.545049
Si Si4 0.431524 0.661175 0.821746
Si Si5 0.274413 0.644558 0.411239
Si Si6 0.579454 0.768461 0.965785
Si Si7 0.085654 0.692039 0.934447
Si Si8 0.701974 0.648315 0.439150
O O1 0.607255 0.260705 0.742886
O O2 0.535671 0.154576 0.838341
O O3 0.818635 0.209064 0.780285
O O4 0.758542 0.340403 0.691187
O O5 0.756084 0.343329 0.854984
O O6 0.500000 0.500000 0.500000
O O7 0.608453 0.588127 0.623333
O O8 0.697314 0.450718 0.579733
O O9 0.659768 0.560548 0.460661
O O10 0.500000 0.629078 0.750000
O O11 0.517405 0.722553 0.879935
O O12 0.373284 0.701507 0.460759
O O13 0.168786 0.666928 0.449547
O O14 0.494979 0.827059 0.001703
O O15 0.097828 0.790511 0.927783
O O16 0.208779 0.662326 0.970954
#
# Coordination Sequence:
#
# PCOD8130623 Si02
#       8
#     4   8   8   8   8   8   8   8
#     4  10  20  30  56  92 124 144 210 274 300 348
#     4  11  22  37  64  94 122 170 224 265 309 396
#     4  12  24  41  61  93 135 166 202 277 340 380
#     4  12  23  41  69  97 127 169 219 266 328 393
#     4  11  24  39  61  94 132 163 214 268 321 384
#     4  11  20  41  64  87 122 172 211 257 316 391
#     4  10  17  35  61  90 115 163 215 256 302 389
#     4  10  20  35  61  86 124 163 206 260 329 382
#
# _framework density 19.195160999999999
#
# number of rings (size 3 to 8) (size 9 to 14) (size 15 to 20)
#    0.000    1.067    6.667    1.600    1.867    1.067 
#    0.000    0.667    0.000    3.200    0.000    0.000 
#    0.000    0.000    0.000    0.000    0.000    0.000 
#
# Total GULP energy -371677.551689 kJ/mol
# GULP energy per Si atom -12389.251723 kJ/mol
# Density = 1.915147 g / cm^3
# Si number density = 19.195161 Si / 1000 Ang^3
#
#
#
# Elastic Constant Matrix: (Units=GPa)
#
#
# Indices 1 2 3 4 5 6 
#
# 1 100.2574 40.1416 39.8665 0.0000 -2.5376 0.0000
# 2 40.1416 89.9568 29.7289 0.0000 -4.5642 0.0000
# 3 39.8665 29.7289 119.3803 0.0000 -3.5312 0.0000
# 4 0.0000 0.0000 0.0000 28.3579 0.0000 -2.4750
# 5 -2.5376 -4.5642 -3.5312 0.0000 40.9667 0.0000
# 6 0.0000 0.0000 0.0000 -2.4750 0.0000 24.5411
#
#
#
# Elastic Compliance Matrix: (Units=1/GPa)
#
#
# Indices 1 2 3 4 5 6 
#
# 1 0.013178 -0.004823 -0.003200 0.000000 0.000003 0.000000
# 2 -0.004823 0.013927 -0.001825 0.000000 0.001096 0.000000
# 3 -0.003200 -0.001825 0.009913 0.000000 0.000453 0.000000
# 4 0.000000 0.000000 0.000000 0.035577 0.000000 0.003588
# 5 0.000003 0.001096 0.000453 0.000000 0.024571 0.000000
# 6 0.000000 0.000000 0.000000 0.003588 0.000000 0.041110
#
#
# Mechanical properties :
#
#
# Convention : Reuss Voigt Hill
#
# Bulk Modulus (GPa) = 57.72750 58.78540 58.25645
# Shear Modulus (GPa) = 30.53519 32.09695 31.31607
#
# Velocity S-wave (km/s) = 3.99278 4.09361 4.04351
# Velocity P-wave (km/s) = 7.16908 7.28252 7.22602
#
# Compressibility (1/GPa) = 0.01732277
#
# Stress axis : x y z
#
# Youngs Moduli (GPa) = 75.88617 71.80123 100.87753
#
# Poissons Ratio (x) = 0.34628 0.32276
# Poissons Ratio (y) = 0.36598 0.18413
# Poissons Ratio (z) = 0.24280 0.13106
#
# Static dielectric constant tensor:
#      x y z
#    x 3.570350 0.000000 -0.093740 
#    y 0.000000 2.286080 0.000000 
#    z -0.093740 0.000000 4.045170 
# 
# 
# High freq. dielectric constant tensor:
#      x y z
#    x 1.768310 0.000000 -0.001010 
#    y 0.000000 1.693760 0.000000 
#    z -0.001010 0.000000 1.766530 
# 
# From -- ./inp_files/145707.got.cif
#   From: 2010.06.25/outbox.cif.g09.slc.cpg/sg15_73_cif.got.tgz:145707.got - 2010.06.28 07:06:18.
