data_PCOD8130234
_publ_section_title
;
Structure prediction by ZEFSAII (Michael W. Deem and Ramdas Pophale) SiO2 
 PCOD8130234
Probable space group: C 2/C
;
_chemical_formula_sum "Si O2"
_cell_formula_units_Z 56
_cell_length_a 18.665908
_cell_length_b 22.167093
_cell_length_c 8.740481
_cell_angle_alpha 90.000000
_cell_angle_beta 45.970036
_cell_angle_gamma 90.000000
_cell_volume 2600.206516
_symmetry_space_group_name_H-M "C 2/C"
_symmetry_group_IT_number 15
_symmetry_cell_setting 'monoclinic'
loop_
_space_group_symop_operation_xyz
x,y,z
-x,y,1/2-z
-x,-y,-z
x,-y,1/2+z
1/2+x,1/2+y,z
1/2-x,1/2+y,1/2-z
1/2-x,1/2-y,-z
1/2+x,1/2-y,1/2+z
loop_
_atom_site_type_symbol
_atom_site_label
_atom_site_fract_x
_atom_site_fract_y
_atom_site_fract_z
Si Si1 0.130324 0.784037 0.458331
Si Si2 0.351551 0.809477 0.134162
Si Si3 0.110549 0.346333 0.081572
Si Si4 0.798988 0.081542 0.252584
Si Si5 0.566329 0.689030 0.389488
Si Si6 0.766888 0.497719 0.391786
Si Si7 0.109238 0.434928 0.544718
O O1 0.240463 0.797191 0.236209
O O2 0.102674 0.713356 0.488536
O O3 0.122975 0.804050 0.644963
O O4 0.051802 0.818730 0.465132
O O5 0.347043 0.830642 0.315647
O O6 0.413580 0.746998 0.031264
O O7 0.396343 0.862068 0.961762
O O8 0.000000 0.375991 0.250000
O O9 0.187980 0.391529 0.888186
O O10 0.887893 0.129512 0.100139
O O11 0.811113 0.031428 0.103281
O O12 0.800244 0.051062 0.418182
O O13 0.815117 0.545772 0.435341
O O14 0.854280 0.463458 0.169514
O O15 0.000000 0.459071 0.750000
#
# Coordination Sequence:
#
# PCOD8130234 Si02
#       7
#     8   8   8   8   8   8   8
#     4  10  17  30  56  95 120 148 201 240 301 356
#     4  11  19  35  57  91 121 153 193 254 303 358
#     4  11  18  29  57  92 123 149 191 244 296 363
#     4  11  21  39  61  88 124 155 206 249 300 352
#     4  10  18  32  61  89 120 157 195 249 302 359
#     4  10  24  39  59  85 118 167 205 248 291 350
#     4  11  23  39  59  85 123 160 202 244 298 363
#
# _framework density 21.536750999999999
#
# number of rings (size 3 to 8) (size 9 to 14) (size 15 to 20)
#    0.000    1.429    7.143    1.286    2.000    2.286 
#    0.000    0.714    0.000   15.429    0.000    0.000 
#    0.000    0.000    0.000    0.000    0.000    0.000 
#
# Total GULP energy -347190.283944 kJ/mol
# GULP energy per Si atom -12399.652998 kJ/mol
# Density = 2.148773 g / cm^3
# Si number density = 21.536751 Si / 1000 Ang^3
#
#
#
# Elastic Constant Matrix: (Units=GPa)
#
#
# Indices 1 2 3 4 5 6 
#
# 1 95.1380 41.6125 31.1479 0.0000 -16.1865 0.0000
# 2 41.6125 117.8604 21.8907 0.0000 9.2515 0.0000
# 3 31.1479 21.8907 35.2827 0.0000 5.1008 0.0000
# 4 0.0000 0.0000 0.0000 17.3464 0.0000 2.3468
# 5 -16.1865 9.2515 5.1008 0.0000 27.9772 0.0000
# 6 0.0000 0.0000 0.0000 2.3468 0.0000 28.4332
#
#
#
# Elastic Compliance Matrix: (Units=1/GPa)
#
#
# Indices 1 2 3 4 5 6 
#
# 1 0.022277 -0.005825 -0.018687 0.000000 0.018222 0.000000
# 2 -0.005825 0.011239 -0.000829 0.000000 -0.006936 0.000000
# 3 -0.018687 -0.000829 0.048146 0.000000 -0.019315 0.000000
# 4 0.000000 0.000000 0.000000 0.058300 0.000000 -0.004812
# 5 0.018222 -0.006936 -0.019315 0.000000 0.052101 0.000000
# 6 0.000000 0.000000 0.000000 -0.004812 0.000000 0.035567
#
#
# Mechanical properties :
#
#
# Convention : Reuss Voigt Hill
#
# Bulk Modulus (GPa) = 32.27664 48.62039 40.44852
# Shear Modulus (GPa) = 17.32280 24.99336 21.15808
#
# Velocity S-wave (km/s) = 2.83916 3.41030 3.13775
# Velocity P-wave (km/s) = 5.07613 6.17507 5.65237
#
# Compressibility (1/GPa) = 0.03098216
#
# Stress axis : x y z
#
# Youngs Moduli (GPa) = 44.88968 88.97238 20.77029
#
# Poissons Ratio (x) = 0.51824 0.38813
# Poissons Ratio (y) = 0.26147 0.01721
# Poissons Ratio (z) = 0.83884 0.07372
#
# Static dielectric constant tensor:
#      x y z
#    x 3.698950 0.000000 -0.016630 
#    y 0.000000 4.037290 0.000000 
#    z -0.016630 0.000000 3.456050 
# 
# 
# High freq. dielectric constant tensor:
#      x y z
#    x 1.839360 0.000000 -0.004930 
#    y 0.000000 1.848320 0.000000 
#    z -0.004930 0.000000 1.804300 
# 
# From -- ./inp_files/51457.got.cif
#   From: 2010.06.25/outbox.cif.g09.slc.cpg/sg15_26_cif.got.tgz:51457.got - 2010.06.28 07:06:18.
