data_PCOD8130968
_publ_section_title
;
Structure prediction by ZEFSAII (Michael W. Deem and Ramdas Pophale) SiO2 
 PCOD8130968
Probable space group: C 2/C
;
_chemical_formula_sum "Si O2"
_cell_formula_units_Z 60
_cell_length_a 31.970126
_cell_length_b 17.902008
_cell_length_c 12.256370
_cell_angle_alpha 90.000000
_cell_angle_beta 152.163469
_cell_angle_gamma 90.000000
_cell_volume 3275.509338
_symmetry_space_group_name_H-M "C 2/C"
_symmetry_group_IT_number 15
_symmetry_cell_setting 'monoclinic'
loop_
_space_group_symop_operation_xyz
x,y,z
-x,y,1/2-z
-x,-y,-z
x,-y,1/2+z
1/2+x,1/2+y,z
1/2-x,1/2+y,1/2-z
1/2-x,1/2-y,-z
1/2+x,1/2-y,1/2+z
loop_
_atom_site_type_symbol
_atom_site_label
_atom_site_fract_x
_atom_site_fract_y
_atom_site_fract_z
Si Si1 0.677535 0.957013 0.437214
Si Si2 0.057136 0.340628 0.273552
Si Si3 0.795324 0.398747 0.382802
Si Si4 0.000000 0.807645 0.250000
Si Si5 0.924263 0.551330 0.002708
Si Si6 0.191481 0.780443 0.029977
Si Si7 0.824407 0.166692 0.241205
Si Si8 0.464807 0.816753 0.838900
O O1 0.611607 0.917001 0.372195
O O2 0.612211 0.989443 0.190130
O O3 0.752027 0.899473 0.566419
O O4 0.730199 0.028213 0.605856
O O5 0.128152 0.274090 0.452930
O O6 0.000000 0.353853 0.250000
O O7 0.992309 0.312680 0.028132
O O8 0.836616 0.430270 0.367586
O O9 0.709202 0.350015 0.151830
O O10 0.864003 0.347087 0.607051
O O11 0.085675 0.857505 0.485361
O O12 0.028919 0.761149 0.209835
O O13 0.000000 0.506633 0.250000
O O14 0.968138 0.629075 0.069614
O O15 0.283667 0.738413 0.210092
O O16 0.146715 0.808957 0.814156
#
# Coordination Sequence:
#
# PCOD8130968 Si02
#       8
#     8   8   8   4   8   8   8   8
#     4  10  22  34  52  84 115 152 181 225 279 339
#     4  10  22  37  52  80 118 152 185 217 282 341
#     4  11  19  32  55  81 116 143 181 225 282 335
#     4  12  16  32  62  90 104 126 196 258 270 308
#     4   9  17  30  51  78 112 140 181 218 271 332
#     4  10  18  34  60  79 107 150 183 237 272 331
#     4  10  19  33  60  86 105 136 197 240 279 313
#     4  10  18  30  54  88 107 140 182 230 276 323
#
# _framework density 18.317761000000001
#
# number of rings (size 3 to 8) (size 9 to 14) (size 15 to 20)
#    0.000    1.867    6.000    0.000    0.000    7.467 
#    0.000    0.667    4.400    0.800    0.000    0.000 
#    0.000    0.000    0.000    0.000    0.000    0.000 
#
# Total GULP energy -371781.945961 kJ/mol
# GULP energy per Si atom -12392.731532 kJ/mol
# Density = 1.827607 g / cm^3
# Si number density = 18.317761 Si / 1000 Ang^3
#
#
#
# Elastic Constant Matrix: (Units=GPa)
#
#
# Indices 1 2 3 4 5 6 
#
# 1 61.8204 20.9475 29.1167 0.0000 -10.3600 0.0000
# 2 20.9475 65.5864 35.7487 0.0000 -12.0285 0.0000
# 3 29.1167 35.7487 105.4986 0.0000 -17.8832 0.0000
# 4 0.0000 0.0000 0.0000 14.8304 0.0000 2.9996
# 5 -10.3600 -12.0285 -17.8832 0.0000 23.8944 0.0000
# 6 0.0000 0.0000 0.0000 2.9996 0.0000 5.2673
#
#
#
# Elastic Compliance Matrix: (Units=1/GPa)
#
#
# Indices 1 2 3 4 5 6 
#
# 1 0.019755 -0.003637 -0.003526 0.000000 0.004096 0.000000
# 2 -0.003637 0.019987 -0.004960 0.000000 0.004773 0.000000
# 3 -0.003526 -0.004960 0.013114 0.000000 0.005789 0.000000
# 4 0.000000 0.000000 0.000000 0.076206 0.000000 -0.043397
# 5 0.004096 0.004773 0.005789 0.000000 0.050362 0.000000
# 6 0.000000 0.000000 0.000000 -0.043397 0.000000 0.214563
#
#
# Mechanical properties :
#
#
# Convention : Reuss Voigt Hill
#
# Bulk Modulus (GPa) = 34.95080 44.94792 39.94936
# Shear Modulus (GPa) = 11.68851 18.60461 15.14656
#
# Velocity S-wave (km/s) = 2.52880 3.19040 2.87867
# Velocity P-wave (km/s) = 5.25815 6.17760 5.73632
#
# Compressibility (1/GPa) = 0.02861165
#
# Stress axis : x y z
#
# Youngs Moduli (GPa) = 50.61988 50.03143 76.25462
#
# Poissons Ratio (x) = 0.18195 0.26885
# Poissons Ratio (y) = 0.18409 0.37823
# Poissons Ratio (z) = 0.17847 0.24816
#
# Static dielectric constant tensor:
#      x y z
#    x 3.256800 0.000000 -0.392030 
#    y 0.000000 3.139730 0.000000 
#    z -0.392030 0.000000 3.671550 
# 
# 
# High freq. dielectric constant tensor:
#      x y z
#    x 1.685810 0.000000 -0.022450 
#    y 0.000000 1.679430 0.000000 
#    z -0.022450 0.000000 1.711550 
# 
# From -- ./inp_files/127232.got.cif
#   From: 2010.06.25/outbox.cif.g09.slc.cpg/sg15_64_cif.got.tgz:127232.got - 2010.06.28 07:06:18.
