data_PCOD8130459
_publ_section_title
;
Structure prediction by ZEFSAII (Michael W. Deem and Ramdas Pophale) SiO2 
 PCOD8130459
Probable space group: C 2/C
;
_chemical_formula_sum "Si O2"
_cell_formula_units_Z 60
_cell_length_a 10.641975
_cell_length_b 20.396005
_cell_length_c 14.116190
_cell_angle_alpha 90.000000
_cell_angle_beta 88.118645
_cell_angle_gamma 90.000000
_cell_volume 3062.320705
_symmetry_space_group_name_H-M "C 2/C"
_symmetry_group_IT_number 15
_symmetry_cell_setting 'monoclinic'
loop_
_space_group_symop_operation_xyz
x,y,z
-x,y,1/2-z
-x,-y,-z
x,-y,1/2+z
1/2+x,1/2+y,z
1/2-x,1/2+y,1/2-z
1/2-x,1/2-y,-z
1/2+x,1/2-y,1/2+z
loop_
_atom_site_type_symbol
_atom_site_label
_atom_site_fract_x
_atom_site_fract_y
_atom_site_fract_z
Si Si1 0.604080 0.049146 0.874838
Si Si2 0.500000 0.663142 0.250000
Si Si3 0.869348 0.596784 0.118594
Si Si4 0.181005 0.543738 0.661483
Si Si5 0.452340 0.257335 0.941484
Si Si6 0.117147 0.348155 0.525952
Si Si7 0.751607 0.898287 0.687262
Si Si8 0.234521 0.841625 0.457781
O O1 0.654991 0.064246 0.769445
O O2 0.452573 0.047562 0.888855
O O3 0.655981 0.979061 0.906475
O O4 0.660411 0.106332 0.938108
O O5 0.512329 0.707761 0.156738
O O6 0.616760 0.615137 0.264783
O O7 0.856317 0.609786 0.230794
O O8 0.008636 0.616165 0.087226
O O9 0.767474 0.638313 0.064243
O O10 0.245529 0.472783 0.648464
O O11 0.275997 0.596479 0.612113
O O12 0.344330 0.205438 0.915678
O O13 0.574466 0.222236 0.985719
O O14 0.399449 0.305352 0.025988
O O15 0.230026 0.346418 0.600861
#
# Coordination Sequence:
#
# PCOD8130459 Si02
#       8
#     8   4   8   8   8   8   8   8
#     4  10  18  29  56  99 122 141 188 263 309 329
#     4  12  26  44  58  80 124 166 206 228 292 368
#     4  10  17  33  56  87 122 146 190 247 302 346
#     4  10  19  33  61  90 124 149 194 249 305 340
#     4  10  23  37  61  82 119 163 199 234 291 360
#     4  11  20  34  60  92 118 147 199 247 304 339
#     4  11  23  38  60  87 116 159 195 254 295 354
#     4  10  19  37  60  88 116 159 199 233 294 361
#
# _framework density 19.592984999999999
#
# number of rings (size 3 to 8) (size 9 to 14) (size 15 to 20)
#    0.000    1.600    5.333    1.600    1.867    0.533 
#    0.000    0.667    0.000    0.000    0.000    0.000 
#    0.000    0.000    0.000    0.000    0.000    0.000 
#
# Total GULP energy -371919.056553 kJ/mol
# GULP energy per Si atom -12397.301885 kJ/mol
# Density = 1.954839 g / cm^3
# Si number density = 19.592985 Si / 1000 Ang^3
#
#
#
# Elastic Constant Matrix: (Units=GPa)
#
#
# Indices 1 2 3 4 5 6 
#
# 1 47.4550 26.1587 29.5043 0.0000 7.5858 0.0000
# 2 26.1587 95.8249 46.8272 0.0000 -3.0174 0.0000
# 3 29.5043 46.8272 86.0669 0.0000 1.0738 0.0000
# 4 0.0000 0.0000 0.0000 38.7411 0.0000 -3.9123
# 5 7.5858 -3.0174 1.0738 0.0000 24.4960 0.0000
# 6 0.0000 0.0000 0.0000 -3.9123 0.0000 21.0574
#
#
#
# Elastic Compliance Matrix: (Units=1/GPa)
#
#
# Indices 1 2 3 4 5 6 
#
# 1 0.029916 -0.004785 -0.007533 0.000000 -0.009524 0.000000
# 2 -0.004785 0.015089 -0.006614 0.000000 0.003630 0.000000
# 3 -0.007533 -0.006614 0.017791 0.000000 0.000738 0.000000
# 4 0.000000 0.000000 0.000000 0.026306 0.000000 0.004887
# 5 -0.009524 0.003630 0.000738 0.000000 0.044187 0.000000
# 6 0.000000 0.000000 0.000000 0.004887 0.000000 0.048397
#
#
# Mechanical properties :
#
#
# Convention : Reuss Voigt Hill
#
# Bulk Modulus (GPa) = 40.11186 48.25860 44.18523
# Shear Modulus (GPa) = 21.94318 25.31600 23.62959
#
# Velocity S-wave (km/s) = 3.35020 3.59847 3.47655
# Velocity P-wave (km/s) = 5.95669 6.47683 6.22220
#
# Compressibility (1/GPa) = 0.02493028
#
# Stress axis : x y z
#
# Youngs Moduli (GPa) = 33.42655 66.27550 56.20916
#
# Poissons Ratio (x) = 0.31715 0.42343
# Poissons Ratio (y) = 0.15996 0.37178
# Poissons Ratio (z) = 0.25181 0.43836
#
# Static dielectric constant tensor:
#      x y z
#    x 3.268860 0.000000 0.005560 
#    y 0.000000 3.632100 0.000000 
#    z 0.005560 0.000000 3.682630 
# 
# 
# High freq. dielectric constant tensor:
#      x y z
#    x 1.719690 0.000000 -0.009540 
#    y 0.000000 1.762780 0.000000 
#    z -0.009540 0.000000 1.777260 
# 
# From -- ./inp_files/145654.got.cif
#   From: 2010.06.25/outbox.cif.g09.slc.cpg/sg15_73_cif.got.tgz:145654.got - 2010.06.28 07:06:18.
