data_PCOD8130094
_publ_section_title
;
Structure prediction by ZEFSAII (Michael W. Deem and Ramdas Pophale) SiO2 
 PCOD8130094
Probable space group: C 2/C
;
_chemical_formula_sum "Si O2"
_cell_formula_units_Z 52
_cell_length_a 23.554189
_cell_length_b 27.343718
_cell_length_c 5.347366
_cell_angle_alpha 90.000000
_cell_angle_beta 128.742435
_cell_angle_gamma 90.000000
_cell_volume 2686.222158
_symmetry_space_group_name_H-M "C 2/C"
_symmetry_group_IT_number 15
_symmetry_cell_setting 'monoclinic'
loop_
_space_group_symop_operation_xyz
x,y,z
-x,y,1/2-z
-x,-y,-z
x,-y,1/2+z
1/2+x,1/2+y,z
1/2-x,1/2+y,1/2-z
1/2-x,1/2-y,-z
1/2+x,1/2-y,1/2+z
loop_
_atom_site_type_symbol
_atom_site_label
_atom_site_fract_x
_atom_site_fract_y
_atom_site_fract_z
Si Si1 0.712286 0.860204 0.647650
Si Si2 0.379923 0.681985 0.088668
Si Si3 0.913694 0.971029 0.285157
Si Si4 0.256134 0.971098 0.704474
Si Si5 0.211893 0.320710 0.145693
Si Si6 0.159221 0.785389 0.518324
Si Si7 0.500000 0.610546 0.250000
O O1 0.708602 0.918272 0.665497
O O2 0.672657 0.845684 0.277426
O O3 0.671746 0.838370 0.781388
O O4 0.791790 0.834535 0.849505
O O5 0.392028 0.713189 0.376636
O O6 0.440391 0.640080 0.245502
O O7 0.296483 0.661774 0.863066
O O8 0.390283 0.715334 0.867986
O O9 0.956735 0.920201 0.421098
O O10 0.936642 0.001222 0.596693
O O11 0.828922 0.960806 0.040455
O O12 0.280115 0.995971 0.508653
O O13 0.210732 0.262122 0.165626
#
# Coordination Sequence:
#
# PCOD8130094 Si02
#       7
#     8   8   8   8   8   8   4
#     4  10  17  28  48  70  88 112 145 194 250 282
#     4  10  21  31  47  66  90 117 140 188 247 290
#     4  10  22  36  49  60  81 122 170 215 248 273
#     4  10  20  33  46  64  91 125 164 203 243 285
#     4  10  18  32  52  72  88 109 149 204 247 286
#     4  10  19  34  51  70  89 111 149 203 247 287
#     4  12  24  36  48  68  94 122 164 204 252 302
#
# _framework density 19.358042000000001
#
# number of rings (size 3 to 8) (size 9 to 14) (size 15 to 20)
#    0.000    1.846    0.000    7.846    0.000    9.231 
#    0.000    0.000    0.000    0.000    0.000    0.000 
#    0.000    0.000    0.000    0.000    0.000    0.000 
#
# Total GULP energy -322097.861036 kJ/mol
# GULP energy per Si atom -12388.379271 kJ/mol
# Density = 1.931398 g / cm^3
# Si number density = 19.358042 Si / 1000 Ang^3
#
#
#
# Elastic Constant Matrix: (Units=GPa)
#
#
# Indices 1 2 3 4 5 6 
#
# 1 87.3009 45.7593 54.8469 0.0000 -52.5028 0.0000
# 2 45.7593 122.9077 38.9922 0.0000 -23.7700 0.0000
# 3 54.8469 38.9922 83.8766 0.0000 -59.1400 0.0000
# 4 0.0000 0.0000 0.0000 20.6363 0.0000 -0.1657
# 5 -52.5028 -23.7700 -59.1400 0.0000 55.1488 0.0000
# 6 0.0000 0.0000 0.0000 -0.1657 0.0000 23.6751
#
#
#
# Elastic Compliance Matrix: (Units=1/GPa)
#
#
# Indices 1 2 3 4 5 6 
#
# 1 0.031626 -0.007343 0.007097 0.000000 0.034554 0.000000
# 2 -0.007343 0.011344 -0.008010 0.000000 -0.010691 0.000000
# 3 0.007097 -0.008010 0.054676 0.000000 0.061938 0.000000
# 4 0.000000 0.000000 0.000000 0.048461 0.000000 0.000339
# 5 0.034554 -0.010691 0.061938 0.000000 0.112841 0.000000
# 6 0.000000 0.000000 0.000000 0.000339 0.000000 0.042241
#
#
# Mechanical properties :
#
#
# Convention : Reuss Voigt Hill
#
# Bulk Modulus (GPa) = 12.32530 63.69800 38.01165
# Shear Modulus (GPa) = 14.50350 30.19116 22.34733
#
# Velocity S-wave (km/s) = 2.74016 3.95348 3.40136
# Velocity P-wave (km/s) = 4.04872 7.33598 5.92490
#
# Compressibility (1/GPa) = 0.08113392
#
# Stress axis : x y z
#
# Youngs Moduli (GPa) = 31.61980 88.15548 18.28954
#
# Poissons Ratio (x) = 0.64736 -0.12981
# Poissons Ratio (y) = 0.23220 0.14649
# Poissons Ratio (z) = -0.22442 0.70610
#
# Static dielectric constant tensor:
#      x y z
#    x 3.655130 0.000000 -0.986810 
#    y 0.000000 3.450190 0.000000 
#    z -0.986810 0.000000 3.933480 
# 
# 
# High freq. dielectric constant tensor:
#      x y z
#    x 1.720710 0.000000 -0.071500 
#    y 0.000000 1.743510 0.000000 
#    z -0.071500 0.000000 1.736110 
# 
# From -- ./inp_files/13657.got.cif
#   From: 2010.06.25/outbox.cif.g09.slc.cpg/sg15_7_cif.got.tgz:13657.got - 2010.06.28 07:06:18.
