data_PCOD8130425
_publ_section_title
;
Structure prediction by ZEFSAII (Michael W. Deem and Ramdas Pophale) SiO2 
 PCOD8130425
Probable space group: C 2/C
;
_chemical_formula_sum "Si O2"
_cell_formula_units_Z 48
_cell_length_a 10.346343
_cell_length_b 20.996062
_cell_length_c 15.297187
_cell_angle_alpha 90.000000
_cell_angle_beta 44.992962
_cell_angle_gamma 90.000000
_cell_volume 2349.459390
_symmetry_space_group_name_H-M "C 2/C"
_symmetry_group_IT_number 15
_symmetry_cell_setting 'monoclinic'
loop_
_space_group_symop_operation_xyz
x,y,z
-x,y,1/2-z
-x,-y,-z
x,-y,1/2+z
1/2+x,1/2+y,z
1/2-x,1/2+y,1/2-z
1/2-x,1/2-y,-z
1/2+x,1/2-y,1/2+z
loop_
_atom_site_type_symbol
_atom_site_label
_atom_site_fract_x
_atom_site_fract_y
_atom_site_fract_z
Si Si1 0.264050 0.848980 0.659047
Si Si2 0.918263 0.436077 0.000764
Si Si3 0.946492 0.982990 0.378275
Si Si4 0.075794 0.879877 0.578859
Si Si5 0.781134 0.707523 0.842746
Si Si6 0.153720 0.868478 0.248193
O O1 0.434969 0.888868 0.616041
O O2 0.196876 0.889624 0.608048
O O3 0.300692 0.778076 0.603995
O O4 0.111047 0.842703 0.808137
O O5 0.760250 0.457370 0.009467
O O6 0.837848 0.393121 0.116351
O O7 0.000000 0.500000 0.000000
O O8 0.000000 0.993773 0.250000
O O9 0.076788 0.925300 0.348007
O O10 0.973920 0.046790 0.423128
O O11 0.187148 0.841465 0.453847
O O12 0.716302 0.690631 0.776303
O O13 0.000000 0.705761 0.750000
O O14 0.000000 0.847863 0.250000
#
# Coordination Sequence:
#
# PCOD8130425 Si02
#       6
#     8   8   8   8   8   8
#     4  11  21  35  58  91 123 157 193 249 302 360
#     4  10  17  32  64  86 108 155 213 236 281 357
#     4   9  17  36  59  86 115 159 198 240 299 353
#     4  11  20  36  58  86 125 148 197 250 306 344
#     4  12  25  37  60  93 122 157 197 248 298 357
#     4   9  22  41  61  85 121 163 202 238 301 356
#
# _framework density 20.430230999999999
#
# number of rings (size 3 to 8) (size 9 to 14) (size 15 to 20)
#    0.000    2.000    5.000    2.500    2.333    0.667 
#    0.000    3.333    0.000    0.000    0.000    0.000 
#    0.000    0.000    0.000    0.000    0.000    0.000 
#
# Total GULP energy -297369.168488 kJ/mol
# GULP energy per Si atom -12390.382020 kJ/mol
# Density = 2.038373 g / cm^3
# Si number density = 20.430231 Si / 1000 Ang^3
#
#
#
# Elastic Constant Matrix: (Units=GPa)
#
#
# Indices 1 2 3 4 5 6 
#
# 1 63.8577 39.8564 32.0863 0.0002 -11.9890 -0.0002
# 2 39.8564 110.1227 26.0960 0.0000 -14.6941 0.0000
# 3 32.0863 26.0960 77.2697 0.0005 -23.7693 -0.0004
# 4 0.0002 0.0000 0.0005 29.9434 -0.0003 -8.3908
# 5 -11.9890 -14.6941 -23.7693 -0.0003 22.0649 0.0003
# 6 -0.0002 0.0000 -0.0004 -8.3908 0.0003 23.0765
#
#
#
# Elastic Compliance Matrix: (Units=1/GPa)
#
#
# Indices 1 2 3 4 5 6 
#
# 1 0.023687 -0.006762 -0.007446 0.000000 0.000346 0.000000
# 2 -0.006762 0.012104 0.000104 0.000000 0.004498 0.000000
# 3 -0.007446 0.000104 0.022098 0.000000 0.019829 0.000000
# 4 0.000000 0.000000 0.000000 0.037185 0.000000 0.013521
# 5 0.000346 0.004498 0.019829 0.000000 0.069865 0.000000
# 6 0.000000 0.000000 0.000000 0.013521 0.000000 0.048250
#
#
# Mechanical properties :
#
#
# Convention : Reuss Voigt Hill
#
# Bulk Modulus (GPa) = 33.69211 49.70307 41.69759
# Shear Modulus (GPa) = 19.89736 25.23106 22.56421
#
# Velocity S-wave (km/s) = 3.12415 3.51805 3.32693
# Velocity P-wave (km/s) = 5.43515 6.39400 5.93397
#
# Compressibility (1/GPa) = 0.02968054
#
# Stress axis : x y z
#
# Youngs Moduli (GPa) = 42.21810 82.61873 45.25321
#
# Poissons Ratio (x) = 0.55869 0.33694
# Poissons Ratio (y) = 0.28549 -0.00471
# Poissons Ratio (z) = 0.31434 -0.00859
#
# Static dielectric constant tensor:
#      x y z
#    x 3.479940 0.000000 -0.390910 
#    y 0.000000 3.817010 0.000000 
#    z -0.390910 0.000000 3.603040 
# 
# 
# High freq. dielectric constant tensor:
#      x y z
#    x 1.764710 0.000000 -0.032730 
#    y 0.000000 1.814740 0.000000 
#    z -0.032730 0.000000 1.785160 
# 
# From -- ./inp_files/147356.got.cif
#   From: 2010.06.25/outbox.cif.g09.slc.cpg/sg15_74_cif.got.tgz:147356.got - 2010.06.28 07:06:18.
