data_PCOD8130359
_publ_section_title
;
Structure prediction by ZEFSAII (Michael W. Deem and Ramdas Pophale) SiO2 
 PCOD8130359
Probable space group: C 2/C
;
_chemical_formula_sum "Si O2"
_cell_formula_units_Z 64
_cell_length_a 12.511459
_cell_length_b 31.327735
_cell_length_c 17.702922
_cell_angle_alpha 90.000000
_cell_angle_beta 151.713612
_cell_angle_gamma 90.000000
_cell_volume 3288.133094
_symmetry_space_group_name_H-M "C 2/C"
_symmetry_group_IT_number 15
_symmetry_cell_setting 'monoclinic'
loop_
_space_group_symop_operation_xyz
x,y,z
-x,y,1/2-z
-x,-y,-z
x,-y,1/2+z
1/2+x,1/2+y,z
1/2-x,1/2+y,1/2-z
1/2-x,1/2-y,-z
1/2+x,1/2-y,1/2+z
loop_
_atom_site_type_symbol
_atom_site_label
_atom_site_fract_x
_atom_site_fract_y
_atom_site_fract_z
Si Si1 0.009359 0.284040 0.000374
Si Si2 0.258584 0.779016 0.078580
Si Si3 0.760397 0.136258 0.134187
Si Si4 0.620428 0.222162 0.246378
Si Si5 0.781448 0.048024 0.070123
Si Si6 0.577390 0.649891 0.106518
Si Si7 0.517898 0.439719 0.968465
Si Si8 0.879127 0.500019 0.254139
O O1 0.240526 0.266222 0.180025
O O2 0.817318 0.249072 0.896984
O O3 0.937580 0.328106 0.997759
O O4 0.032012 0.286486 0.922704
O O5 0.500000 0.796898 0.250000
O O6 0.250000 0.750000 0.000000
O O7 0.116500 0.821669 0.976060
O O8 0.690816 0.091222 0.053514
O O9 0.780383 0.129415 0.236364
O O10 0.000000 0.152464 0.250000
O O11 0.500000 0.228185 0.250000
O O12 0.777266 0.180696 0.356401
O O13 0.867450 0.060687 0.041611
O O14 0.000000 0.028449 0.250000
O O15 0.573700 0.014222 0.935265
O O16 0.490985 0.608969 0.005818
O O17 0.262070 0.458621 0.806941
O O18 0.686883 0.463658 0.130151
O O19 0.000000 0.509906 0.250000
#
# Coordination Sequence:
#
# PCOD8130359 Si02
#       8
#     8   8   8   8   8   8   8   8
#     4  10  20  34  53  76 108 146 189 225 286 337
#     4  11  21  33  52  83 118 151 181 230 290 350
#     4  10  17  32  53  79 113 140 168 230 286 337
#     4  10  21  37  54  75 103 147 197 239 273 329
#     4  10  19  34  57  87 109 144 185 224 289 342
#     4  10  20  33  52  80 107 143 189 226 279 343
#     4  10  19  38  56  82 116 145 190 232 285 351
#     4   9  21  37  58  82 114 151 183 234 291 343
#
# _framework density 19.463932
#
# number of rings (size 3 to 8) (size 9 to 14) (size 15 to 20)
#    0.000    2.000    2.500    3.750    0.000    2.500 
#    4.500    0.000    0.000    0.000    0.000    0.000 
#    0.000    0.000    0.000    0.000    0.000    0.000 
#
# Total GULP energy -396464.730629 kJ/mol
# GULP energy per Si atom -12389.522832 kJ/mol
# Density = 1.941963 g / cm^3
# Si number density = 19.463932 Si / 1000 Ang^3
#
#
#
# Elastic Constant Matrix: (Units=GPa)
#
#
# Indices 1 2 3 4 5 6 
#
# 1 66.1980 26.2347 14.7011 0.0000 5.6933 0.0000
# 2 26.2347 113.9784 40.0990 0.0001 10.8415 0.0001
# 3 14.7011 40.0990 89.9134 -0.0005 4.9774 -0.0001
# 4 0.0000 0.0001 -0.0005 21.0564 -0.0002 -2.2852
# 5 5.6933 10.8415 4.9774 -0.0002 25.3774 0.0000
# 6 0.0000 0.0001 -0.0001 -2.2852 0.0000 24.3430
#
#
#
# Elastic Compliance Matrix: (Units=1/GPa)
#
#
# Indices 1 2 3 4 5 6 
#
# 1 0.016845 -0.003256 -0.001183 0.000000 -0.002156 0.000000
# 2 -0.003256 0.011367 -0.004356 0.000000 -0.003271 0.000000
# 3 -0.001183 -0.004356 0.013284 0.000000 -0.000479 0.000000
# 4 0.000000 0.000000 0.000000 0.047980 0.000000 0.004504
# 5 -0.002156 -0.003271 -0.000479 0.000000 0.041380 0.000000
# 6 0.000000 0.000000 0.000000 0.004504 0.000000 0.041502
#
#
# Mechanical properties :
#
#
# Convention : Reuss Voigt Hill
#
# Bulk Modulus (GPa) = 41.82947 48.01771 44.92359
# Shear Modulus (GPa) = 25.26320 26.75902 26.01111
#
# Velocity S-wave (km/s) = 3.60662 3.71185 3.65961
# Velocity P-wave (km/s) = 6.23546 6.56461 6.40215
#
# Compressibility (1/GPa) = 0.02390659
#
# Stress axis : x y z
#
# Youngs Moduli (GPa) = 59.36599 87.97711 75.27706
#
# Poissons Ratio (x) = 0.28645 0.08903
# Poissons Ratio (y) = 0.19330 0.32789
# Poissons Ratio (z) = 0.07021 0.38321
#
# Static dielectric constant tensor:
#      x y z
#    x 3.321140 0.000000 0.268740 
#    y 0.000000 3.660070 0.000000 
#    z 0.268740 0.000000 3.147990 
# 
# 
# High freq. dielectric constant tensor:
#      x y z
#    x 1.747140 0.000000 -0.000140 
#    y 0.000000 1.749960 0.000000 
#    z -0.000140 0.000000 1.742920 
# 
# From -- ./inp_files/201490.got.cif
#   From: 2010.06.25/outbox.cif.g09.slc.cpg/sg15_101_cif.got.tgz:201490.got - 2010.06.28 07:06:18.
