data_PCOD8130467
_publ_section_title
;
Structure prediction by ZEFSAII (Michael W. Deem and Ramdas Pophale) SiO2 
 PCOD8130467
Probable space group: C 2/C
;
_chemical_formula_sum "Si O2"
_cell_formula_units_Z 48
_cell_length_a 13.385981
_cell_length_b 23.571937
_cell_length_c 10.968511
_cell_angle_alpha 90.000000
_cell_angle_beta 130.345769
_cell_angle_gamma 90.000000
_cell_volume 2637.754745
_symmetry_space_group_name_H-M "C 2/C"
_symmetry_group_IT_number 15
_symmetry_cell_setting 'monoclinic'
loop_
_space_group_symop_operation_xyz
x,y,z
-x,y,1/2-z
-x,-y,-z
x,-y,1/2+z
1/2+x,1/2+y,z
1/2-x,1/2+y,1/2-z
1/2-x,1/2-y,-z
1/2+x,1/2-y,1/2+z
loop_
_atom_site_type_symbol
_atom_site_label
_atom_site_fract_x
_atom_site_fract_y
_atom_site_fract_z
Si Si1 0.773004 0.865335 0.702250
Si Si2 0.951229 0.424854 0.842098
Si Si3 0.678322 0.037569 0.690322
Si Si4 0.646595 0.129014 0.840792
Si Si5 0.072984 0.023289 0.178706
Si Si6 0.140946 0.246766 0.310718
O O1 0.650476 0.877326 0.692780
O O2 0.728707 0.866890 0.527899
O O3 0.889430 0.910875 0.814793
O O4 0.823023 0.800461 0.763902
O O5 0.883770 0.486130 0.782278
O O6 0.000000 0.404770 0.750000
O O7 0.074627 0.428562 0.027868
O O8 0.728799 0.083632 0.827372
O O9 0.795645 0.014074 0.700201
O O10 0.500000 0.105463 0.750000
O O11 0.633392 0.188534 0.755305
O O12 0.000000 0.015585 0.250000
O O13 0.000000 0.000000 0.000000
O O14 0.250000 0.250000 0.500000
O O15 0.000000 0.228044 0.250000
#
# Coordination Sequence:
#
# PCOD8130467 Si02
#       6
#     8   8   8   8   8   8
#     4  10  20  35  57  82 112 144 181 232 284 336
#     4  10  21  32  54  82 107 142 178 226 278 331
#     4  10  21  33  55  78 109 139 180 229 273 331
#     4  10  17  33  57  88 110 132 180 236 287 329
#     4  11  24  37  53  79 115 155 188 226 283 348
#     4   9  19  33  57  87 112 141 182 236 288 335
#
# _framework density 18.197293999999999
#
# number of rings (size 3 to 8) (size 9 to 14) (size 15 to 20)
#    0.000    2.000    1.667    2.000    9.333    1.333 
#    0.000    0.000    0.000    2.000    0.000    0.000 
#    0.000    0.000    0.000    0.000    0.000    0.000 
#
# Total GULP energy -297442.774006 kJ/mol
# GULP energy per Si atom -12393.448917 kJ/mol
# Density = 1.815588 g / cm^3
# Si number density = 18.197294 Si / 1000 Ang^3
#
#
#
# Elastic Constant Matrix: (Units=GPa)
#
#
# Indices 1 2 3 4 5 6 
#
# 1 125.5015 55.7576 30.0269 0.0000 -5.8474 0.0000
# 2 55.7576 108.8131 23.5789 0.0000 -8.7569 0.0000
# 3 30.0269 23.5789 53.9654 0.0000 4.0826 0.0000
# 4 0.0000 0.0000 0.0000 22.2663 0.0000 -2.2455
# 5 -5.8474 -8.7569 4.0826 0.0000 29.0071 0.0000
# 6 0.0000 0.0000 0.0000 -2.2455 0.0000 28.5100
#
#
#
# Elastic Compliance Matrix: (Units=1/GPa)
#
#
# Indices 1 2 3 4 5 6 
#
# 1 0.011126 -0.004662 -0.004262 0.000000 0.001435 0.000000
# 2 -0.004662 0.012520 -0.003124 0.000000 0.003280 0.000000
# 3 -0.004262 -0.003124 0.022645 0.000000 -0.004990 0.000000
# 4 0.000000 0.000000 0.000000 0.045271 0.000000 0.003566
# 5 0.001435 0.003280 -0.004990 0.000000 0.036456 0.000000
# 6 0.000000 0.000000 0.000000 0.003566 0.000000 0.035356
#
#
# Mechanical properties :
#
#
# Convention : Reuss Voigt Hill
#
# Bulk Modulus (GPa) = 45.05894 56.33406 50.69650
# Shear Modulus (GPa) = 25.65839 27.88444 26.77141
#
# Velocity S-wave (km/s) = 3.75909 3.91876 3.83975
# Velocity P-wave (km/s) = 6.60727 7.17636 6.89769
#
# Compressibility (1/GPa) = 0.02219315
#
# Stress axis : x y z
#
# Youngs Moduli (GPa) = 89.88051 79.87276 44.16076
#
# Poissons Ratio (x) = 0.37237 0.18822
# Poissons Ratio (y) = 0.41902 0.13798
# Poissons Ratio (z) = 0.38309 0.24956
#
# Static dielectric constant tensor:
#      x y z
#    x 3.337060 0.000000 0.222800 
#    y 0.000000 3.894630 0.000000 
#    z 0.222800 0.000000 3.333970 
# 
# 
# High freq. dielectric constant tensor:
#      x y z
#    x 1.690420 0.000000 0.024540 
#    y 0.000000 1.709680 0.000000 
#    z 0.024540 0.000000 1.694640 
# 
# From -- ./inp_files/90467.got.cif
#   From: 2010.06.25/outbox.cif.g09.slc.cpg/sg15_46_cif.got.tgz:90467.got - 2010.06.28 07:06:18.
