data_PCOD8130718
_publ_section_title
;
Structure prediction by ZEFSAII (Michael W. Deem and Ramdas Pophale) SiO2 
 PCOD8130718
Probable space group: C 2/C
;
_chemical_formula_sum "Si O2"
_cell_formula_units_Z 40
_cell_length_a 9.706671
_cell_length_b 10.660282
_cell_length_c 17.734384
_cell_angle_alpha 90.000000
_cell_angle_beta 107.419095
_cell_angle_gamma 90.000000
_cell_volume 1750.924798
_symmetry_space_group_name_H-M "C 2/C"
_symmetry_group_IT_number 15
_symmetry_cell_setting 'monoclinic'
loop_
_space_group_symop_operation_xyz
x,y,z
-x,y,1/2-z
-x,-y,-z
x,-y,1/2+z
1/2+x,1/2+y,z
1/2-x,1/2+y,1/2-z
1/2-x,1/2-y,-z
1/2+x,1/2-y,1/2+z
loop_
_atom_site_type_symbol
_atom_site_label
_atom_site_fract_x
_atom_site_fract_y
_atom_site_fract_z
Si Si1 0.500000 0.810720 0.250000
Si Si2 0.549451 0.397481 0.139791
Si Si3 0.279869 0.593780 0.237200
Si Si4 0.500000 0.807588 0.750000
Si Si5 0.703985 0.570154 0.428168
Si Si6 0.327747 0.853044 0.090059
O O1 0.360453 0.727791 0.248142
O O2 0.450647 0.897122 0.170645
O O3 0.613671 0.489810 0.213472
O O4 0.491450 0.274237 0.172474
O O5 0.417931 0.466093 0.075788
O O6 0.666707 0.358330 0.097682
O O7 0.231653 0.551604 0.145170
O O8 0.141713 0.604824 0.268735
O O9 0.633494 0.708941 0.424009
O O10 0.827468 0.561207 0.514081
#
# Coordination Sequence:
#
# PCOD8130718 Si02
#       6
#     4   8   8   4   8   8
#     4  10  17  39  58  84 118 162 197 251 300 348
#     4  12  20  39  65  89 124 167 204 246 308 368
#     4  11  21  38  62  92 124 160 208 252 299 370
#     4  12  23  37  62  94 124 166 201 253 304 356
#     4  10  19  36  61  95 121 159 210 248 303 367
#     4  10  21  34  65  92 120 163 206 252 304 361
#
# _framework density 22.84507
#
# number of rings (size 3 to 8) (size 9 to 14) (size 15 to 20)
#    0.000    1.200   10.000    0.600    0.000    0.800 
#    0.000    0.000    0.000   19.200    0.000    0.000 
#    0.000    0.000    0.000    0.000    0.000    0.000 
#
# Total GULP energy -247925.891112 kJ/mol
# GULP energy per Si atom -12396.294556 kJ/mol
# Density = 2.279307 g / cm^3
# Si number density = 22.845070 Si / 1000 Ang^3
#
#
#
# Elastic Constant Matrix: (Units=GPa)
#
#
# Indices 1 2 3 4 5 6 
#
# 1 97.6646 4.7792 27.4137 0.0000 -1.6204 0.0000
# 2 4.7792 26.1958 10.9159 0.0000 6.6800 0.0000
# 3 27.4137 10.9159 161.6666 0.0000 24.8001 0.0000
# 4 0.0000 0.0000 0.0000 8.4190 0.0000 -3.1057
# 5 -1.6204 6.6800 24.8001 0.0000 33.4186 0.0000
# 6 0.0000 0.0000 0.0000 -3.1057 0.0000 33.1051
#
#
#
# Elastic Compliance Matrix: (Units=1/GPa)
#
#
# Indices 1 2 3 4 5 6 
#
# 1 0.010959 -0.001742 -0.002117 0.000000 0.002450 0.000000
# 2 -0.001742 0.040907 -0.001353 0.000000 -0.007257 0.000000
# 3 -0.002117 -0.001353 0.007459 0.000000 -0.005368 0.000000
# 4 0.000000 0.000000 0.000000 0.123037 0.000000 0.011543
# 5 0.002450 -0.007257 -0.005368 0.000000 0.035476 0.000000
# 6 0.000000 0.000000 0.000000 0.011543 0.000000 0.031290
#
#
# Mechanical properties :
#
#
# Convention : Reuss Voigt Hill
#
# Bulk Modulus (GPa) = 20.44972 41.30496 30.87734
# Shear Modulus (GPa) = 18.12560 31.14973 24.63767
#
# Velocity S-wave (km/s) = 2.81982 3.69659 3.28757
# Velocity P-wave (km/s) = 4.42411 6.02822 5.28735
#
# Compressibility (1/GPa) = 0.04890042
#
# Stress axis : x y z
#
# Youngs Moduli (GPa) = 91.24796 24.44599 134.06118
#
# Poissons Ratio (x) = 0.04259 0.28375
# Poissons Ratio (y) = 0.15898 0.18143
# Poissons Ratio (z) = 0.19314 0.03308
#
# Static dielectric constant tensor:
#      x y z
#    x 3.915850 0.000000 0.062100 
#    y 0.000000 3.952650 0.000000 
#    z 0.062100 0.000000 4.633640 
# 
# 
# High freq. dielectric constant tensor:
#      x y z
#    x 1.878800 0.000000 -0.004070 
#    y 0.000000 1.886040 0.000000 
#    z -0.004070 0.000000 1.907550 
# 
# From -- ./inp_files/187844.got.cif
#   From: 2010.06.25/outbox.cif.g09.slc.cpg/sg15_94_cif.got.tgz:187844.got - 2010.06.28 07:06:18.
