data_PCOD8130557
_publ_section_title
;
Structure prediction by ZEFSAII (Michael W. Deem and Ramdas Pophale) SiO2 
 PCOD8130557
Probable space group: C 2/C
;
_chemical_formula_sum "Si O2"
_cell_formula_units_Z 56
_cell_length_a 14.698560
_cell_length_b 14.269815
_cell_length_c 19.945004
_cell_angle_alpha 90.000000
_cell_angle_beta 140.295899
_cell_angle_gamma 90.000000
_cell_volume 2672.438543
_symmetry_space_group_name_H-M "C 2/C"
_symmetry_group_IT_number 15
_symmetry_cell_setting 'monoclinic'
loop_
_space_group_symop_operation_xyz
x,y,z
-x,y,1/2-z
-x,-y,-z
x,-y,1/2+z
1/2+x,1/2+y,z
1/2-x,1/2+y,1/2-z
1/2-x,1/2-y,-z
1/2+x,1/2-y,1/2+z
loop_
_atom_site_type_symbol
_atom_site_label
_atom_site_fract_x
_atom_site_fract_y
_atom_site_fract_z
Si Si1 0.480890 0.398374 0.882953
Si Si2 0.237039 0.526540 0.779484
Si Si3 0.418478 0.106113 0.411355
Si Si4 0.699328 0.023049 0.548960
Si Si5 0.292300 0.242573 0.738888
Si Si6 0.500000 0.806045 0.250000
Si Si7 0.711372 0.058420 0.914436
Si Si8 0.500000 0.478038 0.750000
O O1 0.398635 0.489406 0.864565
O O2 0.386791 0.304503 0.844919
O O3 0.500984 0.410288 0.814578
O O4 0.635363 0.389052 0.004279
O O5 0.131987 0.470172 0.671913
O O6 0.232233 0.635638 0.753714
O O7 0.185333 0.511563 0.826784
O O8 0.591256 0.107447 0.506846
O O9 0.360586 0.208538 0.359963
O O10 0.360777 0.072962 0.451357
O O11 0.709632 0.014943 0.474158
O O12 0.857737 0.043304 0.667995
O O13 0.379552 0.252469 0.719050
O O14 0.417012 0.868410 0.146774
#
# Coordination Sequence:
#
# PCOD8130557 Si02
#       8
#     8   8   8   8   8   4   8   4
#     4  10  20  36  58  84 115 160 192 234 293 340
#     4  10  20  39  55  87 122 153 191 240 290 349
#     4  10  21  37  59  83 121 153 191 233 292 351
#     4  10  19  35  59  88 107 156 194 229 291 350
#     4  10  20  35  57  85 122 148 188 241 290 352
#     4  10  21  36  50  94 123 144 185 240 308 362
#     4  10  21  35  60  84 119 150 190 243 293 348
#     4  10  17  34  60  84 113 150 193 246 276 350
#
# _framework density 20.954646
#
# number of rings (size 3 to 8) (size 9 to 14) (size 15 to 20)
#    0.000    2.000    2.857    2.571    2.000    0.571 
#   12.857    0.000    0.000    6.857    0.000    0.000 
#    0.000    0.000    0.000    0.000    0.000    0.000 
#
# Total GULP energy -346975.915320 kJ/mol
# GULP energy per Si atom -12391.996976 kJ/mol
# Density = 2.090695 g / cm^3
# Si number density = 20.954646 Si / 1000 Ang^3
#
#
#
# Elastic Constant Matrix: (Units=GPa)
#
#
# Indices 1 2 3 4 5 6 
#
# 1 78.2566 30.4868 30.6738 0.0000 8.6971 0.0000
# 2 30.4868 92.8685 27.0178 0.0000 11.3064 0.0000
# 3 30.6738 27.0178 99.5774 0.0002 27.1002 0.0001
# 4 0.0000 0.0000 0.0002 8.6300 0.0001 6.3704
# 5 8.6971 11.3064 27.1002 0.0001 53.4906 0.0000
# 6 0.0000 0.0000 0.0001 6.3704 0.0000 20.3105
#
#
#
# Elastic Compliance Matrix: (Units=1/GPa)
#
#
# Indices 1 2 3 4 5 6 
#
# 1 0.015859 -0.004120 -0.003831 0.000000 0.000233 0.000000
# 2 -0.004120 0.012808 -0.001916 0.000000 -0.001067 0.000000
# 3 -0.003831 -0.001916 0.013296 0.000000 -0.005708 0.000000
# 4 0.000000 0.000000 0.000000 0.150788 0.000000 -0.047295
# 5 0.000233 -0.001067 -0.005708 0.000000 0.021774 0.000000
# 6 0.000000 0.000000 0.000000 -0.047295 0.000000 0.064070
#
#
# Mechanical properties :
#
#
# Convention : Reuss Voigt Hill
#
# Bulk Modulus (GPa) = 44.98506 49.67326 47.32916
# Shear Modulus (GPa) = 16.35390 28.65448 22.50419
#
# Velocity S-wave (km/s) = 2.79667 3.70192 3.28067
# Velocity P-wave (km/s) = 5.65181 6.48297 6.08160
#
# Compressibility (1/GPa) = 0.02222960
#
# Stress axis : x y z
#
# Youngs Moduli (GPa) = 63.05476 78.07848 75.21206
#
# Poissons Ratio (x) = 0.32170 0.28812
# Poissons Ratio (y) = 0.25980 0.14407
# Poissons Ratio (z) = 0.24155 0.14956
#
# Static dielectric constant tensor:
#      x y z
#    x 3.862250 0.000000 0.253900 
#    y 0.000000 3.416790 0.000000 
#    z 0.253900 0.000000 4.098510 
# 
# 
# High freq. dielectric constant tensor:
#      x y z
#    x 1.818430 0.000000 0.012840 
#    y 0.000000 1.770570 0.000000 
#    z 0.012840 0.000000 1.837170 
# 
# From -- ./inp_files/244590.got.cif
#   From: 2010.06.25/outbox.cif.g09.slc.cpg/sg15_123_cif.got.tgz:244590.got - 2010.06.28 07:06:18.
