data_PCOD8130476
_publ_section_title
;
Structure prediction by ZEFSAII (Michael W. Deem and Ramdas Pophale) SiO2 
 PCOD8130476
Probable space group: C 2/C
;
_chemical_formula_sum "Si O2"
_cell_formula_units_Z 52
_cell_length_a 12.548301
_cell_length_b 15.493462
_cell_length_c 19.114340
_cell_angle_alpha 90.000000
_cell_angle_beta 41.723561
_cell_angle_gamma 90.000000
_cell_volume 2473.233527
_symmetry_space_group_name_H-M "C 2/C"
_symmetry_group_IT_number 15
_symmetry_cell_setting 'monoclinic'
loop_
_space_group_symop_operation_xyz
x,y,z
-x,y,1/2-z
-x,-y,-z
x,-y,1/2+z
1/2+x,1/2+y,z
1/2-x,1/2+y,1/2-z
1/2-x,1/2-y,-z
1/2+x,1/2-y,1/2+z
loop_
_atom_site_type_symbol
_atom_site_label
_atom_site_fract_x
_atom_site_fract_y
_atom_site_fract_z
Si Si1 0.654514 0.976391 0.132736
Si Si2 0.987672 0.342790 0.380860
Si Si3 0.076990 0.163895 0.638994
Si Si4 0.341942 0.814121 0.598366
Si Si5 0.181619 0.121084 0.836529
Si Si6 0.590523 0.143828 0.082794
Si Si7 0.500000 0.709765 0.250000
O O1 0.500000 0.941335 0.250000
O O2 0.648793 0.916270 0.066716
O O3 0.804892 0.954596 0.110328
O O4 0.628807 0.075942 0.125534
O O5 0.167614 0.381859 0.290507
O O6 0.968845 0.265467 0.335000
O O7 0.952480 0.312393 0.476070
O O8 0.262971 0.139702 0.543669
O O9 0.065423 0.265996 0.633559
O O10 0.000000 0.138115 0.750000
O O11 0.982847 0.109112 0.625690
O O12 0.321647 0.714002 0.626123
O O13 0.429588 0.871127 0.615891
O O14 0.159692 0.850032 0.679774
#
# Coordination Sequence:
#
# PCOD8130476 Si02
#       7
#     8   8   8   8   8   8   4
#     4  10  19  36  57  81 111 150 197 237 286 353
#     4  10  17  33  59  81 110 152 188 240 294 339
#     4  10  20  38  58  81 117 149 193 242 286 342
#     4  10  19  33  55  85 113 144 195 243 287 336
#     4   9  19  34  57  87 110 150 198 236 287 345
#     4  10  22  35  57  85 112 154 194 238 294 347
#     4  10  18  32  56  88 110 148 192 248 286 340
#
# _framework density 21.025106999999998
#
# number of rings (size 3 to 8) (size 9 to 14) (size 15 to 20)
#    0.000    2.154    3.846    1.846    0.000    1.231 
#    0.000    1.538    8.462    0.000    0.000    0.000 
#    0.000    0.000    0.000    0.000    0.000    0.000 
#
# Total GULP energy -322147.872302 kJ/mol
# GULP energy per Si atom -12390.302781 kJ/mol
# Density = 2.097725 g / cm^3
# Si number density = 21.025107 Si / 1000 Ang^3
#
#
#
# Elastic Constant Matrix: (Units=GPa)
#
#
# Indices 1 2 3 4 5 6 
#
# 1 132.2914 47.7358 42.4536 0.0000 -21.4924 0.0000
# 2 47.7358 63.6626 14.4710 0.0001 -1.8915 0.0000
# 3 42.4536 14.4710 72.1411 0.0003 -5.7309 -0.0001
# 4 0.0000 0.0001 0.0003 12.7682 -0.0001 -0.9705
# 5 -21.4924 -1.8915 -5.7309 -0.0001 38.0578 0.0000
# 6 0.0000 0.0000 -0.0001 -0.9705 0.0000 33.2625
#
#
#
# Elastic Compliance Matrix: (Units=1/GPa)
#
#
# Indices 1 2 3 4 5 6 
#
# 1 0.013566 -0.008679 -0.005737 0.000000 0.006366 0.000000
# 2 -0.008679 0.022015 0.000394 0.000000 -0.003748 0.000000
# 3 -0.005737 0.000394 0.017107 0.000000 -0.000644 0.000000
# 4 0.000000 0.000000 0.000000 0.078494 0.000000 0.002290
# 5 0.006366 -0.003748 -0.000644 0.000000 0.029588 0.000000
# 6 0.000000 0.000000 0.000000 0.002290 0.000000 0.030131
#
#
# Mechanical properties :
#
#
# Convention : Reuss Voigt Hill
#
# Bulk Modulus (GPa) = 40.57739 53.04620 46.81179
# Shear Modulus (GPa) = 22.01102 27.71333 24.86217
#
# Velocity S-wave (km/s) = 3.23908 3.63451 3.44248
# Velocity P-wave (km/s) = 5.77324 6.54963 6.17365
#
# Compressibility (1/GPa) = 0.02464427
#
# Stress axis : x y z
#
# Youngs Moduli (GPa) = 73.71401 45.42424 58.45391
#
# Poissons Ratio (x) = 0.39424 0.33533
# Poissons Ratio (y) = 0.63976 -0.02301
# Poissons Ratio (z) = 0.42287 -0.01788
#
# Static dielectric constant tensor:
#      x y z
#    x 4.107470 0.000000 -0.310600 
#    y 0.000000 3.341290 0.000000 
#    z -0.310600 0.000000 3.823960 
# 
# 
# High freq. dielectric constant tensor:
#      x y z
#    x 1.833800 0.000000 -0.005190 
#    y 0.000000 1.780740 0.000000 
#    z -0.005190 0.000000 1.818350 
# 
# From -- ./inp_files/239743.got.cif
#   From: 2010.06.25/outbox.cif.g09.slc.cpg/sg15_120_cif.got.tgz:239743.got - 2010.06.28 07:06:18.
