data_PCOD8130296
_publ_section_title
;
Structure prediction by ZEFSAII (Michael W. Deem and Ramdas Pophale) SiO2 
 PCOD8130296
Probable space group: C 2/C
;
_chemical_formula_sum "Si O2"
_cell_formula_units_Z 60
_cell_length_a 16.248316
_cell_length_b 8.552844
_cell_length_c 23.109449
_cell_angle_alpha 90.000000
_cell_angle_beta 107.215723
_cell_angle_gamma 90.000000
_cell_volume 3067.619778
_symmetry_space_group_name_H-M "C 2/C"
_symmetry_group_IT_number 15
_symmetry_cell_setting 'monoclinic'
loop_
_space_group_symop_operation_xyz
x,y,z
-x,y,1/2-z
-x,-y,-z
x,-y,1/2+z
1/2+x,1/2+y,z
1/2-x,1/2+y,1/2-z
1/2-x,1/2-y,-z
1/2+x,1/2-y,1/2+z
loop_
_atom_site_type_symbol
_atom_site_label
_atom_site_fract_x
_atom_site_fract_y
_atom_site_fract_z
Si Si1 0.448320 0.937459 0.071258
Si Si2 0.297732 0.938752 0.322912
Si Si3 0.937578 0.806653 0.853213
Si Si4 0.614029 0.111564 0.064104
Si Si5 0.664701 0.401415 0.139453
Si Si6 0.831248 0.709794 0.249934
Si Si7 0.631373 0.035397 0.824754
Si Si8 0.500000 0.720217 0.250000
O O1 0.486351 0.762845 0.090823
O O2 0.393299 0.000164 0.114032
O O3 0.521811 0.064562 0.072128
O O4 0.383588 0.921392 0.003623
O O5 0.384618 0.848040 0.322846
O O6 0.222542 0.812440 0.306592
O O7 0.309955 0.010385 0.389635
O O8 0.276001 0.075449 0.272222
O O9 0.970360 0.882812 0.799164
O O10 0.882365 0.931865 0.877321
O O11 0.633538 0.294248 0.079710
O O12 0.629958 0.318508 0.191519
O O13 0.767076 0.426683 0.160372
O O14 0.895352 0.615070 0.220667
O O15 0.579558 0.181209 0.790545
#
# Coordination Sequence:
#
# PCOD8130296 Si02
#       8
#     8   8   8   8   8   8   8   4
#     4   9  21  41  62  77 115 156 200 231 290 349
#     4  10  17  31  56  80 110 149 188 229 286 343
#     4  10  18  35  56  82 112 152 189 237 286 343
#     4   9  21  40  60  81 112 159 194 236 291 346
#     4  11  22  34  61  87 115 147 198 235 291 339
#     4  11  18  32  53  84 117 146 186 236 289 350
#     4  11  21  34  60  85 112 153 193 233 281 353
#     4  10  20  36  54  84 122 152 184 230 296 354
#
# _framework density 19.559137
#
# number of rings (size 3 to 8) (size 9 to 14) (size 15 to 20)
#    0.000    1.867    4.000    0.000    1.867    1.067 
#    2.400    0.667    0.000    0.000    0.000    0.000 
#    0.000    0.000    0.000    0.000    0.000    0.000 
#
# Total GULP energy -371677.336418 kJ/mol
# GULP energy per Si atom -12389.244547 kJ/mol
# Density = 1.951462 g / cm^3
# Si number density = 19.559137 Si / 1000 Ang^3
#
#
#
# Elastic Constant Matrix: (Units=GPa)
#
#
# Indices 1 2 3 4 5 6 
#
# 1 47.9376 15.0052 22.6517 0.0000 -7.9761 0.0000
# 2 15.0052 73.2055 16.8733 0.0000 2.4217 0.0000
# 3 22.6517 16.8733 96.7347 0.0000 -9.7522 0.0000
# 4 0.0000 0.0000 0.0000 26.4883 0.0000 0.7920
# 5 -7.9761 2.4217 -9.7522 0.0000 28.5183 0.0000
# 6 0.0000 0.0000 0.0000 0.7920 0.0000 23.9321
#
#
#
# Elastic Compliance Matrix: (Units=1/GPa)
#
#
# Indices 1 2 3 4 5 6 
#
# 1 0.025367 -0.004337 -0.004589 0.000000 0.005894 0.000000
# 2 -0.004337 0.015100 -0.001937 0.000000 -0.003157 0.000000
# 3 -0.004589 -0.001937 0.012053 0.000000 0.003002 0.000000
# 4 0.000000 0.000000 0.000000 0.037790 0.000000 -0.001251
# 5 0.005894 -0.003157 0.003002 0.000000 0.038008 0.000000
# 6 0.000000 0.000000 0.000000 -0.001251 0.000000 0.041826
#
#
# Mechanical properties :
#
#
# Convention : Reuss Voigt Hill
#
# Bulk Modulus (GPa) = 32.47374 36.32647 34.40010
# Shear Modulus (GPa) = 24.73598 26.67758 25.70678
#
# Velocity S-wave (km/s) = 3.56009 3.69717 3.62928
# Velocity P-wave (km/s) = 5.79119 6.06946 5.93196
#
# Compressibility (1/GPa) = 0.03079411
#
# Stress axis : x y z
#
# Youngs Moduli (GPa) = 39.42108 66.22550 82.96882
#
# Poissons Ratio (x) = 0.28720 0.38078
# Poissons Ratio (y) = 0.17096 0.16068
# Poissons Ratio (z) = 0.18092 0.12826
#
# Static dielectric constant tensor:
#      x y z
#    x 3.335280 0.000000 -0.017070 
#    y 0.000000 3.606670 0.000000 
#    z -0.017070 0.000000 3.714090 
# 
# 
# High freq. dielectric constant tensor:
#      x y z
#    x 1.729750 0.000000 0.001790 
#    y 0.000000 1.755330 0.000000 
#    z 0.001790 0.000000 1.763490 
# 
# From -- ./inp_files/273215.got.cif
#   From: 2010.06.25/outbox.cif.g09.slc.cpg/sg15_137_cif.got.tgz:273215.got - 2010.06.28 07:06:18.
