data_PCOD8130878
_publ_section_title
;
Structure prediction by ZEFSAII (Michael W. Deem and Ramdas Pophale) SiO2 
 PCOD8130878
Probable space group: C 2/C
;
_chemical_formula_sum "Si O2"
_cell_formula_units_Z 40
_cell_length_a 11.158658
_cell_length_b 21.031365
_cell_length_c 9.719830
_cell_angle_alpha 90.000000
_cell_angle_beta 75.816067
_cell_angle_gamma 90.000000
_cell_volume 2211.526904
_symmetry_space_group_name_H-M "C 2/C"
_symmetry_group_IT_number 15
_symmetry_cell_setting 'monoclinic'
loop_
_space_group_symop_operation_xyz
x,y,z
-x,y,1/2-z
-x,-y,-z
x,-y,1/2+z
1/2+x,1/2+y,z
1/2-x,1/2+y,1/2-z
1/2-x,1/2-y,-z
1/2+x,1/2-y,1/2+z
loop_
_atom_site_type_symbol
_atom_site_label
_atom_site_fract_x
_atom_site_fract_y
_atom_site_fract_z
Si Si1 0.633582 0.736014 0.199859
Si Si2 0.742534 0.808790 0.402152
Si Si3 0.072927 0.580868 0.992522
Si Si4 0.616461 0.187358 0.430243
Si Si5 0.000000 0.508839 0.750000
Si Si6 0.000000 0.223745 0.750000
O O1 0.500000 0.700870 0.250000
O O2 0.643933 0.789283 0.314517
O O3 0.746770 0.685299 0.180416
O O4 0.641154 0.778765 0.064820
O O5 0.750000 0.750000 0.500000
O O6 0.689911 0.873034 0.483591
O O7 0.880764 0.821326 0.305036
O O8 0.082469 0.549961 0.835808
O O9 0.940282 0.617054 0.039730
O O10 0.082670 0.532775 0.119678
O O11 0.519696 0.230161 0.373885
#
# Coordination Sequence:
#
# PCOD8130878 Si02
#       6
#     8   8   8   8   4   4
#     4  10  18  30  46  83 116 146 165 212 302 343
#     4  11  20  31  57  81 117 144 179 236 295 343
#     4  11  20  39  55  83 109 150 197 237 272 331
#     4  10  19  30  53  76 118 140 176 226 272 355
#     4  10  25  36  58  80 106 159 200 234 266 310
#     4  10  19  32  48  92 108 147 172 214 316 348
#
# _framework density 18.087050999999999
#
# number of rings (size 3 to 8) (size 9 to 14) (size 15 to 20)
#    0.000    1.600    4.000    1.800    2.800    0.000 
#    0.000    0.000    0.000    1.200   10.400    0.000 
#    0.000    0.000    0.000    0.000    0.000    0.000 
#
# Total GULP energy -247772.447925 kJ/mol
# GULP energy per Si atom -12388.622396 kJ/mol
# Density = 1.804588 g / cm^3
# Si number density = 18.087051 Si / 1000 Ang^3
#
#
#
# Elastic Constant Matrix: (Units=GPa)
#
#
# Indices 1 2 3 4 5 6 
#
# 1 114.2372 40.9094 20.7225 0.0000 -14.0597 0.0000
# 2 40.9094 89.5514 33.1552 0.0000 -8.2642 0.0000
# 3 20.7225 33.1552 85.3636 0.0000 10.4455 0.0000
# 4 0.0000 0.0000 0.0000 35.1868 0.0000 0.2411
# 5 -14.0597 -8.2642 10.4455 0.0000 29.8247 0.0000
# 6 0.0000 0.0000 0.0000 0.2411 0.0000 25.8875
#
#
#
# Elastic Compliance Matrix: (Units=1/GPa)
#
#
# Indices 1 2 3 4 5 6 
#
# 1 0.011074 -0.003988 -0.001716 0.000000 0.004716 0.000000
# 2 -0.003988 0.015451 -0.005565 0.000000 0.004350 0.000000
# 3 -0.001716 -0.005565 0.015233 0.000000 -0.007686 0.000000
# 4 0.000000 0.000000 0.000000 0.028422 0.000000 -0.000265
# 5 0.004716 0.004350 -0.007686 0.000000 0.039650 0.000000
# 6 0.000000 0.000000 0.000000 -0.000265 0.000000 0.038631
#
#
# Mechanical properties :
#
#
# Convention : Reuss Voigt Hill
#
# Bulk Modulus (GPa) = 52.03367 53.19185 52.61276
# Shear Modulus (GPa) = 28.18400 31.13746 29.66073
#
# Velocity S-wave (km/s) = 3.95174 4.15364 4.05395
# Velocity P-wave (km/s) = 7.04646 7.24405 7.14594
#
# Compressibility (1/GPa) = 0.01921833
#
# Stress axis : x y z
#
# Youngs Moduli (GPa) = 90.30426 64.72274 65.64559
#
# Poissons Ratio (x) = 0.25812 0.11267
# Poissons Ratio (y) = 0.36014 0.36533
# Poissons Ratio (z) = 0.15499 0.36019
#
# Static dielectric constant tensor:
#      x y z
#    x 3.808360 0.000000 -0.225830 
#    y 0.000000 3.222170 0.000000 
#    z -0.225830 0.000000 3.648710 
# 
# 
# High freq. dielectric constant tensor:
#      x y z
#    x 1.698580 0.000000 0.003920 
#    y 0.000000 1.655890 0.000000 
#    z 0.003920 0.000000 1.727790 
# 
# From -- ./inp_files/29280.got.cif
#   From: 2010.06.25/outbox.cif.g09.slc.cpg/sg15_15_cif.got.tgz:29280.got - 2010.06.28 07:06:18.
