data_PCOD8130510
_publ_section_title
;
Structure prediction by ZEFSAII (Michael W. Deem and Ramdas Pophale) SiO2 
 PCOD8130510
Probable space group: C 2/C
;
_chemical_formula_sum "Si O2"
_cell_formula_units_Z 64
_cell_length_a 31.476237
_cell_length_b 9.427516
_cell_length_c 19.220421
_cell_angle_alpha 90.000000
_cell_angle_beta 143.661384
_cell_angle_gamma 90.000000
_cell_volume 3379.656352
_symmetry_space_group_name_H-M "C 2/C"
_symmetry_group_IT_number 15
_symmetry_cell_setting 'monoclinic'
loop_
_space_group_symop_operation_xyz
x,y,z
-x,y,1/2-z
-x,-y,-z
x,-y,1/2+z
1/2+x,1/2+y,z
1/2-x,1/2+y,1/2-z
1/2-x,1/2-y,-z
1/2+x,1/2-y,1/2+z
loop_
_atom_site_type_symbol
_atom_site_label
_atom_site_fract_x
_atom_site_fract_y
_atom_site_fract_z
Si Si1 0.839090 0.386762 0.408560
Si Si2 0.249168 0.717469 0.833156
Si Si3 0.618596 0.800732 0.565504
Si Si4 0.518139 0.184655 0.451417
Si Si5 0.630451 0.269390 0.240081
Si Si6 0.680702 0.967040 0.355865
Si Si7 0.535575 0.130714 0.624682
Si Si8 0.254312 0.495405 0.096861
O O1 0.788375 0.297933 0.291043
O O2 0.853890 0.538095 0.392735
O O3 0.916834 0.308019 0.518375
O O4 0.803334 0.399082 0.437123
O O5 0.335067 0.717720 0.931386
O O6 0.232614 0.590084 0.863659
O O7 0.223445 0.867721 0.829632
O O8 0.630456 0.733591 0.656588
O O9 0.534347 0.797222 0.431424
O O10 0.452916 0.290788 0.345447
O O11 0.551094 0.211323 0.572032
O O12 0.479228 0.034127 0.406976
O O13 0.674768 0.404456 0.325116
O O14 0.665358 0.130733 0.320331
O O15 0.609181 0.867052 0.266113
O O16 0.719808 0.950654 0.480415
#
# Coordination Sequence:
#
# PCOD8130510 Si02
#       8
#     8   8   8   8   8   8   8   8
#     4  10  17  34  53  79 104 143 190 232 269 317
#     4  11  20  34  55  79 112 147 183 235 277 328
#     4   9  17  31  56  83 102 137 193 237 264 320
#     4   8  14  28  54  77  99 136 186 227 263 314
#     4  10  18  34  55  80 109 142 184 233 276 331
#     4  11  20  36  57  79 114 152 176 226 293 342
#     4   8  14  28  53  79 100 135 184 227 269 316
#     4  11  24  33  51  87 117 141 183 231 287 342
#
# _framework density 18.936837000000001
#
# number of rings (size 3 to 8) (size 9 to 14) (size 15 to 20)
#    0.000    2.250    3.750    2.250    0.000    0.000 
#    0.000   10.625    0.000    0.000    0.000    1.750 
#    0.000    0.000    0.000    0.000    0.000    0.000 
#
# Total GULP energy -396574.554188 kJ/mol
# GULP energy per Si atom -12392.954818 kJ/mol
# Density = 1.889374 g / cm^3
# Si number density = 18.936837 Si / 1000 Ang^3
#
#
#
# Elastic Constant Matrix: (Units=GPa)
#
#
# Indices 1 2 3 4 5 6 
#
# 1 72.9991 11.8775 38.6292 0.0000 12.3700 0.0000
# 2 11.8775 31.7422 21.6205 0.0000 3.6663 0.0000
# 3 38.6292 21.6205 97.0242 0.0000 13.5677 0.0000
# 4 0.0000 0.0000 0.0000 23.0965 0.0000 3.9811
# 5 12.3700 3.6663 13.5677 0.0000 21.9430 0.0000
# 6 0.0000 0.0000 0.0000 3.9811 0.0000 21.4605
#
#
#
# Elastic Compliance Matrix: (Units=1/GPa)
#
#
# Indices 1 2 3 4 5 6 
#
# 1 0.018231 -0.002064 -0.005922 0.000000 -0.006271 0.000000
# 2 -0.002064 0.037403 -0.007446 0.000000 -0.000482 0.000000
# 3 -0.005922 -0.007446 0.014978 0.000000 -0.004679 0.000000
# 4 0.000000 0.000000 0.000000 0.044727 0.000000 -0.008297
# 5 -0.006271 -0.000482 -0.004679 0.000000 0.052081 0.000000
# 6 0.000000 0.000000 0.000000 -0.008297 0.000000 0.048136
#
#
# Mechanical properties :
#
#
# Convention : Reuss Voigt Hill
#
# Bulk Modulus (GPa) = 25.15765 38.44666 31.80215
# Shear Modulus (GPa) = 19.25531 21.94254 20.59893
#
# Velocity S-wave (km/s) = 3.19222 3.40769 3.30171
# Velocity P-wave (km/s) = 5.18661 5.98580 5.60048
#
# Compressibility (1/GPa) = 0.03974935
#
# Stress axis : x y z
#
# Youngs Moduli (GPa) = 54.85219 26.73570 66.76574
#
# Poissons Ratio (x) = 0.05518 0.39536
# Poissons Ratio (y) = 0.11322 0.49711
# Poissons Ratio (z) = 0.32481 0.19906
#
# Static dielectric constant tensor:
#      x y z
#    x 3.621930 0.000000 0.386620 
#    y 0.000000 3.147790 0.000000 
#    z 0.386620 0.000000 3.490470 
# 
# 
# High freq. dielectric constant tensor:
#      x y z
#    x 1.734050 0.000000 0.025760 
#    y 0.000000 1.697830 0.000000 
#    z 0.025760 0.000000 1.723700 
# 
# From -- ./inp_files/224641.got.cif
#   From: 2010.06.25/outbox.cif.g09.slc.cpg/sg15_113_cif.got.tgz:224641.got - 2010.06.28 07:06:18.
