data_PCOD8130333
_publ_section_title
;
Structure prediction by ZEFSAII (Michael W. Deem and Ramdas Pophale) SiO2 
 PCOD8130333
Probable space group: C 2/C
;
_chemical_formula_sum "Si O2"
_cell_formula_units_Z 48
_cell_length_a 7.667999
_cell_length_b 17.095056
_cell_length_c 24.242349
_cell_angle_alpha 90.000000
_cell_angle_beta 66.642761
_cell_angle_gamma 90.000000
_cell_volume 2917.386531
_symmetry_space_group_name_H-M "C 2/C"
_symmetry_group_IT_number 15
_symmetry_cell_setting 'monoclinic'
loop_
_space_group_symop_operation_xyz
x,y,z
-x,y,1/2-z
-x,-y,-z
x,-y,1/2+z
1/2+x,1/2+y,z
1/2-x,1/2+y,1/2-z
1/2-x,1/2-y,-z
1/2+x,1/2-y,1/2+z
loop_
_atom_site_type_symbol
_atom_site_label
_atom_site_fract_x
_atom_site_fract_y
_atom_site_fract_z
Si Si1 0.516456 0.585886 0.138283
Si Si2 0.593173 0.981817 0.930514
Si Si3 0.619163 0.085419 0.830056
Si Si4 0.406097 0.256721 0.702398
Si Si5 0.378891 0.055741 0.355581
Si Si6 0.500000 0.515182 0.750000
Si Si7 0.500000 0.824255 0.750000
O O1 0.715253 0.567916 0.083700
O O2 0.501820 0.678183 0.151642
O O3 0.348614 0.558340 0.118552
O O4 0.495102 0.541475 0.198473
O O5 0.644308 0.062871 0.891934
O O6 0.447739 0.931622 0.910377
O O7 0.500000 0.000000 0.000000
O O8 0.555768 0.174477 0.832306
O O9 0.815931 0.070291 0.773244
O O10 0.456189 0.028791 0.824714
O O11 0.500000 0.256263 0.750000
O O12 0.181505 0.270008 0.737088
O O13 0.474860 0.122689 0.306985
#
# Coordination Sequence:
#
# PCOD8130333 Si02
#       7
#     8   8   8   8   8   4   4
#     4  10  19  33  54  74 102 138 169 206 260 314
#     4   9  20  38  55  74 100 139 184 214 247 302
#     4   9  20  31  49  78 102 132 169 216 254 295
#     4  11  20  30  48  79 110 132 161 209 270 309
#     4   9  19  32  55  76  98 137 173 209 250 307
#     4  10  17  32  49  74 104 136 166 200 257 318
#     4  10  19  34  51  76 112 138 166 202 263 328
#
# _framework density 16.453081999999998
#
# number of rings (size 3 to 8) (size 9 to 14) (size 15 to 20)
#    1.000    1.333    0.833    3.500    3.500    0.667 
#    0.000    0.833    0.000    4.000    0.000    0.000 
#    0.000    0.000    0.000    0.000    0.000    0.000 
#
# Total GULP energy -297479.569902 kJ/mol
# GULP energy per Si atom -12394.982079 kJ/mol
# Density = 1.641563 g / cm^3
# Si number density = 16.453082 Si / 1000 Ang^3
#
#
#
# Elastic Constant Matrix: (Units=GPa)
#
#
# Indices 1 2 3 4 5 6 
#
# 1 119.6404 49.1502 31.1079 0.0000 -2.7364 0.0000
# 2 49.1502 110.1452 22.1696 0.0000 -5.3847 0.0000
# 3 31.1079 22.1696 65.8969 0.0000 -5.4367 0.0000
# 4 0.0000 0.0000 0.0000 5.8581 0.0000 -3.6937
# 5 -2.7364 -5.3847 -5.4367 0.0000 22.2915 0.0000
# 6 0.0000 0.0000 0.0000 -3.6937 0.0000 13.2047
#
#
#
# Elastic Compliance Matrix: (Units=1/GPa)
#
#
# Indices 1 2 3 4 5 6 
#
# 1 0.011072 -0.004192 -0.003866 0.000000 -0.000596 0.000000
# 2 -0.004192 0.011380 -0.001700 0.000000 0.001820 0.000000
# 3 -0.003866 -0.001700 0.017858 0.000000 0.003470 0.000000
# 4 0.000000 0.000000 0.000000 0.207257 0.000000 0.057975
# 5 -0.000596 0.001820 0.003470 0.000000 0.046073 0.000000
# 6 0.000000 0.000000 0.000000 0.057975 0.000000 0.091947
#
#
# Mechanical properties :
#
#
# Convention : Reuss Voigt Hill
#
# Bulk Modulus (GPa) = 48.08547 55.61530 51.85039
# Shear Modulus (GPa) = 12.13491 21.15453 16.64472
#
# Velocity S-wave (km/s) = 2.71873 3.58962 3.18409
# Velocity P-wave (km/s) = 6.25656 7.14537 6.71568
#
# Compressibility (1/GPa) = 0.02079630
#
# Stress axis : x y z
#
# Youngs Moduli (GPa) = 90.31893 87.86969 55.99645
#
# Poissons Ratio (x) = 0.36832 0.21646
# Poissons Ratio (y) = 0.37859 0.09518
# Poissons Ratio (z) = 0.34914 0.14936
#
# Static dielectric constant tensor:
#      x y z
#    x 3.764150 0.000000 -0.109630 
#    y 0.000000 3.012950 0.000000 
#    z -0.109630 0.000000 2.740660 
# 
# 
# High freq. dielectric constant tensor:
#      x y z
#    x 1.649270 0.000000 0.001950 
#    y 0.000000 1.623480 0.000000 
#    z 0.001950 0.000000 1.599490 
# 
# From -- ./inp_files/231833.got.cif
#   From: 2010.06.25/outbox.cif.g09.slc.cpg/sg15_116_cif.got.tgz:231833.got - 2010.06.28 07:06:18.
