data_PCOD8130077
_publ_section_title
;
Structure prediction by ZEFSAII (Michael W. Deem and Ramdas Pophale) SiO2 
 PCOD8130077
Probable space group: C 2/C
;
_chemical_formula_sum "Si O2"
_cell_formula_units_Z 52
_cell_length_a 10.369215
_cell_length_b 19.351677
_cell_length_c 14.977035
_cell_angle_alpha 90.000000
_cell_angle_beta 81.686592
_cell_angle_gamma 90.000000
_cell_volume 2973.737363
_symmetry_space_group_name_H-M "C 2/C"
_symmetry_group_IT_number 15
_symmetry_cell_setting 'monoclinic'
loop_
_space_group_symop_operation_xyz
x,y,z
-x,y,1/2-z
-x,-y,-z
x,-y,1/2+z
1/2+x,1/2+y,z
1/2-x,1/2+y,1/2-z
1/2-x,1/2-y,-z
1/2+x,1/2-y,1/2+z
loop_
_atom_site_type_symbol
_atom_site_label
_atom_site_fract_x
_atom_site_fract_y
_atom_site_fract_z
Si Si1 0.000000 0.296612 0.250000
Si Si2 0.925681 0.150580 0.930829
Si Si3 0.907507 0.037850 0.676025
Si Si4 0.916266 0.260004 0.679353
Si Si5 0.751696 0.359173 0.211703
Si Si6 0.926578 0.113705 0.126938
Si Si7 0.338821 0.324592 0.817240
O O1 0.905689 0.344205 0.199026
O O2 0.911758 0.249055 0.323893
O O3 0.990107 0.225627 0.904190
O O4 0.795390 0.136469 0.886183
O O5 0.029445 0.090102 0.901204
O O6 0.886422 0.148957 0.038227
O O7 0.881071 0.965782 0.629070
O O8 0.000000 0.023125 0.750000
O O9 0.774894 0.070230 0.730249
O O10 0.834667 0.199906 0.734611
O O11 0.815087 0.315281 0.644776
O O12 0.000000 0.296580 0.750000
O O13 0.850446 0.154230 0.212117
O O14 0.084853 0.120120 0.128017
#
# Coordination Sequence:
#
# PCOD8130077 Si02
#       7
#     4   8   8   8   8   8   8
#     4   8  14  30  46  64  82 114 158 178 216 272
#     4   9  17  26  47  71  88 113 153 198 221 252
#     4   9  15  28  45  65  89 119 149 184 226 267
#     4   8  15  31  46  64  89 116 152 186 224 267
#     4   8  15  27  48  66  84 115 151 192 222 259
#     4  10  17  28  43  68  94 118 150 186 229 266
#     4   9  18  29  46  64  93 127 144 181 230 279
#
# _framework density 17.486414
#
# number of rings (size 3 to 8) (size 9 to 14) (size 15 to 20)
#    0.000    3.385    1.538    2.308    0.000    0.615 
#    0.000   12.308    1.692    0.923    0.000    0.000 
#    0.000    0.000    0.000    0.000    0.000    0.000 
#
# Total GULP energy -322147.298478 kJ/mol
# GULP energy per Si atom -12390.280711 kJ/mol
# Density = 1.744661 g / cm^3
# Si number density = 17.486414 Si / 1000 Ang^3
#
#
#
# Elastic Constant Matrix: (Units=GPa)
#
#
# Indices 1 2 3 4 5 6 
#
# 1 87.0216 32.6938 18.4323 0.0000 19.5620 0.0000
# 2 32.6938 58.7809 12.9532 0.0000 7.1125 0.0000
# 3 18.4323 12.9532 81.5018 0.0000 10.6117 0.0000
# 4 0.0000 0.0000 0.0000 18.1036 0.0000 3.3362
# 5 19.5620 7.1125 10.6117 0.0000 15.0704 0.0000
# 6 0.0000 0.0000 0.0000 3.3362 0.0000 15.0181
#
#
#
# Elastic Compliance Matrix: (Units=1/GPa)
#
#
# Indices 1 2 3 4 5 6 
#
# 1 0.019352 -0.008142 -0.000344 0.000000 -0.021034 0.000000
# 2 -0.008142 0.021751 -0.001822 0.000000 0.001587 0.000000
# 3 -0.000344 -0.001822 0.013725 0.000000 -0.008358 0.000000
# 4 0.000000 0.000000 0.000000 0.057596 0.000000 -0.012795
# 5 -0.021034 0.001587 -0.008358 0.000000 0.098795 0.000000
# 6 0.000000 0.000000 0.000000 -0.012795 0.000000 0.069429
#
#
# Mechanical properties :
#
#
# Convention : Reuss Voigt Hill
#
# Bulk Modulus (GPa) = 29.23011 39.49586 34.36298
# Shear Modulus (GPa) = 15.99144 20.52009 18.25577
#
# Velocity S-wave (km/s) = 3.02736 3.42934 3.23460
# Velocity P-wave (km/s) = 5.38257 6.19000 5.80035
#
# Compressibility (1/GPa) = 0.03421130
#
# Stress axis : x y z
#
# Youngs Moduli (GPa) = 51.67492 45.97573 72.85833
#
# Poissons Ratio (x) = 0.37435 0.02504
# Poissons Ratio (y) = 0.42076 0.13275
# Poissons Ratio (z) = 0.01776 0.08377
#
# Static dielectric constant tensor:
#      x y z
#    x 3.371290 0.000000 0.210410 
#    y 0.000000 3.246050 0.000000 
#    z 0.210410 0.000000 2.990890 
# 
# 
# High freq. dielectric constant tensor:
#      x y z
#    x 1.649650 0.000000 0.016820 
#    y 0.000000 1.655220 0.000000 
#    z 0.016820 0.000000 1.652970 
# 
# From -- ./inp_files/146448.got.cif
#   From: 2010.06.25/outbox.cif.g09.slc.cpg/sg15_74_cif.got.tgz:146448.got - 2010.06.28 07:06:18.
