data_PCOD8130177
_publ_section_title
;
Structure prediction by ZEFSAII (Michael W. Deem and Ramdas Pophale) SiO2 
 PCOD8130177
Probable space group: C 2/C
;
_chemical_formula_sum "Si O2"
_cell_formula_units_Z 48
_cell_length_a 15.522212
_cell_length_b 24.949606
_cell_length_c 9.188979
_cell_angle_alpha 90.000000
_cell_angle_beta 46.747792
_cell_angle_gamma 90.000000
_cell_volume 2591.919117
_symmetry_space_group_name_H-M "C 2/C"
_symmetry_group_IT_number 15
_symmetry_cell_setting 'monoclinic'
loop_
_space_group_symop_operation_xyz
x,y,z
-x,y,1/2-z
-x,-y,-z
x,-y,1/2+z
1/2+x,1/2+y,z
1/2-x,1/2+y,1/2-z
1/2-x,1/2-y,-z
1/2+x,1/2-y,1/2+z
loop_
_atom_site_type_symbol
_atom_site_label
_atom_site_fract_x
_atom_site_fract_y
_atom_site_fract_z
Si Si1 0.699428 0.807039 0.514644
Si Si2 0.000000 0.688701 0.750000
Si Si3 0.901155 0.069161 0.115797
Si Si4 0.942842 0.842524 0.159142
Si Si5 0.398738 0.253306 0.619247
Si Si6 0.702971 0.155394 0.316546
Si Si7 0.000000 0.999106 0.750000
O O1 0.750000 0.750000 0.500000
O O2 0.802198 0.844578 0.328518
O O3 0.606048 0.794599 0.495562
O O4 0.651485 0.838468 0.711775
O O5 0.912588 0.726117 0.758661
O O6 0.088175 0.652326 0.552251
O O7 0.776572 0.100592 0.251724
O O8 0.909720 0.035067 0.254098
O O9 0.010723 0.110723 0.999501
O O10 0.915426 0.033666 0.953522
O O11 0.000000 0.852147 0.250000
O O12 0.980820 0.784679 0.055011
O O13 0.286852 0.293292 0.751303
#
# Coordination Sequence:
#
# PCOD8130177 Si02
#       7
#     8   4   8   8   8   8   4
#     4  10  17  30  51  71  96 145 185 207 237 299
#     4  12  24  33  46  74 114 150 182 221 246 286
#     4  10  20  36  55  84 103 131 162 219 279 325
#     4  11  17  31  54  76 109 135 173 217 256 308
#     4  10  21  32  49  74 107 149 186 209 245 293
#     4  10  21  34  51  73 109 140 179 219 254 302
#     4  10  20  35  62  82 106 122 162 217 288 350
#
# _framework density 18.519096000000001
#
# number of rings (size 3 to 8) (size 9 to 14) (size 15 to 20)
#    0.000    1.667    5.833    2.500    0.000    4.000 
#    0.000    0.000    0.000    1.000    0.000    0.000 
#    0.000    0.000    0.000    0.000    0.000    0.000 
#
# Total GULP energy -297464.375655 kJ/mol
# GULP energy per Si atom -12394.348986 kJ/mol
# Density = 1.847695 g / cm^3
# Si number density = 18.519096 Si / 1000 Ang^3
#
#
#
# Elastic Constant Matrix: (Units=GPa)
#
#
# Indices 1 2 3 4 5 6 
#
# 1 66.3883 47.6607 46.7392 0.0000 20.3680 0.0000
# 2 47.6607 82.8074 48.2682 0.0000 3.1688 0.0000
# 3 46.7392 48.2682 135.0399 0.0000 -1.9114 0.0000
# 4 0.0000 0.0000 0.0000 23.4047 0.0000 1.4920
# 5 20.3680 3.1688 -1.9114 0.0000 27.9251 0.0000
# 6 0.0000 0.0000 0.0000 1.4920 0.0000 30.3395
#
#
#
# Elastic Compliance Matrix: (Units=1/GPa)
#
#
# Indices 1 2 3 4 5 6 
#
# 1 0.044927 -0.019382 -0.009064 0.000000 -0.031190 0.000000
# 2 -0.019382 0.023740 -0.001617 0.000000 0.011332 0.000000
# 3 -0.009064 -0.001617 0.011227 0.000000 0.007563 0.000000
# 4 0.000000 0.000000 0.000000 0.042861 0.000000 -0.002108
# 5 -0.031190 0.011332 0.007563 0.000000 0.057791 0.000000
# 6 0.000000 0.000000 0.000000 -0.002108 0.000000 0.033064
#
#
# Mechanical properties :
#
#
# Convention : Reuss Voigt Hill
#
# Bulk Modulus (GPa) = 50.58092 63.28576 56.93334
# Shear Modulus (GPa) = 17.83636 25.77171 21.80403
#
# Velocity S-wave (km/s) = 3.10681 3.73450 3.43502
# Velocity P-wave (km/s) = 6.34364 7.26930 6.82219
#
# Compressibility (1/GPa) = 0.01977030
#
# Stress axis : x y z
#
# Youngs Moduli (GPa) = 22.25813 42.12219 89.06820
#
# Poissons Ratio (x) = 0.81640 0.80729
# Poissons Ratio (y) = 0.43140 0.14403
# Poissons Ratio (z) = 0.20174 0.06811
#
# Static dielectric constant tensor:
#      x y z
#    x 3.198330 0.000000 0.082720 
#    y 0.000000 3.385570 0.000000 
#    z 0.082720 0.000000 3.630330 
# 
# 
# High freq. dielectric constant tensor:
#      x y z
#    x 1.700140 0.000000 0.013900 
#    y 0.000000 1.686630 0.000000 
#    z 0.013900 0.000000 1.726080 
# 
# From -- ./inp_files/42054.got.cif
#   From: 2010.06.25/outbox.cif.g09.slc.cpg/sg15_22_cif.got.tgz:42054.got - 2010.06.28 07:06:18.
