data_PCOD8130872
_publ_section_title
;
Structure prediction by ZEFSAII (Michael W. Deem and Ramdas Pophale) SiO2 
 PCOD8130872
Probable space group: C 2/C
;
_chemical_formula_sum "Si O2"
_cell_formula_units_Z 60
_cell_length_a 15.368377
_cell_length_b 20.260188
_cell_length_c 13.711272
_cell_angle_alpha 90.000000
_cell_angle_beta 47.167455
_cell_angle_gamma 90.000000
_cell_volume 3130.811025
_symmetry_space_group_name_H-M "C 2/C"
_symmetry_group_IT_number 15
_symmetry_cell_setting 'monoclinic'
loop_
_space_group_symop_operation_xyz
x,y,z
-x,y,1/2-z
-x,-y,-z
x,-y,1/2+z
1/2+x,1/2+y,z
1/2-x,1/2+y,1/2-z
1/2-x,1/2-y,-z
1/2+x,1/2-y,1/2+z
loop_
_atom_site_type_symbol
_atom_site_label
_atom_site_fract_x
_atom_site_fract_y
_atom_site_fract_z
Si Si1 0.260359 0.835858 0.163342
Si Si2 0.500000 0.250338 0.250000
Si Si3 0.687057 0.455950 0.344316
Si Si4 0.012895 0.390645 0.964193
Si Si5 0.513310 0.502518 0.132936
Si Si6 0.457180 0.983899 0.174856
Si Si7 0.304989 0.809325 0.779666
Si Si8 0.871983 0.859504 0.439601
O O1 0.205039 0.883410 0.287125
O O2 0.241519 0.762055 0.218133
O O3 0.203215 0.851161 0.102171
O O4 0.400921 0.842795 0.044759
O O5 0.603936 0.201661 0.201258
O O6 0.465052 0.298428 0.367553
O O7 0.615097 0.501828 0.322115
O O8 0.607123 0.452383 0.502824
O O9 0.814810 0.486731 0.271499
O O10 0.994734 0.444871 0.893278
O O11 0.132508 0.347880 0.857219
O O12 0.019319 0.427273 0.062973
O O13 0.500000 0.534569 0.250000
O O14 0.560550 0.428160 0.108472
O O15 0.500000 0.968215 0.250000
O O16 0.202988 0.854906 0.903914
#
# Coordination Sequence:
#
# PCOD8130872 Si02
#       8
#     8   4   8   8   8   8   8   8
#     4  10  20  35  52  82 122 147 187 234 283 353
#     4  10  18  30  44  80 118 152 186 216 288 352
#     4  10  22  36  55  83 109 156 199 225 301 338
#     4  10  22  37  58  89 111 152 197 234 301 349
#     4  11  20  35  56  79 118 150 186 242 278 352
#     4  10  23  40  61  82 116 152 199 257 282 337
#     4  11  20  31  54  83 116 150 186 230 287 360
#     4  11  19  31  52  78 114 156 179 225 290 344
#
# _framework density 19.164363999999999
#
# number of rings (size 3 to 8) (size 9 to 14) (size 15 to 20)
#    0.000    1.600    2.000    4.800    4.667    1.067 
#    0.000    0.000    0.000    4.000    0.000    0.000 
#    0.000    0.000    0.000    0.000    0.000    0.000 
#
# Total GULP energy -371943.075208 kJ/mol
# GULP energy per Si atom -12398.102507 kJ/mol
# Density = 1.912075 g / cm^3
# Si number density = 19.164364 Si / 1000 Ang^3
#
#
#
# Elastic Constant Matrix: (Units=GPa)
#
#
# Indices 1 2 3 4 5 6 
#
# 1 73.6366 33.5830 54.4324 0.0002 6.4819 -0.0001
# 2 33.5830 71.7744 44.9848 0.0001 -1.5638 -0.0001
# 3 54.4324 44.9848 154.9555 0.0004 0.3304 -0.0002
# 4 0.0002 0.0001 0.0004 38.5158 -0.0003 -2.4695
# 5 6.4819 -1.5638 0.3304 -0.0003 29.8394 0.0002
# 6 -0.0001 -0.0001 -0.0002 -2.4695 0.0002 16.9988
#
#
#
# Elastic Compliance Matrix: (Units=1/GPa)
#
#
# Indices 1 2 3 4 5 6 
#
# 1 0.021032 -0.006506 -0.005489 0.000000 -0.004849 0.000000
# 2 -0.006506 0.019071 -0.003256 0.000000 0.002449 0.000000
# 3 -0.005489 -0.003256 0.009325 0.000000 0.000918 0.000000
# 4 0.000000 0.000000 0.000000 0.026207 0.000000 0.003807
# 5 -0.004849 0.002449 0.000918 0.000000 0.034684 0.000000
# 6 0.000000 0.000000 0.000000 0.003807 0.000000 0.059381
#
#
# Mechanical properties :
#
#
# Convention : Reuss Voigt Hill
#
# Bulk Modulus (GPa) = 52.83978 62.92964 57.88471
# Shear Modulus (GPa) = 24.21186 28.22857 26.22021
#
# Velocity S-wave (km/s) = 3.55826 3.84209 3.70290
# Velocity P-wave (km/s) = 6.67183 7.25192 6.96792
#
# Compressibility (1/GPa) = 0.01892514
#
# Stress axis : x y z
#
# Youngs Moduli (GPa) = 47.54765 52.43587 107.23971
#
# Poissons Ratio (x) = 0.34115 0.58862
# Poissons Ratio (y) = 0.30935 0.34920
# Poissons Ratio (z) = 0.26098 0.17074
#
# Static dielectric constant tensor:
#      x y z
#    x 3.357350 0.000000 -0.168480 
#    y 0.000000 3.470340 0.000000 
#    z -0.168480 0.000000 3.861880 
# 
# 
# High freq. dielectric constant tensor:
#      x y z
#    x 1.716020 0.000000 -0.021540 
#    y 0.000000 1.735130 0.000000 
#    z -0.021540 0.000000 1.764470 
# 
# From -- ./inp_files/163536.got.cif
#   From: 2010.06.25/outbox.cif.g09.slc.cpg/sg15_82_cif.got.tgz:163536.got - 2010.06.28 07:06:18.
