data_PCOD8130763
_publ_section_title
;
Structure prediction by ZEFSAII (Michael W. Deem and Ramdas Pophale) SiO2 
 PCOD8130763
Probable space group: C 2/C
;
_chemical_formula_sum "Si O2"
_cell_formula_units_Z 60
_cell_length_a 25.015864
_cell_length_b 17.205540
_cell_length_c 8.909391
_cell_angle_alpha 90.000000
_cell_angle_beta 107.070401
_cell_angle_gamma 90.000000
_cell_volume 3665.765196
_symmetry_space_group_name_H-M "C 2/C"
_symmetry_group_IT_number 15
_symmetry_cell_setting 'monoclinic'
loop_
_space_group_symop_operation_xyz
x,y,z
-x,y,1/2-z
-x,-y,-z
x,-y,1/2+z
1/2+x,1/2+y,z
1/2-x,1/2+y,1/2-z
1/2-x,1/2-y,-z
1/2+x,1/2-y,1/2+z
loop_
_atom_site_type_symbol
_atom_site_label
_atom_site_fract_x
_atom_site_fract_y
_atom_site_fract_z
Si Si1 0.309316 0.793359 0.883602
Si Si2 0.922317 0.960317 0.438192
Si Si3 0.661585 0.348915 0.262823
Si Si4 0.181659 0.742519 0.779853
Si Si5 0.712375 0.096957 0.638131
Si Si6 0.000000 0.003194 0.250000
Si Si7 0.219947 0.440294 0.806685
Si Si8 0.652048 0.609061 0.089148
O O1 0.341348 0.741240 0.786337
O O2 0.245742 0.766616 0.837986
O O3 0.311936 0.882040 0.832016
O O4 0.338031 0.783343 0.070249
O O5 0.894593 0.046077 0.406137
O O6 0.966926 0.949709 0.341118
O O7 0.875207 0.895595 0.387612
O O8 0.954475 0.945720 0.621598
O O9 0.723409 0.380754 0.298487
O O10 0.639233 0.360154 0.411892
O O11 0.174432 0.669750 0.659932
O O12 0.146140 0.816780 0.694508
O O13 0.697475 0.074000 0.455961
O O14 0.702025 0.026050 0.742978
O O15 0.286785 0.429667 0.850494
#
# Coordination Sequence:
#
# PCOD8130763 Si02
#       8
#     8   8   8   8   8   4   8   8
#     4   9  18  29  42  63  89 116 153 193 223 261
#     4  11  20  36  48  68  90 122 156 198 240 287
#     4  10  19  30  47  64  86 121 158 190 228 280
#     4   9  18  29  42  63  89 116 153 193 223 261
#     4  10  18  28  43  65  92 122 156 190 224 263
#     4  10  24  34  48  66  92 114 154 206 252 270
#     4  10  18  28  43  65  92 122 156 190 224 263
#     4  10  19  30  47  64  86 121 158 190 228 280
#
# _framework density 16.367660000000001
#
# number of rings (size 3 to 8) (size 9 to 14) (size 15 to 20)
#    0.000    2.133    2.667    1.600    1.867    4.267 
#    0.000    0.000    0.000    0.000    0.000    0.000 
#    0.000    0.000    0.000    7.200    0.000    0.533 
#
# Total GULP energy -371903.088281 kJ/mol
# GULP energy per Si atom -12396.769609 kJ/mol
# Density = 1.633041 g / cm^3
# Si number density = 16.367660 Si / 1000 Ang^3
#
#
#
# Elastic Constant Matrix: (Units=GPa)
#
#
# Indices 1 2 3 4 5 6 
#
# 1 28.2404 15.3248 13.8467 0.0000 -4.3678 0.0000
# 2 15.3248 85.2362 32.4489 0.0000 -3.5072 0.0000
# 3 13.8467 32.4489 95.1035 0.0000 -2.4418 0.0000
# 4 0.0000 0.0000 0.0000 23.8174 0.0000 -10.3512
# 5 -4.3678 -3.5072 -2.4418 0.0000 18.0752 0.0000
# 6 0.0000 0.0000 0.0000 -10.3512 0.0000 8.3575
#
#
#
# Elastic Compliance Matrix: (Units=1/GPa)
#
#
# Indices 1 2 3 4 5 6 
#
# 1 0.041712 -0.005657 -0.003926 0.000000 0.008452 0.000000
# 2 -0.005657 0.014323 -0.004041 0.000000 0.000866 0.000000
# 3 -0.003926 -0.004041 0.012464 0.000000 -0.000049 0.000000
# 4 0.000000 0.000000 0.000000 0.090934 0.000000 0.112626
# 5 0.008452 0.000866 -0.000049 0.000000 0.057528 0.000000
# 6 0.000000 0.000000 0.000000 0.112626 0.000000 0.259144
#
#
# Mechanical properties :
#
#
# Convention : Reuss Voigt Hill
#
# Bulk Modulus (GPa) = 24.24181 36.86898 30.55540
# Shear Modulus (GPa) = 9.66922 19.84734 14.75828
#
# Velocity S-wave (km/s) = 2.43317 3.48601 3.00604
# Velocity P-wave (km/s) = 4.76831 6.22715 5.54591
#
# Compressibility (1/GPa) = 0.04125104
#
# Stress axis : x y z
#
# Youngs Moduli (GPa) = 23.97375 69.81624 80.23091
#
# Poissons Ratio (x) = 0.39497 0.31498
# Poissons Ratio (y) = 0.13563 0.32422
# Poissons Ratio (z) = 0.09412 0.28214
#
# Static dielectric constant tensor:
#      x y z
#    x 2.719170 0.000000 -0.191850 
#    y 0.000000 3.127020 0.000000 
#    z -0.191850 0.000000 3.347250 
# 
# 
# High freq. dielectric constant tensor:
#      x y z
#    x 1.572930 0.000000 -0.028630 
#    y 0.000000 1.624070 0.000000 
#    z -0.028630 0.000000 1.642550 
# 
# From -- ./inp_files/61549.got.cif
#   From: 2010.06.25/outbox.cif.g09.slc.cpg/sg15_31_cif.got.tgz:61549.got - 2010.06.28 07:06:18.
