data_PCOD8130806
_publ_section_title
;
Structure prediction by ZEFSAII (Michael W. Deem and Ramdas Pophale) SiO2 
 PCOD8130806
Probable space group: C 2/C
;
_chemical_formula_sum "Si O2"
_cell_formula_units_Z 36
_cell_length_a 31.400999
_cell_length_b 15.389918
_cell_length_c 4.987548
_cell_angle_alpha 90.000000
_cell_angle_beta 102.535728
_cell_angle_gamma 90.000000
_cell_volume 2352.817522
_symmetry_space_group_name_H-M "C 2/C"
_symmetry_group_IT_number 15
_symmetry_cell_setting 'monoclinic'
loop_
_space_group_symop_operation_xyz
x,y,z
-x,y,1/2-z
-x,-y,-z
x,-y,1/2+z
1/2+x,1/2+y,z
1/2-x,1/2+y,1/2-z
1/2-x,1/2-y,-z
1/2+x,1/2-y,1/2+z
loop_
_atom_site_type_symbol
_atom_site_label
_atom_site_fract_x
_atom_site_fract_y
_atom_site_fract_z
Si Si1 0.094003 0.061053 0.344246
Si Si2 0.323935 0.674238 0.938860
Si Si3 0.756751 0.557431 0.740742
Si Si4 0.000000 0.060873 0.250000
Si Si5 0.295941 0.771468 0.430373
O O1 0.129339 0.135729 0.426572
O O2 0.099513 0.982864 0.562445
O O3 0.046655 0.111139 0.308536
O O4 0.291263 0.599295 0.789449
O O5 0.302620 0.717419 0.169605
O O6 0.331096 0.744615 0.707386
O O7 0.761784 0.476148 0.945353
O O8 0.795545 0.373484 0.354300
O O9 0.000000 0.000000 0.500000
O O10 0.250000 0.750000 0.500000
#
# Coordination Sequence:
#
# PCOD8130806 Si02
#       5
#     8   8   8   4   8
#     4  10  18  29  44  65  87 115 148 177 204 244
#     4  11  19  30  44  61  84 112 144 177 207 246
#     4  11  19  29  43  59  78 108 144 176 203 242
#     4   8  16  28  42  60  88 114 138 172 212 242
#     4  10  20  32  42  58  84 111 138 177 221 247
#
# _framework density 15.300803999999999
#
# number of rings (size 3 to 8) (size 9 to 14) (size 15 to 20)
#    0.000    1.778    0.000    9.333    0.000    0.000 
#    0.000    0.000    0.000    0.000    0.000    0.000 
#    0.000    0.000    0.000   20.000    0.000    0.000 
#
# Total GULP energy -223039.694601 kJ/mol
# GULP energy per Si atom -12391.094145 kJ/mol
# Density = 1.526598 g / cm^3
# Si number density = 15.300804 Si / 1000 Ang^3
#
#
#
# Elastic Constant Matrix: (Units=GPa)
#
#
# Indices 1 2 3 4 5 6 
#
# 1 75.8385 41.4871 15.7854 0.0000 12.7589 0.0000
# 2 41.4871 63.4901 23.6706 0.0000 5.5226 0.0000
# 3 15.7854 23.6706 88.0449 0.0000 -0.5536 0.0000
# 4 0.0000 0.0000 0.0000 35.2135 0.0000 0.5859
# 5 12.7589 5.5226 -0.5536 0.0000 20.2103 0.0000
# 6 0.0000 0.0000 0.0000 0.5859 0.0000 16.0597
#
#
#
# Elastic Compliance Matrix: (Units=1/GPa)
#
#
# Indices 1 2 3 4 5 6 
#
# 1 0.022494 -0.013624 -0.000436 0.000000 -0.010490 0.000000
# 2 -0.013624 0.026258 -0.004609 0.000000 0.001299 0.000000
# 3 -0.000436 -0.004609 0.012687 0.000000 0.001882 0.000000
# 4 0.000000 0.000000 0.000000 0.028415 0.000000 -0.001037
# 5 -0.010490 0.001299 0.001882 0.000000 0.055799 0.000000
# 6 0.000000 0.000000 0.000000 -0.001037 0.000000 0.062305
#
#
# Mechanical properties :
#
#
# Convention : Reuss Voigt Hill
#
# Bulk Modulus (GPa) = 41.49014 43.25107 42.37061
# Shear Modulus (GPa) = 19.73714 24.05874 21.89794
#
# Velocity S-wave (km/s) = 3.59547 3.96963 3.78718
# Velocity P-wave (km/s) = 6.66421 7.02419 6.84657
#
# Compressibility (1/GPa) = 0.02410211
#
# Stress axis : x y z
#
# Youngs Moduli (GPa) = 44.45573 38.08376 78.82143
#
# Poissons Ratio (x) = 0.51884 0.03438
# Poissons Ratio (y) = 0.60565 0.36326
# Poissons Ratio (z) = 0.01939 0.17551
#
# Static dielectric constant tensor:
#      x y z
#    x 3.162920 0.000000 0.185910 
#    y 0.000000 2.964970 0.000000 
#    z 0.185910 0.000000 3.417850 
# 
# 
# High freq. dielectric constant tensor:
#      x y z
#    x 1.557170 0.000000 -0.001320 
#    y 0.000000 1.553220 0.000000 
#    z -0.001320 0.000000 1.621960 
# 
# From -- ./inp_files/16784.got.cif
#   From: 2010.06.25/outbox.cif.g09.slc.cpg/sg15_9_cif.got.tgz:16784.got - 2010.06.28 07:06:18.
