data_PCOD8130943
_publ_section_title
;
Structure prediction by ZEFSAII (Michael W. Deem and Ramdas Pophale) SiO2 
 PCOD8130943
Probable space group: C 2/C
;
_chemical_formula_sum "Si O2"
_cell_formula_units_Z 60
_cell_length_a 22.752799
_cell_length_b 9.863953
_cell_length_c 21.519616
_cell_angle_alpha 90.000000
_cell_angle_beta 43.768635
_cell_angle_gamma 90.000000
_cell_volume 3340.936571
_symmetry_space_group_name_H-M "C 2/C"
_symmetry_group_IT_number 15
_symmetry_cell_setting 'monoclinic'
loop_
_space_group_symop_operation_xyz
x,y,z
-x,y,1/2-z
-x,-y,-z
x,-y,1/2+z
1/2+x,1/2+y,z
1/2-x,1/2+y,1/2-z
1/2-x,1/2-y,-z
1/2+x,1/2-y,1/2+z
loop_
_atom_site_type_symbol
_atom_site_label
_atom_site_fract_x
_atom_site_fract_y
_atom_site_fract_z
Si Si1 0.281394 0.493016 0.185868
Si Si2 0.411554 0.307120 0.542844
Si Si3 0.899091 0.249058 0.605994
Si Si4 0.746892 0.383193 0.065543
Si Si5 0.331631 0.987515 0.108615
Si Si6 0.000000 0.700515 0.250000
Si Si7 0.648376 0.161516 0.220857
Si Si8 0.622609 0.327783 0.068048
O O1 0.355542 0.607336 0.134134
O O2 0.323519 0.347987 0.139339
O O3 0.239426 0.484865 0.284749
O O4 0.209782 0.533571 0.189444
O O5 0.511544 0.320997 0.479296
O O6 0.392923 0.376373 0.489906
O O7 0.386258 0.149968 0.564803
O O8 0.894848 0.387587 0.570066
O O9 0.892081 0.280048 0.684673
O O10 0.783228 0.505921 0.079413
O O11 0.705006 0.276764 0.145982
O O12 0.678590 0.434985 0.066313
O O13 0.824830 0.313259 0.969926
O O14 0.073498 0.614178 0.229797
O O15 0.034964 0.799933 0.169941
#
# Coordination Sequence:
#
# PCOD8130943 Si02
#       8
#     8   8   8   8   8   4   8   8
#     4  11  20  34  52  77 114 145 176 218 268 332
#     4  11  20  36  52  82 108 139 184 228 266 312
#     4  11  21  32  50  82 112 143 175 216 274 319
#     4   9  16  32  51  76 100 138 176 218 268 309
#     4  10  19  34  54  75 108 146 181 220 262 328
#     4  10  18  30  52  84 106 132 178 242 268 294
#     4  10  18  32  52  78 108 135 184 218 269 309
#     4   9  17  28  52  78 104 129 172 235 265 299
#
# _framework density 17.959036000000001
#
# number of rings (size 3 to 8) (size 9 to 14) (size 15 to 20)
#    0.000    1.867    5.333    1.600    0.000    0.000 
#    0.000    0.000    0.000    0.800    0.000    3.733 
#    0.000    0.000    0.000    0.000    0.000    0.000 
#
# Total GULP energy -371730.552193 kJ/mol
# GULP energy per Si atom -12391.018406 kJ/mol
# Density = 1.791816 g / cm^3
# Si number density = 17.959036 Si / 1000 Ang^3
#
#
#
# Elastic Constant Matrix: (Units=GPa)
#
#
# Indices 1 2 3 4 5 6 
#
# 1 109.0932 25.3488 22.3608 -0.0005 -8.7072 0.0004
# 2 25.3488 42.0598 1.2728 -0.0009 -0.7382 0.0009
# 3 22.3608 1.2728 73.9779 -0.0003 -10.7250 0.0004
# 4 -0.0005 -0.0009 -0.0003 21.1525 0.0000 -5.2799
# 5 -8.7072 -0.7382 -10.7250 0.0000 24.6751 0.0000
# 6 0.0004 0.0009 0.0004 -5.2799 0.0000 23.0026
#
#
#
# Elastic Compliance Matrix: (Units=1/GPa)
#
#
# Indices 1 2 3 4 5 6 
#
# 1 0.011578 -0.006842 -0.003009 0.000000 0.002573 0.000000
# 2 -0.006842 0.027839 0.001451 0.000001 -0.000951 -0.000001
# 3 -0.003009 0.001451 0.015213 0.000000 0.005594 0.000000
# 4 0.000000 0.000001 0.000000 0.050149 0.000000 0.011511
# 5 0.002573 -0.000951 0.005594 0.000000 0.043838 0.000000
# 6 0.000000 -0.000001 0.000000 0.011511 0.000000 0.046116
#
#
# Mechanical properties :
#
#
# Convention : Reuss Voigt Hill
#
# Bulk Modulus (GPa) = 26.43348 35.89956 31.16652
# Shear Modulus (GPa) = 22.30731 25.50926 23.90828
#
# Velocity S-wave (km/s) = 3.52820 3.77293 3.65261
# Velocity P-wave (km/s) = 5.59895 6.24604 5.93133
#
# Compressibility (1/GPa) = 0.03783081
#
# Stress axis : x y z
#
# Youngs Moduli (GPa) = 86.36793 35.92138 65.73295
#
# Poissons Ratio (x) = 0.24577 0.19779
# Poissons Ratio (y) = 0.59092 -0.09539
# Poissons Ratio (z) = 0.25988 -0.05213
#
# Static dielectric constant tensor:
#      x y z
#    x 3.665940 0.000000 -0.052540 
#    y 0.000000 2.965760 0.000000 
#    z -0.052540 0.000000 3.494470 
# 
# 
# High freq. dielectric constant tensor:
#      x y z
#    x 1.703600 0.000000 -0.009540 
#    y 0.000000 1.632570 0.000000 
#    z -0.009540 0.000000 1.715040 
# 
# From -- ./inp_files/283212.got.cif
#   From: 2010.06.25/outbox.cif.g09.slc.cpg/sg15_142_cif.got.tgz:283212.got - 2010.06.28 07:06:18.
