data_PCOD8130072
_publ_section_title
;
Structure prediction by ZEFSAII (Michael W. Deem and Ramdas Pophale) SiO2 
 PCOD8130072
Probable space group: C 2/C
;
_chemical_formula_sum "Si O2"
_cell_formula_units_Z 56
_cell_length_a 21.141075
_cell_length_b 7.169650
_cell_length_c 15.854946
_cell_angle_alpha 90.000000
_cell_angle_beta 119.467537
_cell_angle_gamma 90.000000
_cell_volume 2092.308360
_symmetry_space_group_name_H-M "C 2/C"
_symmetry_group_IT_number 15
_symmetry_cell_setting 'monoclinic'
loop_
_space_group_symop_operation_xyz
x,y,z
-x,y,1/2-z
-x,-y,-z
x,-y,1/2+z
1/2+x,1/2+y,z
1/2-x,1/2+y,1/2-z
1/2-x,1/2-y,-z
1/2+x,1/2-y,1/2+z
loop_
_atom_site_type_symbol
_atom_site_label
_atom_site_fract_x
_atom_site_fract_y
_atom_site_fract_z
Si Si1 0.390979 0.308371 0.974757
Si Si2 0.923584 0.973956 0.168015
Si Si3 0.637952 0.084638 0.957672
Si Si4 0.886017 0.414914 0.730518
Si Si5 0.247758 0.237174 0.203416
Si Si6 0.779895 0.869648 0.640850
Si Si7 0.489464 0.138265 0.916418
O O1 0.424312 0.439879 0.068132
O O2 0.380341 0.101847 0.003706
O O3 0.311873 0.376856 0.890947
O O4 0.442680 0.308698 0.924871
O O5 0.914929 0.780085 0.212389
O O6 0.857247 0.120113 0.142252
O O7 0.000000 0.063917 0.250000
O O8 0.649419 0.040158 0.866625
O O9 0.566451 0.214855 0.928861
O O10 0.712631 0.182022 0.035706
O O11 0.822777 0.378454 0.757407
O O12 0.951197 0.525648 0.816045
O O13 0.264412 0.430367 0.170573
O O14 0.217095 0.272684 0.278144
O O15 0.500000 0.000000 0.000000
#
# Coordination Sequence:
#
# PCOD8130072 Si02
#       7
#     8   8   8   8   8   8   8
#     4   9  18  31  51  77 110 144 180 226 274 323
#     4  10  19  33  53  78 105 143 189 226 265 331
#     4   9  17  30  49  80 110 139 181 227 277 325
#     4  10  17  28  51  79 110 142 180 231 275 318
#     4  10  19  34  54  80 111 145 184 226 273 324
#     4  10  21  35  57  82 110 145 185 229 275 325
#     4  10  17  27  48  80 113 140 173 226 278 318
#
# _framework density 26.764696000000001
#
# number of rings (size 3 to 8) (size 9 to 14) (size 15 to 20)
#    0.000    2.286    0.000    6.429    0.000    4.571 
#    0.000    0.714    0.000   11.143    0.000    0.000 
#    0.000    0.000    0.000    0.000    0.000    0.000 
#
# Total GULP energy -347176.416762 kJ/mol
# GULP energy per Si atom -12399.157742 kJ/mol
# Density = 2.670378 g / cm^3
# Si number density = 26.764696 Si / 1000 Ang^3
#
#
#
# Elastic Constant Matrix: (Units=GPa)
#
#
# Indices 1 2 3 4 5 6 
#
# 1 187.7985 8.4752 41.1385 0.0000 12.3009 0.0000
# 2 8.4752 35.1894 -8.1598 0.0000 15.4536 0.0000
# 3 41.1385 -8.1598 123.9468 0.0000 33.9662 0.0000
# 4 0.0000 0.0000 0.0000 4.9283 0.0000 4.5585
# 5 12.3009 15.4536 33.9662 0.0000 52.5143 0.0000
# 6 0.0000 0.0000 0.0000 4.5585 0.0000 21.5990
#
#
#
# Elastic Compliance Matrix: (Units=1/GPa)
#
#
# Indices 1 2 3 4 5 6 
#
# 1 0.005886 -0.002311 -0.002327 0.000000 0.000806 0.000000
# 2 -0.002311 0.037391 0.007409 0.000000 -0.015254 0.000000
# 3 -0.002327 0.007409 0.011882 0.000000 -0.009321 0.000000
# 4 0.000000 0.000000 0.000000 0.252127 0.000000 -0.053212
# 5 0.000806 -0.015254 -0.009321 0.000000 0.029371 0.000000
# 6 0.000000 0.000000 0.000000 -0.053212 0.000000 0.057529
#
#
# Mechanical properties :
#
#
# Convention : Reuss Voigt Hill
#
# Bulk Modulus (GPa) = 16.47424 47.76029 32.11727
# Shear Modulus (GPa) = 12.22860 36.17372 24.20116
#
# Velocity S-wave (km/s) = 2.13982 3.68033 3.01029
# Velocity P-wave (km/s) = 3.50338 5.99525 4.91003
#
# Compressibility (1/GPa) = 0.06070082
#
# Stress axis : x y z
#
# Youngs Moduli (GPa) = 169.89377 26.74442 84.15977
#
# Poissons Ratio (x) = 0.06181 0.19582
# Poissons Ratio (y) = 0.39267 -0.62352
# Poissons Ratio (z) = 0.39530 -0.19814
#
# Static dielectric constant tensor:
#      x y z
#    x 7.451120 0.000000 -0.823540 
#    y 0.000000 4.505920 0.000000 
#    z -0.823540 0.000000 5.436650 
# 
# 
# High freq. dielectric constant tensor:
#      x y z
#    x 2.096460 0.000000 -0.002110 
#    y 0.000000 2.067110 0.000000 
#    z -0.002110 0.000000 2.081980 
# 
# From -- ./inp_files/214027.got.cif
#   From: 2010.06.25/outbox.cif.g09.slc.cpg/sg15_108_cif.got.tgz:214027.got - 2010.06.28 07:06:18.
