data_PCOD8130920
_publ_section_title
;
Structure prediction by ZEFSAII (Michael W. Deem and Ramdas Pophale) SiO2 
 PCOD8130920
Probable space group: C 2/C
;
_chemical_formula_sum "Si O2"
_cell_formula_units_Z 40
_cell_length_a 18.727529
_cell_length_b 16.249201
_cell_length_c 7.419107
_cell_angle_alpha 90.000000
_cell_angle_beta 112.680877
_cell_angle_gamma 90.000000
_cell_volume 2083.094803
_symmetry_space_group_name_H-M "C 2/C"
_symmetry_group_IT_number 15
_symmetry_cell_setting 'monoclinic'
loop_
_space_group_symop_operation_xyz
x,y,z
-x,y,1/2-z
-x,-y,-z
x,-y,1/2+z
1/2+x,1/2+y,z
1/2-x,1/2+y,1/2-z
1/2-x,1/2-y,-z
1/2+x,1/2-y,1/2+z
loop_
_atom_site_type_symbol
_atom_site_label
_atom_site_fract_x
_atom_site_fract_y
_atom_site_fract_z
Si Si1 0.263986 0.879133 0.513582
Si Si2 0.673850 0.039666 0.759744
Si Si3 0.995138 0.741053 0.534012
Si Si4 0.377198 0.267691 0.129220
Si Si5 0.065387 0.432990 0.440742
O O1 0.277163 0.899454 0.316118
O O2 0.326981 0.811928 0.636177
O O3 0.177699 0.845795 0.458258
O O4 0.272707 0.961986 0.636875
O O5 0.643321 0.091401 0.901900
O O6 0.593120 0.006383 0.596080
O O7 0.932390 0.790728 0.352979
O O8 0.969311 0.646330 0.494315
O O9 0.000000 0.769617 0.750000
O O10 0.077357 0.750969 0.513806
O O11 0.000000 0.472419 0.250000
#
# Coordination Sequence:
#
# PCOD8130920 Si02
#       5
#     8   8   8   8   8
#     4  10  20  38  54  84 113 154 185 229 282 335
#     4  10  20  33  53  82 116 149 182 223 284 340
#     4  10  20  37  56  83 109 146 193 232 279 326
#     4  10  21  38  59  81 118 148 189 235 277 333
#     4  10  18  30  50  81 113 147 178 222 276 344
#
# _framework density 19.202197999999999
#
# number of rings (size 3 to 8) (size 9 to 14) (size 15 to 20)
#    0.000    2.000    2.000    3.000    0.000    1.600 
#    7.200    3.000    0.000    4.800    0.000    0.000 
#    0.000    0.000    0.000    0.000    0.000    0.000 
#
# Total GULP energy -247824.503440 kJ/mol
# GULP energy per Si atom -12391.225172 kJ/mol
# Density = 1.915849 g / cm^3
# Si number density = 19.202198 Si / 1000 Ang^3
#
#
#
# Elastic Constant Matrix: (Units=GPa)
#
#
# Indices 1 2 3 4 5 6 
#
# 1 128.6917 48.4330 49.7271 0.0000 -1.3227 0.0000
# 2 48.4330 57.2033 15.5315 0.0000 5.3381 0.0000
# 3 49.7271 15.5315 87.4455 0.0000 -3.7052 0.0000
# 4 0.0000 0.0000 0.0000 -8.5569 0.0000 -3.8376
# 5 -1.3227 5.3381 -3.7052 0.0000 31.9581 0.0000
# 6 0.0000 0.0000 0.0000 -3.8376 0.0000 41.6313
#
#
#
# Elastic Compliance Matrix: (Units=1/GPa)
#
#
# Indices 1 2 3 4 5 6 
#
# 1 0.014045 -0.010394 -0.006073 0.000000 0.001613 0.000000
# 2 -0.010394 0.026448 0.001012 0.000000 -0.004731 0.000000
# 3 -0.006073 0.001012 0.014764 0.000000 0.001291 0.000000
# 4 0.000000 0.000000 0.000000 -0.112225 0.000000 -0.010345
# 5 0.001613 -0.004731 0.001291 0.000000 0.032298 0.000000
# 6 0.000000 0.000000 0.000000 -0.010345 0.000000 0.023067
#
#
# Mechanical properties :
#
#
# Convention : Reuss Voigt Hill
#
# Bulk Modulus (GPa) = 41.06819 55.63596 48.35208
# Shear Modulus (GPa) = 133.61763 23.64975 78.63369
#
# Velocity S-wave (km/s) = 8.35078 3.51325 6.40619
# Velocity P-wave (km/s) = 10.69647 6.74491 8.94171
#
# Compressibility (1/GPa) = 0.02434975
#
# Stress axis : x y z
#
# Youngs Moduli (GPa) = 71.19884 37.80996 67.73305
#
# Poissons Ratio (x) = 0.39298 0.41132
# Poissons Ratio (y) = 0.74001 -0.06858
# Poissons Ratio (z) = 0.43236 -0.03828
#
# Static dielectric constant tensor:
#      x y z
#    x 3.550810 0.000000 -0.154960 
#    y 0.000000 3.081840 0.000000 
#    z -0.154960 0.000000 3.756090 
# 
# 
# High freq. dielectric constant tensor:
#      x y z
#    x 1.751140 0.000000 -0.012090 
#    y 0.000000 1.702170 0.000000 
#    z -0.012090 0.000000 1.751590 
# 
# From -- ./inp_files/48154.got.cif
#   From: 2010.06.25/outbox.cif.g09.slc.cpg/sg15_25_cif.got.tgz:48154.got - 2010.06.28 07:06:18.
