data_PCOD8130186
_publ_section_title
;
Structure prediction by ZEFSAII (Michael W. Deem and Ramdas Pophale) SiO2 
 PCOD8130186
Probable space group: C 2/C
;
_chemical_formula_sum "Si O2"
_cell_formula_units_Z 52
_cell_length_a 20.480641
_cell_length_b 20.533330
_cell_length_c 13.850221
_cell_angle_alpha 90.000000
_cell_angle_beta 29.658380
_cell_angle_gamma 90.000000
_cell_volume 2882.129656
_symmetry_space_group_name_H-M "C 2/C"
_symmetry_group_IT_number 15
_symmetry_cell_setting 'monoclinic'
loop_
_space_group_symop_operation_xyz
x,y,z
-x,y,1/2-z
-x,-y,-z
x,-y,1/2+z
1/2+x,1/2+y,z
1/2-x,1/2+y,1/2-z
1/2-x,1/2-y,-z
1/2+x,1/2-y,1/2+z
loop_
_atom_site_type_symbol
_atom_site_label
_atom_site_fract_x
_atom_site_fract_y
_atom_site_fract_z
Si Si1 0.732417 0.189038 0.787192
Si Si2 0.989498 0.129284 0.369695
Si Si3 0.358161 0.323222 0.650286
Si Si4 0.500000 0.504635 0.250000
Si Si5 0.127467 0.207421 0.702764
Si Si6 0.704698 0.395703 0.950102
Si Si7 0.541332 0.850116 0.800252
O O1 0.843464 0.143345 0.597854
O O2 0.737915 0.260202 0.728303
O O3 0.754607 0.194928 0.873294
O O4 0.585309 0.158474 0.966497
O O5 0.000000 0.162708 0.250000
O O6 0.110502 0.153997 0.280921
O O7 0.007366 0.050928 0.335539
O O8 0.494589 0.303619 0.429240
O O9 0.300002 0.381368 0.658910
O O10 0.368068 0.462065 0.428096
O O11 0.134150 0.162494 0.599829
O O12 0.127348 0.283470 0.672870
O O13 0.859030 0.401929 0.779494
O O14 0.500000 0.878442 0.750000
#
# Coordination Sequence:
#
# PCOD8130186 Si02
#       7
#     8   8   8   4   8   8   8
#     4  10  19  35  58  88 120 148 189 240 305 347
#     4   9  23  44  58  81 110 159 209 249 276 323
#     4  10  19  32  60  88 110 143 194 246 295 341
#     4  10  24  42  58  80 114 160 216 230 272 346
#     4  10  17  30  51  89 126 145 174 229 297 363
#     4  12  19  33  55  89 121 155 186 228 295 361
#     4  11  20  28  51  90 127 148 170 232 312 360
#
# _framework density 18.042213
#
# number of rings (size 3 to 8) (size 9 to 14) (size 15 to 20)
#    0.462    1.231    4.615    2.308    0.000    1.231 
#    0.000    0.769    0.000    0.000    0.000    0.000 
#    0.000    0.000    0.000    0.000    0.000    0.000 
#
# Total GULP energy -322219.582854 kJ/mol
# GULP energy per Si atom -12393.060879 kJ/mol
# Density = 1.800115 g / cm^3
# Si number density = 18.042213 Si / 1000 Ang^3
#
#
#
# Elastic Constant Matrix: (Units=GPa)
#
#
# Indices 1 2 3 4 5 6 
#
# 1 143.3672 45.4052 37.1566 0.0003 -0.1174 -0.0004
# 2 45.4052 55.5872 38.3974 0.0012 -20.5325 -0.0011
# 3 37.1566 38.3974 66.0627 0.0008 -1.2889 -0.0009
# 4 0.0003 0.0012 0.0008 14.7648 -0.0003 13.9211
# 5 -0.1174 -20.5325 -1.2889 -0.0003 19.5685 0.0005
# 6 -0.0004 -0.0011 -0.0009 13.9211 0.0005 12.7368
#
#
#
# Elastic Compliance Matrix: (Units=1/GPa)
#
#
# Indices 1 2 3 4 5 6 
#
# 1 0.012919 -0.023825 0.006103 -0.000035 -0.024520 0.000038
# 2 -0.023825 0.119450 -0.053653 0.000146 0.121657 -0.000158
# 3 0.006103 -0.053653 0.041845 -0.000002 -0.053504 0.000003
# 4 -0.000035 0.000146 -0.000002 -2.218581 0.000056 2.424863
# 5 -0.024520 0.121657 -0.053504 0.000056 0.175082 -0.000062
# 6 0.000038 -0.000158 0.000003 2.424863 -0.000062 -2.571813
#
#
# Mechanical properties :
#
#
# Convention : Reuss Voigt Hill
#
# Bulk Modulus (GPa) = 31.78325 56.32616 44.05471
# Shear Modulus (GPa) = -1.16608 19.01788 8.92590
#
# Velocity S-wave (km/s) = -0.80481 3.25018 2.22665
# Velocity P-wave (km/s) = 4.09764 6.73586 5.57505
#
# Compressibility (1/GPa) = 0.03146311
#
# Stress axis : x y z
#
# Youngs Moduli (GPa) = 77.40664 8.37173 23.89759
#
# Poissons Ratio (x) = 0.19946 -0.14586
# Poissons Ratio (y) = 1.84424 1.28219
# Poissons Ratio (z) = -0.47245 0.44917
#
# Static dielectric constant tensor:
#      x y z
#    x 3.648850 0.000000 -0.219720 
#    y 0.000000 3.120100 0.000000 
#    z -0.219720 0.000000 3.258150 
# 
# 
# High freq. dielectric constant tensor:
#      x y z
#    x 1.705020 0.000000 -0.017070 
#    y 0.000000 1.658830 0.000000 
#    z -0.017070 0.000000 1.694300 
# 
# From -- ./inp_files/169405.got.cif
#   From: 2010.06.25/outbox.cif.g09.slc.cpg/sg15_85_cif.got.tgz:169405.got - 2010.06.28 07:06:18.
