data_PCOD8130554
_publ_section_title
;
Structure prediction by ZEFSAII (Michael W. Deem and Ramdas Pophale) SiO2 
 PCOD8130554
Probable space group: C 2/C
;
_chemical_formula_sum "Si O2"
_cell_formula_units_Z 52
_cell_length_a 5.137516
_cell_length_b 28.686958
_cell_length_c 17.646623
_cell_angle_alpha 90.000000
_cell_angle_beta 93.789462
_cell_angle_gamma 90.000000
_cell_volume 2595.067922
_symmetry_space_group_name_H-M "C 2/C"
_symmetry_group_IT_number 15
_symmetry_cell_setting 'monoclinic'
loop_
_space_group_symop_operation_xyz
x,y,z
-x,y,1/2-z
-x,-y,-z
x,-y,1/2+z
1/2+x,1/2+y,z
1/2-x,1/2+y,1/2-z
1/2-x,1/2-y,-z
1/2+x,1/2-y,1/2+z
loop_
_atom_site_type_symbol
_atom_site_label
_atom_site_fract_x
_atom_site_fract_y
_atom_site_fract_z
Si Si1 0.408581 0.827212 0.827891
Si Si2 0.003942 0.603890 0.049216
Si Si3 0.561567 0.099651 0.877453
Si Si4 0.451650 0.456891 0.160989
Si Si5 0.460770 0.440194 0.885408
Si Si6 0.500000 0.175438 0.750000
Si Si7 0.500000 0.262006 0.250000
Si Si8 0.000000 0.881569 0.750000
O O1 0.500000 0.851692 0.750000
O O2 0.545657 0.847692 0.905415
O O3 0.456174 0.771427 0.823342
O O4 0.113442 0.845577 0.816012
O O5 0.752941 0.570408 0.053878
O O6 0.256278 0.578810 0.087157
O O7 0.035974 0.617248 0.962677
O O8 0.850137 0.080128 0.870579
O O9 0.539056 0.144644 0.824658
O O10 0.344275 0.060913 0.854664
O O11 0.500000 0.463760 0.250000
O O12 0.502470 0.504692 0.118678
O O13 0.352280 0.417719 0.804277
O O14 0.252338 0.206816 0.764820
#
# Coordination Sequence:
#
# PCOD8130554 Si02
#       8
#     8   8   8   8   8   4   4   4
#     4   9  19  37  63  89 125 150 190 247 316 372
#     4  11  24  40  61  95 128 164 192 252 314 365
#     4  12  26  43  63  85 126 166 211 253 301 355
#     4  12  23  42  63  90 122 170 217 256 287 346
#     4  11  22  36  63  90 127 160 210 245 300 353
#     4  12  23  44  64  87 114 165 212 246 299 370
#     4  10  22  38  69  93 112 151 203 256 302 374
#     4  10  17  34  59  92 120 166 191 242 299 380
#
# _framework density 20.03801
#
# number of rings (size 3 to 8) (size 9 to 14) (size 15 to 20)
#    0.462    0.615    3.846    3.231    0.000    3.692 
#    0.000    1.538    0.000    0.000    0.000    0.000 
#    0.000    0.000    0.000    0.000    0.000    0.000 
#
# Total GULP energy -322113.939401 kJ/mol
# GULP energy per Si atom -12388.997669 kJ/mol
# Density = 1.999240 g / cm^3
# Si number density = 20.038010 Si / 1000 Ang^3
#
#
#
# Elastic Constant Matrix: (Units=GPa)
#
#
# Indices 1 2 3 4 5 6 
#
# 1 89.4070 36.2915 2.6072 0.0000 -4.7758 0.0000
# 2 36.2915 135.3270 43.8130 0.0000 0.0557 0.0000
# 3 2.6072 43.8130 99.9479 0.0000 -12.3506 0.0000
# 4 0.0000 0.0000 0.0000 9.1431 0.0000 -3.4191
# 5 -4.7758 0.0557 -12.3506 0.0000 23.6794 0.0000
# 6 0.0000 0.0000 0.0000 -3.4191 0.0000 33.9189
#
#
#
# Elastic Compliance Matrix: (Units=1/GPa)
#
#
# Indices 1 2 3 4 5 6 
#
# 1 0.012988 -0.004102 0.001907 0.000000 0.003624 0.000000
# 2 -0.004102 0.010009 -0.004688 0.000000 -0.003296 0.000000
# 3 0.001907 -0.004688 0.012890 0.000000 0.007119 0.000000
# 4 0.000000 0.000000 0.000000 0.113657 0.000000 0.011457
# 5 0.003624 -0.003296 0.007119 0.000000 0.046683 0.000000
# 6 0.000000 0.000000 0.000000 0.011457 0.000000 0.030637
#
#
# Mechanical properties :
#
#
# Convention : Reuss Voigt Hill
#
# Bulk Modulus (GPa) = 45.20490 54.45615 49.83053
# Shear Modulus (GPa) = 20.16116 29.47961 24.82039
#
# Velocity S-wave (km/s) = 3.17542 3.83976 3.52329
# Velocity P-wave (km/s) = 6.00441 6.84791 6.43998
#
# Compressibility (1/GPa) = 0.02212149
#
# Stress axis : x y z
#
# Youngs Moduli (GPa) = 76.99534 99.91462 77.57966
#
# Poissons Ratio (x) = 0.40985 -0.14795
# Poissons Ratio (y) = 0.31583 0.36366
# Poissons Ratio (z) = -0.14684 0.46836
#
# Static dielectric constant tensor:
#      x y z
#    x 3.992320 0.000000 0.036060 
#    y 0.000000 3.574370 0.000000 
#    z 0.036060 0.000000 3.721100 
# 
# 
# High freq. dielectric constant tensor:
#      x y z
#    x 1.792350 0.000000 -0.005620 
#    y 0.000000 1.774330 0.000000 
#    z -0.005620 0.000000 1.773690 
# 
# From -- ./inp_files/185921.got.cif
#   From: 2010.06.25/outbox.cif.g09.slc.cpg/sg15_93_cif.got.tgz:185921.got - 2010.06.28 07:06:18.
