data_PCOD8130108
_publ_section_title
;
Structure prediction by ZEFSAII (Michael W. Deem and Ramdas Pophale) SiO2 
 PCOD8130108
Probable space group: C 2/C
;
_chemical_formula_sum "Si O2"
_cell_formula_units_Z 60
_cell_length_a 15.006093
_cell_length_b 10.240484
_cell_length_c 23.069733
_cell_angle_alpha 90.000000
_cell_angle_beta 103.820785
_cell_angle_gamma 90.000000
_cell_volume 3442.478543
_symmetry_space_group_name_H-M "C 2/C"
_symmetry_group_IT_number 15
_symmetry_cell_setting 'monoclinic'
loop_
_space_group_symop_operation_xyz
x,y,z
-x,y,1/2-z
-x,-y,-z
x,-y,1/2+z
1/2+x,1/2+y,z
1/2-x,1/2+y,1/2-z
1/2-x,1/2-y,-z
1/2+x,1/2-y,1/2+z
loop_
_atom_site_type_symbol
_atom_site_label
_atom_site_fract_x
_atom_site_fract_y
_atom_site_fract_z
Si Si1 0.647165 0.299562 0.623626
Si Si2 0.415924 0.411906 0.003086
Si Si3 0.875553 0.479882 0.429707
Si Si4 0.500000 0.327019 0.250000
Si Si5 0.945266 0.364813 0.557593
Si Si6 0.650941 0.780652 0.847140
Si Si7 0.498494 0.578480 0.313138
Si Si8 0.673594 0.496762 0.902258
O O1 0.640946 0.373613 0.561912
O O2 0.623254 0.147657 0.610929
O O3 0.750671 0.329604 0.661410
O O4 0.577641 0.356024 0.659548
O O5 0.500000 0.500000 0.000000
O O6 0.455745 0.286102 0.042324
O O7 0.349622 0.497709 0.033324
O O8 0.890731 0.443119 0.499502
O O9 0.777555 0.555044 0.409980
O O10 0.953204 0.576854 0.418497
O O11 0.416452 0.233259 0.218511
O O12 0.474254 0.423344 0.300261
O O13 0.891779 0.376806 0.610630
O O14 0.671444 0.642596 0.878729
O O15 0.500000 0.647891 0.250000
O O16 0.599381 0.593646 0.357615
#
# Coordination Sequence:
#
# PCOD8130108 Si02
#       8
#     8   8   8   4   8   8   8   8
#     4  10  18  31  55  76  98 132 171 205 256 306
#     4  10  17  28  53  81 103 129 167 219 250 294
#     4   9  18  32  53  75 104 141 160 197 263 316
#     4   8  18  34  50  68  98 130 168 218 254 278
#     4   9  18  32  51  76 110 132 164 207 256 305
#     4   9  17  32  52  74  95 130 175 214 240 303
#     4   9  18  32  52  70  99 132 166 212 250 293
#     4   9  16  31  52  75  99 129 173 201 255 307
#
# _framework density 17.429303999999998
#
# number of rings (size 3 to 8) (size 9 to 14) (size 15 to 20)
#    0.400    2.400    1.333    0.800    0.000    3.200 
#    2.400    0.667    7.333    0.000    0.000    0.000 
#    0.000    0.000    0.000    0.000    0.000    0.000 
#
# Total GULP energy -371792.934175 kJ/mol
# GULP energy per Si atom -12393.097806 kJ/mol
# Density = 1.738963 g / cm^3
# Si number density = 17.429304 Si / 1000 Ang^3
#
#
#
# Elastic Constant Matrix: (Units=GPa)
#
#
# Indices 1 2 3 4 5 6 
#
# 1 179.1474 44.3045 66.9737 0.0000 12.1097 0.0000
# 2 44.3045 36.2585 22.4901 0.0000 3.3755 0.0000
# 3 66.9737 22.4901 90.2078 0.0000 6.5677 0.0000
# 4 0.0000 0.0000 0.0000 12.5062 0.0000 -3.0057
# 5 12.1097 3.3755 6.5677 0.0000 28.2224 0.0000
# 6 0.0000 0.0000 0.0000 -3.0057 0.0000 27.9764
#
#
#
# Elastic Compliance Matrix: (Units=1/GPa)
#
#
# Indices 1 2 3 4 5 6 
#
# 1 0.009672 -0.008598 -0.004892 0.000000 -0.001983 0.000000
# 2 -0.008598 0.040386 -0.003664 0.000000 -0.000288 0.000000
# 3 -0.004892 -0.003664 0.015713 0.000000 -0.001119 0.000000
# 4 0.000000 0.000000 0.000000 0.082080 0.000000 0.008818
# 5 -0.001983 -0.000288 -0.001119 0.000000 0.036579 0.000000
# 6 0.000000 0.000000 0.000000 0.008818 0.000000 0.036692
#
#
# Mechanical properties :
#
#
# Convention : Reuss Voigt Hill
#
# Bulk Modulus (GPa) = 31.78600 63.68336 47.73468
# Shear Modulus (GPa) = 18.80288 25.19736 22.00012
#
# Velocity S-wave (km/s) = 3.28808 3.80635 3.55667
# Velocity P-wave (km/s) = 5.71769 7.47898 6.65684
#
# Compressibility (1/GPa) = 0.03146039
#
# Stress axis : x y z
#
# Youngs Moduli (GPa) = 103.39648 24.76124 63.64254
#
# Poissons Ratio (x) = 0.21291 0.31137
# Poissons Ratio (y) = 0.88905 0.23318
# Poissons Ratio (z) = 0.50586 0.09072
#
# Static dielectric constant tensor:
#      x y z
#    x 3.441570 0.000000 0.116300 
#    y 0.000000 2.905310 0.000000 
#    z 0.116300 0.000000 3.302040 
# 
# 
# High freq. dielectric constant tensor:
#      x y z
#    x 1.680860 0.000000 0.007850 
#    y 0.000000 1.631540 0.000000 
#    z 0.007850 0.000000 1.668670 
# 
# From -- ./inp_files/273483.got.cif
#   From: 2010.06.25/outbox.cif.g09.slc.cpg/sg15_137_cif.got.tgz:273483.got - 2010.06.28 07:06:18.
