data_PCOD8130309
_publ_section_title
;
Structure prediction by ZEFSAII (Michael W. Deem and Ramdas Pophale) SiO2 
 PCOD8130309
Probable space group: C 2/C
;
_chemical_formula_sum "Si O2"
_cell_formula_units_Z 56
_cell_length_a 11.899980
_cell_length_b 16.034537
_cell_length_c 14.969082
_cell_angle_alpha 90.000000
_cell_angle_beta 81.953582
_cell_angle_gamma 90.000000
_cell_volume 2828.140655
_symmetry_space_group_name_H-M "C 2/C"
_symmetry_group_IT_number 15
_symmetry_cell_setting 'monoclinic'
loop_
_space_group_symop_operation_xyz
x,y,z
-x,y,1/2-z
-x,-y,-z
x,-y,1/2+z
1/2+x,1/2+y,z
1/2-x,1/2+y,1/2-z
1/2-x,1/2-y,-z
1/2+x,1/2-y,1/2+z
loop_
_atom_site_type_symbol
_atom_site_label
_atom_site_fract_x
_atom_site_fract_y
_atom_site_fract_z
Si Si1 0.095076 0.524972 0.815013
Si Si2 0.702369 0.791622 0.864862
Si Si3 0.035379 0.319329 0.408639
Si Si4 0.767867 0.462839 0.848160
Si Si5 0.481921 0.874814 0.895496
Si Si6 0.217885 0.366568 0.054890
Si Si7 0.893963 0.839484 0.703764
O O1 0.119546 0.615475 0.852108
O O2 0.211114 0.497105 0.754550
O O3 0.000000 0.527567 0.750000
O O4 0.050827 0.462910 0.898619
O O5 0.576787 0.813981 0.838841
O O6 0.698788 0.696062 0.900688
O O7 0.794968 0.804095 0.777976
O O8 0.729683 0.852410 0.947046
O O9 0.054894 0.328159 0.511095
O O10 0.063371 0.228436 0.371374
O O11 0.907432 0.343459 0.396707
O O12 0.866511 0.393900 0.855585
O O13 0.758094 0.536613 0.922667
O O14 0.648743 0.414900 0.854233
O O15 0.000000 0.870745 0.750000
#
# Coordination Sequence:
#
# PCOD8130309 Si02
#       7
#     8   8   8   8   8   8   8
#     4  10  17  31  57  92 116 143 189 250 294 337
#     4  10  21  36  63  88 119 154 202 241 295 354
#     4  11  20  34  64  91 118 149 206 249 291 353
#     4  11  23  37  62  89 123 151 197 252 302 346
#     4  10  21  35  61  92 118 147 193 256 304 339
#     4  10  20  38  62  90 114 159 200 244 290 355
#     4  12  24  39  59  86 122 161 198 243 295 359
#
# _framework density 19.800996000000001
#
# number of rings (size 3 to 8) (size 9 to 14) (size 15 to 20)
#    0.000    1.429    5.714    1.714    2.000    0.571 
#    0.000    0.714    6.286    0.000    0.000    0.000 
#    0.000    0.000    0.000    0.000    0.000    0.000 
#
# Total GULP energy -346942.817953 kJ/mol
# GULP energy per Si atom -12390.814927 kJ/mol
# Density = 1.975593 g / cm^3
# Si number density = 19.800996 Si / 1000 Ang^3
#
#
#
# Elastic Constant Matrix: (Units=GPa)
#
#
# Indices 1 2 3 4 5 6 
#
# 1 76.1328 44.6518 14.3836 0.0000 0.8287 0.0000
# 2 44.6518 87.3610 33.6026 0.0000 -1.4355 0.0000
# 3 14.3836 33.6026 82.5356 0.0000 -4.8816 0.0000
# 4 0.0000 0.0000 0.0000 28.3617 0.0000 -3.4085
# 5 0.8287 -1.4355 -4.8816 0.0000 10.6694 0.0000
# 6 0.0000 0.0000 0.0000 -3.4085 0.0000 31.7606
#
#
#
# Elastic Compliance Matrix: (Units=1/GPa)
#
#
# Indices 1 2 3 4 5 6 
#
# 1 0.018863 -0.009913 0.000599 0.000000 -0.002525 0.000000
# 2 -0.009913 0.018787 -0.005885 0.000000 0.000605 0.000000
# 3 0.000599 -0.005885 0.014757 0.000000 0.005914 0.000000
# 4 0.000000 0.000000 0.000000 0.035720 0.000000 0.003833
# 5 -0.002525 0.000605 0.005914 0.000000 0.096709 0.000000
# 6 0.000000 0.000000 0.000000 0.003833 0.000000 0.031897
#
#
# Mechanical properties :
#
#
# Convention : Reuss Voigt Hill
#
# Bulk Modulus (GPa) = 45.43569 47.92284 46.67926
# Shear Modulus (GPa) = 19.64870 24.38443 22.01656
#
# Velocity S-wave (km/s) = 3.15351 3.51304 3.33812
# Velocity P-wave (km/s) = 6.02125 6.38045 6.20345
#
# Compressibility (1/GPa) = 0.02200913
#
# Stress axis : x y z
#
# Youngs Moduli (GPa) = 53.01263 53.22700 67.76240
#
# Poissons Ratio (x) = 0.52766 -0.04061
# Poissons Ratio (y) = 0.52554 0.39881
# Poissons Ratio (z) = -0.03177 0.31327
#
# Static dielectric constant tensor:
#      x y z
#    x 3.533830 0.000000 -0.112210 
#    y 0.000000 3.775560 0.000000 
#    z -0.112210 0.000000 3.714460 
# 
# 
# High freq. dielectric constant tensor:
#      x y z
#    x 1.737790 0.000000 -0.005580 
#    y 0.000000 1.765170 0.000000 
#    z -0.005580 0.000000 1.775050 
# 
# From -- ./inp_files/197788.got.cif
#   From: 2010.06.25/outbox.cif.g09.slc.cpg/sg15_99_cif.got.tgz:197788.got - 2010.06.28 07:06:18.
