data_PCOD8130908
_publ_section_title
;
Structure prediction by ZEFSAII (Michael W. Deem and Ramdas Pophale) SiO2 
 PCOD8130908
Probable space group: C 2/C
;
_chemical_formula_sum "Si O2"
_cell_formula_units_Z 56
_cell_length_a 25.613348
_cell_length_b 16.185752
_cell_length_c 16.810938
_cell_angle_alpha 90.000000
_cell_angle_beta 23.120366
_cell_angle_gamma 90.000000
_cell_volume 2736.606256
_symmetry_space_group_name_H-M "C 2/C"
_symmetry_group_IT_number 15
_symmetry_cell_setting 'monoclinic'
loop_
_space_group_symop_operation_xyz
x,y,z
-x,y,1/2-z
-x,-y,-z
x,-y,1/2+z
1/2+x,1/2+y,z
1/2-x,1/2+y,1/2-z
1/2-x,1/2-y,-z
1/2+x,1/2-y,1/2+z
loop_
_atom_site_type_symbol
_atom_site_label
_atom_site_fract_x
_atom_site_fract_y
_atom_site_fract_z
Si Si1 0.362669 0.560276 0.349936
Si Si2 0.707585 0.388206 0.834838
Si Si3 0.206633 0.390386 0.396074
Si Si4 0.337736 0.576599 0.561814
Si Si5 0.410892 0.382501 0.233780
Si Si6 0.643859 0.070269 0.522277
Si Si7 0.648567 0.721695 0.550944
O O1 0.311843 0.596827 0.505602
O O2 0.382940 0.461369 0.329715
O O3 0.254296 0.584510 0.435811
O O4 0.509889 0.596583 0.126257
O O5 0.701210 0.482099 0.870124
O O6 0.812749 0.377419 0.616014
O O7 0.563497 0.360305 0.004695
O O8 0.747675 0.328226 0.852605
O O9 0.235666 0.371966 0.261799
O O10 0.352924 0.403109 0.228599
O O11 0.124334 0.473964 0.526190
O O12 0.135508 0.316506 0.542887
O O13 0.327381 0.303280 0.389062
O O14 0.500000 0.104416 0.750000
O O15 0.500000 0.681749 0.750000
#
# Coordination Sequence:
#
# PCOD8130908 Si02
#       7
#     8   8   8   8   8   8   8
#     4   9  16  30  54  75  96 125 171 210 244 276
#     4   9  17  31  51  71  96 130 170 198 239 293
#     4  10  19  29  48  76 105 124 159 202 260 295
#     4   9  16  30  52  78  97 124 166 214 242 282
#     4   9  16  29  51  77  96 125 163 209 247 289
#     4  10  20  33  50  72 103 135 164 200 243 297
#     4  10  18  30  50  72 103 130 156 201 252 304
#
# _framework density 20.463301999999999
#
# number of rings (size 3 to 8) (size 9 to 14) (size 15 to 20)
#    0.000    2.571    1.429    1.714    0.000    3.429 
#    0.000    2.857   12.571    0.857    0.000    0.000 
#    0.000    0.000    0.000    0.000    0.000    0.000 
#
# Total GULP energy -346875.573931 kJ/mol
# GULP energy per Si atom -12388.413355 kJ/mol
# Density = 2.041673 g / cm^3
# Si number density = 20.463302 Si / 1000 Ang^3
#
#
#
# Elastic Constant Matrix: (Units=GPa)
#
#
# Indices 1 2 3 4 5 6 
#
# 1 50.9884 -2.0342 29.3538 0.0002 22.2630 0.0000
# 2 -2.0342 35.5879 11.7859 -0.0003 10.3274 0.0000
# 3 29.3538 11.7859 105.3715 -0.0001 23.3412 -0.0001
# 4 0.0002 -0.0003 -0.0001 22.9383 -0.0001 14.0373
# 5 22.2630 10.3274 23.3412 -0.0001 32.5484 0.0001
# 6 0.0000 0.0000 -0.0001 14.0373 0.0001 -2.7614
#
#
#
# Elastic Compliance Matrix: (Units=1/GPa)
#
#
# Indices 1 2 3 4 5 6 
#
# 1 0.032499 0.009883 -0.005397 0.000000 -0.021494 -0.000001
# 2 0.009883 0.034163 -0.003181 0.000000 -0.015318 0.000000
# 3 -0.005397 -0.003181 0.012255 0.000000 -0.004087 0.000000
# 4 0.000000 0.000000 0.000000 0.010605 0.000000 0.053909
# 5 -0.021494 -0.015318 -0.004087 0.000000 0.053216 0.000001
# 6 -0.000001 0.000000 0.000000 0.053909 0.000001 -0.088093
#
#
# Mechanical properties :
#
#
# Convention : Reuss Voigt Hill
#
# Bulk Modulus (GPa) = 12.26622 30.01765 21.14193
# Shear Modulus (GPa) = 63.12168 20.73455 41.92812
#
# Velocity S-wave (km/s) = 5.55997 3.18662 4.53143
# Velocity P-wave (km/s) = 6.87204 5.31416 6.14269
#
# Compressibility (1/GPa) = 0.08152474
#
# Stress axis : x y z
#
# Youngs Moduli (GPa) = 30.77046 29.27145 81.59942
#
# Poissons Ratio (x) = -0.28928 0.44043
# Poissons Ratio (y) = -0.30409 0.25957
# Poissons Ratio (z) = 0.16608 0.09311
#
# Static dielectric constant tensor:
#      x y z
#    x 3.712960 0.000000 0.246590 
#    y 0.000000 3.292780 0.000000 
#    z 0.246590 0.000000 3.649280 
# 
# 
# High freq. dielectric constant tensor:
#      x y z
#    x 1.795360 0.000000 0.020200 
#    y 0.000000 1.758320 0.000000 
#    z 0.020200 0.000000 1.793880 
# 
# From -- ./inp_files/225662.got.cif
#   From: 2010.06.25/outbox.cif.g09.slc.cpg/sg15_113_cif.got.tgz:225662.got - 2010.06.28 07:06:18.
