data_PCOD8130586
_publ_section_title
;
Structure prediction by ZEFSAII (Michael W. Deem and Ramdas Pophale) SiO2 
 PCOD8130586
Probable space group: C 2/C
;
_chemical_formula_sum "Si O2"
_cell_formula_units_Z 52
_cell_length_a 14.310457
_cell_length_b 17.494415
_cell_length_c 12.394029
_cell_angle_alpha 90.000000
_cell_angle_beta 118.781983
_cell_angle_gamma 90.000000
_cell_volume 2719.547246
_symmetry_space_group_name_H-M "C 2/C"
_symmetry_group_IT_number 15
_symmetry_cell_setting 'monoclinic'
loop_
_space_group_symop_operation_xyz
x,y,z
-x,y,1/2-z
-x,-y,-z
x,-y,1/2+z
1/2+x,1/2+y,z
1/2-x,1/2+y,1/2-z
1/2-x,1/2-y,-z
1/2+x,1/2-y,1/2+z
loop_
_atom_site_type_symbol
_atom_site_label
_atom_site_fract_x
_atom_site_fract_y
_atom_site_fract_z
Si Si1 0.223678 0.352266 0.667184
Si Si2 0.092205 0.763273 0.672540
Si Si3 0.307582 0.836238 0.441012
Si Si4 0.877155 0.271869 0.693192
Si Si5 0.620489 0.802679 0.404069
Si Si6 0.386903 0.989873 0.381393
Si Si7 0.500000 0.934867 0.250000
O O1 0.346227 0.344616 0.778301
O O2 0.142626 0.307834 0.700281
O O3 0.215663 0.310500 0.543579
O O4 0.192927 0.440251 0.643141
O O5 0.115673 0.727270 0.569978
O O6 0.152690 0.709712 0.797087
O O7 0.964311 0.766423 0.615897
O O8 0.186000 0.808068 0.357314
O O9 0.339158 0.835451 0.584604
O O10 0.324362 0.918404 0.397178
O O11 0.000000 0.251526 0.750000
O O12 0.555465 0.882810 0.373475
O O13 0.411355 0.983760 0.266078
O O14 0.500000 0.000000 0.500000
#
# Coordination Sequence:
#
# PCOD8130586 Si02
#       7
#     8   8   8   8   8   8   4
#     4  11  22  30  53  83 100 137 172 212 260 317
#     4   9  18  34  52  75 101 135 174 208 255 306
#     4  10  20  36  52  78 107 140 169 220 264 307
#     4  10  21  35  55  77 103 139 186 209 251 314
#     4  10  17  35  55  72 106 129 172 215 258 299
#     4  12  21  33  52  77 114 131 167 216 277 312
#     4  10  20  32  50  76 104 144 152 212 278 314
#
# _framework density 19.120830000000002
#
# number of rings (size 3 to 8) (size 9 to 14) (size 15 to 20)
#    0.000    1.846    4.615    2.308    3.231    0.000 
#    0.000    0.000    3.385    0.000    0.000    5.385 
#    0.000    0.000    0.000    0.000    0.000    0.000 
#
# Total GULP energy -322177.059299 kJ/mol
# GULP energy per Si atom -12391.425358 kJ/mol
# Density = 1.907731 g / cm^3
# Si number density = 19.120830 Si / 1000 Ang^3
#
#
#
# Elastic Constant Matrix: (Units=GPa)
#
#
# Indices 1 2 3 4 5 6 
#
# 1 59.8013 19.3409 5.9486 0.0000 1.1046 0.0000
# 2 19.3409 84.4469 16.7721 0.0000 7.5603 0.0000
# 3 5.9486 16.7721 59.0745 0.0000 -6.5533 0.0000
# 4 0.0000 0.0000 0.0000 13.8078 0.0000 -0.2507
# 5 1.1046 7.5603 -6.5533 0.0000 37.1735 0.0000
# 6 0.0000 0.0000 0.0000 -0.2507 0.0000 26.5798
#
#
#
# Elastic Compliance Matrix: (Units=1/GPa)
#
#
# Indices 1 2 3 4 5 6 
#
# 1 0.018087 -0.004026 -0.000660 0.000000 0.000165 0.000000
# 2 -0.004026 0.013841 -0.003900 0.000000 -0.003383 0.000000
# 3 -0.000660 -0.003900 0.018554 0.000000 0.004084 0.000000
# 4 0.000000 0.000000 0.000000 0.072435 0.000000 0.000683
# 5 0.000165 -0.003383 0.004084 0.000000 0.028304 0.000000
# 6 0.000000 0.000000 0.000000 0.000683 0.000000 0.037629
#
#
# Mechanical properties :
#
#
# Convention : Reuss Voigt Hill
#
# Bulk Modulus (GPa) = 30.01994 31.93842 30.97918
# Shear Modulus (GPa) = 23.02818 26.26296 24.64557
#
# Velocity S-wave (km/s) = 3.47414 3.71013 3.59407
# Velocity P-wave (km/s) = 5.64155 5.92395 5.78447
#
# Compressibility (1/GPa) = 0.03331119
#
# Stress axis : x y z
#
# Youngs Moduli (GPa) = 55.28906 72.24791 53.89561
#
# Poissons Ratio (x) = 0.29088 0.03556
# Poissons Ratio (y) = 0.22260 0.21017
# Poissons Ratio (z) = 0.03648 0.28174
#
# Static dielectric constant tensor:
#      x y z
#    x 3.638540 0.000000 -0.191110 
#    y 0.000000 3.352370 0.000000 
#    z -0.191110 0.000000 3.588880 
# 
# 
# High freq. dielectric constant tensor:
#      x y z
#    x 1.739820 0.000000 -0.021260 
#    y 0.000000 1.709210 0.000000 
#    z -0.021260 0.000000 1.751650 
# 
# From -- ./inp_files/98455.got.cif
#   From: 2010.06.25/outbox.cif.g09.slc.cpg/sg15_50_cif.got.tgz:98455.got - 2010.06.28 07:06:18.
