data_PCOD8130477
_publ_section_title
;
Structure prediction by ZEFSAII (Michael W. Deem and Ramdas Pophale) SiO2 
 PCOD8130477
Probable space group: C 2/C
;
_chemical_formula_sum "Si O2"
_cell_formula_units_Z 56
_cell_length_a 13.739603
_cell_length_b 18.382694
_cell_length_c 18.712125
_cell_angle_alpha 90.000000
_cell_angle_beta 137.772267
_cell_angle_gamma 90.000000
_cell_volume 3176.338888
_symmetry_space_group_name_H-M "C 2/C"
_symmetry_group_IT_number 15
_symmetry_cell_setting 'monoclinic'
loop_
_space_group_symop_operation_xyz
x,y,z
-x,y,1/2-z
-x,-y,-z
x,-y,1/2+z
1/2+x,1/2+y,z
1/2-x,1/2+y,1/2-z
1/2-x,1/2-y,-z
1/2+x,1/2-y,1/2+z
loop_
_atom_site_type_symbol
_atom_site_label
_atom_site_fract_x
_atom_site_fract_y
_atom_site_fract_z
Si Si1 0.727575 0.921732 0.221139
Si Si2 0.033311 0.646434 0.140286
Si Si3 0.287520 0.403180 0.005142
Si Si4 0.843984 0.523753 0.196822
Si Si5 0.532301 0.690504 0.683453
Si Si6 0.555610 0.920858 0.506063
Si Si7 0.659327 0.485309 0.845552
O O1 0.826935 0.851561 0.267614
O O2 0.562689 0.895013 0.115784
O O3 0.727196 0.955701 0.300490
O O4 0.785113 0.984103 0.199567
O O5 0.133815 0.591439 0.238346
O O6 0.066631 0.725901 0.187437
O O7 0.067004 0.638158 0.075152
O O8 0.866385 0.628638 0.059179
O O9 0.398426 0.335528 0.060601
O O10 0.355560 0.451112 0.105067
O O11 0.273158 0.451327 0.925955
O O12 0.000000 0.500359 0.250000
O O13 0.500000 0.678090 0.750000
O O14 0.717821 0.928010 0.560806
O O15 0.500000 0.000000 0.500000
O O16 0.500000 0.449117 0.750000
#
# Coordination Sequence:
#
# PCOD8130477 Si02
#       7
#     8   8   8   8   8   8   8
#     4  11  19  37  57  79 111 154 192 223 282 343
#     4  11  20  33  53  83 114 148 186 225 280 343
#     4  11  19  33  51  80 118 149 180 225 295 338
#     4  10  21  34  53  82 110 142 193 246 273 323
#     4  12  22  34  52  83 122 155 177 228 290 352
#     4  10  17  33  60  75 104 147 199 225 262 337
#     4  11  18  34  58  83 107 143 196 229 272 338
#
# _framework density 17.63036
#
# number of rings (size 3 to 8) (size 9 to 14) (size 15 to 20)
#    0.000    1.143    8.571    2.571    0.000    1.714 
#    0.000    0.000    0.000    0.857    0.000    3.000 
#    0.000    0.000    0.000    0.000    0.000    0.000 
#
# Total GULP energy -347075.039591 kJ/mol
# GULP energy per Si atom -12395.537128 kJ/mol
# Density = 1.759023 g / cm^3
# Si number density = 17.630360 Si / 1000 Ang^3
#
#
#
# Elastic Constant Matrix: (Units=GPa)
#
#
# Indices 1 2 3 4 5 6 
#
# 1 64.4785 38.8720 39.9529 0.0000 7.7882 0.0000
# 2 38.8720 69.1012 37.1921 0.0000 1.0599 0.0000
# 3 39.9529 37.1921 81.3939 0.0000 12.6299 0.0000
# 4 0.0000 0.0000 0.0000 -14.0378 0.0000 -22.1076
# 5 7.7882 1.0599 12.6299 0.0000 38.2649 0.0000
# 6 0.0000 0.0000 0.0000 -22.1076 0.0000 17.2547
#
#
#
# Elastic Compliance Matrix: (Units=1/GPa)
#
#
# Indices 1 2 3 4 5 6 
#
# 1 0.027489 -0.011115 -0.008004 0.000000 -0.002645 0.000000
# 2 -0.011115 0.023914 -0.006028 0.000000 0.003590 0.000000
# 3 -0.008004 -0.006028 0.019699 0.000000 -0.004706 0.000000
# 4 0.000000 0.000000 0.000000 -0.023605 0.000000 -0.030244
# 5 -0.002645 0.003590 -0.004706 0.000000 0.028126 0.000000
# 6 0.000000 0.000000 0.000000 -0.030244 0.000000 0.019205
#
#
# Mechanical properties :
#
#
# Convention : Reuss Voigt Hill
#
# Bulk Modulus (GPa) = 48.05869 49.66752 48.86310
# Shear Modulus (GPa) = 32.88244 14.89346 23.88795
#
# Velocity S-wave (km/s) = 4.32337 2.90963 3.68493
# Velocity P-wave (km/s) = 7.22774 6.28655 6.77351
#
# Compressibility (1/GPa) = 0.02080789
#
# Stress axis : x y z
#
# Youngs Moduli (GPa) = 36.37838 41.81709 50.76311
#
# Poissons Ratio (x) = 0.46480 0.40629
# Poissons Ratio (y) = 0.40435 0.30601
# Poissons Ratio (z) = 0.29116 0.25208
#
# Static dielectric constant tensor:
#      x y z
#    x 3.981580 0.000000 1.785770 
#    y 0.000000 3.130020 0.000000 
#    z 1.785770 0.000000 7.706190 
# 
# 
# High freq. dielectric constant tensor:
#      x y z
#    x 1.663690 0.000000 0.010050 
#    y 0.000000 1.643030 0.000000 
#    z 0.010050 0.000000 1.697300 
# 
# From -- ./inp_files/206300.got.cif
#   From: 2010.06.25/outbox.cif.g09.slc.cpg/sg15_104_cif.got.tgz:206300.got - 2010.06.28 07:06:18.
