data_PCOD8130472
_publ_section_title
;
Structure prediction by ZEFSAII (Michael W. Deem and Ramdas Pophale) SiO2 
 PCOD8130472
Probable space group: C 2/C
;
_chemical_formula_sum "Si O2"
_cell_formula_units_Z 56
_cell_length_a 21.582936
_cell_length_b 8.534150
_cell_length_c 21.345839
_cell_angle_alpha 90.000000
_cell_angle_beta 137.519843
_cell_angle_gamma 90.000000
_cell_volume 2655.236274
_symmetry_space_group_name_H-M "C 2/C"
_symmetry_group_IT_number 15
_symmetry_cell_setting 'monoclinic'
loop_
_space_group_symop_operation_xyz
x,y,z
-x,y,1/2-z
-x,-y,-z
x,-y,1/2+z
1/2+x,1/2+y,z
1/2-x,1/2+y,1/2-z
1/2-x,1/2-y,-z
1/2+x,1/2-y,1/2+z
loop_
_atom_site_type_symbol
_atom_site_label
_atom_site_fract_x
_atom_site_fract_y
_atom_site_fract_z
Si Si1 0.462118 0.190704 0.874807
Si Si2 0.977992 0.250507 0.803035
Si Si3 0.821900 0.530523 0.201381
Si Si4 0.368907 0.651501 0.418087
Si Si5 0.436590 0.527485 0.087824
Si Si6 0.243868 0.437694 0.986407
Si Si7 0.392023 0.938255 0.514396
O O1 0.425745 0.318510 0.897435
O O2 0.531151 0.292935 0.884015
O O3 0.377765 0.116604 0.772472
O O4 0.531322 0.059124 0.955068
O O5 0.881658 0.313852 0.755660
O O6 0.000000 0.305595 0.750000
O O7 0.980766 0.064788 0.815824
O O8 0.062232 0.317598 0.904445
O O9 0.727324 0.563249 0.168025
O O10 0.804353 0.509363 0.114388
O O11 0.423428 0.540542 0.507197
O O12 0.350397 0.829944 0.428522
O O13 0.345236 0.509866 0.061269
O O14 0.190517 0.515013 0.006118
O O15 0.250000 0.250000 0.000000
#
# Coordination Sequence:
#
# PCOD8130472 Si02
#       7
#     8   8   8   8   8   8   8
#     4  11  24  39  55  96 129 154 201 258 320 345
#     4  10  17  33  58  89 118 157 203 247 301 372
#     4  10  21  36  64  90 119 161 201 265 302 350
#     4  10  21  42  65  82 118 174 213 239 290 388
#     4  10  22  37  61  89 122 167 200 254 305 366
#     4  11  17  39  69  91 112 162 221 243 300 379
#     4  10  20  36  67  88 118 159 209 252 300 366
#
# _framework density 21.090402000000001
#
# number of rings (size 3 to 8) (size 9 to 14) (size 15 to 20)
#    0.000    1.714    5.714    0.857    0.000    1.714 
#    2.571   10.000    0.000    0.000    0.000    0.000 
#    0.000    0.000    0.000    0.000    0.000    0.000 
#
# Total GULP energy -346901.033036 kJ/mol
# GULP energy per Si atom -12389.322608 kJ/mol
# Density = 2.104240 g / cm^3
# Si number density = 21.090402 Si / 1000 Ang^3
#
#
#
# Elastic Constant Matrix: (Units=GPa)
#
#
# Indices 1 2 3 4 5 6 
#
# 1 88.5231 29.2052 29.1510 0.0000 18.6358 0.0000
# 2 29.2052 88.3089 34.8866 0.0000 20.8645 -0.0001
# 3 29.1510 34.8866 66.0943 0.0000 21.2265 0.0000
# 4 0.0000 0.0000 0.0000 23.6791 0.0000 7.5633
# 5 18.6358 20.8645 21.2265 0.0000 25.1160 0.0000
# 6 0.0000 -0.0001 0.0000 7.5633 0.0000 33.3067
#
#
#
# Elastic Compliance Matrix: (Units=1/GPa)
#
#
# Indices 1 2 3 4 5 6 
#
# 1 0.014340 -0.001975 -0.003283 0.000000 -0.006225 0.000000
# 2 -0.001975 0.015705 -0.005077 0.000000 -0.007290 0.000000
# 3 -0.003283 -0.005077 0.023499 0.000000 -0.013206 0.000000
# 4 0.000000 0.000000 0.000000 0.045534 0.000000 -0.010340
# 5 -0.006225 -0.007290 -0.013206 0.000000 0.061651 0.000000
# 6 0.000000 0.000000 0.000000 -0.010340 0.000000 0.032372
#
#
# Mechanical properties :
#
#
# Convention : Reuss Voigt Hill
#
# Bulk Modulus (GPa) = 30.41958 47.71242 39.06600
# Shear Modulus (GPa) = 22.24900 26.39926 24.32413
#
# Velocity S-wave (km/s) = 3.25150 3.54180 3.39975
# Velocity P-wave (km/s) = 5.34332 6.27676 5.82876
#
# Compressibility (1/GPa) = 0.03287356
#
# Stress axis : x y z
#
# Youngs Moduli (GPa) = 69.73743 63.67289 42.55478
#
# Poissons Ratio (x) = 0.12573 0.13971
# Poissons Ratio (y) = 0.13770 0.21607
# Poissons Ratio (z) = 0.22896 0.32330
#
# Static dielectric constant tensor:
#      x y z
#    x 3.889640 0.000000 0.142420 
#    y 0.000000 3.641860 0.000000 
#    z 0.142420 0.000000 3.851490 
# 
# 
# High freq. dielectric constant tensor:
#      x y z
#    x 1.826860 0.000000 0.016740 
#    y 0.000000 1.808030 0.000000 
#    z 0.016740 0.000000 1.815000 
# 
# From -- ./inp_files/281531.got.cif
#   From: 2010.06.25/outbox.cif.g09.slc.cpg/sg15_141_cif.got.tgz:281531.got - 2010.06.28 07:06:18.
