data_PCOD8130637
_publ_section_title
;
Structure prediction by ZEFSAII (Michael W. Deem and Ramdas Pophale) SiO2 
 PCOD8130637
Probable space group: C 2/C
;
_chemical_formula_sum "Si O2"
_cell_formula_units_Z 44
_cell_length_a 11.014409
_cell_length_b 13.993880
_cell_length_c 15.481904
_cell_angle_alpha 90.000000
_cell_angle_beta 50.838663
_cell_angle_gamma 90.000000
_cell_volume 1850.261697
_symmetry_space_group_name_H-M "C 2/C"
_symmetry_group_IT_number 15
_symmetry_cell_setting 'monoclinic'
loop_
_space_group_symop_operation_xyz
x,y,z
-x,y,1/2-z
-x,-y,-z
x,-y,1/2+z
1/2+x,1/2+y,z
1/2-x,1/2+y,1/2-z
1/2-x,1/2-y,-z
1/2+x,1/2-y,1/2+z
loop_
_atom_site_type_symbol
_atom_site_label
_atom_site_fract_x
_atom_site_fract_y
_atom_site_fract_z
Si Si1 0.858394 0.010047 0.249669
Si Si2 0.721081 0.851894 0.420518
Si Si3 0.579092 0.307449 0.866971
Si Si4 0.344518 0.362280 0.116886
Si Si5 0.013021 0.277229 0.648384
Si Si6 0.000000 0.317470 0.250000
O O1 0.809262 0.113252 0.231709
O O2 0.000000 0.030197 0.250000
O O3 0.726474 0.951145 0.363982
O O4 0.909362 0.949210 0.144174
O O5 0.686938 0.760752 0.375486
O O6 0.885349 0.821904 0.390284
O O7 0.591081 0.859695 0.554096
O O8 0.480550 0.247197 0.843014
O O9 0.446483 0.358868 0.984457
O O10 0.358822 0.263372 0.167915
O O11 0.159613 0.379745 0.181412
O O12 0.000000 0.321748 0.750000
#
# Coordination Sequence:
#
# PCOD8130637 Si02
#       6
#     8   8   8   8   8   4
#     4  12  21  41  68  98 129 170 227 277 321 404
#     4  10  20  36  66  98 131 169 217 276 326 387
#     4  11  24  39  67  97 132 175 223 266 339 398
#     4  11  22  39  66  97 131 177 219 274 326 395
#     4  10  17  35  65  98 129 168 214 269 333 389
#     4  12  22  42  66  88 136 178 216 270 340 396
#
# _framework density 23.780419999999999
#
# number of rings (size 3 to 8) (size 9 to 14) (size 15 to 20)
#    0.000    1.091    6.364    1.091    0.000    0.000 
#    0.000    0.000    8.000   10.909    0.000    0.000 
#    0.000    0.000    0.000    0.000    0.000    0.000 
#
# Total GULP energy -272580.130064 kJ/mol
# GULP energy per Si atom -12390.005912 kJ/mol
# Density = 2.372629 g / cm^3
# Si number density = 23.780420 Si / 1000 Ang^3
#
#
#
# Elastic Constant Matrix: (Units=GPa)
#
#
# Indices 1 2 3 4 5 6 
#
# 1 84.5870 21.4243 16.9148 0.0000 5.8774 0.0000
# 2 21.4243 100.1287 37.4269 0.0000 11.6893 0.0000
# 3 16.9148 37.4269 103.7678 0.0001 16.5262 -0.0001
# 4 0.0000 0.0000 0.0001 9.3838 0.0000 1.0047
# 5 5.8774 11.6893 16.5262 0.0000 41.4916 0.0000
# 6 0.0000 0.0000 -0.0001 1.0047 0.0000 18.8011
#
#
#
# Elastic Compliance Matrix: (Units=1/GPa)
#
#
# Indices 1 2 3 4 5 6 
#
# 1 0.012659 -0.002192 -0.001159 0.000000 -0.000714 0.000000
# 2 -0.002192 0.012037 -0.003730 0.000000 -0.001595 0.000000
# 3 -0.001159 -0.003730 0.011721 0.000000 -0.003454 0.000000
# 4 0.000000 0.000000 0.000000 0.107180 0.000000 -0.005728
# 5 -0.000714 -0.001595 -0.003454 0.000000 0.026027 0.000000
# 6 0.000000 0.000000 0.000000 -0.005728 0.000000 0.053495
#
#
# Mechanical properties :
#
#
# Convention : Reuss Voigt Hill
#
# Bulk Modulus (GPa) = 44.93527 48.89060 46.91294
# Shear Modulus (GPa) = 20.43329 28.11647 24.27488
#
# Velocity S-wave (km/s) = 2.93447 3.44224 3.19845
# Velocity P-wave (km/s) = 5.51529 6.03345 5.78018
#
# Compressibility (1/GPa) = 0.02225423
#
# Stress axis : x y z
#
# Youngs Moduli (GPa) = 78.99695 83.08002 85.31538
#
# Poissons Ratio (x) = 0.18211 0.09889
# Poissons Ratio (y) = 0.17316 0.31823
# Poissons Ratio (z) = 0.09157 0.30989
#
# Static dielectric constant tensor:
#      x y z
#    x 4.461850 0.000000 0.390210 
#    y 0.000000 3.881660 0.000000 
#    z 0.390210 0.000000 4.542260 
# 
# 
# High freq. dielectric constant tensor:
#      x y z
#    x 1.948680 0.000000 0.022060 
#    y 0.000000 1.903680 0.000000 
#    z 0.022060 0.000000 1.952430 
# 
# From -- ./inp_files/197630.got.cif
#   From: 2010.06.25/outbox.cif.g09.slc.cpg/sg15_99_cif.got.tgz:197630.got - 2010.06.28 07:06:18.
