data_PCOD8130005
_publ_section_title
;
Structure prediction by ZEFSAII (Michael W. Deem and Ramdas Pophale) SiO2 
 PCOD8130005
Probable space group: C 2/C
;
_chemical_formula_sum "Si O2"
_cell_formula_units_Z 60
_cell_length_a 16.206198
_cell_length_b 9.796237
_cell_length_c 18.538812
_cell_angle_alpha 90.000000
_cell_angle_beta 82.904068
_cell_angle_gamma 90.000000
_cell_volume 2920.674327
_symmetry_space_group_name_H-M "C 2/C"
_symmetry_group_IT_number 15
_symmetry_cell_setting 'monoclinic'
loop_
_space_group_symop_operation_xyz
x,y,z
-x,y,1/2-z
-x,-y,-z
x,-y,1/2+z
1/2+x,1/2+y,z
1/2-x,1/2+y,1/2-z
1/2-x,1/2-y,-z
1/2+x,1/2-y,1/2+z
loop_
_atom_site_type_symbol
_atom_site_label
_atom_site_fract_x
_atom_site_fract_y
_atom_site_fract_z
Si Si1 0.813397 0.409083 0.718038
Si Si2 0.786179 0.598401 0.915358
Si Si3 0.699323 0.212384 0.075283
Si Si4 0.985203 0.335479 0.893426
Si Si5 0.500000 0.329539 0.250000
Si Si6 0.817732 0.126079 0.783473
Si Si7 0.652287 0.823971 0.936908
Si Si8 0.069138 0.431257 0.192156
O O1 0.796453 0.250508 0.732882
O O2 0.731773 0.498247 0.742848
O O3 0.832777 0.427473 0.631164
O O4 0.889973 0.453788 0.760403
O O5 0.773794 0.437837 0.897896
O O6 0.700242 0.680463 0.918691
O O7 0.856744 0.660223 0.851868
O O8 0.818478 0.605249 0.993560
O O9 0.601916 0.217354 0.066120
O O10 0.714473 0.326941 0.134307
O O11 0.750000 0.250000 0.000000
O O12 0.975162 0.493926 0.870755
O O13 0.017993 0.259164 0.818780
O O14 0.052213 0.305724 0.949406
O O15 0.584371 0.416169 0.227325
O O16 0.000000 0.352091 0.250000
#
# Coordination Sequence:
#
# PCOD8130005 Si02
#       8
#     8   8   8   8   4   8   8   8
#     4  12  21  36  64  95 116 163 205 255 303 366
#     4  10  23  37  59  87 128 156 197 258 305 360
#     4  10  21  39  55  85 120 157 198 254 296 361
#     4  10  17  33  61  82 112 158 205 243 292 367
#     4  10  16  36  58  88 112 158 204 244 288 378
#     4  11  22  35  64  87 121 154 207 251 308 354
#     4  11  21  38  60  89 117 164 202 246 312 369
#     4  11  18  36  57  90 120 150 201 262 289 350
#
# _framework density 20.543202000000001
#
# number of rings (size 3 to 8) (size 9 to 14) (size 15 to 20)
#    0.000    1.333    7.333    1.600    0.000    2.133 
#    2.400    0.667    5.867    0.000    0.000    0.000 
#    0.000    0.000    0.000    0.000    0.000    0.000 
#
# Total GULP energy -371721.536906 kJ/mol
# GULP energy per Si atom -12390.717897 kJ/mol
# Density = 2.049644 g / cm^3
# Si number density = 20.543202 Si / 1000 Ang^3
#
#
#
# Elastic Constant Matrix: (Units=GPa)
#
#
# Indices 1 2 3 4 5 6 
#
# 1 119.8080 38.9260 35.4854 0.0000 -0.6160 0.0000
# 2 38.9260 44.1217 6.4266 0.0000 -1.9295 0.0000
# 3 35.4854 6.4266 97.0162 0.0000 -16.2133 0.0000
# 4 0.0000 0.0000 0.0000 21.9198 0.0000 -0.5933
# 5 -0.6160 -1.9295 -16.2133 0.0000 44.3360 0.0000
# 6 0.0000 0.0000 0.0000 -0.5933 0.0000 26.5909
#
#
#
# Elastic Compliance Matrix: (Units=1/GPa)
#
#
# Indices 1 2 3 4 5 6 
#
# 1 0.013273 -0.011148 -0.004438 0.000000 -0.001924 0.000000
# 2 -0.011148 0.032258 0.002289 0.000000 0.002086 0.000000
# 3 -0.004438 0.002289 0.012553 0.000000 0.004628 0.000000
# 4 0.000000 0.000000 0.000000 0.045648 0.000000 0.001018
# 5 -0.001924 0.002086 0.004628 0.000000 0.024312 0.000000
# 6 0.000000 0.000000 0.000000 0.001018 0.000000 0.037630
#
#
# Mechanical properties :
#
#
# Convention : Reuss Voigt Hill
#
# Bulk Modulus (GPa) = 31.75562 46.95796 39.35679
# Shear Modulus (GPa) = 24.65935 30.57655 27.61795
#
# Velocity S-wave (km/s) = 3.46839 3.86217 3.67056
# Velocity P-wave (km/s) = 5.61526 6.54188 6.09620
#
# Compressibility (1/GPa) = 0.03149049
#
# Stress axis : x y z
#
# Youngs Moduli (GPa) = 75.33951 31.00048 79.66440
#
# Poissons Ratio (x) = 0.34559 0.35355
# Poissons Ratio (y) = 0.83988 -0.18238
# Poissons Ratio (z) = 0.33435 -0.07097
#
# Static dielectric constant tensor:
#      x y z
#    x 3.985570 0.000000 -0.180520 
#    y 0.000000 3.213550 0.000000 
#    z -0.180520 0.000000 3.939820 
# 
# 
# High freq. dielectric constant tensor:
#      x y z
#    x 1.814010 0.000000 -0.007470 
#    y 0.000000 1.746310 0.000000 
#    z -0.007470 0.000000 1.816800 
# 
# From -- ./inp_files/204030.got.cif
#   From: 2010.06.25/outbox.cif.g09.slc.cpg/sg15_103_cif.got.tgz:204030.got - 2010.06.28 07:06:18.
