data_PCOD8130509
_publ_section_title
;
Structure prediction by ZEFSAII (Michael W. Deem and Ramdas Pophale) SiO2 
 PCOD8130509
Probable space group: C 2/C
;
_chemical_formula_sum "Si O2"
_cell_formula_units_Z 60
_cell_length_a 16.939910
_cell_length_b 7.857582
_cell_length_c 25.262814
_cell_angle_alpha 90.000000
_cell_angle_beta 122.384791
_cell_angle_gamma 90.000000
_cell_volume 2839.657996
_symmetry_space_group_name_H-M "C 2/C"
_symmetry_group_IT_number 15
_symmetry_cell_setting 'monoclinic'
loop_
_space_group_symop_operation_xyz
x,y,z
-x,y,1/2-z
-x,-y,-z
x,-y,1/2+z
1/2+x,1/2+y,z
1/2-x,1/2+y,1/2-z
1/2-x,1/2-y,-z
1/2+x,1/2-y,1/2+z
loop_
_atom_site_type_symbol
_atom_site_label
_atom_site_fract_x
_atom_site_fract_y
_atom_site_fract_z
Si Si1 0.820307 0.197825 0.835393
Si Si2 0.520445 0.681113 0.442157
Si Si3 0.926614 0.496245 0.592980
Si Si4 0.000000 0.161407 0.250000
Si Si5 0.651931 0.080976 0.832262
Si Si6 0.973587 0.192628 0.543219
Si Si7 0.633885 0.998535 0.214490
Si Si8 0.877005 0.117740 0.299719
O O1 0.751526 0.175951 0.860601
O O2 0.924479 0.194509 0.894347
O O3 0.801353 0.376554 0.797585
O O4 0.806689 0.036396 0.789511
O O5 0.479140 0.739934 0.483685
O O6 0.571308 0.496497 0.465509
O O7 0.433225 0.663495 0.372302
O O8 0.589516 0.829202 0.446054
O O9 0.850296 0.481412 0.612674
O O10 0.909988 0.333545 0.549283
O O11 0.030336 0.494805 0.654394
O O12 0.928958 0.277832 0.191325
O O13 0.943534 0.054372 0.274541
O O14 0.632338 0.949337 0.776340
O O15 0.672040 0.799700 0.233122
#
# Coordination Sequence:
#
# PCOD8130509 Si02
#       8
#     8   8   8   4   8   8   8   8
#     4  10  22  34  52  80 107 134 176 216 263 304
#     4   9  16  33  57  75 102 135 177 215 251 307
#     4  10  17  34  53  75 102 136 176 210 262 306
#     4  10  18  36  54  72 106 140 172 210 260 310
#     4  11  19  34  53  76 109 140 166 224 259 310
#     4   9  19  33  54  81  98 134 181 216 250 311
#     4   9  19  35  51  72 105 138 173 212 250 317
#     4   9  18  36  56  77 101 141 174 211 257 315
#
# _framework density 21.129306
#
# number of rings (size 3 to 8) (size 9 to 14) (size 15 to 20)
#    0.000    2.400    4.000    0.400    3.733    0.000 
#    7.200    2.000    0.000    7.200    0.000    0.000 
#    0.000    0.000    0.000    0.000    0.000    0.000 
#
# Total GULP energy -371799.628406 kJ/mol
# GULP energy per Si atom -12393.320947 kJ/mol
# Density = 2.108121 g / cm^3
# Si number density = 21.129306 Si / 1000 Ang^3
#
#
#
# Elastic Constant Matrix: (Units=GPa)
#
#
# Indices 1 2 3 4 5 6 
#
# 1 101.0988 59.7748 24.4100 0.0000 -41.3095 0.0000
# 2 59.7748 113.2787 43.3728 0.0000 -31.7091 0.0000
# 3 24.4100 43.3728 82.9744 0.0000 -43.8859 0.0000
# 4 0.0000 0.0000 0.0000 26.2865 0.0000 -6.2668
# 5 -41.3095 -31.7091 -43.8859 0.0000 40.4960 0.0000
# 6 0.0000 0.0000 0.0000 -6.2668 0.0000 25.8882
#
#
#
# Elastic Compliance Matrix: (Units=1/GPa)
#
#
# Indices 1 2 3 4 5 6 
#
# 1 0.028640 -0.010839 0.019220 0.000000 0.041557 0.000000
# 2 -0.010839 0.015709 -0.010227 0.000000 -0.009839 0.000000
# 3 0.019220 -0.010227 0.041887 0.000000 0.056992 0.000000
# 4 0.000000 0.000000 0.000000 0.040372 0.000000 0.009773
# 5 0.041557 -0.009839 0.056992 0.000000 0.121144 0.000000
# 6 0.000000 0.000000 0.000000 0.009773 0.000000 0.040993
#
#
# Mechanical properties :
#
#
# Convention : Reuss Voigt Hill
#
# Bulk Modulus (GPa) = 12.11466 61.38523 36.74994
# Shear Modulus (GPa) = 15.62737 29.85375 22.74056
#
# Velocity S-wave (km/s) = 2.72252 3.76294 3.28419
# Velocity P-wave (km/s) = 3.95333 6.92784 5.64020
#
# Compressibility (1/GPa) = 0.08254465
#
# Stress axis : x y z
#
# Youngs Moduli (GPa) = 34.91657 63.65878 23.87372
#
# Poissons Ratio (x) = 0.69000 -0.45886
# Poissons Ratio (y) = 0.37846 0.24415
# Poissons Ratio (z) = -0.67111 0.65103
#
# Static dielectric constant tensor:
#      x y z
#    x 3.647500 0.000000 -0.265180 
#    y 0.000000 4.328190 0.000000 
#    z -0.265180 0.000000 3.874830 
# 
# 
# High freq. dielectric constant tensor:
#      x y z
#    x 1.809080 0.000000 -0.012520 
#    y 0.000000 1.819490 0.000000 
#    z -0.012520 0.000000 1.832300 
# 
# From -- ./inp_files/276337.got.cif
#   From: 2010.06.25/outbox.cif.g09.slc.cpg/sg15_139_cif.got.tgz:276337.got - 2010.06.28 07:06:18.
