data_PCOD8130964
_publ_section_title
;
Structure prediction by ZEFSAII (Michael W. Deem and Ramdas Pophale) SiO2 
 PCOD8130964
Probable space group: C 2/C
;
_chemical_formula_sum "Si O2"
_cell_formula_units_Z 36
_cell_length_a 11.448413
_cell_length_b 8.898666
_cell_length_c 19.232518
_cell_angle_alpha 90.000000
_cell_angle_beta 116.701135
_cell_angle_gamma 90.000000
_cell_volume 1750.386900
_symmetry_space_group_name_H-M "C 2/C"
_symmetry_group_IT_number 15
_symmetry_cell_setting 'monoclinic'
loop_
_space_group_symop_operation_xyz
x,y,z
-x,y,1/2-z
-x,-y,-z
x,-y,1/2+z
1/2+x,1/2+y,z
1/2-x,1/2+y,1/2-z
1/2-x,1/2-y,-z
1/2+x,1/2-y,1/2+z
loop_
_atom_site_type_symbol
_atom_site_label
_atom_site_fract_x
_atom_site_fract_y
_atom_site_fract_z
Si Si1 0.395402 0.408835 0.662408
Si Si2 0.500000 0.059471 0.250000
Si Si3 0.569638 0.430042 0.584286
Si Si4 0.204075 0.226533 0.846171
Si Si5 0.732591 0.150458 0.790953
O O1 0.500000 0.443954 0.750000
O O2 0.463227 0.359877 0.608616
O O3 0.314252 0.561605 0.627305
O O4 0.299646 0.276573 0.660327
O O5 0.422486 0.166167 0.174041
O O6 0.394376 0.952233 0.259680
O O7 0.500000 0.500000 0.500000
O O8 0.667513 0.299250 0.584192
O O9 0.648031 0.555953 0.647421
O O10 0.223774 0.228666 0.768154
#
# Coordination Sequence:
#
# PCOD8130964 Si02
#       5
#     8   4   8   8   8
#     4  12  20  37  62  88 114 153 201 242 284 348
#     4  10  18  30  54  86 112 142 192 240 280 332
#     4  11  25  40  57  89 127 153 189 247 300 342
#     4  11  20  36  61  87 113 154 200 239 285 349
#     4  11  20  36  61  87 113 154 200 239 285 349
#
# _framework density 20.566880999999999
#
# number of rings (size 3 to 8) (size 9 to 14) (size 15 to 20)
#    0.000    0.889    6.667    1.333    0.000    1.778 
#    0.000    1.111    0.000    0.000    0.000    0.000 
#    0.000    0.000    0.000    0.000    0.000    0.000 
#
# Total GULP energy -223222.677229 kJ/mol
# GULP energy per Si atom -12401.259846 kJ/mol
# Density = 2.052007 g / cm^3
# Si number density = 20.566881 Si / 1000 Ang^3
#
#
#
# Elastic Constant Matrix: (Units=GPa)
#
#
# Indices 1 2 3 4 5 6 
#
# 1 73.8148 19.2041 16.9355 0.0000 4.6359 0.0000
# 2 19.2041 97.3055 -10.5105 0.0000 10.4400 0.0000
# 3 16.9355 -10.5105 43.0893 0.0000 3.6176 0.0000
# 4 0.0000 0.0000 0.0000 13.7756 0.0000 -3.8090
# 5 4.6359 10.4400 3.6176 0.0000 19.9337 0.0000
# 6 0.0000 0.0000 0.0000 -3.8090 0.0000 29.7561
#
#
#
# Elastic Compliance Matrix: (Units=1/GPa)
#
#
# Indices 1 2 3 4 5 6 
#
# 1 0.016286 -0.003966 -0.007337 0.000000 -0.000379 0.000000
# 2 -0.003966 0.012302 0.005101 0.000000 -0.006446 0.000000
# 3 -0.007337 0.005101 0.027841 0.000000 -0.006018 0.000000
# 4 0.000000 0.000000 0.000000 0.075256 0.000000 0.009633
# 5 -0.000379 -0.006446 -0.006018 0.000000 0.054723 0.000000
# 6 0.000000 0.000000 0.000000 0.009633 0.000000 0.034840
#
#
# Mechanical properties :
#
#
# Convention : Reuss Voigt Hill
#
# Bulk Modulus (GPa) = 22.71418 29.49644 26.10531
# Shear Modulus (GPa) = 20.13482 25.26512 22.69997
#
# Velocity S-wave (km/s) = 3.13228 3.50871 3.32582
# Velocity P-wave (km/s) = 4.91422 5.54866 5.24105
#
# Compressibility (1/GPa) = 0.04402535
#
# Stress axis : x y z
#
# Youngs Moduli (GPa) = 61.40122 81.28589 35.91878
#
# Poissons Ratio (x) = 0.32238 0.26352
# Poissons Ratio (y) = 0.24352 -0.18321
# Poissons Ratio (z) = 0.45048 -0.41462
#
# Static dielectric constant tensor:
#      x y z
#    x 4.118370 0.000000 0.179280 
#    y 0.000000 3.985550 0.000000 
#    z 0.179280 0.000000 3.302650 
# 
# 
# High freq. dielectric constant tensor:
#      x y z
#    x 1.822900 0.000000 0.013870 
#    y 0.000000 1.823280 0.000000 
#    z 0.013870 0.000000 1.745610 
# 
# From -- ./inp_files/102451.got.cif
#   From: 2010.06.25/outbox.cif.g09.slc.cpg/sg15_52_cif.got.tgz:102451.got - 2010.06.28 07:06:18.
