data_PCOD8130918
_publ_section_title
;
Structure prediction by ZEFSAII (Michael W. Deem and Ramdas Pophale) SiO2 
 PCOD8130918
Probable space group: C 2/C
;
_chemical_formula_sum "Si O2"
_cell_formula_units_Z 48
_cell_length_a 23.532688
_cell_length_b 9.581950
_cell_length_c 16.016254
_cell_angle_alpha 90.000000
_cell_angle_beta 45.364767
_cell_angle_gamma 90.000000
_cell_volume 2569.914915
_symmetry_space_group_name_H-M "C 2/C"
_symmetry_group_IT_number 15
_symmetry_cell_setting 'monoclinic'
loop_
_space_group_symop_operation_xyz
x,y,z
-x,y,1/2-z
-x,-y,-z
x,-y,1/2+z
1/2+x,1/2+y,z
1/2-x,1/2+y,1/2-z
1/2-x,1/2-y,-z
1/2+x,1/2-y,1/2+z
loop_
_atom_site_type_symbol
_atom_site_label
_atom_site_fract_x
_atom_site_fract_y
_atom_site_fract_z
Si Si1 0.794424 0.514289 0.828251
Si Si2 0.194318 0.960861 0.274494
Si Si3 0.390123 0.705106 0.235523
Si Si4 0.127795 0.988546 0.594643
Si Si5 0.184418 0.775265 0.135501
Si Si6 0.455866 0.407892 0.978493
O O1 0.767356 0.503976 0.759874
O O2 0.853937 0.642056 0.777712
O O3 0.844859 0.374240 0.799150
O O4 0.717886 0.526918 0.967309
O O5 0.225267 0.865791 0.167059
O O6 0.127989 0.865662 0.392328
O O7 0.159399 0.107518 0.277194
O O8 0.388726 0.644239 0.330258
O O9 0.482907 0.716723 0.108809
O O10 0.064000 0.994398 0.585595
O O11 0.115811 0.130288 0.662357
O O12 0.250000 0.750000 0.000000
O O13 0.500000 0.500000 0.000000
#
# Coordination Sequence:
#
# PCOD8130918 Si02
#       6
#     8   8   8   8   8   8
#     4  10  18  30  50  79 106 129 167 217 259 300
#     4   9  18  32  50  74 104 136 170 209 256 309
#     4  10  18  30  51  75  98 133 173 212 251 300
#     4   9  18  32  51  73 102 135 169 208 255 313
#     4   9  18  32  51  76 105 138 171 207 257 312
#     4   9  18  32  52  73  95 131 177 213 250 306
#
# _framework density 18.677659999999999
#
# number of rings (size 3 to 8) (size 9 to 14) (size 15 to 20)
#    0.000    2.667    0.000    2.000    0.000    1.333 
#    0.000    0.833    0.000   12.000    0.000    0.000 
#    0.000    0.000    0.000    0.000    0.000    0.000 
#
# Total GULP energy -297330.322337 kJ/mol
# GULP energy per Si atom -12388.763431 kJ/mol
# Density = 1.863515 g / cm^3
# Si number density = 18.677660 Si / 1000 Ang^3
#
#
#
# Elastic Constant Matrix: (Units=GPa)
#
#
# Indices 1 2 3 4 5 6 
#
# 1 124.3918 59.5343 40.1131 -0.0002 22.0449 0.0002
# 2 59.5343 137.7629 41.0646 -0.0016 4.8882 0.0016
# 3 40.1131 41.0646 60.6500 -0.0008 14.7030 0.0009
# 4 -0.0002 -0.0016 -0.0008 27.2645 0.0003 4.6386
# 5 22.0449 4.8882 14.7030 0.0003 31.6997 -0.0003
# 6 0.0002 0.0016 0.0009 4.6386 -0.0003 14.6608
#
#
#
# Elastic Compliance Matrix: (Units=1/GPa)
#
#
# Indices 1 2 3 4 5 6 
#
# 1 0.012271 -0.003893 -0.004008 0.000000 -0.006075 0.000000
# 2 -0.003893 0.010405 -0.005338 0.000001 0.003579 -0.000001
# 3 -0.004008 -0.005338 0.024649 0.000001 -0.007823 -0.000001
# 4 0.000000 0.000001 0.000001 0.038764 -0.000001 -0.012265
# 5 -0.006075 0.003579 -0.007823 -0.000001 0.038847 0.000001
# 6 0.000000 -0.000001 -0.000001 -0.012265 0.000001 0.072089
#
#
# Mechanical properties :
#
#
# Convention : Reuss Voigt Hill
#
# Bulk Modulus (GPa) = 47.96437 67.13652 57.55044
# Shear Modulus (GPa) = 21.69638 26.86453 24.28046
#
# Velocity S-wave (km/s) = 3.41196 3.79664 3.60943
# Velocity P-wave (km/s) = 6.42322 7.43251 6.94622
#
# Compressibility (1/GPa) = 0.02084881
#
# Stress axis : x y z
#
# Youngs Moduli (GPa) = 81.49202 96.10455 40.56916
#
# Poissons Ratio (x) = 0.37412 0.16258
# Poissons Ratio (y) = 0.31724 0.21656
# Poissons Ratio (z) = 0.32659 0.51301
#
# Static dielectric constant tensor:
#      x y z
#    x 3.724010 -0.000010 0.111660 
#    y -0.000010 3.542760 0.000000 
#    z 0.111660 0.000000 3.807560 
# 
# 
# High freq. dielectric constant tensor:
#      x y z
#    x 1.724750 0.000000 0.029260 
#    y 0.000000 1.697300 0.000000 
#    z 0.029260 0.000000 1.727300 
# 
# From -- ./inp_files/214088.got.cif
#   From: 2010.06.25/outbox.cif.g09.slc.cpg/sg15_108_cif.got.tgz:214088.got - 2010.06.28 07:06:18.
