data_PCOD8130188
_publ_section_title
;
Structure prediction by ZEFSAII (Michael W. Deem and Ramdas Pophale) SiO2 
 PCOD8130188
Probable space group: C 2/C
;
_chemical_formula_sum "Si O2"
_cell_formula_units_Z 56
_cell_length_a 19.249835
_cell_length_b 29.129160
_cell_length_c 9.998822
_cell_angle_alpha 90.000000
_cell_angle_beta 141.615115
_cell_angle_gamma 90.000000
_cell_volume 3481.401858
_symmetry_space_group_name_H-M "C 2/C"
_symmetry_group_IT_number 15
_symmetry_cell_setting 'monoclinic'
loop_
_space_group_symop_operation_xyz
x,y,z
-x,y,1/2-z
-x,-y,-z
x,-y,1/2+z
1/2+x,1/2+y,z
1/2-x,1/2+y,1/2-z
1/2-x,1/2-y,-z
1/2+x,1/2-y,1/2+z
loop_
_atom_site_type_symbol
_atom_site_label
_atom_site_fract_x
_atom_site_fract_y
_atom_site_fract_z
Si Si1 0.421937 0.496357 0.757137
Si Si2 0.297213 0.684516 0.491838
Si Si3 0.780032 0.184236 0.146471
Si Si4 0.073946 0.728376 0.240154
Si Si5 0.411769 0.594748 0.735354
Si Si6 0.926955 0.266984 0.264577
Si Si7 0.929114 0.103363 0.275672
O O1 0.500000 0.496329 0.750000
O O2 0.350134 0.544039 0.644765
O O3 0.363076 0.446246 0.669938
O O4 0.500000 0.500000 0.000000
O O5 0.281342 0.684946 0.308716
O O6 0.188110 0.700177 0.407035
O O7 0.399099 0.717731 0.691406
O O8 0.317985 0.632946 0.572744
O O9 0.854595 0.225381 0.207523
O O10 0.829128 0.138179 0.156034
O O11 0.653167 0.190874 0.901760
O O12 0.000000 0.708982 0.250000
O O13 0.009396 0.718006 0.006304
O O14 0.500000 0.597853 0.750000
O O15 0.477323 0.604640 0.969707
O O16 0.000000 0.249928 0.250000
O O17 0.000000 0.115278 0.250000
#
# Coordination Sequence:
#
# PCOD8130188 Si02
#       7
#     8   8   8   8   8   8   8
#     4   8  16  28  45  71 101 130 153 194 250 292
#     4  11  21  33  54  76  93 132 176 198 241 296
#     4  11  21  33  52  75  96 135 172 197 244 295
#     4  11  22  36  51  71 103 129 164 212 246 283
#     4  10  17  30  52  73 101 131 163 199 241 296
#     4  11  22  35  49  71 105 133 163 208 247 283
#     4  10  19  31  47  75 107 129 160 201 244 293
#
# _framework density 16.085474999999999
#
# number of rings (size 3 to 8) (size 9 to 14) (size 15 to 20)
#    0.000    1.714    4.286    1.714    0.000    1.143 
#    0.000    0.000    0.000    0.000    0.000    2.000 
#    0.000    0.000    0.000    0.000    0.000    0.000 
#
# Total GULP energy -346916.818050 kJ/mol
# GULP energy per Si atom -12389.886359 kJ/mol
# Density = 1.604886 g / cm^3
# Si number density = 16.085475 Si / 1000 Ang^3
#
#
#
# Elastic Constant Matrix: (Units=GPa)
#
#
# Indices 1 2 3 4 5 6 
#
# 1 93.2518 30.5889 29.2033 0.0000 -14.3580 0.0000
# 2 30.5889 129.6644 34.8086 0.0000 5.1505 0.0000
# 3 29.2033 34.8086 84.6150 0.0000 -12.7894 0.0000
# 4 0.0000 0.0000 0.0000 22.5546 0.0000 -1.5399
# 5 -14.3580 5.1505 -12.7894 0.0000 30.4745 0.0000
# 6 0.0000 0.0000 0.0000 -1.5399 0.0000 15.6049
#
#
#
# Elastic Compliance Matrix: (Units=1/GPa)
#
#
# Indices 1 2 3 4 5 6 
#
# 1 0.013282 -0.002644 -0.002651 0.000000 0.005592 0.000000
# 2 -0.002644 0.009491 -0.003654 0.000000 -0.004383 0.000000
# 3 -0.002651 -0.003654 0.015099 0.000000 0.005705 0.000000
# 4 0.000000 0.000000 0.000000 0.044638 0.000000 0.004405
# 5 0.005592 -0.004383 0.005705 0.000000 0.038584 0.000000
# 6 0.000000 0.000000 0.000000 0.004405 0.000000 0.064517
#
#
# Mechanical properties :
#
#
# Convention : Reuss Voigt Hill
#
# Bulk Modulus (GPa) = 50.06731 55.19254 52.62992
# Shear Modulus (GPa) = 23.79051 27.92216 25.85634
#
# Velocity S-wave (km/s) = 3.84996 4.17089 4.01363
# Velocity P-wave (km/s) = 7.13836 7.58825 7.36674
#
# Compressibility (1/GPa) = 0.01997311
#
# Stress axis : x y z
#
# Youngs Moduli (GPa) = 75.28893 105.36222 66.22966
#
# Poissons Ratio (x) = 0.27855 0.17559
# Poissons Ratio (y) = 0.19905 0.24204
# Poissons Ratio (z) = 0.19961 0.38505
#
# Static dielectric constant tensor:
#      x y z
#    x 3.124890 0.000000 -0.099020 
#    y 0.000000 3.542160 0.000000 
#    z -0.099020 0.000000 3.496760 
# 
# 
# High freq. dielectric constant tensor:
#      x y z
#    x 1.620410 0.000000 -0.033090 
#    y 0.000000 1.618810 0.000000 
#    z -0.033090 0.000000 1.605350 
# 
# From -- ./inp_files/35150.got.cif
#   From: 2010.06.25/outbox.cif.g09.slc.cpg/sg15_18_cif.got.tgz:35150.got - 2010.06.28 07:06:18.
