data_PCOD8130105
_publ_section_title
;
Structure prediction by ZEFSAII (Michael W. Deem and Ramdas Pophale) SiO2 
 PCOD8130105
Probable space group: C 2/C
;
_chemical_formula_sum "Si O2"
_cell_formula_units_Z 60
_cell_length_a 18.061812
_cell_length_b 18.083226
_cell_length_c 9.874158
_cell_angle_alpha 90.000000
_cell_angle_beta 74.967350
_cell_angle_gamma 90.000000
_cell_volume 3114.689003
_symmetry_space_group_name_H-M "C 2/C"
_symmetry_group_IT_number 15
_symmetry_cell_setting 'monoclinic'
loop_
_space_group_symop_operation_xyz
x,y,z
-x,y,1/2-z
-x,-y,-z
x,-y,1/2+z
1/2+x,1/2+y,z
1/2-x,1/2+y,1/2-z
1/2-x,1/2-y,-z
1/2+x,1/2-y,1/2+z
loop_
_atom_site_type_symbol
_atom_site_label
_atom_site_fract_x
_atom_site_fract_y
_atom_site_fract_z
Si Si1 0.844336 0.957645 0.361724
Si Si2 0.879840 0.234770 0.242979
Si Si3 0.020936 0.175425 0.061109
Si Si4 0.850969 0.817343 0.197408
Si Si5 0.500000 0.541395 0.250000
Si Si6 0.782159 0.333748 0.708127
Si Si7 0.293720 0.866184 0.392860
Si Si8 0.749623 0.481345 0.834740
O O1 0.842335 0.869816 0.331951
O O2 0.820055 0.970928 0.527316
O O3 0.784156 0.000094 0.295867
O O4 0.927619 0.988733 0.293586
O O5 0.917014 0.206295 0.363408
O O6 0.807959 0.183445 0.241195
O O7 0.853427 0.319829 0.272616
O O8 0.944461 0.227053 0.094576
O O9 0.995736 0.092752 0.117600
O O10 0.061392 0.175358 0.896207
O O11 0.831862 0.733157 0.247561
O O12 0.793192 0.844076 0.105859
O O13 0.808384 0.346405 0.541515
O O14 0.798172 0.405895 0.793013
O O15 0.306205 0.953325 0.358626
#
# Coordination Sequence:
#
# PCOD8130105 Si02
#       8
#     8   8   8   8   4   8   8   8
#     4  11  23  35  51  81 111 151 176 215 260 333
#     4   9  17  28  52  79 105 133 182 219 259 305
#     4  10  17  28  52  82 103 141 177 221 251 318
#     4  10  20  33  54  77 111 140 186 211 269 315
#     4  10  20  32  50  76 120 140 176 210 256 316
#     4  11  18  34  54  76 108 143 174 230 261 319
#     4  10  17  33  53  79 104 142 179 227 262 315
#     4  11  22  34  55  78 108 139 184 224 275 306
#
# _framework density 19.263559999999998
#
# number of rings (size 3 to 8) (size 9 to 14) (size 15 to 20)
#    0.000    1.867    4.000    4.000    0.000    3.733 
#    0.000    0.000    0.000    0.800    0.000    0.000 
#    0.000    0.000    0.000    0.000    0.000    0.000 
#
# Total GULP energy -371953.149350 kJ/mol
# GULP energy per Si atom -12398.438312 kJ/mol
# Density = 1.921972 g / cm^3
# Si number density = 19.263560 Si / 1000 Ang^3
#
#
#
# Elastic Constant Matrix: (Units=GPa)
#
#
# Indices 1 2 3 4 5 6 
#
# 1 38.9398 33.1132 14.6499 0.0000 -13.9274 0.0000
# 2 33.1132 173.7541 34.4115 0.0000 -12.3560 0.0000
# 3 14.6499 34.4115 48.8587 0.0000 -12.6871 0.0000
# 4 0.0000 0.0000 0.0000 26.5781 0.0000 -5.7647
# 5 -13.9274 -12.3560 -12.6871 0.0000 15.1036 0.0000
# 6 0.0000 0.0000 0.0000 -5.7647 0.0000 25.9699
#
#
#
# Elastic Compliance Matrix: (Units=1/GPa)
#
#
# Indices 1 2 3 4 5 6 
#
# 1 0.043080 -0.005761 0.000297 0.000000 0.035261 0.000000
# 2 -0.005761 0.007503 -0.004275 0.000000 -0.002765 0.000000
# 3 0.000297 -0.004275 0.028844 0.000000 0.021005 0.000000
# 4 0.000000 0.000000 0.000000 0.039528 0.000000 0.008774
# 5 0.035261 -0.002765 0.021005 0.000000 0.114106 0.000000
# 6 0.000000 0.000000 0.000000 0.008774 0.000000 0.040454
#
#
# Mechanical properties :
#
#
# Convention : Reuss Voigt Hill
#
# Bulk Modulus (GPa) = 16.68141 47.32242 32.00192
# Shear Modulus (GPa) = 15.97565 25.48884 20.73224
#
# Velocity S-wave (km/s) = 2.88292 3.64148 3.28417
# Velocity P-wave (km/s) = 4.44522 6.50381 5.57044
#
# Compressibility (1/GPa) = 0.05994696
#
# Stress axis : x y z
#
# Youngs Moduli (GPa) = 23.21275 133.27575 34.66972
#
# Poissons Ratio (x) = 0.76783 -0.01028
# Poissons Ratio (y) = 0.13373 0.14822
# Poissons Ratio (z) = -0.00688 0.56979
#
# Static dielectric constant tensor:
#      x y z
#    x 3.253360 0.000000 -0.197940 
#    y 0.000000 3.809760 0.000000 
#    z -0.197940 0.000000 3.432500 
# 
# 
# High freq. dielectric constant tensor:
#      x y z
#    x 1.706960 0.000000 -0.013650 
#    y 0.000000 1.757710 0.000000 
#    z -0.013650 0.000000 1.736240 
# 
# From -- ./inp_files/106374.got.cif
#   From: 2010.06.25/outbox.cif.g09.slc.cpg/sg15_54_cif.got.tgz:106374.got - 2010.06.28 07:06:18.
