data_PCOD8130261
_publ_section_title
;
Structure prediction by ZEFSAII (Michael W. Deem and Ramdas Pophale) SiO2 
 PCOD8130261
Probable space group: C 2/C
;
_chemical_formula_sum "Si O2"
_cell_formula_units_Z 56
_cell_length_a 26.372500
_cell_length_b 16.146681
_cell_length_c 22.147551
_cell_angle_alpha 90.000000
_cell_angle_beta 20.282900
_cell_angle_gamma 90.000000
_cell_volume 3269.329173
_symmetry_space_group_name_H-M "C 2/C"
_symmetry_group_IT_number 15
_symmetry_cell_setting 'monoclinic'
loop_
_space_group_symop_operation_xyz
x,y,z
-x,y,1/2-z
-x,-y,-z
x,-y,1/2+z
1/2+x,1/2+y,z
1/2-x,1/2+y,1/2-z
1/2-x,1/2-y,-z
1/2+x,1/2-y,1/2+z
loop_
_atom_site_type_symbol
_atom_site_label
_atom_site_fract_x
_atom_site_fract_y
_atom_site_fract_z
Si Si1 0.143811 0.427593 0.621836
Si Si2 0.989290 0.721967 0.175291
Si Si3 0.741814 0.650810 0.682022
Si Si4 0.763941 0.029240 0.114250
Si Si5 0.568157 0.596013 0.770600
Si Si6 0.626645 0.184204 0.325894
Si Si7 0.890235 0.424534 0.125704
O O1 0.165585 0.467288 0.663859
O O2 0.291046 0.441961 0.419952
O O3 0.000000 0.468312 0.750000
O O4 0.112838 0.328997 0.664380
O O5 0.988278 0.817841 0.196748
O O6 0.933192 0.717450 0.170270
O O7 0.149908 0.679036 0.993985
O O8 0.605050 0.608462 0.800485
O O9 0.705842 0.733349 0.762979
O O10 0.807573 0.582910 0.653851
O O11 0.733945 0.106963 0.192872
O O12 0.722698 0.942480 0.193746
O O13 0.937423 0.029885 0.907755
O O14 0.492537 0.157264 0.519735
O O15 0.000000 0.500000 0.000000
#
# Coordination Sequence:
#
# PCOD8130261 Si02
#       7
#     8   8   8   8   8   8   8
#     4  11  21  31  46  65 100 144 180 208 240 300
#     4   9  17  29  42  68  98 137 170 204 239 284
#     4  10  17  31  51  74 103 135 174 209 252 301
#     4  10  20  34  46  70 101 139 174 214 255 292
#     4  11  20  29  47  71 102 132 174 216 242 299
#     4   8  16  30  49  68  95 131 171 206 249 301
#     4   9  19  33  52  69 101 143 170 209 261 309
#
# _framework density 17.128896999999998
#
# number of rings (size 3 to 8) (size 9 to 14) (size 15 to 20)
#    0.000    2.286    2.857    1.714    0.000    1.714 
#    0.000    0.000    0.000    0.000    0.000    0.000 
#    0.000    8.000    0.000    0.000    0.000    0.000 
#
# Total GULP energy -346927.726848 kJ/mol
# GULP energy per Si atom -12390.275959 kJ/mol
# Density = 1.708991 g / cm^3
# Si number density = 17.128897 Si / 1000 Ang^3
#
#
#
# Elastic Constant Matrix: (Units=GPa)
#
#
# Indices 1 2 3 4 5 6 
#
# 1 84.7872 28.6425 35.8184 -0.0033 -8.7029 0.0014
# 2 28.6425 39.7604 32.0106 -0.0046 5.3408 0.0028
# 3 35.8184 32.0106 118.5714 -0.0136 -4.9042 0.0076
# 4 -0.0033 -0.0046 -0.0136 25.7709 0.0049 -3.3262
# 5 -8.7029 5.3408 -4.9042 0.0049 23.5685 -0.0022
# 6 0.0014 0.0028 0.0076 -3.3262 -0.0022 16.3362
#
#
#
# Elastic Compliance Matrix: (Units=1/GPa)
#
#
# Indices 1 2 3 4 5 6 
#
# 1 0.017669 -0.012720 -0.001528 -0.000002 0.009089 0.000002
# 2 -0.012720 0.043382 -0.008544 0.000004 -0.016306 -0.000004
# 3 -0.001528 -0.008544 0.011356 0.000003 0.003735 -0.000003
# 4 -0.000002 0.000004 0.000003 0.039851 -0.000009 0.008114
# 5 0.009089 -0.016306 0.003735 -0.000009 0.050258 0.000005
# 6 0.000002 -0.000004 -0.000003 0.008114 0.000005 0.062866
#
#
# Mechanical properties :
#
#
# Convention : Reuss Voigt Hill
#
# Bulk Modulus (GPa) = 37.27784 48.45131 42.86458
# Shear Modulus (GPa) = 17.86306 22.91162 20.38734
#
# Velocity S-wave (km/s) = 3.23284 3.66129 3.45371
# Velocity P-wave (km/s) = 5.97874 6.79861 6.40182
#
# Compressibility (1/GPa) = 0.02682559
#
# Stress axis : x y z
#
# Youngs Moduli (GPa) = 56.59476 23.05080 88.05637
#
# Poissons Ratio (x) = 0.29320 0.13454
# Poissons Ratio (y) = 0.71986 0.75235
# Poissons Ratio (z) = 0.08647 0.19695
#
# Static dielectric constant tensor:
#      x y z
#    x 3.224600 -0.000010 -0.143320 
#    y -0.000010 3.145090 -0.000010 
#    z -0.143320 -0.000010 3.637320 
# 
# 
# High freq. dielectric constant tensor:
#      x y z
#    x 1.651120 0.000000 -0.024680 
#    y 0.000000 1.601540 0.000000 
#    z -0.024680 0.000000 1.662400 
# 
# From -- ./inp_files/249522.got.cif
#   From: 2010.06.25/outbox.cif.g09.slc.cpg/sg15_125_cif.got.tgz:249522.got - 2010.06.28 07:06:18.
