data_PCOD8130892
_publ_section_title
;
Structure prediction by ZEFSAII (Michael W. Deem and Ramdas Pophale) SiO2 
 PCOD8130892
Probable space group: C 2/C
;
_chemical_formula_sum "Si O2"
_cell_formula_units_Z 56
_cell_length_a 5.306504
_cell_length_b 17.340187
_cell_length_c 31.946947
_cell_angle_alpha 90.000000
_cell_angle_beta 109.987881
_cell_angle_gamma 90.000000
_cell_volume 2762.554622
_symmetry_space_group_name_H-M "C 2/C"
_symmetry_group_IT_number 15
_symmetry_cell_setting 'monoclinic'
loop_
_space_group_symop_operation_xyz
x,y,z
-x,y,1/2-z
-x,-y,-z
x,-y,1/2+z
1/2+x,1/2+y,z
1/2-x,1/2+y,1/2-z
1/2-x,1/2-y,-z
1/2+x,1/2-y,1/2+z
loop_
_atom_site_type_symbol
_atom_site_label
_atom_site_fract_x
_atom_site_fract_y
_atom_site_fract_z
Si Si1 0.308298 0.395890 0.152793
Si Si2 0.500000 0.244623 0.750000
Si Si3 0.102835 0.012368 0.052093
Si Si4 0.059719 0.473079 0.798062
Si Si5 0.698670 0.946085 0.596659
Si Si6 0.596868 0.620097 0.315034
Si Si7 0.745026 0.103234 0.874255
Si Si8 0.500000 0.356371 0.250000
O O1 0.278020 0.477631 0.127652
O O2 0.532922 0.348655 0.139028
O O3 0.397873 0.410006 0.205848
O O4 0.028149 0.348094 0.133987
O O5 0.426318 0.294956 0.705272
O O6 0.242956 0.194323 0.746927
O O7 0.386012 0.056920 0.066737
O O8 0.879144 0.060009 0.065132
O O9 0.141375 0.928326 0.075527
O O10 0.000000 0.000000 0.000000
O O11 0.298624 0.413104 0.803637
O O12 0.145843 0.531827 0.839249
O O13 0.000000 0.515790 0.750000
O O14 0.788253 0.429336 0.795551
O O15 0.765532 0.874567 0.630974
#
# Coordination Sequence:
#
# PCOD8130892 Si02
#       8
#     8   4   8   8   8   8   8   4
#     4  10  20  34  52  69 105 131 176 217 239 304
#     4  12  26  39  48  71 104 146 186 212 268 294
#     4  10  18  30  48  76 120 138 150 202 266 344
#     4  12  19  29  50  78 101 131 172 212 254 290
#     4  10  19  33  52  82  98 135 176 206 269 310
#     4  12  20  36  52  71 107 133 174 227 244 313
#     4  10  19  31  48  80 103 128 175 199 254 313
#     4  12  26  39  48  71 104 146 186 218 254 302
#
# _framework density 20.271093
#
# number of rings (size 3 to 8) (size 9 to 14) (size 15 to 20)
#    0.000    1.143    7.143    2.143    2.000    0.571 
#    0.000    0.000    0.000    0.000    0.000    0.000 
#    0.000   91.429    0.000    0.000    0.000    0.000 
#
# Total GULP energy -346910.961272 kJ/mol
# GULP energy per Si atom -12389.677188 kJ/mol
# Density = 2.022495 g / cm^3
# Si number density = 20.271093 Si / 1000 Ang^3
#
#
#
# Elastic Constant Matrix: (Units=GPa)
#
#
# Indices 1 2 3 4 5 6 
#
# 1 187.7278 14.7360 35.4872 0.0000 -9.5134 0.0000
# 2 14.7360 27.5930 14.9435 0.0000 1.0090 0.0000
# 3 35.4872 14.9435 163.9351 0.0000 -3.6568 0.0000
# 4 0.0000 0.0000 0.0000 15.7797 0.0000 -1.2514
# 5 -9.5134 1.0090 -3.6568 0.0000 29.5893 0.0000
# 6 0.0000 0.0000 0.0000 -1.2514 0.0000 8.6096
#
#
#
# Elastic Compliance Matrix: (Units=1/GPa)
#
#
# Indices 1 2 3 4 5 6 
#
# 1 0.005812 -0.002642 -0.000976 0.000000 0.001838 0.000000
# 2 -0.002642 0.039413 -0.003078 0.000000 -0.002574 0.000000
# 3 -0.000976 -0.003078 0.006605 0.000000 0.000607 0.000000
# 4 0.000000 0.000000 0.000000 0.064112 0.000000 0.009319
# 5 0.001838 -0.002574 0.000607 0.000000 0.034550 0.000000
# 6 0.000000 0.000000 0.000000 0.009319 0.000000 0.117504
#
#
# Mechanical properties :
#
#
# Convention : Reuss Voigt Hill
#
# Bulk Modulus (GPa) = 26.01645 56.62105 41.31875
# Shear Modulus (GPa) = 16.99512 31.73500 24.36506
#
# Velocity S-wave (km/s) = 2.89864 3.96097 3.47069
# Velocity P-wave (km/s) = 4.90560 6.99368 6.04055
#
# Compressibility (1/GPa) = 0.03843721
#
# Stress axis : x y z
#
# Youngs Moduli (GPa) = 172.05854 25.37210 151.39021
#
# Poissons Ratio (x) = 0.06704 0.14780
# Poissons Ratio (y) = 0.45464 0.46600
# Poissons Ratio (z) = 0.16797 0.07810
#
# Static dielectric constant tensor:
#      x y z
#    x 5.611050 0.000000 -0.060170 
#    y 0.000000 3.016740 0.000000 
#    z -0.060170 0.000000 3.735740 
# 
# 
# High freq. dielectric constant tensor:
#      x y z
#    x 1.848130 0.000000 -0.003990 
#    y 0.000000 1.707790 0.000000 
#    z -0.003990 0.000000 1.784730 
# 
# From -- ./inp_files/305720.got.cif
#   From: 2010.06.25/outbox.cif.g09.slc.cpg/sg15_153_cif.got.tgz:305720.got - 2010.06.28 07:06:18.
