data_PCOD8130698
_publ_section_title
;
Structure prediction by ZEFSAII (Michael W. Deem and Ramdas Pophale) SiO2 
 PCOD8130698
Probable space group: C 2/C
;
_chemical_formula_sum "Si O2"
_cell_formula_units_Z 52
_cell_length_a 11.757903
_cell_length_b 14.227485
_cell_length_c 22.520732
_cell_angle_alpha 90.000000
_cell_angle_beta 46.239006
_cell_angle_gamma 90.000000
_cell_volume 2720.926396
_symmetry_space_group_name_H-M "C 2/C"
_symmetry_group_IT_number 15
_symmetry_cell_setting 'monoclinic'
loop_
_space_group_symop_operation_xyz
x,y,z
-x,y,1/2-z
-x,-y,-z
x,-y,1/2+z
1/2+x,1/2+y,z
1/2-x,1/2+y,1/2-z
1/2-x,1/2-y,-z
1/2+x,1/2-y,1/2+z
loop_
_atom_site_type_symbol
_atom_site_label
_atom_site_fract_x
_atom_site_fract_y
_atom_site_fract_z
Si Si1 0.822925 0.931608 0.125222
Si Si2 0.672056 0.460189 0.045541
Si Si3 0.224299 0.348380 0.041657
Si Si4 0.500000 0.747629 0.750000
Si Si5 0.833237 0.929933 0.317558
Si Si6 0.092592 0.434036 0.309897
Si Si7 0.856656 0.589150 0.371045
O O1 0.816026 0.859853 0.071594
O O2 0.703031 0.892083 0.218281
O O3 0.994005 0.936298 0.092186
O O4 0.777264 0.037898 0.120787
O O5 0.712560 0.427587 0.097077
O O6 0.710815 0.570757 0.025392
O O7 0.789247 0.400501 0.961630
O O8 0.037235 0.358917 0.121496
O O9 0.250000 0.250000 0.000000
O O10 0.639250 0.675928 0.720157
O O11 0.583918 0.809117 0.669538
O O12 0.693512 0.972930 0.329300
O O13 0.000000 0.986848 0.250000
O O14 0.010452 0.524837 0.312235
#
# Coordination Sequence:
#
# PCOD8130698 Si02
#       7
#     8   8   8   4   8   8   8
#     4  10  17  37  63  84 110 156 198 238 298 348
#     4  10  21  38  58  83 119 158 193 234 305 353
#     4  10  22  37  59  92 116 149 199 254 291 352
#     4  10  20  36  56  88 112 142 204 240 278 346
#     4  10  22  37  52  84 123 153 187 239 300 351
#     4  10  19  38  62  78 118 157 193 238 300 353
#     4  10  19  34  61  86 105 148 199 247 282 345
#
# _framework density 19.111139000000001
#
# number of rings (size 3 to 8) (size 9 to 14) (size 15 to 20)
#    0.462    1.846    3.077    3.231    0.000    5.538 
#    0.000    6.154    0.000    0.000    0.000    0.000 
#    0.000    0.000    0.000    0.000    0.000    0.000 
#
# Total GULP energy -322101.048527 kJ/mol
# GULP energy per Si atom -12388.501866 kJ/mol
# Density = 1.906764 g / cm^3
# Si number density = 19.111139 Si / 1000 Ang^3
#
#
#
# Elastic Constant Matrix: (Units=GPa)
#
#
# Indices 1 2 3 4 5 6 
#
# 1 83.6781 11.8165 10.3468 0.0000 10.8998 0.0000
# 2 11.8165 64.4078 22.8902 0.0000 -5.4650 0.0000
# 3 10.3468 22.8902 101.8105 0.0000 4.7205 0.0000
# 4 0.0000 0.0000 0.0000 30.2089 0.0000 7.3984
# 5 10.8998 -5.4650 4.7205 0.0000 30.4053 0.0000
# 6 0.0000 0.0000 0.0000 7.3984 0.0000 9.5116
#
#
#
# Elastic Compliance Matrix: (Units=1/GPa)
#
#
# Indices 1 2 3 4 5 6 
#
# 1 0.013047 -0.002648 -0.000495 0.000000 -0.005076 0.000000
# 2 -0.002648 0.017824 -0.003959 0.000000 0.004768 0.000000
# 3 -0.000495 -0.003959 0.010866 0.000000 -0.002221 0.000000
# 4 0.000000 0.000000 0.000000 0.040893 0.000000 -0.031807
# 5 -0.005076 0.004768 -0.002221 0.000000 0.035911 0.000000
# 6 0.000000 0.000000 0.000000 -0.031807 0.000000 0.129875
#
#
# Mechanical properties :
#
#
# Convention : Reuss Voigt Hill
#
# Bulk Modulus (GPa) = 36.32307 37.77816 37.05062
# Shear Modulus (GPa) = 18.39608 27.68136 23.03872
#
# Velocity S-wave (km/s) = 3.10592 3.80997 3.47582
# Velocity P-wave (km/s) = 5.64888 6.25819 5.96133
#
# Compressibility (1/GPa) = 0.02753071
#
# Stress axis : x y z
#
# Youngs Moduli (GPa) = 76.64592 56.10544 92.03343
#
# Poissons Ratio (x) = 0.14859 0.04557
# Poissons Ratio (y) = 0.20299 0.36438
# Poissons Ratio (z) = 0.03795 0.22213
#
# Static dielectric constant tensor:
#      x y z
#    x 3.448220 0.000000 -0.063720 
#    y 0.000000 3.134610 0.000000 
#    z -0.063720 0.000000 3.770690 
# 
# 
# High freq. dielectric constant tensor:
#      x y z
#    x 1.740180 0.000000 -0.002770 
#    y 0.000000 1.697720 0.000000 
#    z -0.002770 0.000000 1.768800 
# 
# From -- ./inp_files/269692.got.cif
#   From: 2010.06.25/outbox.cif.g09.slc.cpg/sg15_135_cif.got.tgz:269692.got - 2010.06.28 07:06:18.
