data_PCOD8130191
_publ_section_title
;
Structure prediction by ZEFSAII (Michael W. Deem and Ramdas Pophale) SiO2 
 PCOD8130191
Probable space group: C 2/C
;
_chemical_formula_sum "Si O2"
_cell_formula_units_Z 52
_cell_length_a 27.835718
_cell_length_b 15.474014
_cell_length_c 16.159543
_cell_angle_alpha 90.000000
_cell_angle_beta 156.951220
_cell_angle_gamma 90.000000
_cell_volume 2725.100586
_symmetry_space_group_name_H-M "C 2/C"
_symmetry_group_IT_number 15
_symmetry_cell_setting 'monoclinic'
loop_
_space_group_symop_operation_xyz
x,y,z
-x,y,1/2-z
-x,-y,-z
x,-y,1/2+z
1/2+x,1/2+y,z
1/2-x,1/2+y,1/2-z
1/2-x,1/2-y,-z
1/2+x,1/2-y,1/2+z
loop_
_atom_site_type_symbol
_atom_site_label
_atom_site_fract_x
_atom_site_fract_y
_atom_site_fract_z
Si Si1 0.852413 0.813367 0.195353
Si Si2 0.500000 0.774995 0.250000
Si Si3 0.771016 0.330212 0.975495
Si Si4 0.148371 0.006430 0.311803
Si Si5 0.676761 0.686453 0.660064
Si Si6 0.374295 0.685579 0.418486
Si Si7 0.885807 0.998164 0.434911
O O1 0.875228 0.803485 0.329747
O O2 0.980365 0.794775 0.351151
O O3 0.803210 0.909550 0.095666
O O4 0.750000 0.750000 0.000000
O O5 0.408197 0.835658 0.156183
O O6 0.576840 0.717825 0.435978
O O7 0.750000 0.250000 0.000000
O O8 0.748665 0.419362 0.991328
O O9 0.671539 0.314670 0.747330
O O10 0.118278 0.018872 0.168223
O O11 0.028763 0.024421 0.179450
O O12 0.803998 0.739537 0.857566
O O13 0.699250 0.583849 0.675548
O O14 0.348272 0.589818 0.418662
#
# Coordination Sequence:
#
# PCOD8130191 Si02
#       7
#     8   4   8   8   8   8   8
#     4  10  20  36  54  73 101 137 177 210 243 299
#     4  10  20  30  50  82 106 128 162 212 266 308
#     4  10  17  30  52  76 104 133 166 211 261 306
#     4   8  15  29  51  72  93 133 175 206 247 297
#     4  10  19  34  54  77 104 132 166 210 259 301
#     4   9  19  33  52  77 102 133 171 210 253 300
#     4   8  14  30  52  71  96 131 171 207 246 303
#
# _framework density 19.081863999999999
#
# number of rings (size 3 to 8) (size 9 to 14) (size 15 to 20)
#    0.000    2.769    0.000    4.615    0.000    0.615 
#    0.000   12.308    0.000    2.769    0.000    0.000 
#    0.000    0.000    0.000    0.000    0.000    0.000 
#
# Total GULP energy -322102.422042 kJ/mol
# GULP energy per Si atom -12388.554694 kJ/mol
# Density = 1.903843 g / cm^3
# Si number density = 19.081864 Si / 1000 Ang^3
#
#
#
# Elastic Constant Matrix: (Units=GPa)
#
#
# Indices 1 2 3 4 5 6 
#
# 1 46.1383 53.5620 24.3576 0.0000 17.0172 0.0000
# 2 53.5620 182.5904 64.4266 0.0000 37.2574 0.0000
# 3 24.3576 64.4266 85.4217 0.0000 21.0713 0.0000
# 4 0.0000 0.0000 0.0000 31.4704 0.0000 8.2214
# 5 17.0172 37.2574 21.0713 0.0000 30.1853 0.0000
# 6 0.0000 0.0000 0.0000 8.2214 0.0000 28.8045
#
#
#
# Elastic Compliance Matrix: (Units=1/GPa)
#
#
# Indices 1 2 3 4 5 6 
#
# 1 0.034964 -0.007788 -0.001939 0.000000 -0.008745 0.000000
# 2 -0.007788 0.010375 -0.004263 0.000000 -0.005440 0.000000
# 3 -0.001939 -0.004263 0.016800 0.000000 -0.005373 0.000000
# 4 0.000000 0.000000 0.000000 0.034336 0.000000 -0.009800
# 5 -0.008745 -0.005440 -0.005373 0.000000 0.048524 0.000000
# 6 0.000000 0.000000 0.000000 -0.009800 0.000000 0.037514
#
#
# Mechanical properties :
#
#
# Convention : Reuss Voigt Hill
#
# Bulk Modulus (GPa) = 29.27367 66.53810 47.90588
# Shear Modulus (GPa) = 22.53475 29.54565 26.04020
#
# Velocity S-wave (km/s) = 3.44023 3.93919 3.69813
# Velocity P-wave (km/s) = 5.58163 7.45890 6.58748
#
# Compressibility (1/GPa) = 0.03416039
#
# Stress axis : x y z
#
# Youngs Moduli (GPa) = 28.60079 96.38144 59.52440
#
# Poissons Ratio (x) = 0.75062 0.11540
# Poissons Ratio (y) = 0.22274 0.25374
# Poissons Ratio (z) = 0.05545 0.41085
#
# Static dielectric constant tensor:
#      x y z
#    x 3.488880 0.000000 0.349310 
#    y 0.000000 3.985030 0.000000 
#    z 0.349310 0.000000 3.559490 
# 
# 
# High freq. dielectric constant tensor:
#      x y z
#    x 1.720290 0.000000 0.006430 
#    y 0.000000 1.755110 0.000000 
#    z 0.006430 0.000000 1.715730 
# 
# From -- ./inp_files/144147.got.cif
#   From: 2010.06.25/outbox.cif.g09.slc.cpg/sg15_73_cif.got.tgz:144147.got - 2010.06.28 07:06:18.
