data_PCOD8130835
_publ_section_title
;
Structure prediction by ZEFSAII (Michael W. Deem and Ramdas Pophale) SiO2 
 PCOD8130835
Probable space group: C 2/C
;
_chemical_formula_sum "Si O2"
_cell_formula_units_Z 56
_cell_length_a 13.739361
_cell_length_b 18.220083
_cell_length_c 13.547785
_cell_angle_alpha 90.000000
_cell_angle_beta 110.352506
_cell_angle_gamma 90.000000
_cell_volume 3179.722103
_symmetry_space_group_name_H-M "C 2/C"
_symmetry_group_IT_number 15
_symmetry_cell_setting 'monoclinic'
loop_
_space_group_symop_operation_xyz
x,y,z
-x,y,1/2-z
-x,-y,-z
x,-y,1/2+z
1/2+x,1/2+y,z
1/2-x,1/2+y,1/2-z
1/2-x,1/2-y,-z
1/2+x,1/2-y,1/2+z
loop_
_atom_site_type_symbol
_atom_site_label
_atom_site_fract_x
_atom_site_fract_y
_atom_site_fract_z
Si Si1 0.175449 0.207852 0.897472
Si Si2 0.798192 0.715696 0.293147
Si Si3 0.993943 0.258311 0.542791
Si Si4 0.654805 0.056878 0.232178
Si Si5 0.929939 0.419034 0.589744
Si Si6 0.416261 0.212933 0.804637
Si Si7 0.312077 0.919320 0.362524
O O1 0.160198 0.260552 0.798807
O O2 0.064911 0.195298 0.913542
O O3 0.218463 0.129280 0.875015
O O4 0.250000 0.250000 0.000000
O O5 0.793719 0.627950 0.299247
O O6 0.683752 0.745408 0.274153
O O7 0.881536 0.746851 0.402377
O O8 0.948739 0.333203 0.574052
O O9 0.962673 0.247429 0.417818
O O10 0.650133 0.068156 0.348205
O O11 0.538702 0.042428 0.150874
O O12 0.723660 0.986580 0.221119
O O13 0.876404 0.455086 0.475514
O O14 0.500000 0.211453 0.750000
O O15 0.386400 0.130443 0.821448
#
# Coordination Sequence:
#
# PCOD8130835 Si02
#       7
#     8   8   8   8   8   8   8
#     4  11  16  32  55  80 105 135 180 221 262 308
#     4  10  19  33  55  79 107 139 179 215 267 322
#     4  10  18  33  57  80 103 137 184 222 260 311
#     4  10  18  29  48  78 106 137 170 214 266 323
#     4   9  17  29  48  74 109 139 167 209 270 319
#     4  10  22  36  53  77 110 143 175 218 267 319
#     4  10  20  31  50  79 109 137 171 219 272 311
#
# _framework density 17.611602000000001
#
# number of rings (size 3 to 8) (size 9 to 14) (size 15 to 20)
#    0.000    2.000    5.714    0.857    2.000    0.571 
#    0.000    0.000    0.000    3.429    0.000    5.000 
#    0.000    0.000    0.000    0.000    0.000    0.000 
#
# Total GULP energy -347011.611017 kJ/mol
# GULP energy per Si atom -12393.271822 kJ/mol
# Density = 1.757152 g / cm^3
# Si number density = 17.611602 Si / 1000 Ang^3
#
#
#
# Elastic Constant Matrix: (Units=GPa)
#
#
# Indices 1 2 3 4 5 6 
#
# 1 107.1164 43.4274 53.0235 0.0000 -8.7059 0.0000
# 2 43.4274 73.5504 34.4483 0.0000 -5.6044 0.0000
# 3 53.0235 34.4483 76.4781 0.0000 -2.3475 0.0000
# 4 0.0000 0.0000 0.0000 23.2462 0.0000 -4.9486
# 5 -8.7059 -5.6044 -2.3475 0.0000 30.5156 0.0000
# 6 0.0000 0.0000 0.0000 -4.9486 0.0000 20.5993
#
#
#
# Elastic Compliance Matrix: (Units=1/GPa)
#
#
# Indices 1 2 3 4 5 6 
#
# 1 0.015936 -0.005137 -0.008645 0.000000 0.002938 0.000000
# 2 -0.005137 0.019091 -0.004987 0.000000 0.001657 0.000000
# 3 -0.008645 -0.004987 0.021262 0.000000 -0.001747 0.000000
# 4 0.000000 0.000000 0.000000 0.045336 0.000000 0.010891
# 5 0.002938 0.001657 -0.001747 0.000000 0.033778 0.000000
# 6 0.000000 0.000000 0.000000 0.010891 0.000000 0.051162
#
#
# Mechanical properties :
#
#
# Convention : Reuss Voigt Hill
#
# Bulk Modulus (GPa) = 53.32756 57.66037 55.49396
# Shear Modulus (GPa) = 21.70574 23.28860 22.49717
#
# Velocity S-wave (km/s) = 3.51446 3.64035 3.57796
# Velocity P-wave (km/s) = 6.84208 7.10497 6.97477
#
# Compressibility (1/GPa) = 0.01875203
#
# Stress axis : x y z
#
# Youngs Moduli (GPa) = 62.74993 52.38060 47.03207
#
# Poissons Ratio (x) = 0.26906 0.40659
# Poissons Ratio (y) = 0.32232 0.23455
# Poissons Ratio (z) = 0.54247 0.26123
#
# Static dielectric constant tensor:
#      x y z
#    x 3.169710 0.000000 0.116130 
#    y 0.000000 3.051910 0.000000 
#    z 0.116130 0.000000 3.450870 
# 
# 
# High freq. dielectric constant tensor:
#      x y z
#    x 1.656200 0.000000 -0.003560 
#    y 0.000000 1.651230 0.000000 
#    z -0.003560 0.000000 1.688360 
# 
# From -- ./inp_files/98395.got.cif
#   From: 2010.06.25/outbox.cif.g09.slc.cpg/sg15_50_cif.got.tgz:98395.got - 2010.06.28 07:06:18.
