data_PCOD8130312
_publ_section_title
;
Structure prediction by ZEFSAII (Michael W. Deem and Ramdas Pophale) SiO2 
 PCOD8130312
Probable space group: C 2/C
;
_chemical_formula_sum "Si O2"
_cell_formula_units_Z 48
_cell_length_a 7.306031
_cell_length_b 18.498596
_cell_length_c 19.417307
_cell_angle_alpha 90.000000
_cell_angle_beta 72.399358
_cell_angle_gamma 90.000000
_cell_volume 2501.425158
_symmetry_space_group_name_H-M "C 2/C"
_symmetry_group_IT_number 15
_symmetry_cell_setting 'monoclinic'
loop_
_space_group_symop_operation_xyz
x,y,z
-x,y,1/2-z
-x,-y,-z
x,-y,1/2+z
1/2+x,1/2+y,z
1/2-x,1/2+y,1/2-z
1/2-x,1/2-y,-z
1/2+x,1/2-y,1/2+z
loop_
_atom_site_type_symbol
_atom_site_label
_atom_site_fract_x
_atom_site_fract_y
_atom_site_fract_z
Si Si1 0.305964 0.249855 0.397944
Si Si2 0.433496 0.475571 0.434358
Si Si3 0.505852 0.248096 0.669460
Si Si4 0.821697 0.872204 0.941319
Si Si5 0.620426 0.137095 0.010213
Si Si6 0.846130 0.844667 0.097901
O O1 0.318145 0.165043 0.419819
O O2 0.146649 0.291164 0.461375
O O3 0.515803 0.285857 0.381175
O O4 0.215625 0.255192 0.331299
O O5 0.500000 0.500000 0.500000
O O6 0.403190 0.552269 0.399967
O O7 0.240126 0.429156 0.466157
O O8 0.595224 0.424567 0.379511
O O9 0.500000 0.265942 0.750000
O O10 0.622704 0.309783 0.616975
O O11 0.625793 0.173705 0.641712
O O12 0.596908 0.886540 0.968076
O O13 0.889175 0.848861 0.010701
#
# Coordination Sequence:
#
# PCOD8130312 Si02
#       6
#     8   8   8   8   8   8
#     4  10  19  33  57  86 114 142 187 240 286 325
#     4   9  19  31  56  88 116 140 183 240 295 340
#     4  12  24  37  58  82 118 153 195 233 282 344
#     4  11  19  36  59  86 115 148 187 241 291 342
#     4  10  17  31  59  90 111 142 187 240 291 335
#     4  10  20  38  60  87 112 146 189 246 283 333
#
# _framework density 19.189060999999999
#
# number of rings (size 3 to 8) (size 9 to 14) (size 15 to 20)
#    0.000    1.667    3.333    5.000    0.000    0.667 
#    0.000    0.000    7.333    0.000    0.000    0.000 
#    0.000    0.000    0.000    0.000    0.000    0.000 
#
# Total GULP energy -297314.655879 kJ/mol
# GULP energy per Si atom -12388.110662 kJ/mol
# Density = 1.914539 g / cm^3
# Si number density = 19.189061 Si / 1000 Ang^3
#
#
#
# Elastic Constant Matrix: (Units=GPa)
#
#
# Indices 1 2 3 4 5 6 
#
# 1 90.9460 23.7060 16.3434 0.0000 18.2673 0.0000
# 2 23.7060 82.9082 4.5133 0.0000 1.5606 0.0000
# 3 16.3434 4.5133 59.4931 0.0000 17.3935 0.0000
# 4 0.0000 0.0000 0.0000 5.2239 0.0000 -0.4132
# 5 18.2673 1.5606 17.3935 0.0000 24.5336 0.0000
# 6 0.0000 0.0000 0.0000 -0.4132 0.0000 28.5613
#
#
#
# Elastic Compliance Matrix: (Units=1/GPa)
#
#
# Indices 1 2 3 4 5 6 
#
# 1 0.014069 -0.003800 -0.000738 0.000000 -0.009711 0.000000
# 2 -0.003800 0.013138 -0.000676 0.000000 0.002473 0.000000
# 3 -0.000738 -0.000676 0.021306 0.000000 -0.014513 0.000000
# 4 0.000000 0.000000 0.000000 0.191647 0.000000 0.002773
# 5 -0.009711 0.002473 -0.014513 0.000000 0.058123 0.000000
# 6 0.000000 0.000000 0.000000 0.002773 0.000000 0.035053
#
#
# Mechanical properties :
#
#
# Convention : Reuss Voigt Hill
#
# Bulk Modulus (GPa) = 26.25597 35.83029 31.04313
# Shear Modulus (GPa) = 14.02691 24.24938 19.13815
#
# Velocity S-wave (km/s) = 2.70661 3.55872 3.16151
# Velocity P-wave (km/s) = 4.84563 5.96647 5.43502
#
# Compressibility (1/GPa) = 0.03808658
#
# Stress axis : x y z
#
# Youngs Moduli (GPa) = 71.07786 76.11352 46.93622
#
# Poissons Ratio (x) = 0.28922 0.03462
# Poissons Ratio (y) = 0.27008 0.03172
# Poissons Ratio (z) = 0.05242 0.05143
#
# Static dielectric constant tensor:
#      x y z
#    x 3.755780 0.000000 0.242470 
#    y 0.000000 4.579140 0.000000 
#    z 0.242470 0.000000 3.010070 
# 
# 
# High freq. dielectric constant tensor:
#      x y z
#    x 1.767590 0.000000 0.017600 
#    y 0.000000 1.751420 0.000000 
#    z 0.017600 0.000000 1.678220 
# 
# From -- ./inp_files/189776.got.cif
#   From: 2010.06.25/outbox.cif.g09.slc.cpg/sg15_95_cif.got.tgz:189776.got - 2010.06.28 07:06:18.
