data_PCOD8130618
_publ_section_title
;
Structure prediction by ZEFSAII (Michael W. Deem and Ramdas Pophale) SiO2 
 PCOD8130618
Probable space group: C 2/C
;
_chemical_formula_sum "Si O2"
_cell_formula_units_Z 52
_cell_length_a 19.290316
_cell_length_b 17.201530
_cell_length_c 14.634268
_cell_angle_alpha 90.000000
_cell_angle_beta 34.056266
_cell_angle_gamma 90.000000
_cell_volume 2719.385023
_symmetry_space_group_name_H-M "C 2/C"
_symmetry_group_IT_number 15
_symmetry_cell_setting 'monoclinic'
loop_
_space_group_symop_operation_xyz
x,y,z
-x,y,1/2-z
-x,-y,-z
x,-y,1/2+z
1/2+x,1/2+y,z
1/2-x,1/2+y,1/2-z
1/2-x,1/2-y,-z
1/2+x,1/2-y,1/2+z
loop_
_atom_site_type_symbol
_atom_site_label
_atom_site_fract_x
_atom_site_fract_y
_atom_site_fract_z
Si Si1 0.126016 0.201202 0.657865
Si Si2 0.141860 0.026651 0.592602
Si Si3 0.056703 0.127719 0.918671
Si Si4 0.176185 0.981146 0.857649
Si Si5 0.000000 0.656665 0.750000
Si Si6 0.559488 0.304880 0.777016
Si Si7 0.773207 0.415011 0.582687
O O1 0.250000 0.250000 0.500000
O O2 0.150588 0.118625 0.586387
O O3 0.103346 0.188920 0.791362
O O4 0.000000 0.237894 0.750000
O O5 0.214264 0.003218 0.420664
O O6 0.000000 0.997507 0.750000
O O7 0.210468 0.988476 0.602779
O O8 0.162393 0.066039 0.828119
O O9 0.945689 0.073336 0.003843
O O10 0.024437 0.177356 0.043561
O O11 0.276226 0.934046 0.687800
O O12 0.067634 0.711635 0.751705
O O13 0.089381 0.598201 0.600397
O O14 0.500000 0.343758 0.750000
O O15 0.696487 0.336944 0.644574
#
# Coordination Sequence:
#
# PCOD8130618 Si02
#       7
#     8   8   8   8   4   8   8
#     4  11  23  41  59  91 126 159 199 247 301 360
#     4  11  19  37  63  86 111 150 204 247 282 343
#     4  10  17  35  60  91 112 145 201 249 289 337
#     4  10  18  31  63  89 107 144 204 254 278 327
#     4  10  24  38  50  86 130 148 178 232 306 362
#     4   9  20  35  58  84 115 149 190 241 290 342
#     4  11  20  37  59  83 117 152 191 238 290 348
#
# _framework density 19.121970999999998
#
# number of rings (size 3 to 8) (size 9 to 14) (size 15 to 20)
#    0.462    1.231    4.615    3.692    0.000    1.231 
#    1.385    0.769    0.000    0.000    0.000    0.000 
#    0.000    0.000    0.000    0.000    0.000    0.000 
#
# Total GULP energy -322182.482646 kJ/mol
# GULP energy per Si atom -12391.633948 kJ/mol
# Density = 1.907845 g / cm^3
# Si number density = 19.121971 Si / 1000 Ang^3
#
#
#
# Elastic Constant Matrix: (Units=GPa)
#
#
# Indices 1 2 3 4 5 6 
#
# 1 60.0900 11.0521 46.1332 0.0000 25.8999 0.0000
# 2 11.0521 51.3417 39.2607 0.0000 -1.8151 0.0000
# 3 46.1332 39.2607 147.5673 0.0000 20.4311 0.0000
# 4 0.0000 0.0000 0.0000 26.9102 0.0000 2.2267
# 5 25.8999 -1.8151 20.4311 0.0000 40.5574 0.0000
# 6 0.0000 0.0000 0.0000 2.2267 0.0000 16.7827
#
#
#
# Elastic Compliance Matrix: (Units=1/GPa)
#
#
# Indices 1 2 3 4 5 6 
#
# 1 0.028237 -0.001807 -0.006277 0.000000 -0.014951 0.000000
# 2 -0.001807 0.025430 -0.007007 0.000000 0.005822 0.000000
# 3 -0.006277 -0.007007 0.010848 0.000000 -0.001770 0.000000
# 4 0.000000 0.000000 0.000000 0.037573 0.000000 -0.004985
# 5 -0.014951 0.005822 -0.001770 0.000000 0.035356 0.000000
# 6 0.000000 0.000000 0.000000 -0.004985 0.000000 0.060247
#
#
# Mechanical properties :
#
#
# Convention : Reuss Voigt Hill
#
# Bulk Modulus (GPa) = 29.12581 50.21012 39.66797
# Shear Modulus (GPa) = 20.89267 27.68691 24.28979
#
# Velocity S-wave (km/s) = 3.30904 3.80927 3.56793
# Velocity P-wave (km/s) = 5.46482 6.75738 6.14518
#
# Compressibility (1/GPa) = 0.03433380
#
# Stress axis : x y z
#
# Youngs Moduli (GPa) = 35.41422 39.32316 92.18179
#
# Poissons Ratio (x) = 0.07107 0.57861
# Poissons Ratio (y) = 0.06400 0.64591
# Poissons Ratio (z) = 0.22229 0.27553
#
# Static dielectric constant tensor:
#      x y z
#    x 3.390800 0.000000 0.465500 
#    y 0.000000 3.280020 0.000000 
#    z 0.465500 0.000000 3.123580 
# 
# 
# High freq. dielectric constant tensor:
#      x y z
#    x 1.721790 0.000000 0.038400 
#    y 0.000000 1.730540 0.000000 
#    z 0.038400 0.000000 1.737390 
# 
# From -- ./inp_files/169410.got.cif
#   From: 2010.06.25/outbox.cif.g09.slc.cpg/sg15_85_cif.got.tgz:169410.got - 2010.06.28 07:06:18.
