data_PCOD8130596
_publ_section_title
;
Structure prediction by ZEFSAII (Michael W. Deem and Ramdas Pophale) SiO2 
 PCOD8130596
Probable space group: C 2/C
;
_chemical_formula_sum "Si O2"
_cell_formula_units_Z 40
_cell_length_a 13.654192
_cell_length_b 14.403465
_cell_length_c 16.546739
_cell_angle_alpha 90.000000
_cell_angle_beta 34.927468
_cell_angle_gamma 90.000000
_cell_volume 1863.161384
_symmetry_space_group_name_H-M "C 2/C"
_symmetry_group_IT_number 15
_symmetry_cell_setting 'monoclinic'
loop_
_space_group_symop_operation_xyz
x,y,z
-x,y,1/2-z
-x,-y,-z
x,-y,1/2+z
1/2+x,1/2+y,z
1/2-x,1/2+y,1/2-z
1/2-x,1/2-y,-z
1/2+x,1/2-y,1/2+z
loop_
_atom_site_type_symbol
_atom_site_label
_atom_site_fract_x
_atom_site_fract_y
_atom_site_fract_z
Si Si1 0.000000 0.238090 0.750000
Si Si2 0.954804 0.695454 0.646124
Si Si3 0.500000 0.653777 0.250000
Si Si4 0.894373 0.834710 0.066542
Si Si5 0.185247 0.134499 0.480663
Si Si6 0.773815 0.564045 0.970615
O O1 0.058029 0.178097 0.633594
O O2 0.167829 0.299671 0.655170
O O3 0.755462 0.673011 0.764509
O O4 0.957769 0.783336 0.702704
O O5 0.047556 0.730469 0.501473
O O6 0.041159 0.606546 0.632108
O O7 0.341226 0.586235 0.373796
O O8 0.810391 0.889111 0.049810
O O9 0.057164 0.889361 0.993103
O O10 0.283840 0.045769 0.450046
#
# Coordination Sequence:
#
# PCOD8130596 Si02
#       6
#     4   8   4   8   8   8
#     4  10  25  47  64  74 118 170 210 249 317 362
#     4  11  19  36  61  93 130 161 191 247 322 370
#     4  10  17  35  56  88 128 170 184 237 315 378
#     4  11  21  36  62  94 124 154 201 256 306 361
#     4  11  24  43  64  87 115 166 215 254 299 369
#     4  11  21  35  62  92 129 158 203 248 306 371
#
# _framework density 21.468888
#
# number of rings (size 3 to 8) (size 9 to 14) (size 15 to 20)
#    0.000    1.200    4.000    3.600    2.800    0.000 
#    0.000    0.000    0.000    4.800    0.000    0.000 
#    0.000    0.000    0.000    0.000    0.000    0.000 
#
# Total GULP energy -247830.201095 kJ/mol
# GULP energy per Si atom -12391.510055 kJ/mol
# Density = 2.142002 g / cm^3
# Si number density = 21.468888 Si / 1000 Ang^3
#
#
#
# Elastic Constant Matrix: (Units=GPa)
#
#
# Indices 1 2 3 4 5 6 
#
# 1 66.0724 24.6507 36.0447 -0.0001 -25.6123 0.0002
# 2 24.6507 112.6572 39.8405 -0.0001 -7.8926 -0.0001
# 3 36.0447 39.8405 138.3533 -0.0001 -15.6740 -0.0003
# 4 -0.0001 -0.0001 -0.0001 23.7808 0.0000 -5.3245
# 5 -25.6123 -7.8926 -15.6740 0.0000 23.7112 0.0003
# 6 0.0002 -0.0001 -0.0003 -5.3245 0.0003 16.9141
#
#
#
# Elastic Compliance Matrix: (Units=1/GPa)
#
#
# Indices 1 2 3 4 5 6 
#
# 1 0.029104 -0.003167 -0.003489 0.000000 0.028076 -0.000001
# 2 -0.003167 0.010279 -0.002308 0.000000 -0.001525 0.000000
# 3 -0.003489 -0.002308 0.008958 0.000000 0.001384 0.000000
# 4 0.000000 0.000000 0.000000 0.045239 0.000000 0.014241
# 5 0.028076 -0.001525 0.001384 0.000000 0.072909 -0.000002
# 6 -0.000001 0.000000 0.000000 0.014241 -0.000002 0.063605
#
#
# Mechanical properties :
#
#
# Convention : Reuss Voigt Hill
#
# Bulk Modulus (GPa) = 32.88159 57.57274 45.22716
# Shear Modulus (GPa) = 19.36788 27.31771 23.34279
#
# Velocity S-wave (km/s) = 3.00682 3.57099 3.30098
# Velocity P-wave (km/s) = 5.23486 6.62402 5.96998
#
# Compressibility (1/GPa) = 0.03041216
#
# Stress axis : x y z
#
# Youngs Moduli (GPa) = 34.36003 97.28858 111.62840
#
# Poissons Ratio (x) = 0.30813 0.38953
# Poissons Ratio (y) = 0.10883 0.25758
# Poissons Ratio (z) = 0.11990 0.22449
#
# Static dielectric constant tensor:
#      x y z
#    x 3.627480 0.000000 -0.034480 
#    y 0.000000 3.798150 0.000000 
#    z -0.034480 0.000000 4.600930 
# 
# 
# High freq. dielectric constant tensor:
#      x y z
#    x 1.819880 0.000000 -0.011340 
#    y 0.000000 1.817900 0.000000 
#    z -0.011340 0.000000 1.868910 
# 
# From -- ./inp_files/38098.got.cif
#   From: 2010.06.25/outbox.cif.g09.slc.cpg/sg15_20_cif.got.tgz:38098.got - 2010.06.28 07:06:18.
