data_PCOD8130427
_publ_section_title
;
Structure prediction by ZEFSAII (Michael W. Deem and Ramdas Pophale) SiO2 
 PCOD8130427
Probable space group: C 2/C
;
_chemical_formula_sum "Si O2"
_cell_formula_units_Z 48
_cell_length_a 22.019316
_cell_length_b 14.023340
_cell_length_c 25.949990
_cell_angle_alpha 90.000000
_cell_angle_beta 158.524235
_cell_angle_gamma 90.000000
_cell_volume 2933.602594
_symmetry_space_group_name_H-M "C 2/C"
_symmetry_group_IT_number 15
_symmetry_cell_setting 'monoclinic'
loop_
_space_group_symop_operation_xyz
x,y,z
-x,y,1/2-z
-x,-y,-z
x,-y,1/2+z
1/2+x,1/2+y,z
1/2-x,1/2+y,1/2-z
1/2-x,1/2-y,-z
1/2+x,1/2-y,1/2+z
loop_
_atom_site_type_symbol
_atom_site_label
_atom_site_fract_x
_atom_site_fract_y
_atom_site_fract_z
Si Si1 0.093437 0.536739 0.522999
Si Si2 0.914208 0.603639 0.818895
Si Si3 0.057226 0.737325 0.850852
Si Si4 0.001874 0.299485 0.010551
Si Si5 0.043100 0.907942 0.002037
Si Si6 0.651204 0.611411 0.254994
O O1 0.088415 0.651396 0.527958
O O2 0.276524 0.488655 0.665007
O O3 0.000000 0.500000 0.500000
O O4 0.987210 0.501953 0.389616
O O5 0.904955 0.665920 0.863964
O O6 0.740265 0.596123 0.652879
O O7 0.036713 0.654607 0.876404
O O8 0.000000 0.702167 0.750000
O O9 0.957331 0.833172 0.788175
O O10 0.250000 0.750000 0.000000
O O11 0.025322 0.186385 0.023151
O O12 0.805387 0.322434 0.859401
O O13 0.966438 0.915389 0.885126
O O14 0.000000 0.000000 0.000000
#
# Coordination Sequence:
#
# PCOD8130427 Si02
#       6
#     8   8   8   8   8   8
#     4   8  17  31  48  61  87 133 164 175 230 297
#     4  10  19  32  44  65  97 126 154 199 228 279
#     4  12  21  31  48  68  96 134 164 196 246 285
#     4  10  17  33  47  64  95 133 155 182 237 295
#     4  12  19  27  47  73  98 124 153 194 245 286
#     4  10  19  32  44  65  97 126 157 199 228 281
#
# _framework density 16.362134000000001
#
# number of rings (size 3 to 8) (size 9 to 14) (size 15 to 20)
#    0.000    2.000    3.333    6.000    0.000    0.000 
#    0.000    0.000    0.000    0.000    0.000    0.000 
#    0.000   26.667    0.000    0.000    0.000    0.000 
#
# Total GULP energy -297391.021326 kJ/mol
# GULP energy per Si atom -12391.292555 kJ/mol
# Density = 1.632489 g / cm^3
# Si number density = 16.362134 Si / 1000 Ang^3
#
#
#
# Elastic Constant Matrix: (Units=GPa)
#
#
# Indices 1 2 3 4 5 6 
#
# 1 50.2857 27.8815 12.0561 -0.0009 -0.2878 -0.0029
# 2 27.8815 100.7714 16.9805 0.0051 5.5560 0.0001
# 3 12.0561 16.9805 99.9610 -0.0023 -5.4921 -0.0023
# 4 -0.0009 0.0051 -0.0023 16.2366 0.0016 -1.0568
# 5 -0.2878 5.5560 -5.4921 0.0016 31.4713 0.0006
# 6 -0.0029 0.0001 -0.0023 -1.0568 0.0006 26.3913
#
#
#
# Elastic Compliance Matrix: (Units=1/GPa)
#
#
# Indices 1 2 3 4 5 6 
#
# 1 0.023835 -0.006359 -0.001737 0.000003 0.001037 0.000003
# 2 -0.006359 0.012055 -0.001415 -0.000004 -0.002433 -0.000001
# 3 -0.001737 -0.001415 0.010568 0.000002 0.002078 0.000001
# 4 0.000003 -0.000004 0.000002 0.061750 -0.000002 0.002473
# 5 0.001037 -0.002433 0.002078 -0.000002 0.032577 -0.000001
# 6 0.000003 -0.000001 0.000001 0.002473 -0.000001 0.037990
#
#
# Mechanical properties :
#
#
# Convention : Reuss Voigt Hill
#
# Bulk Modulus (GPa) = 36.44863 40.53935 38.49399
# Shear Modulus (GPa) = 24.16129 27.75985 25.96057
#
# Velocity S-wave (km/s) = 3.84690 4.12344 3.98757
# Velocity P-wave (km/s) = 6.48507 6.89206 6.69166
#
# Compressibility (1/GPa) = 0.02743587
#
# Stress axis : x y z
#
# Youngs Moduli (GPa) = 41.95563 82.95034 94.62592
#
# Poissons Ratio (x) = 0.52748 0.16441
# Poissons Ratio (y) = 0.26680 0.13386
# Poissons Ratio (z) = 0.07290 0.11734
#
# Static dielectric constant tensor:
#      x y z
#    x 3.009320 0.000010 -0.130980 
#    y 0.000010 3.714320 -0.000030 
#    z -0.130980 -0.000030 3.207720 
# 
# 
# High freq. dielectric constant tensor:
#      x y z
#    x 1.588720 0.000000 -0.024160 
#    y 0.000000 1.617340 0.000000 
#    z -0.024160 0.000000 1.647320 
# 
# From -- ./inp_files/283591.got.cif
#   From: 2010.06.25/outbox.cif.g09.slc.cpg/sg15_142_cif.got.tgz:283591.got - 2010.06.28 07:06:18.
