data_PCOD8130428
_publ_section_title
;
Structure prediction by ZEFSAII (Michael W. Deem and Ramdas Pophale) SiO2 
 PCOD8130428
Probable space group: C 2/C
;
_chemical_formula_sum "Si O2"
_cell_formula_units_Z 48
_cell_length_a 26.036181
_cell_length_b 15.000883
_cell_length_c 8.918902
_cell_angle_alpha 90.000000
_cell_angle_beta 58.414464
_cell_angle_gamma 90.000000
_cell_volume 2967.380975
_symmetry_space_group_name_H-M "C 2/C"
_symmetry_group_IT_number 15
_symmetry_cell_setting 'monoclinic'
loop_
_space_group_symop_operation_xyz
x,y,z
-x,y,1/2-z
-x,-y,-z
x,-y,1/2+z
1/2+x,1/2+y,z
1/2-x,1/2+y,1/2-z
1/2-x,1/2-y,-z
1/2+x,1/2-y,1/2+z
loop_
_atom_site_type_symbol
_atom_site_label
_atom_site_fract_x
_atom_site_fract_y
_atom_site_fract_z
Si Si1 0.194423 0.938421 0.534168
Si Si2 0.738967 0.815468 0.880057
Si Si3 0.416102 0.420868 0.581669
Si Si4 0.325777 0.638457 0.994782
Si Si5 0.966542 0.889910 0.951969
Si Si6 0.347352 0.302490 0.135793
O O1 0.251317 0.911927 0.555735
O O2 0.132683 0.909182 0.712174
O O3 0.190062 0.883392 0.385273
O O4 0.204385 0.041953 0.486897
O O5 0.786623 0.803974 0.671340
O O6 0.673813 0.791891 0.906282
O O7 0.750000 0.750000 0.000000
O O8 0.392042 0.380656 0.462418
O O9 0.479601 0.370357 0.512997
O O10 0.425470 0.526890 0.561499
O O11 0.331543 0.695607 0.835668
O O12 0.000000 0.915814 0.750000
O O13 0.920101 0.807761 0.006279
#
# Coordination Sequence:
#
# PCOD8130428 Si02
#       6
#     8   8   8   8   8   8
#     4  10  17  33  47  67  92 130 168 201 233 280
#     4   9  21  33  47  64  95 129 157 202 249 285
#     4  10  19  28  42  69  97 133 170 198 216 269
#     4  11  18  31  49  68  92 127 168 200 237 284
#     4  11  19  27  44  65 101 136 169 191 226 275
#     4  11  19  30  43  66  96 133 162 200 241 274
#
# _framework density 16.175881
#
# number of rings (size 3 to 8) (size 9 to 14) (size 15 to 20)
#    0.000    1.667    5.000    1.500    2.333    0.000 
#    0.000    0.000    0.000    0.000    0.000    0.000 
#    0.000    1.333    0.667    0.167    0.000    0.000 
#
# Total GULP energy -297342.583427 kJ/mol
# GULP energy per Si atom -12389.274309 kJ/mol
# Density = 1.613906 g / cm^3
# Si number density = 16.175881 Si / 1000 Ang^3
#
#
#
# Elastic Constant Matrix: (Units=GPa)
#
#
# Indices 1 2 3 4 5 6 
#
# 1 134.2661 45.6064 34.2801 0.0000 0.7741 0.0000
# 2 45.6064 38.2584 24.0027 0.0000 -6.5838 0.0000
# 3 34.2801 24.0027 69.9561 0.0000 14.0771 0.0000
# 4 0.0000 0.0000 0.0000 20.5871 0.0000 0.6969
# 5 0.7741 -6.5838 14.0771 0.0000 27.9213 0.0000
# 6 0.0000 0.0000 0.0000 0.6969 0.0000 30.9368
#
#
#
# Elastic Compliance Matrix: (Units=1/GPa)
#
#
# Indices 1 2 3 4 5 6 
#
# 1 0.012966 -0.016218 0.000059 0.000000 -0.004213 0.000000
# 2 -0.016218 0.060560 -0.017579 0.000000 0.023592 0.000000
# 3 0.000059 -0.017579 0.023518 0.000000 -0.016004 0.000000
# 4 0.000000 0.000000 0.000000 0.048611 0.000000 -0.001095
# 5 -0.004213 0.023592 -0.016004 0.000000 0.049563 0.000000
# 6 0.000000 0.000000 0.000000 -0.001095 0.000000 0.032349
#
#
# Mechanical properties :
#
#
# Convention : Reuss Voigt Hill
#
# Bulk Modulus (GPa) = 33.82140 50.02880 41.92510
# Shear Modulus (GPa) = 16.39884 25.12847 20.76366
#
# Velocity S-wave (km/s) = 3.18745 3.94566 3.58665
# Velocity P-wave (km/s) = 5.87370 7.19394 6.56709
#
# Compressibility (1/GPa) = 0.02956708
#
# Stress axis : x y z
#
# Youngs Moduli (GPa) = 77.12411 16.51251 42.52119
#
# Poissons Ratio (x) = 0.26781 -0.00250
# Poissons Ratio (y) = 1.25084 0.74747
# Poissons Ratio (z) = -0.00454 0.29027
#
# Static dielectric constant tensor:
#      x y z
#    x 3.609430 0.000000 0.171960 
#    y 0.000000 2.872980 0.000000 
#    z 0.171960 0.000000 3.079300 
# 
# 
# High freq. dielectric constant tensor:
#      x y z
#    x 1.634040 0.000000 0.026820 
#    y 0.000000 1.563630 0.000000 
#    z 0.026820 0.000000 1.626010 
# 
# From -- ./inp_files/47972.got.cif
#   From: 2010.06.25/outbox.cif.g09.slc.cpg/sg15_24_cif.got.tgz:47972.got - 2010.06.28 07:06:18.
