data_PCOD8130532
_publ_section_title
;
Structure prediction by ZEFSAII (Michael W. Deem and Ramdas Pophale) SiO2 
 PCOD8130532
Probable space group: C 2/C
;
_chemical_formula_sum "Si O2"
_cell_formula_units_Z 52
_cell_length_a 15.094762
_cell_length_b 8.650416
_cell_length_c 30.739255
_cell_angle_alpha 90.000000
_cell_angle_beta 138.481931
_cell_angle_gamma 90.000000
_cell_volume 2660.577593
_symmetry_space_group_name_H-M "C 2/C"
_symmetry_group_IT_number 15
_symmetry_cell_setting 'monoclinic'
loop_
_space_group_symop_operation_xyz
x,y,z
-x,y,1/2-z
-x,-y,-z
x,-y,1/2+z
1/2+x,1/2+y,z
1/2-x,1/2+y,1/2-z
1/2-x,1/2-y,-z
1/2+x,1/2-y,1/2+z
loop_
_atom_site_type_symbol
_atom_site_label
_atom_site_fract_x
_atom_site_fract_y
_atom_site_fract_z
Si Si1 0.914862 0.091394 0.138690
Si Si2 0.780315 0.510908 0.143288
Si Si3 0.643112 0.748433 0.895103
Si Si4 0.500000 0.786894 0.250000
Si Si5 0.430430 0.257865 0.038381
Si Si6 0.639690 0.244256 0.046943
Si Si7 0.014219 0.895093 0.582418
O O1 0.756547 0.123877 0.080488
O O2 0.993839 0.176737 0.206011
O O3 0.981507 0.155494 0.119289
O O4 0.930550 0.906941 0.148282
O O5 0.872195 0.629843 0.149773
O O6 0.699423 0.413439 0.077944
O O7 0.674927 0.597445 0.135786
O O8 0.870423 0.396828 0.205576
O O9 0.571966 0.810227 0.913327
O O10 0.797251 0.714428 0.963165
O O11 0.554817 0.185405 0.057616
O O12 0.443461 0.442931 0.045427
O O13 0.543437 0.261229 0.969987
#
# Coordination Sequence:
#
# PCOD8130532 Si02
#       7
#     8   8   8   4   8   8   8
#     4  10  23  35  55  81 121 142 178 236 286 318
#     4  10  19  37  61  77 107 151 196 220 265 337
#     4  10  18  33  54  87 110 145 176 233 274 328
#     4  10  24  44  52  72 104 158 198 232 266 326
#     4   9  17  30  55  85 122 137 175 216 285 341
#     4  10  17  34  56  87 120 146 171 223 282 350
#     4  10  17  35  59  87 109 149 181 227 278 339
#
# _framework density 19.544627999999999
#
# number of rings (size 3 to 8) (size 9 to 14) (size 15 to 20)
#    0.000    2.154    3.077    1.385    0.000    1.231 
#    0.000    7.692    0.000    0.000    0.000    0.000 
#    0.000    0.000    0.000    0.000    0.000    0.000 
#
# Total GULP energy -322371.406365 kJ/mol
# GULP energy per Si atom -12398.900245 kJ/mol
# Density = 1.950014 g / cm^3
# Si number density = 19.544628 Si / 1000 Ang^3
#
#
#
# Elastic Constant Matrix: (Units=GPa)
#
#
# Indices 1 2 3 4 5 6 
#
# 1 151.9813 41.6811 47.7748 0.0000 -16.5745 0.0000
# 2 41.6811 53.6366 36.1324 0.0000 -12.0984 0.0000
# 3 47.7748 36.1324 100.5893 0.0000 -12.3073 0.0000
# 4 0.0000 0.0000 0.0000 28.0670 0.0000 0.4691
# 5 -16.5745 -12.0984 -12.3073 0.0000 17.8713 0.0000
# 6 0.0000 0.0000 0.0000 0.4691 0.0000 23.1978
#
#
#
# Elastic Compliance Matrix: (Units=1/GPa)
#
#
# Indices 1 2 3 4 5 6 
#
# 1 0.008928 -0.004695 -0.002107 0.000000 0.003651 0.000000
# 2 -0.004695 0.029455 -0.007037 0.000000 0.010740 0.000000
# 3 -0.002107 -0.007037 0.013812 0.000000 0.002794 0.000000
# 4 0.000000 0.000000 0.000000 0.035641 0.000000 -0.000721
# 5 0.003651 0.010740 0.002794 0.000000 0.068536 0.000000
# 6 0.000000 0.000000 0.000000 -0.000721 0.000000 0.043122
#
#
# Mechanical properties :
#
#
# Convention : Reuss Voigt Hill
#
# Bulk Modulus (GPa) = 40.78739 61.93155 51.35947
# Shear Modulus (GPa) = 21.24548 25.86847 23.55698
#
# Velocity S-wave (km/s) = 3.30058 3.64202 3.47550
# Velocity P-wave (km/s) = 5.95309 7.03149 6.51464
#
# Compressibility (1/GPa) = 0.02451738
#
# Stress axis : x y z
#
# Youngs Moduli (GPa) = 112.00922 33.94973 72.40278
#
# Poissons Ratio (x) = 0.15939 0.15256
# Poissons Ratio (y) = 0.52588 0.50947
# Poissons Ratio (z) = 0.23602 0.23889
#
# Static dielectric constant tensor:
#      x y z
#    x 3.839760 0.000000 -0.016150 
#    y 0.000000 3.302580 0.000000 
#    z -0.016150 0.000000 3.290040 
# 
# 
# High freq. dielectric constant tensor:
#      x y z
#    x 1.773430 0.000000 -0.003360 
#    y 0.000000 1.741420 0.000000 
#    z -0.003360 0.000000 1.732450 
# 
# From -- ./inp_files/295024.got.cif
#   From: 2010.06.25/outbox.cif.g09.slc.cpg/sg15_148_cif.got.tgz:295024.got - 2010.06.28 07:06:18.
