data_PCOD8130048
_publ_section_title
;
Structure prediction by ZEFSAII (Michael W. Deem and Ramdas Pophale) SiO2 
 PCOD8130048
Probable space group: C 2/C
;
_chemical_formula_sum "Si O2"
_cell_formula_units_Z 64
_cell_length_a 5.159869
_cell_length_b 32.972659
_cell_length_c 24.241695
_cell_angle_alpha 90.000000
_cell_angle_beta 76.520340
_cell_angle_gamma 90.000000
_cell_volume 4010.736503
_symmetry_space_group_name_H-M "C 2/C"
_symmetry_group_IT_number 15
_symmetry_cell_setting 'monoclinic'
loop_
_space_group_symop_operation_xyz
x,y,z
-x,y,1/2-z
-x,-y,-z
x,-y,1/2+z
1/2+x,1/2+y,z
1/2-x,1/2+y,1/2-z
1/2-x,1/2-y,-z
1/2+x,1/2-y,1/2+z
loop_
_atom_site_type_symbol
_atom_site_label
_atom_site_fract_x
_atom_site_fract_y
_atom_site_fract_z
Si Si1 0.234471 0.553588 0.006819
Si Si2 0.899138 0.053890 0.313376
Si Si3 0.329748 0.723308 0.416395
Si Si4 0.648429 0.821025 0.604133
Si Si5 0.284483 0.354581 0.477958
Si Si6 0.167171 0.975937 0.567491
Si Si7 0.400823 0.105784 0.312571
Si Si8 0.307247 0.809956 0.456587
O O1 0.282806 0.596961 0.977124
O O2 0.423398 0.547103 0.050160
O O3 0.930877 0.550163 0.041923
O O4 0.302202 0.521471 0.955677
O O5 0.890146 0.021520 0.363933
O O6 0.599439 0.069918 0.320892
O O7 0.000000 0.034380 0.250000
O O8 0.099012 0.089837 0.321484
O O9 0.609017 0.704647 0.382764
O O10 0.348445 0.772036 0.413616
O O11 0.262839 0.707580 0.480368
O O12 0.103875 0.708823 0.385296
O O13 0.715888 0.838319 0.541320
O O14 0.581742 0.859045 0.644477
O O15 0.573060 0.338538 0.445292
O O16 0.072468 0.337152 0.444871
O O17 0.500000 0.124234 0.250000
#
# Coordination Sequence:
#
# PCOD8130048 Si02
#       8
#     8   8   8   8   8   8   8   8
#     4  10  20  30  45  65  89 121 147 180 222 266
#     4  10  19  31  47  64  87 118 149 183 219 256
#     4   9  17  27  39  58  80 110 139 165 204 240
#     4  10  17  26  42  58  81 112 141 170 204 252
#     4  10  17  26  41  60  81 111 144 170 206 250
#     4  10  19  32  45  63  91 117 149 183 218 268
#     4  10  20  31  44  65  89 114 147 184 214 246
#     4   9  17  27  39  57  84 107 135 173 199 240
#
# _framework density 15.957169
#
# number of rings (size 3 to 8) (size 9 to 14) (size 15 to 20)
#    0.000    2.250    0.000    4.500    0.000    5.000 
#    0.000    0.000    0.000    0.000    0.000    0.000 
#    0.000    6.000    0.000    0.000    0.000    0.000 
#
# Total GULP energy -396783.913184 kJ/mol
# GULP energy per Si atom -12399.497287 kJ/mol
# Density = 1.592085 g / cm^3
# Si number density = 15.957169 Si / 1000 Ang^3
#
#
#
# Elastic Constant Matrix: (Units=GPa)
#
#
# Indices 1 2 3 4 5 6 
#
# 1 112.4845 29.0797 15.0109 0.0000 -0.0760 0.0000
# 2 29.0797 77.6441 15.7794 0.0000 0.2568 0.0000
# 3 15.0109 15.7794 60.7170 0.0000 6.1174 0.0000
# 4 0.0000 0.0000 0.0000 11.8381 0.0000 1.8884
# 5 -0.0760 0.2568 6.1174 0.0000 13.7667 0.0000
# 6 0.0000 0.0000 0.0000 1.8884 0.0000 19.9420
#
#
#
# Elastic Compliance Matrix: (Units=1/GPa)
#
#
# Indices 1 2 3 4 5 6 
#
# 1 0.009994 -0.003406 -0.001673 0.000000 0.000862 0.000000
# 2 -0.003406 0.014783 -0.003109 0.000000 0.001087 0.000000
# 3 -0.001673 -0.003109 0.018515 0.000000 -0.008179 0.000000
# 4 0.000000 0.000000 0.000000 0.085769 0.000000 -0.008122
# 5 0.000862 0.001087 -0.008179 0.000000 0.076258 0.000000
# 6 0.000000 0.000000 0.000000 -0.008122 0.000000 0.050914
#
#
# Mechanical properties :
#
#
# Convention : Reuss Voigt Hill
#
# Bulk Modulus (GPa) = 37.15116 41.17620 39.16368
# Shear Modulus (GPa) = 17.75679 21.84108 19.79893
#
# Velocity S-wave (km/s) = 3.33945 3.70365 3.52626
# Velocity P-wave (km/s) = 6.18074 6.64452 6.41682
#
# Compressibility (1/GPa) = 0.02691706
#
# Stress axis : x y z
#
# Youngs Moduli (GPa) = 100.05557 67.64404 54.00893
#
# Poissons Ratio (x) = 0.23040 0.09033
# Poissons Ratio (y) = 0.34080 0.16793
# Poissons Ratio (z) = 0.16735 0.21033
#
# Static dielectric constant tensor:
#      x y z
#    x 3.389360 0.000000 0.025190 
#    y 0.000000 2.916750 0.000000 
#    z 0.025190 0.000000 2.826110 
# 
# 
# High freq. dielectric constant tensor:
#      x y z
#    x 1.641820 0.000000 -0.000320 
#    y 0.000000 1.597270 0.000000 
#    z -0.000320 0.000000 1.567130 
# 
# From -- ./inp_files/262061.got.cif
#   From: 2010.06.25/outbox.cif.g09.slc.cpg/sg15_132_cif.got.tgz:262061.got - 2010.06.28 07:06:18.
