data_PCOD8130277
_publ_section_title
;
Structure prediction by ZEFSAII (Michael W. Deem and Ramdas Pophale) SiO2 
 PCOD8130277
Probable space group: C 2/C
;
_chemical_formula_sum "Si O2"
_cell_formula_units_Z 64
_cell_length_a 11.213880
_cell_length_b 19.237684
_cell_length_c 26.959160
_cell_angle_alpha 90.000000
_cell_angle_beta 141.002670
_cell_angle_gamma 90.000000
_cell_volume 3659.837964
_symmetry_space_group_name_H-M "C 2/C"
_symmetry_group_IT_number 15
_symmetry_cell_setting 'monoclinic'
loop_
_space_group_symop_operation_xyz
x,y,z
-x,y,1/2-z
-x,-y,-z
x,-y,1/2+z
1/2+x,1/2+y,z
1/2-x,1/2+y,1/2-z
1/2-x,1/2-y,-z
1/2+x,1/2-y,1/2+z
loop_
_atom_site_type_symbol
_atom_site_label
_atom_site_fract_x
_atom_site_fract_y
_atom_site_fract_z
Si Si1 0.180691 0.853041 0.009150
Si Si2 0.101001 0.803769 0.329532
Si Si3 0.493741 0.809585 0.922657
Si Si4 0.577540 0.338991 0.429394
Si Si5 0.042735 0.699431 0.979251
Si Si6 0.720459 0.412149 0.645762
Si Si7 0.463111 0.152926 0.308770
Si Si8 0.126299 0.951594 0.075124
O O1 0.351708 0.852037 0.024757
O O2 0.245296 0.898980 0.077975
O O3 0.138501 0.774758 0.012181
O O4 0.996847 0.888012 0.925029
O O5 0.074914 0.851593 0.369349
O O6 0.324541 0.791510 0.392557
O O7 0.984537 0.732655 0.299429
O O8 0.000000 0.841250 0.250000
O O9 0.449359 0.727351 0.903184
O O10 0.396734 0.851199 0.845251
O O11 0.714148 0.822571 0.983683
O O12 0.433309 0.834688 0.957960
O O13 0.505441 0.408325 0.431016
O O14 0.830836 0.380770 0.634110
O O15 0.747162 0.496043 0.648897
O O16 0.807390 0.386655 0.725737
O O17 0.000000 0.000000 0.000000
#
# Coordination Sequence:
#
# PCOD8130277 Si02
#       8
#     8   8   8   8   8   8   8   8
#     4  10  18  31  48  77 108 134 165 202 267 310
#     4  10  17  31  54  76 103 130 167 226 259 301
#     4   9  16  28  51  78 104 124 168 227 250 295
#     4   9  17  28  50  79 101 127 173 214 259 293
#     4  10  18  29  52  78 108 130 160 219 262 315
#     4  10  19  32  52  73 102 138 179 207 247 309
#     4  10  17  31  53  76  97 128 185 216 251 292
#     4  10  19  31  51  72 105 138 170 210 246 303
#
# _framework density 17.487112
#
# number of rings (size 3 to 8) (size 9 to 14) (size 15 to 20)
#    0.000    2.250    3.750    2.250    0.000    0.000 
#    0.000    3.125    0.000   21.750    0.000    0.000 
#    0.000    0.000    0.000    0.000    0.000    0.000 
#
# Total GULP energy -396480.826455 kJ/mol
# GULP energy per Si atom -12390.025827 kJ/mol
# Density = 1.744731 g / cm^3
# Si number density = 17.487112 Si / 1000 Ang^3
#
#
#
# Elastic Constant Matrix: (Units=GPa)
#
#
# Indices 1 2 3 4 5 6 
#
# 1 108.3455 42.8456 44.4625 0.0000 -19.6596 0.0000
# 2 42.8456 85.2162 31.6320 0.0000 -13.4875 0.0000
# 3 44.4625 31.6320 90.8363 0.0000 -20.6703 0.0000
# 4 0.0000 0.0000 0.0000 26.6183 0.0000 -7.3049
# 5 -19.6596 -13.4875 -20.6703 0.0000 23.5541 0.0000
# 6 0.0000 0.0000 0.0000 -7.3049 0.0000 28.6093
#
#
#
# Elastic Compliance Matrix: (Units=1/GPa)
#
#
# Indices 1 2 3 4 5 6 
#
# 1 0.013579 -0.004554 -0.003843 0.000000 0.005354 0.000000
# 2 -0.004554 0.015396 -0.002488 0.000000 0.002832 0.000000
# 3 -0.003843 -0.002488 0.015872 0.000000 0.009296 0.000000
# 4 0.000000 0.000000 0.000000 0.040399 0.000000 0.010315
# 5 0.005354 0.002832 0.009296 0.000000 0.056704 0.000000
# 6 0.000000 0.000000 0.000000 0.010315 0.000000 0.037587
#
#
# Mechanical properties :
#
#
# Convention : Reuss Voigt Hill
#
# Bulk Modulus (GPa) = 43.33093 58.03090 50.68092
# Shear Modulus (GPa) = 23.92366 26.78687 25.35527
#
# Velocity S-wave (km/s) = 3.70276 3.91808 3.81194
# Velocity P-wave (km/s) = 6.56606 7.32976 6.95840
#
# Compressibility (1/GPa) = 0.02307820
#
# Stress axis : x y z
#
# Youngs Moduli (GPa) = 73.64392 64.95144 63.00599
#
# Poissons Ratio (x) = 0.29576 0.24210
# Poissons Ratio (y) = 0.33534 0.15677
# Poissons Ratio (z) = 0.28298 0.16161
#
# Static dielectric constant tensor:
#      x y z
#    x 3.344300 0.000000 -0.293740 
#    y 0.000000 3.363950 0.000000 
#    z -0.293740 0.000000 3.289800 
# 
# 
# High freq. dielectric constant tensor:
#      x y z
#    x 1.666690 0.000000 -0.024880 
#    y 0.000000 1.652390 0.000000 
#    z -0.024880 0.000000 1.663620 
# 
# From -- ./inp_files/293634.got.cif
#   From: 2010.06.25/outbox.cif.g09.slc.cpg/sg15_147_cif.got.tgz:293634.got - 2010.06.28 07:06:18.
