data_PCOD8130981
_publ_section_title
;
Structure prediction by ZEFSAII (Michael W. Deem and Ramdas Pophale) SiO2 
 PCOD8130981
Probable space group: C 2/C
;
_chemical_formula_sum "Si O2"
_cell_formula_units_Z 60
_cell_length_a 7.728015
_cell_length_b 18.042421
_cell_length_c 26.888002
_cell_angle_alpha 90.000000
_cell_angle_beta 109.100129
_cell_angle_gamma 90.000000
_cell_volume 3542.658512
_symmetry_space_group_name_H-M "C 2/C"
_symmetry_group_IT_number 15
_symmetry_cell_setting 'monoclinic'
loop_
_space_group_symop_operation_xyz
x,y,z
-x,y,1/2-z
-x,-y,-z
x,-y,1/2+z
1/2+x,1/2+y,z
1/2-x,1/2+y,1/2-z
1/2-x,1/2-y,-z
1/2+x,1/2-y,1/2+z
loop_
_atom_site_type_symbol
_atom_site_label
_atom_site_fract_x
_atom_site_fract_y
_atom_site_fract_z
Si Si1 0.000000 0.685221 0.750000
Si Si2 0.320851 0.591540 0.205308
Si Si3 0.702287 0.206183 0.264967
Si Si4 0.494544 0.314832 0.636243
Si Si5 0.157157 0.518692 0.615840
Si Si6 0.238779 0.533891 0.940919
Si Si7 0.411486 0.552146 0.060124
Si Si8 0.048599 0.353862 0.363092
O O1 0.827108 0.735095 0.748006
O O2 0.951067 0.636210 0.696893
O O3 0.500000 0.559149 0.250000
O O4 0.187634 0.630137 0.232519
O O5 0.379107 0.654869 0.171789
O O6 0.209024 0.525387 0.170356
O O7 0.500000 0.240231 0.250000
O O8 0.791008 0.187892 0.327433
O O9 0.452455 0.366521 0.585463
O O10 0.435911 0.231026 0.618171
O O11 0.312642 0.504184 0.589200
O O12 0.957986 0.491130 0.576739
O O13 0.133087 0.605477 0.629947
O O14 0.392393 0.479411 0.935588
O O15 0.226372 0.604279 0.902319
O O16 0.283732 0.562487 0.000346
#
# Coordination Sequence:
#
# PCOD8130981 Si02
#       8
#     4   8   8   8   8   8   8   8
#     4  10  18  42  46  76 120 142 166 228 264 324
#     4   9  16  34  52  76 110 138 179 221 257 319
#     4  10  18  30  56  76 103 145 180 211 265 319
#     4   9  18  35  56  76 107 141 176 223 262 321
#     4   9  20  35  54  80 107 142 177 224 272 320
#     4   9  21  36  58  81 106 143 179 225 280 316
#     4  10  19  38  60  77 108 141 185 226 269 321
#     4   9  19  37  54  77 113 141 174 220 273 313
#
# _framework density 16.936433999999998
#
# number of rings (size 3 to 8) (size 9 to 14) (size 15 to 20)
#    0.800    1.867    3.333    0.400    1.867    0.533 
#   13.200    0.667    0.000    1.600    0.000    0.000 
#    0.000    0.000    0.000    0.000    0.000    0.000 
#
# Total GULP energy -371672.406987 kJ/mol
# GULP energy per Si atom -12389.080233 kJ/mol
# Density = 1.689789 g / cm^3
# Si number density = 16.936434 Si / 1000 Ang^3
#
#
#
# Elastic Constant Matrix: (Units=GPa)
#
#
# Indices 1 2 3 4 5 6 
#
# 1 75.5293 14.4455 21.2644 0.0000 8.0213 0.0000
# 2 14.4455 88.3382 44.7224 0.0000 6.6050 0.0000
# 3 21.2644 44.7224 117.1310 0.0000 8.2716 0.0000
# 4 0.0000 0.0000 0.0000 28.9001 0.0000 1.8973
# 5 8.0213 6.6050 8.2716 0.0000 24.2689 0.0000
# 6 0.0000 0.0000 0.0000 1.8973 0.0000 10.7284
#
#
#
# Elastic Compliance Matrix: (Units=1/GPa)
#
#
# Indices 1 2 3 4 5 6 
#
# 1 0.014396 -0.001094 -0.001927 0.000000 -0.003803 0.000000
# 2 -0.001094 0.014215 -0.005104 0.000000 -0.001768 0.000000
# 3 -0.001927 -0.005104 0.010957 0.000000 -0.001708 0.000000
# 4 0.000000 0.000000 0.000000 0.035008 0.000000 -0.006191
# 5 -0.003803 -0.001768 -0.001708 0.000000 0.043525 0.000000
# 6 0.000000 0.000000 0.000000 -0.006191 0.000000 0.094305
#
#
# Mechanical properties :
#
#
# Convention : Reuss Voigt Hill
#
# Bulk Modulus (GPa) = 42.88711 49.09589 45.99150
# Shear Modulus (GPa) = 21.14791 26.15056 23.64924
#
# Velocity S-wave (km/s) = 3.53748 3.93369 3.74083
# Velocity P-wave (km/s) = 6.48555 7.04863 6.77294
#
# Compressibility (1/GPa) = 0.02331703
#
# Stress axis : x y z
#
# Youngs Moduli (GPa) = 69.46557 70.34702 91.26760
#
# Poissons Ratio (x) = 0.07696 0.17588
# Poissons Ratio (y) = 0.07600 0.46584
# Poissons Ratio (z) = 0.13387 0.35906
#
# Static dielectric constant tensor:
#      x y z
#    x 3.035110 0.000000 0.079170 
#    y 0.000000 2.998730 0.000000 
#    z 0.079170 0.000000 3.379700 
# 
# 
# High freq. dielectric constant tensor:
#      x y z
#    x 1.640300 0.000000 0.007670 
#    y 0.000000 1.636200 0.000000 
#    z 0.007670 0.000000 1.660560 
# 
# From -- ./inp_files/289281.got.cif
#   From: 2010.06.25/outbox.cif.g09.slc.cpg/sg15_145_cif.got.tgz:289281.got - 2010.06.28 07:06:18.
