data_PCOD8130390
_publ_section_title
;
Structure prediction by ZEFSAII (Michael W. Deem and Ramdas Pophale) SiO2 
 PCOD8130390
Probable space group: C 2/C
;
_chemical_formula_sum "Si O2"
_cell_formula_units_Z 64
_cell_length_a 12.202668
_cell_length_b 12.720318
_cell_length_c 23.785700
_cell_angle_alpha 90.000000
_cell_angle_beta 112.492229
_cell_angle_gamma 90.000000
_cell_volume 3411.209879
_symmetry_space_group_name_H-M "C 2/C"
_symmetry_group_IT_number 15
_symmetry_cell_setting 'monoclinic'
loop_
_space_group_symop_operation_xyz
x,y,z
-x,y,1/2-z
-x,-y,-z
x,-y,1/2+z
1/2+x,1/2+y,z
1/2-x,1/2+y,1/2-z
1/2-x,1/2-y,-z
1/2+x,1/2-y,1/2+z
loop_
_atom_site_type_symbol
_atom_site_label
_atom_site_fract_x
_atom_site_fract_y
_atom_site_fract_z
Si Si1 0.481442 0.238431 0.055632
Si Si2 0.606421 0.894635 0.731600
Si Si3 0.249532 0.967155 0.156663
Si Si4 0.563850 0.031064 0.392129
Si Si5 0.513708 0.470680 0.437528
Si Si6 0.174178 0.147508 0.419424
Si Si7 0.724793 0.763628 0.663262
Si Si8 0.916693 0.339576 0.031025
O O1 0.417051 0.148774 0.079659
O O2 0.425744 0.354277 0.053600
O O3 0.617540 0.252419 0.099260
O O4 0.481589 0.206171 0.990088
O O5 0.500000 0.847899 0.750000
O O6 0.543992 0.970059 0.673633
O O7 0.679959 0.803499 0.714878
O O8 0.704704 0.956202 0.785853
O O9 0.285396 0.849749 0.183451
O O10 0.312589 0.995382 0.110491
O O11 0.110228 0.978490 0.119687
O O12 0.529452 0.946780 0.432758
O O13 0.500000 0.500000 0.500000
O O14 0.598316 0.546450 0.419646
O O15 0.188350 0.156595 0.353958
O O16 0.109724 0.254171 0.426329
O O17 0.298456 0.130799 0.474554
#
# Coordination Sequence:
#
# PCOD8130390 Si02
#       8
#     8   8   8   8   8   8   8   8
#     4   9  19  32  55  79 113 147 177 220 275 330
#     4   9  20  38  57  79 103 139 185 233 274 322
#     4  10  20  37  56  77 106 146 183 227 275 325
#     4  10  18  34  58  79 106 143 191 227 269 318
#     4  11  20  35  54  80 113 149 181 216 273 335
#     4  10  19  32  56  82 112 146 180 218 271 331
#     4   9  18  37  57  76 106 147 182 215 280 336
#     4  10  17  32  55  84 108 145 182 221 267 326
#
# _framework density 18.761671
#
# number of rings (size 3 to 8) (size 9 to 14) (size 15 to 20)
#    0.000    2.250    2.500    1.125    0.000    0.000 
#    2.250    8.125    2.750    0.000    0.000    0.000 
#    0.000    0.000    0.000    0.000    0.000    0.000 
#
# Total GULP energy -396653.370503 kJ/mol
# GULP energy per Si atom -12395.417828 kJ/mol
# Density = 1.871897 g / cm^3
# Si number density = 18.761671 Si / 1000 Ang^3
#
#
#
# Elastic Constant Matrix: (Units=GPa)
#
#
# Indices 1 2 3 4 5 6 
#
# 1 87.0560 63.6516 36.2401 0.0000 -23.2348 0.0000
# 2 63.6516 147.9872 48.6810 0.0000 -15.1821 0.0000
# 3 36.2401 48.6810 81.1482 0.0000 -20.4090 0.0000
# 4 0.0000 0.0000 0.0000 18.1344 0.0000 -5.6994
# 5 -23.2348 -15.1821 -20.4090 0.0000 26.2596 0.0000
# 6 0.0000 0.0000 0.0000 -5.6994 0.0000 34.9205
#
#
#
# Elastic Compliance Matrix: (Units=1/GPa)
#
#
# Indices 1 2 3 4 5 6 
#
# 1 0.020854 -0.007037 -0.001832 0.000000 0.012959 0.000000
# 2 -0.007037 0.010823 -0.004154 0.000000 -0.003198 0.000000
# 3 -0.001832 -0.004154 0.018174 0.000000 0.010102 0.000000
# 4 0.000000 0.000000 0.000000 0.058125 0.000000 0.009487
# 5 0.012959 -0.003198 0.010102 0.000000 0.055550 0.000000
# 6 0.000000 0.000000 0.000000 0.009487 0.000000 0.030185
#
#
# Mechanical properties :
#
#
# Convention : Reuss Voigt Hill
#
# Bulk Modulus (GPa) = 42.01093 68.14853 55.07973
# Shear Modulus (GPa) = 21.95950 27.03747 24.49848
#
# Velocity S-wave (km/s) = 3.42489 3.80030 3.61747
# Velocity P-wave (km/s) = 6.17092 7.46046 6.84612
#
# Compressibility (1/GPa) = 0.02380333
#
# Stress axis : x y z
#
# Youngs Moduli (GPa) = 47.95343 92.39946 55.02343
#
# Poissons Ratio (x) = 0.65024 0.10081
# Poissons Ratio (y) = 0.33746 0.22857
# Poissons Ratio (z) = 0.08786 0.38383
#
# Static dielectric constant tensor:
#      x y z
#    x 3.324190 0.000000 -0.211860 
#    y 0.000000 3.564630 0.000000 
#    z -0.211860 0.000000 3.363650 
# 
# 
# High freq. dielectric constant tensor:
#      x y z
#    x 1.712930 0.000000 -0.018290 
#    y 0.000000 1.732580 0.000000 
#    z -0.018290 0.000000 1.716070 
# 
# From -- ./inp_files/268898.got.cif
#   From: 2010.06.25/outbox.cif.g09.slc.cpg/sg15_135_cif.got.tgz:268898.got - 2010.06.28 07:06:18.
