data_PCOD8130146
_publ_section_title
;
Structure prediction by ZEFSAII (Michael W. Deem and Ramdas Pophale) SiO2 
 PCOD8130146
Probable space group: C 2/C
;
_chemical_formula_sum "Si O2"
_cell_formula_units_Z 36
_cell_length_a 14.677620
_cell_length_b 17.570938
_cell_length_c 11.737793
_cell_angle_alpha 90.000000
_cell_angle_beta 138.295218
_cell_angle_gamma 90.000000
_cell_volume 2013.955033
_symmetry_space_group_name_H-M "C 2/C"
_symmetry_group_IT_number 15
_symmetry_cell_setting 'monoclinic'
loop_
_space_group_symop_operation_xyz
x,y,z
-x,y,1/2-z
-x,-y,-z
x,-y,1/2+z
1/2+x,1/2+y,z
1/2-x,1/2+y,1/2-z
1/2-x,1/2-y,-z
1/2+x,1/2-y,1/2+z
loop_
_atom_site_type_symbol
_atom_site_label
_atom_site_fract_x
_atom_site_fract_y
_atom_site_fract_z
Si Si1 0.798414 0.233067 0.864988
Si Si2 0.076324 0.834860 0.539955
Si Si3 0.000000 0.907439 0.250000
Si Si4 0.387083 0.446684 0.728702
Si Si5 0.348117 0.140764 0.593364
O O1 0.928053 0.203016 0.916814
O O2 0.697792 0.277493 0.685391
O O3 0.715113 0.163306 0.843272
O O4 0.854041 0.285746 0.018112
O O5 0.090268 0.856005 0.419486
O O6 0.089741 0.912884 0.624427
O O7 0.902833 0.961498 0.238707
O O8 0.500000 0.407613 0.750000
O O9 0.236964 0.426813 0.543269
O O10 0.500000 0.108244 0.750000
#
# Coordination Sequence:
#
# PCOD8130146 Si02
#       5
#     8   8   4   8   8
#     4  10  19  29  52  83 107 131 162 218 266 311
#     4  11  20  35  55  78 108 132 175 214 259 307
#     4  10  22  36  56  70 104 152 176 200 242 326
#     4   9  19  33  56  79  94 136 179 215 247 293
#     4  10  17  29  53  84 108 123 163 228 272 286
#
# _framework density 17.875274000000001
#
# number of rings (size 3 to 8) (size 9 to 14) (size 15 to 20)
#    0.667    1.333    4.444    0.667    0.000    0.889 
#    0.000    0.000    4.889    4.000    0.000    0.000 
#    0.000    0.000    0.000    0.000    0.000    0.000 
#
# Total GULP energy -223144.238576 kJ/mol
# GULP energy per Si atom -12396.902143 kJ/mol
# Density = 1.783459 g / cm^3
# Si number density = 17.875274 Si / 1000 Ang^3
#
#
#
# Elastic Constant Matrix: (Units=GPa)
#
#
# Indices 1 2 3 4 5 6 
#
# 1 50.9502 21.4438 50.6477 0.0000 8.6039 0.0000
# 2 21.4438 53.3260 41.6073 0.0000 -1.9676 0.0000
# 3 50.6477 41.6073 142.9982 0.0000 1.6770 0.0000
# 4 0.0000 0.0000 0.0000 16.9955 0.0000 -2.9921
# 5 8.6039 -1.9676 1.6770 0.0000 39.6942 0.0000
# 6 0.0000 0.0000 0.0000 -2.9921 0.0000 10.3766
#
#
#
# Elastic Compliance Matrix: (Units=1/GPa)
#
#
# Indices 1 2 3 4 5 6 
#
# 1 0.033188 -0.005821 -0.009978 0.000000 -0.007061 0.000000
# 2 -0.005821 0.025371 -0.005353 0.000000 0.002745 0.000000
# 3 -0.009978 -0.005353 0.012068 0.000000 0.001388 0.000000
# 4 0.000000 0.000000 0.000000 0.061986 0.000000 0.017874
# 5 -0.007061 0.002745 0.001388 0.000000 0.026800 0.000000
# 6 0.000000 0.000000 0.000000 0.017874 0.000000 0.101525
#
#
# Mechanical properties :
#
#
# Convention : Reuss Voigt Hill
#
# Bulk Modulus (GPa) = 35.30565 52.74132 44.02349
# Shear Modulus (GPa) = 15.99061 22.31830 19.15445
#
# Velocity S-wave (km/s) = 2.99417 3.53733 3.27702
# Velocity P-wave (km/s) = 5.63449 6.80094 6.24501
#
# Compressibility (1/GPa) = 0.02832408
#
# Stress axis : x y z
#
# Youngs Moduli (GPa) = 30.13114 39.41521 82.86136
#
# Poissons Ratio (x) = 0.22943 0.82681
# Poissons Ratio (y) = 0.17539 0.44352
# Poissons Ratio (z) = 0.30066 0.21097
#
# Static dielectric constant tensor:
#      x y z
#    x 3.029040 0.000000 0.041430 
#    y 0.000000 3.019990 0.000000 
#    z 0.041430 0.000000 3.244410 
# 
# 
# High freq. dielectric constant tensor:
#      x y z
#    x 1.664760 0.000000 0.002500 
#    y 0.000000 1.668070 0.000000 
#    z 0.002500 0.000000 1.700040 
# 
# From -- ./inp_files/29775.got.cif
#   From: 2010.06.25/outbox.cif.g09.slc.cpg/sg15_15_cif.got.tgz:29775.got - 2010.06.28 07:06:18.
