data_PCOD8130934
_publ_section_title
;
Structure prediction by ZEFSAII (Michael W. Deem and Ramdas Pophale) SiO2 
 PCOD8130934
Probable space group: C 2/C
;
_chemical_formula_sum "Si O2"
_cell_formula_units_Z 64
_cell_length_a 11.917332
_cell_length_b 21.822525
_cell_length_c 20.754687
_cell_angle_alpha 90.000000
_cell_angle_beta 142.524039
_cell_angle_gamma 90.000000
_cell_volume 3284.050199
_symmetry_space_group_name_H-M "C 2/C"
_symmetry_group_IT_number 15
_symmetry_cell_setting 'monoclinic'
loop_
_space_group_symop_operation_xyz
x,y,z
-x,y,1/2-z
-x,-y,-z
x,-y,1/2+z
1/2+x,1/2+y,z
1/2-x,1/2+y,1/2-z
1/2-x,1/2-y,-z
1/2+x,1/2-y,1/2+z
loop_
_atom_site_type_symbol
_atom_site_label
_atom_site_fract_x
_atom_site_fract_y
_atom_site_fract_z
Si Si1 0.464380 0.285718 0.410991
Si Si2 0.936062 0.263066 0.412840
Si Si3 0.782261 0.446405 0.263523
Si Si4 0.880278 0.911057 0.048768
Si Si5 0.704485 0.625686 0.852449
Si Si6 0.083346 0.304307 0.719201
Si Si7 0.064444 0.671660 0.709068
Si Si8 0.489102 0.056112 0.172439
O O1 0.433760 0.265582 0.471946
O O2 0.609078 0.341826 0.475263
O O3 0.520765 0.231793 0.386669
O O4 0.276508 0.310743 0.295053
O O5 0.835619 0.316426 0.406615
O O6 0.800682 0.211118 0.322755
O O7 0.042725 0.293211 0.398925
O O8 0.579560 0.444879 0.137045
O O9 0.755132 0.426437 0.324452
O O10 0.933784 0.401813 0.297927
O O11 0.874535 0.513113 0.306696
O O12 0.785457 0.907748 0.075117
O O13 0.729542 0.950234 0.941383
O O14 0.500000 0.652479 0.750000
O O15 0.062074 0.375580 0.694102
O O16 0.000000 0.285937 0.750000
O O17 0.000000 0.692898 0.750000
O O18 0.500000 0.033775 0.250000
#
# Coordination Sequence:
#
# PCOD8130934 Si02
#       8
#     8   8   8   8   8   8   8   8
#     4  10  19  32  53  79 106 132 164 208 260 318
#     4  10  18  30  51  79 106 130 163 211 262 311
#     4   9  20  37  53  73 101 133 177 218 248 299
#     4  10  20  34  55  79 103 136 170 208 261 310
#     4   9  17  32  55  79 102 132 169 210 258 311
#     4  10  19  30  48  78 110 132 159 205 263 315
#     4   9  19  35  53  70  95 136 178 213 248 294
#     4  11  22  33  50  75 105 139 173 213 257 301
#
# _framework density 19.488132
#
# number of rings (size 3 to 8) (size 9 to 14) (size 15 to 20)
#    0.000    2.250    0.000    6.000    0.000    3.000 
#    0.000    1.250    0.000   10.500    0.000    0.000 
#    0.000    0.000    0.000    0.000    0.000    0.000 
#
# Total GULP energy -396547.688365 kJ/mol
# GULP energy per Si atom -12392.115261 kJ/mol
# Density = 1.944378 g / cm^3
# Si number density = 19.488132 Si / 1000 Ang^3
#
#
#
# Elastic Constant Matrix: (Units=GPa)
#
#
# Indices 1 2 3 4 5 6 
#
# 1 82.6799 31.7700 12.2157 -0.0003 -23.4332 -0.0002
# 2 31.7700 92.9992 29.4292 -0.0007 1.5873 0.0000
# 3 12.2157 29.4292 78.1529 -0.0062 -17.9786 -0.0010
# 4 -0.0003 -0.0007 -0.0062 14.7531 -0.0016 3.2877
# 5 -23.4332 1.5873 -17.9786 -0.0016 28.7801 -0.0002
# 6 -0.0002 0.0000 -0.0010 3.2877 -0.0002 19.0075
#
#
#
# Elastic Compliance Matrix: (Units=1/GPa)
#
#
# Indices 1 2 3 4 5 6 
#
# 1 0.020511 -0.008861 0.004770 0.000004 0.020169 0.000000
# 2 -0.008861 0.016473 -0.007809 -0.000004 -0.013001 0.000000
# 3 0.004770 -0.007809 0.018665 0.000009 0.015975 0.000000
# 4 0.000004 -0.000004 0.000009 0.070500 0.000013 -0.012194
# 5 0.020169 -0.013001 0.015975 0.000013 0.061865 0.000000
# 6 0.000000 0.000000 0.000000 -0.012194 0.000000 0.054720
#
#
# Mechanical properties :
#
#
# Convention : Reuss Voigt Hill
#
# Bulk Modulus (GPa) = 31.39644 44.51797 37.95721
# Shear Modulus (GPa) = 18.04085 24.53594 21.28840
#
# Velocity S-wave (km/s) = 3.04589 3.55212 3.30870
# Velocity P-wave (km/s) = 5.33999 6.30211 5.84089
#
# Compressibility (1/GPa) = 0.03185074
#
# Stress axis : x y z
#
# Youngs Moduli (GPa) = 48.75398 60.70658 53.57579
#
# Poissons Ratio (x) = 0.53790 -0.25558
# Poissons Ratio (y) = 0.43200 0.41836
# Poissons Ratio (z) = -0.23258 0.47404
#
# Static dielectric constant tensor:
#      x y z
#    x 3.459260 0.000000 -0.267110 
#    y 0.000000 3.380170 0.000000 
#    z -0.267110 0.000000 3.579470 
# 
# 
# High freq. dielectric constant tensor:
#      x y z
#    x 1.746610 0.000000 -0.021760 
#    y 0.000000 1.744720 0.000000 
#    z -0.021760 0.000000 1.753780 
# 
# From -- ./inp_files/240440.got.cif
#   From: 2010.06.25/outbox.cif.g09.slc.cpg/sg15_121_cif.got.tgz:240440.got - 2010.06.28 07:06:18.
