data_PCOD8130189
_publ_section_title
;
Structure prediction by ZEFSAII (Michael W. Deem and Ramdas Pophale) SiO2 
 PCOD8130189
Probable space group: C 2/C
;
_chemical_formula_sum "Si O2"
_cell_formula_units_Z 60
_cell_length_a 6.281093
_cell_length_b 29.987280
_cell_length_c 22.706987
_cell_angle_alpha 90.000000
_cell_angle_beta 126.575007
_cell_angle_gamma 90.000000
_cell_volume 3434.703530
_symmetry_space_group_name_H-M "C 2/C"
_symmetry_group_IT_number 15
_symmetry_cell_setting 'monoclinic'
loop_
_space_group_symop_operation_xyz
x,y,z
-x,y,1/2-z
-x,-y,-z
x,-y,1/2+z
1/2+x,1/2+y,z
1/2-x,1/2+y,1/2-z
1/2-x,1/2-y,-z
1/2+x,1/2-y,1/2+z
loop_
_atom_site_type_symbol
_atom_site_label
_atom_site_fract_x
_atom_site_fract_y
_atom_site_fract_z
Si Si1 0.503995 0.280995 0.972945
Si Si2 0.422910 0.975141 0.400577
Si Si3 0.648993 0.411787 0.060336
Si Si4 0.710551 0.363244 0.192086
Si Si5 0.000000 0.070280 0.750000
Si Si6 0.843142 0.202746 0.576141
Si Si7 0.436467 0.933950 0.530429
Si Si8 0.680374 0.855034 0.515857
O O1 0.232972 0.253345 0.915681
O O2 0.550287 0.324446 0.938008
O O3 0.750000 0.250000 0.000000
O O4 0.507796 0.296076 0.042223
O O5 0.705062 0.959547 0.420292
O O6 0.186145 0.961836 0.318517
O O7 0.367095 0.954201 0.455222
O O8 0.434411 0.028859 0.406409
O O9 0.667062 0.393146 0.128148
O O10 0.342881 0.416403 0.989380
O O11 0.817075 0.378754 0.046901
O O12 0.671926 0.396489 0.239449
O O13 0.513188 0.320795 0.155546
O O14 0.000000 0.342646 0.250000
O O15 0.576708 0.175494 0.521016
O O16 0.651693 0.893357 0.561176
#
# Coordination Sequence:
#
# PCOD8130189 Si02
#       8
#     8   8   8   8   4   8   8   8
#     4   9  18  30  53  74 103 132 163 228 269 314
#     4  10  21  32  48  73 102 147 180 225 274 313
#     4  11  18  33  49  72 104 140 183 219 270 326
#     4  12  22  31  50  73 109 153 176 208 270 350
#     4  12  22  36  50  72 114 150 178 220 274 346
#     4  10  19  33  47  76 110 131 174 215 268 327
#     4  10  19  32  50  72 106 136 185 234 266 318
#     4  10  17  30  52  73 103 132 172 226 279 312
#
# _framework density 17.468755999999999
#
# number of rings (size 3 to 8) (size 9 to 14) (size 15 to 20)
#    0.000    1.600    5.333    1.200    0.000    0.000 
#    0.000    0.000    0.000    0.000    0.000    0.000 
#   64.000    0.000    0.000    0.000    0.000    0.000 
#
# Total GULP energy -371709.736097 kJ/mol
# GULP energy per Si atom -12390.324537 kJ/mol
# Density = 1.742900 g / cm^3
# Si number density = 17.468756 Si / 1000 Ang^3
#
#
#
# Elastic Constant Matrix: (Units=GPa)
#
#
# Indices 1 2 3 4 5 6 
#
# 1 87.1724 43.4909 18.9689 0.0000 6.6937 0.0000
# 2 43.4909 120.6869 36.4699 0.0000 11.3172 0.0000
# 3 18.9689 36.4699 60.4052 0.0000 10.3804 0.0000
# 4 0.0000 0.0000 0.0000 17.7552 0.0000 3.2139
# 5 6.6937 11.3172 10.3804 0.0000 18.4115 0.0000
# 6 0.0000 0.0000 0.0000 3.2139 0.0000 39.7934
#
#
#
# Elastic Compliance Matrix: (Units=1/GPa)
#
#
# Indices 1 2 3 4 5 6 
#
# 1 0.014161 -0.004519 -0.001452 0.000000 -0.001552 0.000000
# 2 -0.004519 0.011737 -0.005215 0.000000 -0.002631 0.000000
# 3 -0.001452 -0.005215 0.021612 0.000000 -0.008451 0.000000
# 4 0.000000 0.000000 0.000000 0.057157 0.000000 -0.004616
# 5 -0.001552 -0.002631 -0.008451 0.000000 0.061260 0.000000
# 6 0.000000 0.000000 0.000000 -0.004616 0.000000 0.025503
#
#
# Mechanical properties :
#
#
# Convention : Reuss Voigt Hill
#
# Bulk Modulus (GPa) = 39.78012 51.79155 45.78583
# Shear Modulus (GPa) = 22.50416 26.48100 24.49258
#
# Velocity S-wave (km/s) = 3.59312 3.89769 3.74850
# Velocity P-wave (km/s) = 6.32737 7.06884 6.70835
#
# Compressibility (1/GPa) = 0.02513818
#
# Stress axis : x y z
#
# Youngs Moduli (GPa) = 70.61583 85.20087 46.27114
#
# Poissons Ratio (x) = 0.38501 0.06719
# Poissons Ratio (y) = 0.31910 0.24131
# Poissons Ratio (z) = 0.10253 0.44433
#
# Static dielectric constant tensor:
#      x y z
#    x 3.711540 0.000000 -0.004250 
#    y 0.000000 3.754040 0.000000 
#    z -0.004250 0.000000 2.824200 
# 
# 
# High freq. dielectric constant tensor:
#      x y z
#    x 1.701650 0.000000 -0.005700 
#    y 0.000000 1.685890 0.000000 
#    z -0.005700 0.000000 1.606390 
# 
# From -- ./inp_files/228825.got.cif
#   From: 2010.06.25/outbox.cif.g09.slc.cpg/sg15_115_cif.got.tgz:228825.got - 2010.06.28 07:06:18.
