data_PCOD8130714
_publ_section_title
;
Structure prediction by ZEFSAII (Michael W. Deem and Ramdas Pophale) SiO2 
 PCOD8130714
Probable space group: C 2/C
;
_chemical_formula_sum "Si O2"
_cell_formula_units_Z 52
_cell_length_a 15.635642
_cell_length_b 27.093963
_cell_length_c 10.080627
_cell_angle_alpha 90.000000
_cell_angle_beta 141.712364
_cell_angle_gamma 90.000000
_cell_volume 2646.025242
_symmetry_space_group_name_H-M "C 2/C"
_symmetry_group_IT_number 15
_symmetry_cell_setting 'monoclinic'
loop_
_space_group_symop_operation_xyz
x,y,z
-x,y,1/2-z
-x,-y,-z
x,-y,1/2+z
1/2+x,1/2+y,z
1/2-x,1/2+y,1/2-z
1/2-x,1/2-y,-z
1/2+x,1/2-y,1/2+z
loop_
_atom_site_type_symbol
_atom_site_label
_atom_site_fract_x
_atom_site_fract_y
_atom_site_fract_z
Si Si1 0.594905 0.494394 0.240370
Si Si2 0.001776 0.294169 0.525411
Si Si3 0.500000 0.660439 0.250000
Si Si4 0.500000 0.850759 0.250000
Si Si5 0.181057 0.795405 0.187792
Si Si6 0.729407 0.589841 0.487101
Si Si7 0.500000 0.866769 0.750000
Si Si8 0.235580 0.097945 0.809774
O O1 0.500000 0.499400 0.250000
O O2 0.711686 0.537018 0.393405
O O3 0.660080 0.440495 0.312226
O O4 0.500000 0.500000 0.000000
O O5 0.840194 0.280877 0.351856
O O6 0.021530 0.316180 0.403244
O O7 0.099785 0.246840 0.667803
O O8 0.058626 0.332299 0.703610
O O9 0.597937 0.696730 0.450862
O O10 0.600513 0.624637 0.286455
O O11 0.630331 0.886219 0.392053
O O12 0.175399 0.847035 0.261120
O O13 0.729680 0.584026 0.647315
O O14 0.390842 0.903139 0.550875
#
# Coordination Sequence:
#
# PCOD8130714 Si02
#       8
#     8   8   4   4   8   8   4   8
#     4  12  23  43  70  99 129 169 220 269 324 394
#     4  11  24  40  65  93 135 168 226 262 327 390
#     4  10  17  38  64  85 133 176 196 275 330 378
#     4  12  23  41  66 106 128 172 217 277 322 392
#     4  10  22  40  61  94 130 174 214 273 320 391
#     4  11  22  42  67  97 137 165 218 272 333 381
#     4  10  22  47  62  85 133 176 207 278 328 396
#     4  10  22  45  64  90 134 174 213 277 333 385
#
# _framework density 19.652118000000002
#
# number of rings (size 3 to 8) (size 9 to 14) (size 15 to 20)
#    0.000    1.231    6.923    1.385    2.154    5.538 
#    4.154    1.538    0.000    0.000    0.000    0.000 
#    0.000    0.000    0.000    0.000    0.000    0.000 
#
# Total GULP energy -322301.336597 kJ/mol
# GULP energy per Si atom -12396.205254 kJ/mol
# Density = 1.960739 g / cm^3
# Si number density = 19.652118 Si / 1000 Ang^3
#
#
#
# Elastic Constant Matrix: (Units=GPa)
#
#
# Indices 1 2 3 4 5 6 
#
# 1 74.2258 40.7315 23.8386 0.0000 12.7284 0.0000
# 2 40.7315 109.7829 31.3986 0.0000 13.2374 0.0000
# 3 23.8386 31.3986 96.4326 0.0000 1.2043 0.0000
# 4 0.0000 0.0000 0.0000 26.7521 0.0000 2.5234
# 5 12.7284 13.2374 1.2043 0.0000 40.6989 0.0000
# 6 0.0000 0.0000 0.0000 2.5234 0.0000 37.4293
#
#
#
# Elastic Compliance Matrix: (Units=1/GPa)
#
#
# Indices 1 2 3 4 5 6 
#
# 1 0.017953 -0.005460 -0.002613 0.000000 -0.003761 0.000000
# 2 -0.005460 0.012131 -0.002573 0.000000 -0.002162 0.000000
# 3 -0.002613 -0.002573 0.011838 0.000000 0.001304 0.000000
# 4 0.000000 0.000000 0.000000 0.037620 0.000000 -0.002536
# 5 -0.003761 -0.002162 0.001304 0.000000 0.026412 0.000000
# 6 0.000000 0.000000 0.000000 -0.002536 0.000000 0.026888
#
#
# Mechanical properties :
#
#
# Convention : Reuss Voigt Hill
#
# Bulk Modulus (GPa) = 48.47597 52.48652 50.48124
# Shear Modulus (GPa) = 31.05397 33.27423 32.16410
#
# Velocity S-wave (km/s) = 3.97947 4.11927 4.04997
# Velocity P-wave (km/s) = 6.77019 7.02782 6.90021
#
# Compressibility (1/GPa) = 0.02062878
#
# Stress axis : x y z
#
# Youngs Moduli (GPa) = 55.70145 82.43167 84.47705
#
# Poissons Ratio (x) = 0.45007 0.22077
# Poissons Ratio (y) = 0.30412 0.21738
# Poissons Ratio (z) = 0.14557 0.21212
#
# Static dielectric constant tensor:
#      x y z
#    x 3.940650 0.000000 0.203710 
#    y 0.000000 3.373890 0.000000 
#    z 0.203710 0.000000 3.880510 
# 
# 
# High freq. dielectric constant tensor:
#      x y z
#    x 1.745260 0.000000 0.007200 
#    y 0.000000 1.771100 0.000000 
#    z 0.007200 0.000000 1.783420 
# 
# From -- ./inp_files/44959.got.cif
#   From: 2010.06.25/outbox.cif.g09.slc.cpg/sg15_23_cif.got.tgz:44959.got - 2010.06.28 07:06:18.
