data_PCOD8130193
_publ_section_title
;
Structure prediction by ZEFSAII (Michael W. Deem and Ramdas Pophale) SiO2 
 PCOD8130193
Probable space group: C 2/C
;
_chemical_formula_sum "Si O2"
_cell_formula_units_Z 56
_cell_length_a 30.104871
_cell_length_b 8.975200
_cell_length_c 18.103208
_cell_angle_alpha 90.000000
_cell_angle_beta 142.086433
_cell_angle_gamma 90.000000
_cell_volume 3005.651099
_symmetry_space_group_name_H-M "C 2/C"
_symmetry_group_IT_number 15
_symmetry_cell_setting 'monoclinic'
loop_
_space_group_symop_operation_xyz
x,y,z
-x,y,1/2-z
-x,-y,-z
x,-y,1/2+z
1/2+x,1/2+y,z
1/2-x,1/2+y,1/2-z
1/2-x,1/2-y,-z
1/2+x,1/2-y,1/2+z
loop_
_atom_site_type_symbol
_atom_site_label
_atom_site_fract_x
_atom_site_fract_y
_atom_site_fract_z
Si Si1 0.110195 0.793150 0.732997
Si Si2 0.813320 0.229216 0.928591
Si Si3 0.425707 0.476189 0.939998
Si Si4 0.968875 0.113054 0.131664
Si Si5 0.795619 0.491021 0.147254
Si Si6 0.687531 0.723169 0.738926
Si Si7 0.241613 0.992246 0.919497
O O1 0.140916 0.628727 0.781362
O O2 0.032183 0.801622 0.669773
O O3 0.108992 0.828966 0.642234
O O4 0.163044 0.920548 0.835810
O O5 0.774958 0.077899 0.905913
O O6 0.784251 0.258626 0.806907
O O7 0.791579 0.362917 0.952896
O O8 0.900246 0.221756 0.051476
O O9 0.384153 0.627772 0.866037
O O10 0.500000 0.500000 0.000000
O O11 0.438670 0.469201 0.045652
O O12 0.000000 0.056038 0.250000
O O13 0.828072 0.622924 0.239458
O O14 0.774184 0.553699 0.038629
O O15 0.742218 0.626402 0.861030
#
# Coordination Sequence:
#
# PCOD8130193 Si02
#       7
#     8   8   8   8   8   8   8
#     4   9  18  33  52  73 102 136 169 203 249 309
#     4  10  20  34  52  76 104 137 171 207 256 309
#     4   8  17  33  50  70  99 132 164 202 250 304
#     4  10  17  30  52  77  98 128 171 214 251 299
#     4  11  20  33  53  79 103 134 173 215 254 298
#     4  10  20  33  53  78 104 133 170 215 257 298
#     4  10  19  34  53  77 105 136 171 210 253 305
#
# _framework density 18.63157
#
# number of rings (size 3 to 8) (size 9 to 14) (size 15 to 20)
#    0.000    2.286    0.000    4.714    0.000    1.143 
#    0.000    6.429    0.000    3.429    0.000   21.000 
#    0.000    0.000    0.000    0.000    0.000    0.000 
#
# Total GULP energy -346903.883132 kJ/mol
# GULP energy per Si atom -12389.424398 kJ/mol
# Density = 1.858916 g / cm^3
# Si number density = 18.631570 Si / 1000 Ang^3
#
#
#
# Elastic Constant Matrix: (Units=GPa)
#
#
# Indices 1 2 3 4 5 6 
#
# 1 91.9463 16.1231 48.4217 0.0000 -5.2779 0.0000
# 2 16.1231 48.6957 27.9377 0.0000 -11.6887 0.0000
# 3 48.4217 27.9377 121.3573 0.0000 -30.5644 0.0000
# 4 0.0000 0.0000 0.0000 18.8531 0.0000 -8.0884
# 5 -5.2779 -11.6887 -30.5644 0.0000 50.9854 0.0000
# 6 0.0000 0.0000 0.0000 -8.0884 0.0000 15.7574
#
#
#
# Elastic Compliance Matrix: (Units=1/GPa)
#
#
# Indices 1 2 3 4 5 6 
#
# 1 0.014137 -0.001936 -0.005816 0.000000 -0.002467 0.000000
# 2 -0.001936 0.024209 -0.004068 0.000000 0.002911 0.000000
# 3 -0.005816 -0.004068 0.013087 0.000000 0.006310 0.000000
# 4 0.000000 0.000000 0.000000 0.068021 0.000000 0.034916
# 5 -0.002467 0.002911 0.006310 0.000000 0.023808 0.000000
# 6 0.000000 0.000000 0.000000 0.034916 0.000000 0.081385
#
#
# Mechanical properties :
#
#
# Convention : Reuss Voigt Hill
#
# Bulk Modulus (GPa) = 35.98035 49.66270 42.82153
# Shear Modulus (GPa) = 19.41364 28.42032 23.91698
#
# Velocity S-wave (km/s) = 3.23147 3.90985 3.58674
# Velocity P-wave (km/s) = 5.76859 6.86262 6.33925
#
# Compressibility (1/GPa) = 0.02779295
#
# Stress axis : x y z
#
# Youngs Moduli (GPa) = 70.73738 41.30673 76.41447
#
# Poissons Ratio (x) = 0.07997 0.44445
# Poissons Ratio (y) = 0.13695 0.31082
# Poissons Ratio (z) = 0.41143 0.16802
#
# Static dielectric constant tensor:
#      x y z
#    x 3.724560 0.000000 -0.573220 
#    y 0.000000 3.971940 0.000000 
#    z -0.573220 0.000000 4.648570 
# 
# 
# High freq. dielectric constant tensor:
#      x y z
#    x 1.728850 0.000000 -0.012180 
#    y 0.000000 1.687740 0.000000 
#    z -0.012180 0.000000 1.739830 
# 
# From -- ./inp_files/218319.got.cif
#   From: 2010.06.25/outbox.cif.g09.slc.cpg/sg15_110_cif.got.tgz:218319.got - 2010.06.28 07:06:18.
