data_PCOD8130870
_publ_section_title
;
Structure prediction by ZEFSAII (Michael W. Deem and Ramdas Pophale) SiO2 
 PCOD8130870
Probable space group: C 2/C
;
_chemical_formula_sum "Si O2"
_cell_formula_units_Z 64
_cell_length_a 28.583731
_cell_length_b 24.225039
_cell_length_c 17.956403
_cell_angle_alpha 90.000000
_cell_angle_beta 18.622862
_cell_angle_gamma 90.000000
_cell_volume 3970.567753
_symmetry_space_group_name_H-M "C 2/C"
_symmetry_group_IT_number 15
_symmetry_cell_setting 'monoclinic'
loop_
_space_group_symop_operation_xyz
x,y,z
-x,y,1/2-z
-x,-y,-z
x,-y,1/2+z
1/2+x,1/2+y,z
1/2-x,1/2+y,1/2-z
1/2-x,1/2-y,-z
1/2+x,1/2-y,1/2+z
loop_
_atom_site_type_symbol
_atom_site_label
_atom_site_fract_x
_atom_site_fract_y
_atom_site_fract_z
Si Si1 0.708113 0.611910 0.176410
Si Si2 0.834328 0.811991 0.026752
Si Si3 0.577123 0.446700 0.413679
Si Si4 0.845037 0.495181 0.945647
Si Si5 0.615030 0.803869 0.009255
Si Si6 0.368458 0.848441 0.290606
Si Si7 0.874554 0.529603 0.733484
Si Si8 0.365633 0.569417 0.506242
O O1 0.530245 0.605177 0.442346
O O2 0.756726 0.650657 0.171978
O O3 0.787506 0.552921 0.065831
O O4 0.759256 0.641318 0.023924
O O5 0.799119 0.869152 0.123619
O O6 0.000000 0.810316 0.750000
O O7 0.810767 0.756647 0.111571
O O8 0.721617 0.808696 0.128083
O O9 0.500000 0.500000 0.500000
O O10 0.591906 0.456840 0.479644
O O11 0.736742 0.444633 0.133378
O O12 0.848547 0.497760 0.850622
O O13 0.000000 0.482194 0.750000
O O14 0.500000 0.807029 0.250000
O O15 0.521263 0.818065 0.077626
O O16 0.414516 0.906847 0.186353
O O17 0.000000 0.500000 0.500000
O O18 0.736384 0.527642 0.886146
O O19 0.500000 0.580839 0.250000
#
# Coordination Sequence:
#
# PCOD8130870 Si02
#       8
#     8   8   8   8   8   8   8   8
#     4   9  16  27  42  61  88 119 148 180 220 262
#     4   9  17  26  40  61  88 122 152 180 217 264
#     4  10  19  29  44  65  90 122 154 185 222 269
#     4  10  18  30  45  65  91 119 153 188 227 274
#     4   9  17  26  41  63  88 121 152 181 217 264
#     4   9  17  29  41  61  90 118 151 181 217 271
#     4  10  19  31  47  64  87 120 151 187 230 269
#     4  10  18  30  44  64  94 124 151 181 224 272
#
# _framework density 16.118601999999999
#
# number of rings (size 3 to 8) (size 9 to 14) (size 15 to 20)
#    0.000    2.500    0.000    6.375    0.000    6.500 
#    0.000    0.000    0.000    0.000    0.000    0.000 
#    0.000   20.000    0.000    0.000    0.000    0.000 
#
# Total GULP energy -396491.972133 kJ/mol
# GULP energy per Si atom -12390.374129 kJ/mol
# Density = 1.608192 g / cm^3
# Si number density = 16.118602 Si / 1000 Ang^3
#
#
#
# Elastic Constant Matrix: (Units=GPa)
#
#
# Indices 1 2 3 4 5 6 
#
# 1 118.5182 43.6155 48.2882 -0.0113 -25.8624 0.0010
# 2 43.6155 61.7540 42.0732 -0.0336 -7.4109 0.0089
# 3 48.2882 42.0732 89.5571 -0.0356 -18.4706 0.0114
# 4 -0.0113 -0.0336 -0.0356 7.6624 0.0242 -4.0526
# 5 -25.8624 -7.4109 -18.4706 0.0242 30.5142 -0.0040
# 6 0.0010 0.0089 0.0114 -4.0526 -0.0040 9.4287
#
#
#
# Elastic Compliance Matrix: (Units=1/GPa)
#
#
# Indices 1 2 3 4 5 6 
#
# 1 0.013928 -0.007203 -0.002345 -0.000056 0.008636 -0.000012
# 2 -0.007203 0.027576 -0.010225 0.000094 -0.005598 0.000025
# 3 -0.002345 -0.010225 0.018639 0.000015 0.006812 -0.000003
# 4 -0.000056 0.000094 0.000015 0.168905 -0.000140 0.072597
# 5 0.008636 -0.005598 0.006812 -0.000140 0.042855 -0.000046
# 6 -0.000012 0.000025 -0.000003 0.072597 -0.000046 0.137262
#
#
# Mechanical properties :
#
#
# Convention : Reuss Voigt Hill
#
# Bulk Modulus (GPa) = 48.55285 59.75369 54.15327
# Shear Modulus (GPa) = 10.97509 18.57789 14.77649
#
# Velocity S-wave (km/s) = 2.61223 3.39864 3.03105
# Velocity P-wave (km/s) = 6.26785 7.24933 6.77638
#
# Compressibility (1/GPa) = 0.02059611
#
# Stress axis : x y z
#
# Youngs Moduli (GPa) = 71.79622 36.26376 53.65109
#
# Poissons Ratio (x) = 0.26122 0.12580
# Poissons Ratio (y) = 0.51718 0.54860
# Poissons Ratio (z) = 0.16834 0.37081
#
# Static dielectric constant tensor:
#      x y z
#    x 3.131180 -0.000030 -0.243330 
#    y -0.000030 3.298850 0.000010 
#    z -0.243330 0.000010 3.583780 
# 
# 
# High freq. dielectric constant tensor:
#      x y z
#    x 1.618200 0.000000 -0.040790 
#    y 0.000000 1.604520 0.000000 
#    z -0.040790 0.000000 1.589760 
# 
# From -- ./inp_files/124463.got.cif
#   From: 2010.06.25/outbox.cif.g09.slc.cpg/sg15_63_cif.got.tgz:124463.got - 2010.06.28 07:06:18.
