data_PCOD8130285
_publ_section_title
;
Structure prediction by ZEFSAII (Michael W. Deem and Ramdas Pophale) SiO2 
 PCOD8130285
Probable space group: C 2/C
;
_chemical_formula_sum "Si O2"
_cell_formula_units_Z 64
_cell_length_a 12.087675
_cell_length_b 13.563580
_cell_length_c 22.958397
_cell_angle_alpha 90.000000
_cell_angle_beta 70.430091
_cell_angle_gamma 90.000000
_cell_volume 3546.640829
_symmetry_space_group_name_H-M "C 2/C"
_symmetry_group_IT_number 15
_symmetry_cell_setting 'monoclinic'
loop_
_space_group_symop_operation_xyz
x,y,z
-x,y,1/2-z
-x,-y,-z
x,-y,1/2+z
1/2+x,1/2+y,z
1/2-x,1/2+y,1/2-z
1/2-x,1/2-y,-z
1/2+x,1/2-y,1/2+z
loop_
_atom_site_type_symbol
_atom_site_label
_atom_site_fract_x
_atom_site_fract_y
_atom_site_fract_z
Si Si1 0.622823 0.844015 0.427570
Si Si2 0.725981 0.452683 0.944890
Si Si3 0.541135 0.158786 0.068109
Si Si4 0.789654 0.136937 0.488529
Si Si5 0.436678 0.473753 0.819838
Si Si6 0.812973 0.556644 0.112056
Si Si7 0.627340 0.637330 0.576820
Si Si8 0.543531 0.355530 0.897472
O O1 0.539403 0.856941 0.498644
O O2 0.750927 0.810254 0.426653
O O3 0.576175 0.760318 0.392022
O O4 0.633049 0.947191 0.392849
O O5 0.852574 0.400176 0.920423
O O6 0.651115 0.423135 0.901359
O O7 0.743025 0.572027 0.947925
O O8 0.647671 0.421951 0.014140
O O9 0.416499 0.125686 0.116898
O O10 0.538375 0.274355 0.081825
O O11 0.750000 0.250000 0.500000
O O12 0.724008 0.081805 0.447341
O O13 0.929260 0.130996 0.457395
O O14 0.500000 0.507752 0.750000
O O15 0.304957 0.434279 0.828111
O O16 0.425709 0.566981 0.864597
O O17 0.513819 0.388069 0.836717
#
# Coordination Sequence:
#
# PCOD8130285 Si02
#       8
#     8   8   8   8   8   8   8   8
#     4  10  17  31  54  85 117 150 171 207 282 337
#     4  11  19  33  52  89 121 144 166 227 276 334
#     4  11  18  30  57  87 119 140 175 219 273 340
#     4  11  22  30  46  82 123 151 175 207 266 338
#     4  10  23  42  57  73 105 147 192 236 271 319
#     4  10  21  35  52  80 114 153 182 214 269 335
#     4  10  18  35  56  84 111 143 186 218 270 330
#     4  11  20  33  57  80 111 144 184 225 273 325
#
# _framework density 18.045245000000001
#
# number of rings (size 3 to 8) (size 9 to 14) (size 15 to 20)
#    0.000    1.500    7.500    2.250    1.750    0.000 
#    0.000    2.500    0.000    0.000    0.000    0.000 
#    0.000    0.000    0.000    0.000    0.000    0.000 
#
# Total GULP energy -396653.194657 kJ/mol
# GULP energy per Si atom -12395.412333 kJ/mol
# Density = 1.800417 g / cm^3
# Si number density = 18.045245 Si / 1000 Ang^3
#
#
#
# Elastic Constant Matrix: (Units=GPa)
#
#
# Indices 1 2 3 4 5 6 
#
# 1 96.0845 43.5035 28.9217 0.0000 -12.9681 0.0000
# 2 43.5035 112.1339 14.9541 0.0000 -4.7071 0.0000
# 3 28.9217 14.9541 63.9441 0.0000 -12.9226 0.0000
# 4 0.0000 0.0000 0.0000 12.1202 0.0000 -0.4307
# 5 -12.9681 -4.7071 -12.9226 0.0000 14.8076 0.0000
# 6 0.0000 0.0000 0.0000 -0.4307 0.0000 34.8325
#
#
#
# Elastic Compliance Matrix: (Units=1/GPa)
#
#
# Indices 1 2 3 4 5 6 
#
# 1 0.014914 -0.004919 -0.003972 0.000000 0.008031 0.000000
# 2 -0.004919 0.010847 -0.000590 0.000000 -0.001375 0.000000
# 3 -0.003972 -0.000590 0.020437 0.000000 0.014169 0.000000
# 4 0.000000 0.000000 0.000000 0.082543 0.000000 0.001021
# 5 0.008031 -0.001375 0.014169 0.000000 0.086495 0.000000
# 6 0.000000 0.000000 0.000000 0.001021 0.000000 0.028721
#
#
# Mechanical properties :
#
#
# Convention : Reuss Voigt Hill
#
# Bulk Modulus (GPa) = 36.71603 49.65791 43.18697
# Shear Modulus (GPa) = 18.38244 24.67094 21.52669
#
# Velocity S-wave (km/s) = 3.19515 3.70154 3.45763
# Velocity P-wave (km/s) = 5.83119 6.77103 6.31861
#
# Compressibility (1/GPa) = 0.02723606
#
# Stress axis : x y z
#
# Youngs Moduli (GPa) = 67.04937 92.18846 48.93189
#
# Poissons Ratio (x) = 0.45351 0.19437
# Poissons Ratio (y) = 0.32984 0.02885
# Poissons Ratio (z) = 0.26633 0.05435
#
# Static dielectric constant tensor:
#      x y z
#    x 3.582650 0.000000 -0.100550 
#    y 0.000000 3.537710 0.000000 
#    z -0.100550 0.000000 2.754320 
# 
# 
# High freq. dielectric constant tensor:
#      x y z
#    x 1.713010 0.000000 -0.009960 
#    y 0.000000 1.714780 0.000000 
#    z -0.009960 0.000000 1.620000 
# 
# From -- ./inp_files/269745.got.cif
#   From: 2010.06.25/outbox.cif.g09.slc.cpg/sg15_135_cif.got.tgz:269745.got - 2010.06.28 07:06:18.
