data_PCOD8130930
_publ_section_title
;
Structure prediction by ZEFSAII (Michael W. Deem and Ramdas Pophale) SiO2 
 PCOD8130930
Probable space group: C 2/C
;
_chemical_formula_sum "Si O2"
_cell_formula_units_Z 56
_cell_length_a 12.229121
_cell_length_b 19.624531
_cell_length_c 23.108265
_cell_angle_alpha 90.000000
_cell_angle_beta 32.951460
_cell_angle_gamma 90.000000
_cell_volume 3016.501523
_symmetry_space_group_name_H-M "C 2/C"
_symmetry_group_IT_number 15
_symmetry_cell_setting 'monoclinic'
loop_
_space_group_symop_operation_xyz
x,y,z
-x,y,1/2-z
-x,-y,-z
x,-y,1/2+z
1/2+x,1/2+y,z
1/2-x,1/2+y,1/2-z
1/2-x,1/2-y,-z
1/2+x,1/2-y,1/2+z
loop_
_atom_site_type_symbol
_atom_site_label
_atom_site_fract_x
_atom_site_fract_y
_atom_site_fract_z
Si Si1 0.379995 0.234175 0.532317
Si Si2 0.184755 0.516341 0.997955
Si Si3 0.038723 0.219690 0.845167
Si Si4 0.432857 0.906837 0.059430
Si Si5 0.130046 0.931966 0.290413
Si Si6 0.582915 0.032027 0.276335
Si Si7 0.205299 0.672527 0.193078
O O1 0.521093 0.244746 0.415070
O O2 0.457022 0.174362 0.540753
O O3 0.374775 0.305039 0.571335
O O4 0.160491 0.214906 0.605408
O O5 0.121448 0.437632 0.012277
O O6 0.107449 0.540341 0.095540
O O7 0.064998 0.562934 0.005819
O O8 0.421701 0.526787 0.884867
O O9 0.112442 0.143676 0.823161
O O10 0.201610 0.265933 0.740512
O O11 0.222771 0.927129 0.184501
O O12 0.283682 0.968700 0.264556
O O13 0.500000 0.015945 0.250000
O O14 0.730858 0.098789 0.211773
O O15 0.000000 0.664188 0.250000
#
# Coordination Sequence:
#
# PCOD8130930 Si02
#       7
#     8   8   8   8   8   8   8
#     4  10  18  30  51  77 112 135 175 227 276 318
#     4  10  21  33  56  82 109 147 179 219 282 324
#     4  10  19  29  53  82 103 140 181 222 277 322
#     4  10  19  35  54  83 117 137 173 232 275 331
#     4  11  21  35  58  83 110 147 186 224 275 333
#     4  10  23  39  52  78 116 147 186 229 269 325
#     4   9  18  31  49  74 105 137 170 228 277 310
#
# _framework density 18.564553
#
# number of rings (size 3 to 8) (size 9 to 14) (size 15 to 20)
#    0.000    2.000    2.857    1.286    6.000    0.571 
#    0.000    0.000    0.000    2.571    0.000    0.000 
#    0.000    0.000    0.000    0.000    0.000    0.000 
#
# Total GULP energy -347019.042645 kJ/mol
# GULP energy per Si atom -12393.537237 kJ/mol
# Density = 1.852230 g / cm^3
# Si number density = 18.564553 Si / 1000 Ang^3
#
#
#
# Elastic Constant Matrix: (Units=GPa)
#
#
# Indices 1 2 3 4 5 6 
#
# 1 53.6414 35.9827 38.8288 -0.0086 14.0672 -0.0122
# 2 35.9827 113.7079 28.7749 -0.0169 6.0815 -0.0001
# 3 38.8288 28.7749 84.7500 -0.0059 18.1870 0.0106
# 4 -0.0086 -0.0169 -0.0059 24.8806 0.0126 6.2073
# 5 14.0672 6.0815 18.1870 0.0126 27.1615 -0.0043
# 6 -0.0122 -0.0001 0.0106 6.2073 -0.0043 27.7859
#
#
#
# Elastic Compliance Matrix: (Units=1/GPa)
#
#
# Indices 1 2 3 4 5 6 
#
# 1 0.033983 -0.007462 -0.011232 0.000004 -0.008409 0.000017
# 2 -0.007462 0.011260 -0.000809 0.000005 0.001885 -0.000004
# 3 -0.011232 -0.000809 0.018606 0.000007 -0.006460 -0.000015
# 4 0.000004 0.000005 0.000007 0.042564 -0.000029 -0.009509
# 5 -0.008409 0.001885 -0.006460 -0.000029 0.045076 0.000012
# 6 0.000017 -0.000004 -0.000015 -0.009509 0.000012 0.038114
#
#
# Mechanical properties :
#
#
# Convention : Reuss Voigt Hill
#
# Bulk Modulus (GPa) = 40.25036 51.03024 45.64030
# Shear Modulus (GPa) = 21.10699 25.86647 23.48673
#
# Velocity S-wave (km/s) = 3.37553 3.73678 3.56074
# Velocity P-wave (km/s) = 6.07623 6.79453 6.44540
#
# Compressibility (1/GPa) = 0.02484450
#
# Stress axis : x y z
#
# Youngs Moduli (GPa) = 29.42642 88.81303 53.74553
#
# Poissons Ratio (x) = 0.66271 0.60365
# Poissons Ratio (y) = 0.21958 0.04347
# Poissons Ratio (z) = 0.33050 0.07183
#
# Static dielectric constant tensor:
#      x y z
#    x 3.058030 -0.000020 0.274020 
#    y -0.000020 3.630550 0.000110 
#    z 0.274020 0.000110 3.576200 
# 
# 
# High freq. dielectric constant tensor:
#      x y z
#    x 1.673050 0.000000 0.035890 
#    y 0.000000 1.728430 0.000010 
#    z 0.035890 0.000010 1.724250 
# 
# From -- ./inp_files/145550.got.cif
#   From: 2010.06.25/outbox.cif.g09.slc.cpg/sg15_73_cif.got.tgz:145550.got - 2010.06.28 07:06:18.
