data_PCOD8130087
_publ_section_title
;
Structure prediction by ZEFSAII (Michael W. Deem and Ramdas Pophale) SiO2 
 PCOD8130087
Probable space group: C 2/C
;
_chemical_formula_sum "Si O2"
_cell_formula_units_Z 64
_cell_length_a 29.533019
_cell_length_b 19.191913
_cell_length_c 14.924094
_cell_angle_alpha 90.000000
_cell_angle_beta 155.277059
_cell_angle_gamma 90.000000
_cell_volume 3537.774139
_symmetry_space_group_name_H-M "C 2/C"
_symmetry_group_IT_number 15
_symmetry_cell_setting 'monoclinic'
loop_
_space_group_symop_operation_xyz
x,y,z
-x,y,1/2-z
-x,-y,-z
x,-y,1/2+z
1/2+x,1/2+y,z
1/2-x,1/2+y,1/2-z
1/2-x,1/2-y,-z
1/2+x,1/2-y,1/2+z
loop_
_atom_site_type_symbol
_atom_site_label
_atom_site_fract_x
_atom_site_fract_y
_atom_site_fract_z
Si Si1 0.260759 0.468883 0.732689
Si Si2 0.451038 0.178785 0.759198
Si Si3 0.924399 0.182788 0.294573
Si Si4 0.422703 0.413123 0.528670
Si Si5 0.209366 0.178148 0.273426
Si Si6 0.369166 0.959036 0.353069
Si Si7 0.416955 0.031146 0.739735
Si Si8 0.243579 0.172438 0.665280
O O1 0.301212 0.388636 0.811214
O O2 0.215928 0.490910 0.749107
O O3 0.166310 0.479230 0.490286
O O4 0.362216 0.517220 0.887030
O O5 0.500000 0.195931 0.750000
O O6 0.483395 0.242455 0.882803
O O7 0.321857 0.170962 0.527625
O O8 0.488468 0.103063 0.861646
O O9 0.888903 0.176946 0.333118
O O10 0.006915 0.119320 0.425175
O O11 0.820702 0.178488 0.043541
O O12 0.500000 0.432957 0.750000
O O13 0.335777 0.354553 0.400301
O O14 0.209596 0.251880 0.220984
O O15 0.352886 0.973024 0.218189
O O16 0.344149 0.879054 0.331815
O O17 0.493219 0.970808 0.605082
#
# Coordination Sequence:
#
# PCOD8130087 Si02
#       8
#     8   8   8   8   8   8   8   8
#     4  10  20  34  50  72 101 133 167 208 250 296
#     4  10  17  28  48  75 105 128 156 205 260 305
#     4  10  17  28  46  72 100 128 162 204 251 295
#     4   9  19  32  49  70  97 132 167 200 244 296
#     4  10  18  28  47  71  97 127 163 207 251 293
#     4  10  19  31  50  75 104 131 162 204 256 307
#     4  10  19  31  50  79 103 129 163 204 256 305
#     4   9  16  30  47  70  98 125 158 202 252 299
#
# _framework density 18.090471000000001
#
# number of rings (size 3 to 8) (size 9 to 14) (size 15 to 20)
#    0.000    2.250    0.000    7.500    0.000    0.500 
#    0.000    0.000    0.000    3.000    0.000   20.125 
#    0.000    0.000    0.000    0.000    0.000    0.000 
#
# Total GULP energy -396680.376027 kJ/mol
# GULP energy per Si atom -12396.261751 kJ/mol
# Density = 1.804930 g / cm^3
# Si number density = 18.090471 Si / 1000 Ang^3
#
#
#
# Elastic Constant Matrix: (Units=GPa)
#
#
# Indices 1 2 3 4 5 6 
#
# 1 91.9356 42.8421 11.9078 0.0000 13.2858 0.0000
# 2 42.8421 156.5180 35.0068 0.0000 10.6970 0.0000
# 3 11.9078 35.0068 36.3078 0.0000 10.9875 0.0000
# 4 0.0000 0.0000 0.0000 21.5268 0.0000 4.0454
# 5 13.2858 10.6970 10.9875 0.0000 19.5298 0.0000
# 6 0.0000 0.0000 0.0000 4.0454 0.0000 29.1038
#
#
#
# Elastic Compliance Matrix: (Units=1/GPa)
#
#
# Indices 1 2 3 4 5 6 
#
# 1 0.013465 -0.003433 0.001322 0.000000 -0.008024 0.000000
# 2 -0.003433 0.009021 -0.008175 0.000000 0.001994 0.000000
# 3 0.001322 -0.008175 0.040865 0.000000 -0.019413 0.000000
# 4 0.000000 0.000000 0.000000 0.047700 0.000000 -0.006630
# 5 -0.008024 0.001994 -0.019413 0.000000 0.066492 0.000000
# 6 0.000000 0.000000 0.000000 -0.006630 0.000000 0.035281
#
#
# Mechanical properties :
#
#
# Convention : Reuss Voigt Hill
#
# Bulk Modulus (GPa) = 23.37577 51.58609 37.48093
# Shear Modulus (GPa) = 20.18926 27.03240 23.61083
#
# Velocity S-wave (km/s) = 3.34431 3.86980 3.61661
# Velocity P-wave (km/s) = 5.27846 6.96740 6.18089
#
# Compressibility (1/GPa) = 0.04277933
#
# Stress axis : x y z
#
# Youngs Moduli (GPa) = 74.26524 110.85373 24.47055
#
# Poissons Ratio (x) = 0.38056 -0.03235
# Poissons Ratio (y) = 0.25495 0.20005
# Poissons Ratio (z) = -0.09817 0.90624
#
# Static dielectric constant tensor:
#      x y z
#    x 3.351040 0.000000 0.248150 
#    y 0.000000 3.878220 0.000000 
#    z 0.248150 0.000000 2.944400 
# 
# 
# High freq. dielectric constant tensor:
#      x y z
#    x 1.705850 0.000000 0.030470 
#    y 0.000000 1.715910 0.000000 
#    z 0.030470 0.000000 1.642120 
# 
# From -- ./inp_files/182774.got.cif
#   From: 2010.06.25/outbox.cif.g09.slc.cpg/sg15_92_cif.got.tgz:182774.got - 2010.06.28 07:06:18.
