data_PCOD8130753
_publ_section_title
;
Structure prediction by ZEFSAII (Michael W. Deem and Ramdas Pophale) SiO2 
 PCOD8130753
Probable space group: C 2/C
;
_chemical_formula_sum "Si O2"
_cell_formula_units_Z 40
_cell_length_a 18.576652
_cell_length_b 8.621512
_cell_length_c 16.918802
_cell_angle_alpha 90.000000
_cell_angle_beta 140.167473
_cell_angle_gamma 90.000000
_cell_volume 1735.683947
_symmetry_space_group_name_H-M "C 2/C"
_symmetry_group_IT_number 15
_symmetry_cell_setting 'monoclinic'
loop_
_space_group_symop_operation_xyz
x,y,z
-x,y,1/2-z
-x,-y,-z
x,-y,1/2+z
1/2+x,1/2+y,z
1/2-x,1/2+y,1/2-z
1/2-x,1/2-y,-z
1/2+x,1/2-y,1/2+z
loop_
_atom_site_type_symbol
_atom_site_label
_atom_site_fract_x
_atom_site_fract_y
_atom_site_fract_z
Si Si1 0.424229 0.893818 0.758617
Si Si2 0.486732 0.380188 0.918188
Si Si3 0.901871 0.680086 0.974958
Si Si4 0.823685 0.056675 0.669807
Si Si5 0.189352 0.011966 0.022279
O O1 0.500000 0.951289 0.750000
O O2 0.390998 0.715577 0.719035
O O3 0.311158 0.997909 0.666958
O O4 0.494794 0.913640 0.898609
O O5 0.441610 0.221956 0.919481
O O6 0.398695 0.430421 0.777282
O O7 0.500000 0.500000 0.000000
O O8 0.611023 0.367017 0.983660
O O9 0.790880 0.574527 0.876388
O O10 0.873544 0.828426 0.006713
O O11 0.793283 0.000132 0.556657
#
# Coordination Sequence:
#
# PCOD8130753 Si02
#       5
#     8   8   8   8   8
#     4  11  15  27  47  76 104 131 169 216 274 314
#     4  10  19  31  45  76 114 138 174 216 275 328
#     4  10  19  29  48  76 111 142 169 218 278 324
#     4  11  17  29  50  74 108 137 178 221 269 316
#     4  10  18  27  49  77 104 133 175 227 263 314
#
# _framework density 23.045669
#
# number of rings (size 3 to 8) (size 9 to 14) (size 15 to 20)
#    0.000    1.600    8.000    1.800    0.000    0.000 
#    0.000    0.000    0.000   13.200    0.000   12.600 
#   12.000    0.000    0.000    0.000    0.000    0.000 
#
# Total GULP energy -247944.571610 kJ/mol
# GULP energy per Si atom -12397.228581 kJ/mol
# Density = 2.299322 g / cm^3
# Si number density = 23.045669 Si / 1000 Ang^3
#
#
#
# Elastic Constant Matrix: (Units=GPa)
#
#
# Indices 1 2 3 4 5 6 
#
# 1 150.6105 43.6676 67.2158 0.0000 38.3019 0.0000
# 2 43.6676 18.7258 24.2421 0.0000 4.2790 0.0000
# 3 67.2158 24.2421 141.8769 0.0000 34.8524 0.0000
# 4 0.0000 0.0000 0.0000 4.1205 0.0000 3.2249
# 5 38.3019 4.2790 34.8524 0.0000 43.8819 0.0000
# 6 0.0000 0.0000 0.0000 3.2249 0.0000 21.1156
#
#
#
# Elastic Compliance Matrix: (Units=1/GPa)
#
#
# Indices 1 2 3 4 5 6 
#
# 1 0.034186 -0.078291 0.003275 0.000000 -0.024806 0.000000
# 2 -0.078291 0.248244 -0.020084 0.000000 0.060081 0.000000
# 3 0.003275 -0.020084 0.011368 0.000000 -0.009929 0.000000
# 4 0.000000 0.000000 0.000000 0.275634 0.000000 -0.042096
# 5 -0.024806 0.060081 -0.009929 0.000000 0.046467 0.000000
# 6 0.000000 0.000000 0.000000 -0.042096 0.000000 0.053787
#
#
# Mechanical properties :
#
#
# Convention : Reuss Voigt Hill
#
# Bulk Modulus (GPa) = 9.65280 64.60712 37.12996
# Shear Modulus (GPa) = 5.59022 25.56279 15.57650
#
# Velocity S-wave (km/s) = 1.55916 3.33411 2.60262
# Velocity P-wave (km/s) = 2.72744 6.55111 5.01777
#
# Compressibility (1/GPa) = 0.10359683
#
# Stress axis : x y z
#
# Youngs Moduli (GPa) = 29.25184 4.02829 87.96974
#
# Poissons Ratio (x) = 0.31538 -0.28809
# Poissons Ratio (y) = 2.29015 1.76682
# Poissons Ratio (z) = -0.09580 0.08091
#
# Static dielectric constant tensor:
#      x y z
#    x 4.687190 0.000000 0.237420 
#    y 0.000000 3.539740 0.000000 
#    z 0.237420 0.000000 4.295100 
# 
# 
# High freq. dielectric constant tensor:
#      x y z
#    x 1.923810 0.000000 0.012630 
#    y 0.000000 1.836180 0.000000 
#    z 0.012630 0.000000 1.924180 
# 
# From -- ./inp_files/103943.got.cif
#   From: 2010.06.25/outbox.cif.g09.slc.cpg/sg15_52_cif.got.tgz:103943.got - 2010.06.28 07:06:18.
