data_PCOD8130817
_publ_section_title
;
Structure prediction by ZEFSAII (Michael W. Deem and Ramdas Pophale) SiO2 
 PCOD8130817
Probable space group: C 2/C
;
_chemical_formula_sum "Si O2"
_cell_formula_units_Z 64
_cell_length_a 28.828010
_cell_length_b 16.974889
_cell_length_c 13.672873
_cell_angle_alpha 90.000000
_cell_angle_beta 34.182868
_cell_angle_gamma 90.000000
_cell_volume 3759.161526
_symmetry_space_group_name_H-M "C 2/C"
_symmetry_group_IT_number 15
_symmetry_cell_setting 'monoclinic'
loop_
_space_group_symop_operation_xyz
x,y,z
-x,y,1/2-z
-x,-y,-z
x,-y,1/2+z
1/2+x,1/2+y,z
1/2-x,1/2+y,1/2-z
1/2-x,1/2-y,-z
1/2+x,1/2-y,1/2+z
loop_
_atom_site_type_symbol
_atom_site_label
_atom_site_fract_x
_atom_site_fract_y
_atom_site_fract_z
Si Si1 0.055154 0.721002 0.563120
Si Si2 0.214891 0.448298 0.411303
Si Si3 0.913936 0.329565 0.945781
Si Si4 0.618831 0.972551 0.766224
Si Si5 0.332397 0.323866 0.259634
Si Si6 0.816449 0.796472 0.505100
Si Si7 0.462883 0.126986 0.562449
Si Si8 0.305569 0.903322 0.676796
O O1 0.091595 0.794309 0.438835
O O2 0.129550 0.664142 0.470598
O O3 0.000000 0.751317 0.750000
O O4 0.992026 0.677837 0.602053
O O5 0.152509 0.398705 0.453201
O O6 0.187354 0.444558 0.571548
O O7 0.305079 0.407218 0.259284
O O8 0.219643 0.538413 0.367128
O O9 0.887269 0.246815 0.944070
O O10 0.000000 0.357521 0.750000
O O11 0.924063 0.318342 0.045179
O O12 0.649205 0.955604 0.821646
O O13 0.604196 0.065517 0.779408
O O14 0.537073 0.922756 0.884518
O O15 0.256706 0.263975 0.387270
O O16 0.356155 0.328244 0.333727
O O17 0.779510 0.867898 0.633094
#
# Coordination Sequence:
#
# PCOD8130817 Si02
#       8
#     8   8   8   8   8   8   8   8
#     4  10  20  33  51  73 104 138 170 200 258 314
#     4  11  19  30  52  73 103 134 171 208 252 300
#     4  11  19  28  48  78 103 129 165 211 255 296
#     4  10  18  29  45  73 109 134 162 198 249 315
#     4   9  18  32  52  72  96 138 176 208 245 303
#     4   9  18  32  50  72 102 133 173 211 248 297
#     4  10  19  29  45  75 109 135 158 202 257 308
#     4  10  19  32  50  74 103 138 168 205 250 303
#
# _framework density 17.025072999999999
#
# number of rings (size 3 to 8) (size 9 to 14) (size 15 to 20)
#    0.000    2.000    3.750    1.500    3.500    0.500 
#    0.000    0.000    2.750    3.750    0.000    2.625 
#    0.000    0.000    0.000    0.000    0.000    0.000 
#
# Total GULP energy -396704.201267 kJ/mol
# GULP energy per Si atom -12397.006290 kJ/mol
# Density = 1.698632 g / cm^3
# Si number density = 17.025073 Si / 1000 Ang^3
#
#
#
# Elastic Constant Matrix: (Units=GPa)
#
#
# Indices 1 2 3 4 5 6 
#
# 1 62.5880 20.1830 23.8877 0.0000 6.0415 0.0000
# 2 20.1830 54.1808 32.0749 0.0000 -1.1959 0.0000
# 3 23.8877 32.0749 84.7892 0.0000 16.9791 0.0000
# 4 0.0000 0.0000 0.0000 19.4199 0.0000 2.7542
# 5 6.0415 -1.1959 16.9791 0.0000 19.7392 0.0000
# 6 0.0000 0.0000 0.0000 2.7542 0.0000 21.3376
#
#
#
# Elastic Compliance Matrix: (Units=1/GPa)
#
#
# Indices 1 2 3 4 5 6 
#
# 1 0.019163 -0.005841 -0.002348 0.000000 -0.004199 0.000000
# 2 -0.005841 0.027758 -0.011537 0.000000 0.013393 0.000000
# 3 -0.002348 -0.011537 0.020315 0.000000 -0.017455 0.000000
# 4 0.000000 0.000000 0.000000 0.052454 0.000000 -0.006771
# 5 -0.004199 0.013393 -0.017455 0.000000 0.067771 0.000000
# 6 0.000000 0.000000 0.000000 -0.006771 0.000000 0.047740
#
#
# Mechanical properties :
#
#
# Convention : Reuss Voigt Hill
#
# Bulk Modulus (GPa) = 35.99257 39.31656 37.65457
# Shear Modulus (GPa) = 17.61098 20.46017 19.03557
#
# Velocity S-wave (km/s) = 3.21972 3.47041 3.34741
# Velocity P-wave (km/s) = 5.91684 6.26113 6.09142
#
# Compressibility (1/GPa) = 0.02778352
#
# Stress axis : x y z
#
# Youngs Moduli (GPa) = 52.18501 36.02562 49.22414
#
# Poissons Ratio (x) = 0.21042 0.11560
# Poissons Ratio (y) = 0.30480 0.56790
# Poissons Ratio (z) = 0.12255 0.41563
#
# Static dielectric constant tensor:
#      x y z
#    x 3.150470 0.000000 0.045410 
#    y 0.000000 3.071350 0.000000 
#    z 0.045410 0.000000 3.038270 
# 
# 
# High freq. dielectric constant tensor:
#      x y z
#    x 1.653880 0.000000 0.014680 
#    y 0.000000 1.630510 0.000000 
#    z 0.014680 0.000000 1.633850 
# 
# From -- ./inp_files/182750.got.cif
#   From: 2010.06.25/outbox.cif.g09.slc.cpg/sg15_92_cif.got.tgz:182750.got - 2010.06.28 07:06:18.
