data_PCOD8130616
_publ_section_title
;
Structure prediction by ZEFSAII (Michael W. Deem and Ramdas Pophale) SiO2 
 PCOD8130616
Probable space group: C 2/C
;
_chemical_formula_sum "Si O2"
_cell_formula_units_Z 48
_cell_length_a 9.475667
_cell_length_b 27.775954
_cell_length_c 10.618796
_cell_angle_alpha 90.000000
_cell_angle_beta 62.714205
_cell_angle_gamma 90.000000
_cell_volume 2483.844135
_symmetry_space_group_name_H-M "C 2/C"
_symmetry_group_IT_number 15
_symmetry_cell_setting 'monoclinic'
loop_
_space_group_symop_operation_xyz
x,y,z
-x,y,1/2-z
-x,-y,-z
x,-y,1/2+z
1/2+x,1/2+y,z
1/2-x,1/2+y,1/2-z
1/2-x,1/2-y,-z
1/2+x,1/2-y,1/2+z
loop_
_atom_site_type_symbol
_atom_site_label
_atom_site_fract_x
_atom_site_fract_y
_atom_site_fract_z
Si Si1 0.972851 0.599013 0.612808
Si Si2 0.164856 0.944024 0.126989
Si Si3 0.430261 0.597231 0.089454
Si Si4 0.569825 0.801167 0.083083
Si Si5 0.714056 0.443782 0.603395
Si Si6 0.443344 0.696206 0.416500
O O1 0.799663 0.581008 0.652487
O O2 0.000000 0.600624 0.750000
O O3 0.988481 0.653080 0.548476
O O4 0.100952 0.563143 0.499803
O O5 0.000000 0.925359 0.250000
O O6 0.181663 0.000581 0.139742
O O7 0.171227 0.927644 0.979228
O O8 0.331975 0.588074 0.256903
O O9 0.604930 0.573174 0.030815
O O10 0.456763 0.654505 0.052793
O O11 0.500000 0.796734 0.250000
O O12 0.528902 0.749640 0.033879
O O13 0.756296 0.813641 0.005004
O O14 0.500000 0.694852 0.250000
#
# Coordination Sequence:
#
# PCOD8130616 Si02
#       6
#     8   8   8   8   8   8
#     4  11  23  40  60  87 121 155 196 244 294 352
#     4  12  26  38  58  88 120 158 194 244 295 349
#     4  11  21  38  64  86 117 150 201 243 289 348
#     4   9  19  32  58  88 117 148 196 239 290 355
#     4  11  22  41  61  83 115 161 199 241 286 353
#     4  10  17  35  60  89 112 152 198 239 290 350
#
# _framework density 19.324884999999998
#
# number of rings (size 3 to 8) (size 9 to 14) (size 15 to 20)
#    0.000    1.333    5.000    2.000    4.667    0.667 
#    0.000    0.833    0.000    0.000    0.000    0.000 
#    0.000    0.000    0.000    0.000    0.000    0.000 
#
# Total GULP energy -297468.511680 kJ/mol
# GULP energy per Si atom -12394.521320 kJ/mol
# Density = 1.928090 g / cm^3
# Si number density = 19.324885 Si / 1000 Ang^3
#
#
#
# Elastic Constant Matrix: (Units=GPa)
#
#
# Indices 1 2 3 4 5 6 
#
# 1 108.8480 57.7477 38.7938 0.0000 -11.3051 0.0000
# 2 57.7477 142.9191 27.2337 0.0000 -5.3362 0.0000
# 3 38.7938 27.2337 77.1361 0.0000 -22.5849 0.0000
# 4 0.0000 0.0000 0.0000 24.6985 0.0000 -7.5514
# 5 -11.3051 -5.3362 -22.5849 0.0000 34.9475 0.0000
# 6 0.0000 0.0000 0.0000 -7.5514 0.0000 -1.7385
#
#
#
# Elastic Compliance Matrix: (Units=1/GPa)
#
#
# Indices 1 2 3 4 5 6 
#
# 1 0.013377 -0.004428 -0.005051 0.000000 0.000387 0.000000
# 2 -0.004428 0.008981 -0.001186 0.000000 -0.000828 0.000000
# 3 -0.005051 -0.001186 0.018984 0.000000 0.010453 0.000000
# 4 0.000000 0.000000 0.000000 0.017391 0.000000 -0.075544
# 5 0.000387 -0.000828 0.010453 0.000000 0.035369 0.000000
# 6 0.000000 0.000000 0.000000 -0.075544 0.000000 -0.247081
#
#
# Mechanical properties :
#
#
# Convention : Reuss Voigt Hill
#
# Bulk Modulus (GPa) = 49.97152 64.05042 57.01097
# Shear Modulus (GPa) = -40.00675 25.25669 -7.37503
#
# Velocity S-wave (km/s) = -4.55490 3.61910 -1.95566
# Velocity P-wave (km/s) = 1.32215 7.11898 4.94630
#
# Compressibility (1/GPa) = 0.02001140
#
# Stress axis : x y z
#
# Youngs Moduli (GPa) = 74.75693 111.34227 52.67660
#
# Poissons Ratio (x) = 0.49303 0.26606
# Poissons Ratio (y) = 0.33103 0.06249
# Poissons Ratio (z) = 0.37758 0.13209
#
# Static dielectric constant tensor:
#      x y z
#    x 3.278520 0.000000 -0.252200 
#    y 0.000000 4.199600 0.000000 
#    z -0.252200 0.000000 3.526320 
# 
# 
# High freq. dielectric constant tensor:
#      x y z
#    x 1.711830 0.000000 -0.031580 
#    y 0.000000 1.778640 0.000000 
#    z -0.031580 0.000000 1.754020 
# 
# From -- ./inp_files/80506.got.cif
#   From: 2010.06.25/outbox.cif.g09.slc.cpg/sg15_41_cif.got.tgz:80506.got - 2010.06.28 07:06:18.
