data_PCOD8130276
_publ_section_title
;
Structure prediction by ZEFSAII (Michael W. Deem and Ramdas Pophale) SiO2 
 PCOD8130276
Probable space group: C 2/C
;
_chemical_formula_sum "Si O2"
_cell_formula_units_Z 32
_cell_length_a 13.212366
_cell_length_b 7.170426
_cell_length_c 17.810553
_cell_angle_alpha 90.000000
_cell_angle_beta 48.022135
_cell_angle_gamma 90.000000
_cell_volume 1254.375109
_symmetry_space_group_name_H-M "C 2/C"
_symmetry_group_IT_number 15
_symmetry_cell_setting 'monoclinic'
loop_
_space_group_symop_operation_xyz
x,y,z
-x,y,1/2-z
-x,-y,-z
x,-y,1/2+z
1/2+x,1/2+y,z
1/2-x,1/2+y,1/2-z
1/2-x,1/2-y,-z
1/2+x,1/2-y,1/2+z
loop_
_atom_site_type_symbol
_atom_site_label
_atom_site_fract_x
_atom_site_fract_y
_atom_site_fract_z
Si Si1 0.643182 0.579414 0.156208
Si Si2 0.340640 0.600669 0.000438
Si Si3 0.086170 0.652834 0.411759
Si Si4 0.138457 0.658950 0.217398
O O1 0.500000 0.676815 0.250000
O O2 0.639756 0.568045 0.067207
O O3 0.775479 0.701618 0.111832
O O4 0.655709 0.381275 0.194375
O O5 0.490584 0.668211 0.949849
O O6 0.250000 0.750000 0.000000
O O7 0.261253 0.547514 0.115876
O O8 0.135631 0.591597 0.304588
O O9 0.000000 0.500000 0.500000
O O10 0.000000 0.587580 0.250000
#
# Coordination Sequence:
#
# PCOD8130276 Si02
#       4
#     8   8   8   8
#     4  10  19  35  56  85 124 148 195 247 281 348
#     4  10  17  32  54  85 122 145 197 247 278 349
#     4  12  19  30  60  91 112 161 193 233 308 340
#     4  10  17  31  52  84 120 143 194 242 277 348
#
# _framework density 25.510708999999999
#
# number of rings (size 3 to 8) (size 9 to 14) (size 15 to 20)
#    0.000    1.500   12.500    0.000    0.000    0.000 
#    0.000    1.250    0.000    3.000    0.000    0.000 
#    0.000    0.000    0.000    0.000    0.000    0.000 
#
# Total GULP energy -198269.326322 kJ/mol
# GULP energy per Si atom -12391.832895 kJ/mol
# Density = 2.545265 g / cm^3
# Si number density = 25.510709 Si / 1000 Ang^3
#
#
#
# Elastic Constant Matrix: (Units=GPa)
#
#
# Indices 1 2 3 4 5 6 
#
# 1 211.7389 30.1569 95.9267 0.0000 -40.1482 0.0000
# 2 30.1569 33.2659 15.7096 0.0000 6.8102 0.0001
# 3 95.9267 15.7096 260.6488 0.0000 0.5179 0.0000
# 4 0.0000 0.0000 0.0000 10.4660 0.0000 4.0423
# 5 -40.1482 6.8102 0.5179 0.0000 59.5338 0.0000
# 6 0.0000 0.0001 0.0000 4.0423 0.0000 6.3245
#
#
#
# Elastic Compliance Matrix: (Units=1/GPa)
#
#
# Indices 1 2 3 4 5 6 
#
# 1 0.008163 -0.007496 -0.002565 0.000000 0.006385 0.000000
# 2 -0.007496 0.038582 0.000452 0.000000 -0.009473 -0.000001
# 3 -0.002565 0.000452 0.004757 0.000000 -0.001823 0.000000
# 4 0.000000 0.000000 0.000000 0.126865 0.000000 -0.081085
# 5 0.006385 -0.009473 -0.001823 0.000000 0.022202 0.000000
# 6 0.000000 -0.000001 0.000000 -0.081085 0.000000 0.209939
#
#
# Mechanical properties :
#
#
# Convention : Reuss Voigt Hill
#
# Bulk Modulus (GPa) = 30.97493 87.69332 59.33413
# Shear Modulus (GPa) = 11.35103 39.52223 25.43663
#
# Velocity S-wave (km/s) = 2.11168 3.94031 3.16111
# Velocity P-wave (km/s) = 4.25604 7.42638 6.05248
#
# Compressibility (1/GPa) = 0.03228417
#
# Stress axis : x y z
#
# Youngs Moduli (GPa) = 122.50074 25.91886 210.21553
#
# Poissons Ratio (x) = 0.19429 0.53925
# Poissons Ratio (y) = 0.91827 -0.09506
# Poissons Ratio (z) = 0.31424 -0.01172
#
# Static dielectric constant tensor:
#      x y z
#    x 4.914800 0.000000 -0.134980 
#    y 0.000000 3.747230 0.000000 
#    z -0.134980 0.000000 5.514110 
# 
# 
# High freq. dielectric constant tensor:
#      x y z
#    x 2.025300 0.000000 -0.007830 
#    y 0.000000 1.961460 0.000000 
#    z -0.007830 0.000000 2.051180 
# 
# From -- ./inp_files/194852.got.cif
#   From: 2010.06.25/outbox.cif.g09.slc.cpg/sg15_98_cif.got.tgz:194852.got - 2010.06.28 07:06:18.
