data_PCOD8130550
_publ_section_title
;
Structure prediction by ZEFSAII (Michael W. Deem and Ramdas Pophale) SiO2 
 PCOD8130550
Probable space group: C 2/C
;
_chemical_formula_sum "Si O2"
_cell_formula_units_Z 64
_cell_length_a 21.795613
_cell_length_b 11.668736
_cell_length_c 13.031005
_cell_angle_alpha 90.000000
_cell_angle_beta 74.912305
_cell_angle_gamma 90.000000
_cell_volume 3199.896535
_symmetry_space_group_name_H-M "C 2/C"
_symmetry_group_IT_number 15
_symmetry_cell_setting 'monoclinic'
loop_
_space_group_symop_operation_xyz
x,y,z
-x,y,1/2-z
-x,-y,-z
x,-y,1/2+z
1/2+x,1/2+y,z
1/2-x,1/2+y,1/2-z
1/2-x,1/2-y,-z
1/2+x,1/2-y,1/2+z
loop_
_atom_site_type_symbol
_atom_site_label
_atom_site_fract_x
_atom_site_fract_y
_atom_site_fract_z
Si Si1 0.063536 0.572205 0.274626
Si Si2 0.665554 0.990292 0.376015
Si Si3 0.335174 0.154559 0.426094
Si Si4 0.627236 0.598343 0.000002
Si Si5 0.741761 0.016069 0.649109
Si Si6 0.539626 0.320438 0.366424
Si Si7 0.903508 0.122627 0.868537
Si Si8 0.314753 0.182433 0.972379
O O1 0.100899 0.486998 0.335560
O O2 0.105108 0.601119 0.157948
O O3 0.049557 0.684967 0.348361
O O4 0.000000 0.518425 0.250000
O O5 0.728167 0.981027 0.276367
O O6 0.673188 0.112414 0.428302
O O7 0.664719 0.884738 0.455234
O O8 0.270739 0.110945 0.395531
O O9 0.343512 0.292174 0.415547
O O10 0.688324 0.563954 0.903946
O O11 0.566960 0.619451 0.955027
O O12 0.617109 0.503152 0.089593
O O13 0.633147 0.718006 0.059162
O O14 0.686323 0.095095 0.621964
O O15 0.575151 0.384776 0.258254
O O16 0.464301 0.337794 0.407460
O O17 0.250000 0.250000 0.000000
#
# Coordination Sequence:
#
# PCOD8130550 Si02
#       8
#     8   8   8   8   8   8   8   8
#     4  10  17  34  59  81 108 146 193 226 279 343
#     4  10  19  36  58  81 117 149 183 240 286 329
#     4   9  19  36  56  83 115 142 187 238 277 336
#     4  11  21  36  58  83 110 154 186 226 289 336
#     4   9  21  37  56  84 113 148 190 230 284 343
#     4  10  19  37  59  79 107 152 189 227 287 339
#     4  10  21  38  56  84 113 142 191 240 273 342
#     4   9  19  36  56  79 108 145 190 226 269 343
#
# _framework density 20.000646
#
# number of rings (size 3 to 8) (size 9 to 14) (size 15 to 20)
#    0.000    2.250    3.750    0.375    0.000    4.000 
#    6.750    0.000    0.000    0.000    0.000    0.000 
#    0.000    0.000    0.000    0.000    0.000    0.000 
#
# Total GULP energy -396497.301869 kJ/mol
# GULP energy per Si atom -12390.540683 kJ/mol
# Density = 1.995512 g / cm^3
# Si number density = 20.000646 Si / 1000 Ang^3
#
#
#
# Elastic Constant Matrix: (Units=GPa)
#
#
# Indices 1 2 3 4 5 6 
#
# 1 43.4239 -0.3944 -9.0964 0.0000 9.6155 0.0000
# 2 -0.3944 80.3457 17.8637 0.0000 1.2418 0.0000
# 3 -9.0964 17.8637 57.0619 0.0000 7.0676 0.0000
# 4 0.0000 0.0000 0.0000 23.6942 0.0000 -2.2822
# 5 9.6155 1.2418 7.0676 0.0000 27.7056 0.0000
# 6 0.0000 0.0000 0.0000 -2.2822 0.0000 21.8104
#
#
#
# Elastic Compliance Matrix: (Units=1/GPa)
#
#
# Indices 1 2 3 4 5 6 
#
# 1 0.026621 -0.001013 0.005885 0.000000 -0.010695 0.000000
# 2 -0.001013 0.013422 -0.004474 0.000000 0.000891 0.000000
# 3 0.005885 -0.004474 0.020747 0.000000 -0.007135 0.000000
# 4 0.000000 0.000000 0.000000 0.042634 0.000000 0.004461
# 5 -0.010695 0.000891 -0.007135 0.000000 0.041586 0.000000
# 6 0.000000 0.000000 0.000000 0.004461 0.000000 0.046316
#
#
# Mechanical properties :
#
#
# Convention : Reuss Voigt Hill
#
# Bulk Modulus (GPa) = 16.23686 21.95302 19.09494
# Shear Modulus (GPa) = 23.69024 26.13929 24.91476
#
# Velocity S-wave (km/s) = 3.44535 3.61906 3.53327
# Velocity P-wave (km/s) = 4.89521 5.33511 5.11989
#
# Compressibility (1/GPa) = 0.06158825
#
# Stress axis : x y z
#
# Youngs Moduli (GPa) = 37.56482 74.50384 48.19920
#
# Poissons Ratio (x) = 0.07544 -0.28367
# Poissons Ratio (y) = 0.03804 0.21563
# Poissons Ratio (z) = -0.22108 0.33331
#
# Static dielectric constant tensor:
#      x y z
#    x 3.727690 0.000000 0.062430 
#    y 0.000000 6.251420 0.000000 
#    z 0.062430 0.000000 3.462170 
# 
# 
# High freq. dielectric constant tensor:
#      x y z
#    x 1.780700 0.000000 0.010200 
#    y 0.000000 1.771230 0.000000 
#    z 0.010200 0.000000 1.765980 
# 
# From -- ./inp_files/118003.got.cif
#   From: 2010.06.25/outbox.cif.g09.slc.cpg/sg15_60_cif.got.tgz:118003.got - 2010.06.28 07:06:18.
