data_PCOD8130950
_publ_section_title
;
Structure prediction by ZEFSAII (Michael W. Deem and Ramdas Pophale) SiO2 
 PCOD8130950
Probable space group: C 2/C
;
_chemical_formula_sum "Si O2"
_cell_formula_units_Z 64
_cell_length_a 33.367491
_cell_length_b 13.300739
_cell_length_c 13.367695
_cell_angle_alpha 90.000000
_cell_angle_beta 144.466269
_cell_angle_gamma 90.000000
_cell_volume 3448.006773
_symmetry_space_group_name_H-M "C 2/C"
_symmetry_group_IT_number 15
_symmetry_cell_setting 'monoclinic'
loop_
_space_group_symop_operation_xyz
x,y,z
-x,y,1/2-z
-x,-y,-z
x,-y,1/2+z
1/2+x,1/2+y,z
1/2-x,1/2+y,1/2-z
1/2-x,1/2-y,-z
1/2+x,1/2-y,1/2+z
loop_
_atom_site_type_symbol
_atom_site_label
_atom_site_fract_x
_atom_site_fract_y
_atom_site_fract_z
Si Si1 0.640284 0.152008 0.660443
Si Si2 0.268351 0.994423 0.029354
Si Si3 0.056778 0.883021 0.154614
Si Si4 0.338136 0.864653 0.521052
Si Si5 0.163321 0.115116 0.182285
Si Si6 0.991888 0.304121 0.847758
Si Si7 0.297372 0.353532 0.954508
Si Si8 0.036383 0.024436 0.422300
O O1 0.684216 0.094257 0.832019
O O2 0.667163 0.115224 0.607638
O O3 0.649100 0.271822 0.689590
O O4 0.558456 0.126391 0.508346
O O5 0.307906 0.040444 0.016046
O O6 0.198393 0.944739 0.845341
O O7 0.255415 0.081285 0.086052
O O8 0.005801 0.790783 0.073729
O O9 0.126275 0.873401 0.355541
O O10 0.024767 0.984262 0.132779
O O11 0.070134 0.888880 0.061217
O O12 0.418729 0.858442 0.715489
O O13 0.290382 0.767529 0.451874
O O14 0.210697 0.115667 0.178591
O O15 0.091955 0.060830 0.007844
O O16 0.000000 0.265510 0.750000
O O17 0.000000 0.070368 0.250000
#
# Coordination Sequence:
#
# PCOD8130950 Si02
#       8
#     8   8   8   8   8   8   8   8
#     4  10  21  37  58  79 107 143 184 231 277 324
#     4  12  22  36  53  82 116 144 184 226 273 332
#     4  10  18  30  53  83 104 139 182 225 269 320
#     4   9  21  37  58  82 104 142 191 227 274 324
#     4  11  21  35  53  81 115 146 181 222 279 330
#     4   9  17  35  61  81 106 140 190 233 267 319
#     4  10  20  35  57  78 109 150 180 226 269 329
#     4  11  19  30  52  81 113 140 180 229 272 315
#
# _framework density 18.561449
#
# number of rings (size 3 to 8) (size 9 to 14) (size 15 to 20)
#    0.000    1.750    3.750    2.625    0.000    0.500 
#    0.000    0.000    0.000    3.000    0.000    0.000 
#    0.000    0.000    0.000    0.000    0.000    0.000 
#
# Total GULP energy -396579.878206 kJ/mol
# GULP energy per Si atom -12393.121194 kJ/mol
# Density = 1.851920 g / cm^3
# Si number density = 18.561449 Si / 1000 Ang^3
#
#
#
# Elastic Constant Matrix: (Units=GPa)
#
#
# Indices 1 2 3 4 5 6 
#
# 1 59.0664 31.7138 16.5785 0.0000 -4.0943 0.0000
# 2 31.7138 60.6496 28.9153 0.0000 -7.0965 0.0000
# 3 16.5785 28.9153 79.6914 0.0000 -12.9904 0.0000
# 4 0.0000 0.0000 0.0000 24.7128 0.0000 -4.2719
# 5 -4.0943 -7.0965 -12.9904 0.0000 25.8046 0.0000
# 6 0.0000 0.0000 0.0000 -4.2719 0.0000 21.7095
#
#
#
# Elastic Compliance Matrix: (Units=1/GPa)
#
#
# Indices 1 2 3 4 5 6 
#
# 1 0.023557 -0.012061 -0.000496 0.000000 0.000171 0.000000
# 2 -0.012061 0.026208 -0.006686 0.000000 0.001928 0.000000
# 3 -0.000496 -0.006686 0.016085 0.000000 0.006180 0.000000
# 4 0.000000 0.000000 0.000000 0.041890 0.000000 0.008243
# 5 0.000171 0.001928 0.006180 0.000000 0.042421 0.000000
# 6 0.000000 0.000000 0.000000 0.008243 0.000000 0.047685
#
#
# Mechanical properties :
#
#
# Convention : Reuss Voigt Hill
#
# Bulk Modulus (GPa) = 36.54596 39.31361 37.92978
# Shear Modulus (GPa) = 20.37032 22.59203 21.48118
#
# Velocity S-wave (km/s) = 3.31638 3.49255 3.40560
# Velocity P-wave (km/s) = 5.86484 6.12292 5.99527
#
# Compressibility (1/GPa) = 0.02736281
#
# Stress axis : x y z
#
# Youngs Moduli (GPa) = 42.44964 38.15583 62.16964
#
# Poissons Ratio (x) = 0.46022 0.03087
# Poissons Ratio (y) = 0.51201 0.41566
# Poissons Ratio (z) = 0.02108 0.25511
#
# Static dielectric constant tensor:
#      x y z
#    x 3.621040 0.000000 -0.139750 
#    y 0.000000 3.359240 0.000000 
#    z -0.139750 0.000000 3.496930 
# 
# 
# High freq. dielectric constant tensor:
#      x y z
#    x 1.719270 0.000000 -0.003640 
#    y 0.000000 1.694070 0.000000 
#    z -0.003640 0.000000 1.720360 
# 
# From -- ./inp_files/126898.got.cif
#   From: 2010.06.25/outbox.cif.g09.slc.cpg/sg15_64_cif.got.tgz:126898.got - 2010.06.28 07:06:18.
