data_PCOD8130813
_publ_section_title
;
Structure prediction by ZEFSAII (Michael W. Deem and Ramdas Pophale) SiO2 
 PCOD8130813
Probable space group: C 2/C
;
_chemical_formula_sum "Si O2"
_cell_formula_units_Z 56
_cell_length_a 26.472649
_cell_length_b 15.590076
_cell_length_c 8.631160
_cell_angle_alpha 90.000000
_cell_angle_beta 67.578460
_cell_angle_gamma 90.000000
_cell_volume 3292.880800
_symmetry_space_group_name_H-M "C 2/C"
_symmetry_group_IT_number 15
_symmetry_cell_setting 'monoclinic'
loop_
_space_group_symop_operation_xyz
x,y,z
-x,y,1/2-z
-x,-y,-z
x,-y,1/2+z
1/2+x,1/2+y,z
1/2-x,1/2+y,1/2-z
1/2-x,1/2-y,-z
1/2+x,1/2-y,1/2+z
loop_
_atom_site_type_symbol
_atom_site_label
_atom_site_fract_x
_atom_site_fract_y
_atom_site_fract_z
Si Si1 0.167274 0.748051 0.503191
Si Si2 0.554655 0.848961 0.596630
Si Si3 0.905699 0.465773 0.472869
Si Si4 0.443060 0.803292 0.249474
Si Si5 0.643809 0.151595 0.228085
Si Si6 0.255216 0.886684 0.419971
Si Si7 0.789225 0.541587 0.548548
O O1 0.106223 0.758712 0.639938
O O2 0.162664 0.722906 0.327865
O O3 0.197477 0.838635 0.479922
O O4 0.198367 0.675111 0.564862
O O5 0.500000 0.825460 0.750000
O O6 0.553613 0.798269 0.438166
O O7 0.607292 0.812939 0.628960
O O8 0.556778 0.950635 0.556547
O O9 0.932634 0.400134 0.320542
O O10 0.897107 0.419554 0.648734
O O11 0.845886 0.490806 0.486587
O O12 0.500000 0.767807 0.250000
O O13 0.700918 0.114092 0.094060
O O14 0.272585 0.916018 0.228585
O O15 0.245916 0.970705 0.538600
#
# Coordination Sequence:
#
# PCOD8130813 Si02
#       7
#     8   8   8   8   8   8   8
#     4  10  21  36  49  77 100 145 169 217 258 312
#     4  11  20  28  44  71  97 138 178 213 238 292
#     4  10  18  29  45  68 102 138 174 205 242 294
#     4  11  21  34  49  68 104 141 174 207 257 306
#     4  10  19  30  48  68 106 132 179 207 253 292
#     4  11  20  34  56  71 109 132 179 210 266 304
#     4  11  18  32  51  74  97 141 168 221 248 305
#
# _framework density 17.006385000000002
#
# number of rings (size 3 to 8) (size 9 to 14) (size 15 to 20)
#    0.000    1.429    4.286    5.571    0.000    2.286 
#    0.000    1.429    0.000    0.000    0.000    1.000 
#    0.000    0.000    0.000    0.000    0.000    0.000 
#
# Total GULP energy -347121.207160 kJ/mol
# GULP energy per Si atom -12397.185970 kJ/mol
# Density = 1.696768 g / cm^3
# Si number density = 17.006385 Si / 1000 Ang^3
#
#
#
# Elastic Constant Matrix: (Units=GPa)
#
#
# Indices 1 2 3 4 5 6 
#
# 1 106.2570 42.0809 49.2768 0.0000 2.3898 0.0000
# 2 42.0809 46.6415 35.1156 0.0000 0.6510 0.0000
# 3 49.2768 35.1156 109.9109 0.0000 16.2348 0.0000
# 4 0.0000 0.0000 0.0000 11.1049 0.0000 -5.9602
# 5 2.3898 0.6510 16.2348 0.0000 30.8357 0.0000
# 6 0.0000 0.0000 0.0000 -5.9602 0.0000 16.3928
#
#
#
# Elastic Compliance Matrix: (Units=1/GPa)
#
#
# Indices 1 2 3 4 5 6 
#
# 1 0.015504 -0.011419 -0.003427 0.000000 0.000844 0.000000
# 2 -0.011419 0.037230 -0.007362 0.000000 0.003975 0.000000
# 3 -0.003427 -0.007362 0.014015 0.000000 -0.006958 0.000000
# 4 0.000000 0.000000 0.000000 0.111884 0.000000 0.040680
# 5 0.000844 0.003975 -0.006958 0.000000 0.035944 0.000000
# 6 0.000000 0.000000 0.000000 0.040680 0.000000 0.075793
#
#
# Mechanical properties :
#
#
# Convention : Reuss Voigt Hill
#
# Bulk Modulus (GPa) = 44.78028 57.30620 51.04324
# Shear Modulus (GPa) = 14.60998 20.75574 17.68286
#
# Velocity S-wave (km/s) = 2.93420 3.49731 3.22806
# Velocity P-wave (km/s) = 6.15370 7.07660 6.63122
#
# Compressibility (1/GPa) = 0.02233126
#
# Stress axis : x y z
#
# Youngs Moduli (GPa) = 64.49959 26.85977 71.35378
#
# Poissons Ratio (x) = 0.30672 0.24454
# Poissons Ratio (y) = 0.73655 0.52532
# Poissons Ratio (z) = 0.22105 0.19775
#
# Static dielectric constant tensor:
#      x y z
#    x 3.211440 0.000000 0.093340 
#    y 0.000000 2.843900 0.000000 
#    z 0.093340 0.000000 3.433380 
# 
# 
# High freq. dielectric constant tensor:
#      x y z
#    x 1.650180 0.000000 0.016840 
#    y 0.000000 1.594010 0.000000 
#    z 0.016840 0.000000 1.673320 
# 
# From -- ./inp_files/65936.got.cif
#   From: 2010.06.25/outbox.cif.g09.slc.cpg/sg15_33_cif.got.tgz:65936.got - 2010.06.28 07:06:18.
