data_PCOD8130844
_publ_section_title
;
Structure prediction by ZEFSAII (Michael W. Deem and Ramdas Pophale) SiO2 
 PCOD8130844
Probable space group: C 2/C
;
_chemical_formula_sum "Si O2"
_cell_formula_units_Z 40
_cell_length_a 15.851047
_cell_length_b 14.605244
_cell_length_c 16.706343
_cell_angle_alpha 90.000000
_cell_angle_beta 151.891480
_cell_angle_gamma 90.000000
_cell_volume 1822.220606
_symmetry_space_group_name_H-M "C 2/C"
_symmetry_group_IT_number 15
_symmetry_cell_setting 'monoclinic'
loop_
_space_group_symop_operation_xyz
x,y,z
-x,y,1/2-z
-x,-y,-z
x,-y,1/2+z
1/2+x,1/2+y,z
1/2-x,1/2+y,1/2-z
1/2-x,1/2-y,-z
1/2+x,1/2-y,1/2+z
loop_
_atom_site_type_symbol
_atom_site_label
_atom_site_fract_x
_atom_site_fract_y
_atom_site_fract_z
Si Si1 0.706216 0.659845 0.915596
Si Si2 0.307463 0.030418 0.558108
Si Si3 0.062032 0.916692 0.998144
Si Si4 0.322529 0.120689 0.845361
Si Si5 0.290402 0.910441 0.870283
O O1 0.500000 0.632135 0.750000
O O2 0.757792 0.679780 0.866681
O O3 0.750000 0.750000 0.000000
O O4 0.821603 0.576758 0.047701
O O5 0.500000 0.063033 0.750000
O O6 0.159409 0.044973 0.501298
O O7 0.258026 0.089556 0.438506
O O8 0.882119 0.863288 0.817665
O O9 0.196552 0.854055 0.163375
O O10 0.000000 0.000000 0.000000
O O11 0.305831 0.013573 0.850892
O O12 0.529050 0.145248 0.998918
#
# Coordination Sequence:
#
# PCOD8130844 Si02
#       5
#     8   8   8   8   8
#     4  11  23  39  51  74 111 160 196 226 270 343
#     4  11  19  32  54  79 117 148 181 234 289 338
#     4  10  18  29  50  79 106 143 177 230 291 335
#     4   9  18  33  50  73 104 140 188 230 275 328
#     4   9  17  30  49  77 104 140 176 226 290 331
#
# _framework density 21.951239999999999
#
# number of rings (size 3 to 8) (size 9 to 14) (size 15 to 20)
#    0.000    2.000    2.000    4.800    2.800    0.000 
#    3.600    0.000    0.000    0.000    0.000    0.000 
#    0.000   14.400    0.000    0.000    0.000    0.000 
#
# Total GULP energy -247958.902700 kJ/mol
# GULP energy per Si atom -12397.945135 kJ/mol
# Density = 2.190128 g / cm^3
# Si number density = 21.951240 Si / 1000 Ang^3
#
#
#
# Elastic Constant Matrix: (Units=GPa)
#
#
# Indices 1 2 3 4 5 6 
#
# 1 195.5290 15.2305 84.9795 -0.0011 -5.4730 0.0002
# 2 15.2305 16.2418 17.7284 -0.0014 -6.9956 -0.0005
# 3 84.9795 17.7284 222.1685 -0.0090 -1.6207 -0.0032
# 4 -0.0011 -0.0014 -0.0090 13.6761 -0.0014 -7.3862
# 5 -5.4730 -6.9956 -1.6207 -0.0014 42.3827 0.0010
# 6 0.0002 -0.0005 -0.0032 -7.3862 0.0010 15.2568
#
#
#
# Elastic Compliance Matrix: (Units=1/GPa)
#
#
# Indices 1 2 3 4 5 6 
#
# 1 0.006322 -0.003532 -0.002135 -0.000002 0.000152 -0.000002
# 2 -0.003532 0.074890 -0.004539 0.000008 0.011731 0.000005
# 3 -0.002135 -0.004539 0.005674 0.000005 -0.000808 0.000004
# 4 -0.000002 0.000008 0.000005 0.099008 0.000003 0.047932
# 5 0.000152 0.011731 -0.000808 0.000003 0.025520 0.000000
# 6 -0.000002 0.000005 0.000004 0.047932 0.000000 0.088749
#
#
# Mechanical properties :
#
#
# Convention : Reuss Voigt Hill
#
# Bulk Modulus (GPa) = 15.04390 74.42400 44.73395
# Shear Modulus (GPa) = 14.58864 35.32986 24.95925
#
# Velocity S-wave (km/s) = 2.58077 4.01617 3.37565
# Velocity P-wave (km/s) = 3.96846 7.44876 5.96794
#
# Compressibility (1/GPa) = 0.06647213
#
# Stress axis : x y z
#
# Youngs Moduli (GPa) = 158.18689 13.35299 176.23995
#
# Poissons Ratio (x) = 0.04717 0.37628
# Poissons Ratio (y) = 0.55875 0.80001
# Poissons Ratio (z) = 0.33774 0.06061
#
# Static dielectric constant tensor:
#      x y z
#    x 4.428490 -0.000080 0.110050 
#    y -0.000080 3.057920 -0.000020 
#    z 0.110050 -0.000020 4.911320 
# 
# 
# High freq. dielectric constant tensor:
#      x y z
#    x 1.880630 0.000000 -0.001480 
#    y 0.000000 1.788090 0.000000 
#    z -0.001480 0.000000 1.891700 
# 
# From -- ./inp_files/155617.got.cif
#   From: 2010.06.25/outbox.cif.g09.slc.cpg/sg15_78_cif.got.tgz:155617.got - 2010.06.28 07:06:18.
