data_PCOD8130284
_publ_section_title
;
Structure prediction by ZEFSAII (Michael W. Deem and Ramdas Pophale) SiO2 
 PCOD8130284
Probable space group: C 2/C
;
_chemical_formula_sum "Si O2"
_cell_formula_units_Z 48
_cell_length_a 16.967019
_cell_length_b 16.363960
_cell_length_c 14.370118
_cell_angle_alpha 90.000000
_cell_angle_beta 34.460712
_cell_angle_gamma 90.000000
_cell_volume 2257.608854
_symmetry_space_group_name_H-M "C 2/C"
_symmetry_group_IT_number 15
_symmetry_cell_setting 'monoclinic'
loop_
_space_group_symop_operation_xyz
x,y,z
-x,y,1/2-z
-x,-y,-z
x,-y,1/2+z
1/2+x,1/2+y,z
1/2-x,1/2+y,1/2-z
1/2-x,1/2-y,-z
1/2+x,1/2-y,1/2+z
loop_
_atom_site_type_symbol
_atom_site_label
_atom_site_fract_x
_atom_site_fract_y
_atom_site_fract_z
Si Si1 0.286749 0.181237 0.209236
Si Si2 0.231766 0.868082 0.227575
Si Si3 0.229748 0.535842 0.615841
Si Si4 0.554725 0.570192 0.511411
Si Si5 0.343512 0.175640 0.940312
Si Si6 0.003599 0.437023 0.912581
O O1 0.248115 0.272397 0.275998
O O2 0.408055 0.144709 0.154518
O O3 0.146838 0.129172 0.357155
O O4 0.346448 0.172817 0.047667
O O5 0.250792 0.911648 0.308799
O O6 0.083094 0.881513 0.321418
O O7 0.347291 0.905152 0.043573
O O8 0.355654 0.469010 0.490879
O O9 0.231391 0.593753 0.524740
O O10 0.081283 0.487671 0.755647
O O11 0.500000 0.500000 0.500000
O O12 0.500000 0.185530 0.750000
O O13 0.250000 0.250000 0.000000
O O14 0.000000 0.500000 0.000000
#
# Coordination Sequence:
#
# PCOD8130284 Si02
#       6
#     8   8   8   8   8   8
#     4  11  21  33  54  83 120 151 194 243 302 354
#     4  10  17  31  54  82 107 145 199 249 293 331
#     4   9  19  38  50  75 114 157 200 233 280 353
#     4   9  20  34  55  76 111 156 200 248 279 347
#     4  12  25  36  53  82 126 166 188 230 300 370
#     4   9  18  33  54  73 108 156 201 241 275 349
#
# _framework density 21.261431999999999
#
# number of rings (size 3 to 8) (size 9 to 14) (size 15 to 20)
#    0.000    2.000    1.667    4.000    2.333    0.000 
#    0.000    0.000    0.000    0.000    0.000    0.000 
#    0.000  360.000    0.000    0.000    0.000    0.000 
#
# Total GULP energy -297391.880879 kJ/mol
# GULP energy per Si atom -12391.328370 kJ/mol
# Density = 2.121304 g / cm^3
# Si number density = 21.261432 Si / 1000 Ang^3
#
#
#
# Elastic Constant Matrix: (Units=GPa)
#
#
# Indices 1 2 3 4 5 6 
#
# 1 36.3026 32.0085 38.0457 0.0002 -16.3556 0.0000
# 2 32.0085 137.1023 65.1192 0.0001 -13.0494 0.0000
# 3 38.0457 65.1192 128.6486 0.0013 -44.6474 -0.0007
# 4 0.0002 0.0001 0.0013 39.6527 -0.0006 -3.8149
# 5 -16.3556 -13.0494 -44.6474 -0.0006 30.8293 0.0002
# 6 0.0000 0.0000 -0.0007 -3.8149 0.0002 29.4809
#
#
#
# Elastic Compliance Matrix: (Units=1/GPa)
#
#
# Indices 1 2 3 4 5 6 
#
# 1 0.045048 -0.006750 -0.005233 0.000000 0.013463 0.000000
# 2 -0.006750 0.011196 -0.006572 0.000000 -0.008360 0.000000
# 3 -0.005233 -0.006572 0.021549 0.000000 0.025649 0.000000
# 4 0.000000 0.000000 0.000000 0.025537 0.000000 0.003305
# 5 0.013463 -0.008360 0.025649 0.000000 0.073186 0.000000
# 6 0.000000 0.000000 0.000000 0.003305 0.000000 0.034348
#
#
# Mechanical properties :
#
#
# Convention : Reuss Voigt Hill
#
# Bulk Modulus (GPa) = 24.58104 63.60005 44.09055
# Shear Modulus (GPa) = 19.11798 31.11793 25.11796
#
# Velocity S-wave (km/s) = 3.00190 3.82983 3.44086
# Velocity P-wave (km/s) = 4.85815 7.03812 6.04718
#
# Compressibility (1/GPa) = 0.04068176
#
# Stress axis : x y z
#
# Youngs Moduli (GPa) = 22.19869 89.32134 46.40614
#
# Poissons Ratio (x) = 0.60293 0.24285
# Poissons Ratio (y) = 0.14984 0.30498
# Poissons Ratio (z) = 0.11617 0.58702
#
# Static dielectric constant tensor:
#      x y z
#    x 3.760580 0.000000 -0.982770 
#    y 0.000000 4.182060 0.000000 
#    z -0.982770 0.000000 8.768470 
# 
# 
# High freq. dielectric constant tensor:
#      x y z
#    x 1.794820 0.000000 -0.039330 
#    y 0.000000 1.853090 0.000000 
#    z -0.039330 0.000000 1.833490 
# 
# From -- ./inp_files/163174.got.cif
#   From: 2010.06.25/outbox.cif.g09.slc.cpg/sg15_82_cif.got.tgz:163174.got - 2010.06.28 07:06:18.
