data_PCOD8130700
_publ_section_title
;
Structure prediction by ZEFSAII (Michael W. Deem and Ramdas Pophale) SiO2 
 PCOD8130700
Probable space group: C 2/C
;
_chemical_formula_sum "Si O2"
_cell_formula_units_Z 60
_cell_length_a 28.473620
_cell_length_b 5.281959
_cell_length_c 18.024321
_cell_angle_alpha 90.000000
_cell_angle_beta 107.763045
_cell_angle_gamma 90.000000
_cell_volume 2581.561236
_symmetry_space_group_name_H-M "C 2/C"
_symmetry_group_IT_number 15
_symmetry_cell_setting 'monoclinic'
loop_
_space_group_symop_operation_xyz
x,y,z
-x,y,1/2-z
-x,-y,-z
x,-y,1/2+z
1/2+x,1/2+y,z
1/2-x,1/2+y,1/2-z
1/2-x,1/2-y,-z
1/2+x,1/2-y,1/2+z
loop_
_atom_site_type_symbol
_atom_site_label
_atom_site_fract_x
_atom_site_fract_y
_atom_site_fract_z
Si Si1 0.415122 0.758567 0.509954
Si Si2 0.097350 0.282252 0.748242
Si Si3 0.321952 0.266596 0.614012
Si Si4 0.000000 0.469011 0.250000
Si Si5 0.168833 0.733002 0.426828
Si Si6 0.281258 0.321282 0.756535
Si Si7 0.116192 0.780374 0.665629
Si Si8 0.567284 0.742243 0.398936
O O1 0.357863 0.760757 0.507197
O O2 0.418668 0.728661 0.423299
O O3 0.441727 0.520775 0.562269
O O4 0.437512 0.027466 0.544777
O O5 0.129382 0.267174 0.838977
O O6 0.116812 0.506760 0.705263
O O7 0.041132 0.341251 0.739710
O O8 0.098478 0.009022 0.709439
O O9 0.297867 0.515875 0.565321
O O10 0.310545 0.268685 0.694722
O O11 0.380839 0.256570 0.621698
O O12 0.297346 0.016760 0.565605
O O13 0.022055 0.277690 0.321402
O O14 0.255376 0.593889 0.741699
O O15 0.327232 0.331772 0.835474
#
# Coordination Sequence:
#
# PCOD8130700 Si02
#       8
#     8   8   8   4   8   8   8   8
#     4  10  22  41  64  90 128 171 213 245 334 391
#     4  12  23  40  67  94 125 173 221 264 302 381
#     4  10  18  37  59  88 117 160 211 243 312 364
#     4  12  24  40  68 104 122 160 244 268 300 348
#     4  10  17  37  64  84 113 167 214 248 292 376
#     4  12  23  36  63  96 126 157 209 270 314 375
#     4  12  25  45  64  95 132 172 204 261 338 385
#     4  10  22  39  66  90 124 171 212 271 300 376
#
# _framework density 23.241751000000001
#
# number of rings (size 3 to 8) (size 9 to 14) (size 15 to 20)
#    0.000    1.067    5.333    2.400    1.867    2.133 
#    0.000    4.000    0.000   19.200    0.000    0.000 
#    0.000    0.000    0.000    0.000    0.000    0.000 
#
# Total GULP energy -371671.706968 kJ/mol
# GULP energy per Si atom -12389.056899 kJ/mol
# Density = 2.318885 g / cm^3
# Si number density = 23.241751 Si / 1000 Ang^3
#
#
#
# Elastic Constant Matrix: (Units=GPa)
#
#
# Indices 1 2 3 4 5 6 
#
# 1 52.2105 -0.1065 6.2934 0.0000 5.9871 0.0000
# 2 -0.1065 168.8849 -2.3408 0.0000 -2.0968 0.0000
# 3 6.2934 -2.3408 55.7764 0.0000 -5.6768 0.0000
# 4 0.0000 0.0000 0.0000 7.6105 0.0000 -7.0160
# 5 5.9871 -2.0968 -5.6768 0.0000 23.3170 0.0000
# 6 0.0000 0.0000 0.0000 -7.0160 0.0000 30.8540
#
#
#
# Elastic Compliance Matrix: (Units=1/GPa)
#
#
# Indices 1 2 3 4 5 6 
#
# 1 0.020176 -0.000100 -0.002880 0.000000 -0.005891 0.000000
# 2 -0.000100 0.005934 0.000325 0.000000 0.000639 0.000000
# 3 -0.002880 0.000325 0.018812 0.000000 0.005349 0.000000
# 4 0.000000 0.000000 0.000000 0.166249 0.000000 0.037804
# 5 -0.005891 0.000639 0.005349 0.000000 0.045759 0.000000
# 6 0.000000 0.000000 0.000000 0.037804 0.000000 0.041007
#
#
# Mechanical properties :
#
#
# Convention : Reuss Voigt Hill
#
# Bulk Modulus (GPa) = 25.24579 31.61820 28.43199
# Shear Modulus (GPa) = 15.80029 30.55802 23.17915
#
# Velocity S-wave (km/s) = 2.61017 3.62994 3.16144
# Velocity P-wave (km/s) = 4.46876 5.58589 5.05826
#
# Compressibility (1/GPa) = 0.03961057
#
# Stress axis : x y z
#
# Youngs Moduli (GPa) = 49.56456 168.53272 53.15823
#
# Poissons Ratio (x) = 0.01691 0.15311
# Poissons Ratio (y) = 0.00497 -0.01729
# Poissons Ratio (z) = 0.14276 -0.05483
#
# Static dielectric constant tensor:
#      x y z
#    x 4.012000 0.000000 -0.075160 
#    y 0.000000 6.042870 0.000000 
#    z -0.075160 0.000000 3.958020 
# 
# 
# High freq. dielectric constant tensor:
#      x y z
#    x 1.891140 0.000000 -0.014880 
#    y 0.000000 1.960050 0.000000 
#    z -0.014880 0.000000 1.898160 
# 
# From -- ./inp_files/223932.got.cif
#   From: 2010.06.25/outbox.cif.g09.slc.cpg/sg15_112_cif.got.tgz:223932.got - 2010.06.28 07:06:18.
