data_PCOD8130250
_publ_section_title
;
Structure prediction by ZEFSAII (Michael W. Deem and Ramdas Pophale) SiO2 
 PCOD8130250
Probable space group: C 2/C
;
_chemical_formula_sum "Si O2"
_cell_formula_units_Z 60
_cell_length_a 13.334901
_cell_length_b 14.324680
_cell_length_c 19.779324
_cell_angle_alpha 90.000000
_cell_angle_beta 55.737251
_cell_angle_gamma 90.000000
_cell_volume 3122.556978
_symmetry_space_group_name_H-M "C 2/C"
_symmetry_group_IT_number 15
_symmetry_cell_setting 'monoclinic'
loop_
_space_group_symop_operation_xyz
x,y,z
-x,y,1/2-z
-x,-y,-z
x,-y,1/2+z
1/2+x,1/2+y,z
1/2-x,1/2+y,1/2-z
1/2-x,1/2-y,-z
1/2+x,1/2-y,1/2+z
loop_
_atom_site_type_symbol
_atom_site_label
_atom_site_fract_x
_atom_site_fract_y
_atom_site_fract_z
Si Si1 0.259313 0.373658 0.450555
Si Si2 0.951750 0.907520 0.982744
Si Si3 0.866248 0.094366 0.775662
Si Si4 0.275152 0.004400 0.407318
Si Si5 0.950902 0.236669 0.953026
Si Si6 0.357703 0.198932 0.218591
Si Si7 0.500000 0.048823 0.250000
Si Si8 0.154747 0.071318 0.317703
O O1 0.277139 0.427127 0.372894
O O2 0.211734 0.434336 0.530492
O O3 0.156933 0.297319 0.475220
O O4 0.391732 0.329874 0.418070
O O5 0.011097 0.905005 0.884423
O O6 0.990736 0.816326 0.007059
O O7 0.803903 0.913586 0.040203
O O8 0.000000 0.000000 0.000000
O O9 0.850654 0.201837 0.758929
O O10 0.000000 0.071611 0.750000
O O11 0.829041 0.025206 0.729219
O O12 0.412360 0.982318 0.329144
O O13 0.207142 0.061050 0.373956
O O14 0.062029 0.294029 0.879093
O O15 0.416034 0.116852 0.239585
O O16 0.222028 0.158438 0.254897
#
# Coordination Sequence:
#
# PCOD8130250 Si02
#       8
#     8   8   8   8   8   8   4   8
#     4  11  20  31  53  85 118 145 185 241 289 346
#     4  10  17  31  49  78 116 150 189 230 279 344
#     4  12  22  34  57  91 117 148 195 243 288 342
#     4  10  19  33  54  77 121 150 189 229 290 351
#     4  11  19  31  54  86 114 147 192 234 294 343
#     4  11  19  34  54  83 122 152 187 238 295 343
#     4  10  18  32  50  84 112 150 182 232 296 334
#     4  10  22  35  51  86 126 152 185 240 298 344
#
# _framework density 19.215022000000001
#
# number of rings (size 3 to 8) (size 9 to 14) (size 15 to 20)
#    0.000    1.333    6.000    3.200    3.733    0.000 
#    0.000    0.667    0.000    0.000   15.600    4.667 
#    0.000    0.000    0.000    0.000    0.000    0.000 
#
# Total GULP energy -371670.677738 kJ/mol
# GULP energy per Si atom -12389.022591 kJ/mol
# Density = 1.917129 g / cm^3
# Si number density = 19.215022 Si / 1000 Ang^3
#
#
#
# Elastic Constant Matrix: (Units=GPa)
#
#
# Indices 1 2 3 4 5 6 
#
# 1 42.1331 39.8284 37.7751 0.0000 -15.7456 0.0000
# 2 39.8284 55.0057 40.7279 0.0000 -11.4216 0.0000
# 3 37.7751 40.7279 157.4371 0.0000 -30.5069 0.0000
# 4 0.0000 0.0000 0.0000 42.2499 0.0000 -4.0331
# 5 -15.7456 -11.4216 -30.5069 0.0000 33.6661 0.0000
# 6 0.0000 0.0000 0.0000 -4.0331 0.0000 31.1456
#
#
#
# Elastic Compliance Matrix: (Units=1/GPa)
#
#
# Indices 1 2 3 4 5 6 
#
# 1 0.087512 -0.057621 -0.002363 0.000000 0.019239 0.000000
# 2 -0.057621 0.060656 -0.003761 0.000000 -0.009779 0.000000
# 3 -0.002363 -0.003761 0.009013 0.000000 0.005786 0.000000
# 4 0.000000 0.000000 0.000000 0.023965 0.000000 0.003103
# 5 0.019239 -0.009779 0.005786 0.000000 0.040627 0.000000
# 6 0.000000 0.000000 0.000000 0.003103 0.000000 0.032509
#
#
# Mechanical properties :
#
#
# Convention : Reuss Voigt Hill
#
# Bulk Modulus (GPa) = 33.68004 54.58207 44.13106
# Shear Modulus (GPa) = 12.76593 30.49530 21.63062
#
# Velocity S-wave (km/s) = 2.58034 3.98811 3.35881
# Velocity P-wave (km/s) = 5.14233 7.04800 6.16919
#
# Compressibility (1/GPa) = 0.02969117
#
# Stress axis : x y z
#
# Youngs Moduli (GPa) = 11.42704 16.48650 110.95324
#
# Poissons Ratio (x) = 0.94996 0.26221
# Poissons Ratio (y) = 0.65843 0.41727
# Poissons Ratio (z) = 0.02701 0.06200
#
# Static dielectric constant tensor:
#      x y z
#    x 2.912260 0.000000 -0.145820 
#    y 0.000000 3.411910 0.000000 
#    z -0.145820 0.000000 4.052380 
# 
# 
# High freq. dielectric constant tensor:
#      x y z
#    x 1.704180 0.000000 -0.022550 
#    y 0.000000 1.706300 0.000000 
#    z -0.022550 0.000000 1.782460 
# 
# From -- ./inp_files/244351.got.cif
#   From: 2010.06.25/outbox.cif.g09.slc.cpg/sg15_123_cif.got.tgz:244351.got - 2010.06.28 07:06:18.
