data_PCOD8130383
_publ_section_title
;
Structure prediction by ZEFSAII (Michael W. Deem and Ramdas Pophale) SiO2 
 PCOD8130383
Probable space group: C 2/C
;
_chemical_formula_sum "Si O2"
_cell_formula_units_Z 60
_cell_length_a 21.472566
_cell_length_b 16.720840
_cell_length_c 9.534123
_cell_angle_alpha 90.000000
_cell_angle_beta 108.093867
_cell_angle_gamma 90.000000
_cell_volume 3253.848204
_symmetry_space_group_name_H-M "C 2/C"
_symmetry_group_IT_number 15
_symmetry_cell_setting 'monoclinic'
loop_
_space_group_symop_operation_xyz
x,y,z
-x,y,1/2-z
-x,-y,-z
x,-y,1/2+z
1/2+x,1/2+y,z
1/2-x,1/2+y,1/2-z
1/2-x,1/2-y,-z
1/2+x,1/2-y,1/2+z
loop_
_atom_site_type_symbol
_atom_site_label
_atom_site_fract_x
_atom_site_fract_y
_atom_site_fract_z
Si Si1 0.104664 0.081141 0.649813
Si Si2 0.500000 0.664919 0.750000
Si Si3 0.215596 0.483962 0.847557
Si Si4 0.823986 0.401763 0.417232
Si Si5 0.878074 0.246650 0.532649
Si Si6 0.206309 0.205767 0.776874
Si Si7 0.656708 0.456374 0.911692
Si Si8 0.206879 0.843096 0.735941
O O1 0.149986 0.158975 0.654434
O O2 0.098771 0.043549 0.489429
O O3 0.034658 0.107931 0.660018
O O4 0.139757 0.022385 0.784087
O O5 0.449904 0.721783 0.632694
O O6 0.173372 0.544251 0.720657
O O7 0.243977 0.413782 0.771328
O O8 0.166540 0.454014 0.935101
O O9 0.275772 0.528698 0.961384
O O10 0.879913 0.331946 0.451896
O O11 0.753382 0.359368 0.381703
O O12 0.828263 0.259022 0.627572
O O13 0.848354 0.174771 0.419341
O O14 0.248844 0.263930 0.705785
O O15 0.666212 0.370098 0.844435
#
# Coordination Sequence:
#
# PCOD8130383 Si02
#       8
#     8   4   8   8   8   8   8   8
#     4  11  23  38  56  82 110 157 189 234 264 336
#     4  10  24  42  62  72 104 150 220 224 272 306
#     4  12  17  30  51  87 115 146 163 219 284 353
#     4  11  19  31  55  83 115 139 183 220 284 338
#     4  10  20  37  56  79 104 156 194 235 261 330
#     4  10  17  32  55  79 115 146 184 217 281 335
#     4  12  21  35  55  85 127 143 178 224 292 335
#     4  11  19  30  56  84 118 140 177 231 278 340
#
# _framework density 18.439705
#
# number of rings (size 3 to 8) (size 9 to 14) (size 15 to 20)
#    0.000    1.067    8.000    1.600    0.000    1.067 
#    0.000    0.000    0.000    0.800    0.000    0.000 
#    0.000    0.000    0.000    0.000    0.000    0.000 
#
# Total GULP energy -371842.488353 kJ/mol
# GULP energy per Si atom -12394.749612 kJ/mol
# Density = 1.839774 g / cm^3
# Si number density = 18.439705 Si / 1000 Ang^3
#
#
#
# Elastic Constant Matrix: (Units=GPa)
#
#
# Indices 1 2 3 4 5 6 
#
# 1 69.6276 32.5060 35.9357 0.0000 -7.2148 0.0000
# 2 32.5060 96.1069 48.9242 0.0000 -7.2789 0.0000
# 3 35.9357 48.9242 86.6581 0.0000 -18.9403 0.0000
# 4 0.0000 0.0000 0.0000 27.4203 0.0000 -7.9556
# 5 -7.2148 -7.2789 -18.9403 0.0000 23.9913 0.0000
# 6 0.0000 0.0000 0.0000 -7.9556 0.0000 21.3823
#
#
#
# Elastic Compliance Matrix: (Units=1/GPa)
#
#
# Indices 1 2 3 4 5 6 
#
# 1 0.019031 -0.003394 -0.005982 0.000000 -0.000029 0.000000
# 2 -0.003394 0.015333 -0.007802 0.000000 -0.002528 0.000000
# 3 -0.005982 -0.007802 0.021167 0.000000 0.012544 0.000000
# 4 0.000000 0.000000 0.000000 0.040883 0.000000 0.015211
# 5 -0.000029 -0.002528 0.012544 0.000000 0.050809 0.000000
# 6 0.000000 0.000000 0.000000 0.015211 0.000000 0.052427
#
#
# Mechanical properties :
#
#
# Convention : Reuss Voigt Hill
#
# Bulk Modulus (GPa) = 47.22467 54.12493 50.67480
# Shear Modulus (GPa) = 20.74146 23.56058 22.15102
#
# Velocity S-wave (km/s) = 3.35748 3.57838 3.46969
# Velocity P-wave (km/s) = 6.37935 6.81830 6.60248
#
# Compressibility (1/GPa) = 0.02117537
#
# Stress axis : x y z
#
# Youngs Moduli (GPa) = 52.54590 65.21890 47.24423
#
# Poissons Ratio (x) = 0.22133 0.28263
# Poissons Ratio (y) = 0.17832 0.36858
# Poissons Ratio (z) = 0.31434 0.50881
#
# Static dielectric constant tensor:
#      x y z
#    x 3.102710 0.000000 -0.214040 
#    y 0.000000 3.605290 0.000000 
#    z -0.214040 0.000000 3.473430 
# 
# 
# High freq. dielectric constant tensor:
#      x y z
#    x 1.667420 0.000000 -0.014540 
#    y 0.000000 1.723530 0.000000 
#    z -0.014540 0.000000 1.709980 
# 
# From -- ./inp_files/56688.got.cif
#   From: 2010.06.25/outbox.cif.g09.slc.cpg/sg15_29_cif.got.tgz:56688.got - 2010.06.28 07:06:18.
