data_PCOD8130914
_publ_section_title
;
Structure prediction by ZEFSAII (Michael W. Deem and Ramdas Pophale) SiO2 
 PCOD8130914
Probable space group: C 2/C
;
_chemical_formula_sum "Si O2"
_cell_formula_units_Z 60
_cell_length_a 11.362747
_cell_length_b 20.677411
_cell_length_c 14.176104
_cell_angle_alpha 90.000000
_cell_angle_beta 96.147933
_cell_angle_gamma 90.000000
_cell_volume 3311.550774
_symmetry_space_group_name_H-M "C 2/C"
_symmetry_group_IT_number 15
_symmetry_cell_setting 'monoclinic'
loop_
_space_group_symop_operation_xyz
x,y,z
-x,y,1/2-z
-x,-y,-z
x,-y,1/2+z
1/2+x,1/2+y,z
1/2-x,1/2+y,1/2-z
1/2-x,1/2-y,-z
1/2+x,1/2-y,1/2+z
loop_
_atom_site_type_symbol
_atom_site_label
_atom_site_fract_x
_atom_site_fract_y
_atom_site_fract_z
Si Si1 0.000000 0.995916 0.750000
Si Si2 0.119314 0.786819 0.645806
Si Si3 0.931523 0.917029 0.927143
Si Si4 0.160282 0.215267 0.354593
Si Si5 0.873857 0.642699 0.859099
Si Si6 0.798314 0.095375 0.030087
Si Si7 0.192023 0.962644 0.402438
Si Si8 0.356183 0.142018 0.635971
O O1 0.902654 0.042375 0.691533
O O2 0.937880 0.950801 0.824368
O O3 0.144566 0.849660 0.583210
O O4 0.195033 0.793000 0.748030
O O5 0.152387 0.716018 0.605747
O O6 0.980335 0.791988 0.653357
O O7 0.062361 0.904721 0.977819
O O8 0.869223 0.960730 0.000031
O O9 0.233546 0.161727 0.418211
O O10 0.191193 0.286511 0.395129
O O11 0.792517 0.591530 0.906237
O O12 0.847142 0.634061 0.746699
O O13 0.011341 0.628046 0.889498
O O14 0.755908 0.035634 0.092855
O O15 0.729597 0.092120 0.924640
#
# Coordination Sequence:
#
# PCOD8130914 Si02
#       8
#     4   8   8   8   8   8   8   8
#     4  10  20  36  54  74 114 130 168 224 250 314
#     4   8  14  30  51  69 105 127 171 205 246 307
#     4  10  20  33  52  82  97 138 169 206 263 299
#     4   8  14  28  51  79  92 130 167 218 256 278
#     4   9  20  34  49  74  98 142 168 208 257 299
#     4  10  18  30  50  77 103 124 170 218 252 301
#     4  11  23  32  50  78 107 138 169 199 267 310
#     4   9  18  33  54  71 100 129 180 215 248 298
#
# _framework density 18.118400000000001
#
# number of rings (size 3 to 8) (size 9 to 14) (size 15 to 20)
#    0.000    2.667    0.000    6.000    3.733    1.067 
#    0.000    0.000    0.000    0.000    0.000    0.000 
#    0.000    0.000    0.000    0.000    0.000    0.000 
#
# Total GULP energy -371677.374236 kJ/mol
# GULP energy per Si atom -12389.245808 kJ/mol
# Density = 1.807716 g / cm^3
# Si number density = 18.118400 Si / 1000 Ang^3
#
#
#
# Elastic Constant Matrix: (Units=GPa)
#
#
# Indices 1 2 3 4 5 6 
#
# 1 45.9631 40.3036 32.6042 0.0000 0.2252 0.0000
# 2 40.3036 103.0446 35.6690 0.0000 3.0146 0.0000
# 3 32.6042 35.6690 80.9256 0.0000 8.0118 0.0000
# 4 0.0000 0.0000 0.0000 23.9678 0.0000 1.2377
# 5 0.2252 3.0146 8.0118 0.0000 23.0644 0.0000
# 6 0.0000 0.0000 0.0000 1.2377 0.0000 28.3790
#
#
#
# Elastic Compliance Matrix: (Units=1/GPa)
#
#
# Indices 1 2 3 4 5 6 
#
# 1 0.040386 -0.011963 -0.011510 0.000000 0.005167 0.000000
# 2 -0.011963 0.014997 -0.001665 0.000000 -0.001265 0.000000
# 3 -0.011510 -0.001665 0.018326 0.000000 -0.006036 0.000000
# 4 0.000000 0.000000 0.000000 0.041817 0.000000 -0.001824
# 5 0.005167 -0.001265 -0.006036 0.000000 0.045568 0.000000
# 6 0.000000 0.000000 0.000000 -0.001824 0.000000 0.035317
#
#
# Mechanical properties :
#
#
# Convention : Reuss Voigt Hill
#
# Bulk Modulus (GPa) = 42.67554 49.67631 46.17592
# Shear Modulus (GPa) = 19.64660 23.17269 21.40964
#
# Velocity S-wave (km/s) = 3.29651 3.58013 3.44125
# Velocity P-wave (km/s) = 6.17205 6.67585 6.42888
#
# Compressibility (1/GPa) = 0.02343263
#
# Stress axis : x y z
#
# Youngs Moduli (GPa) = 24.76121 66.68005 54.56834
#
# Poissons Ratio (x) = 0.79770 0.62807
# Poissons Ratio (y) = 0.29622 0.09086
# Poissons Ratio (z) = 0.28500 0.11103
#
# Static dielectric constant tensor:
#      x y z
#    x 2.881550 0.000000 0.142620 
#    y 0.000000 3.704740 0.000000 
#    z 0.142620 0.000000 3.293140 
# 
# 
# High freq. dielectric constant tensor:
#      x y z
#    x 1.648970 0.000000 0.018320 
#    y 0.000000 1.715500 0.000000 
#    z 0.018320 0.000000 1.697640 
# 
# From -- ./inp_files/146772.got.cif
#   From: 2010.06.25/outbox.cif.g09.slc.cpg/sg15_74_cif.got.tgz:146772.got - 2010.06.28 07:06:18.
