data_PCOD8130880
_publ_section_title
;
Structure prediction by ZEFSAII (Michael W. Deem and Ramdas Pophale) SiO2 
 PCOD8130880
Probable space group: C 2/C
;
_chemical_formula_sum "Si O2"
_cell_formula_units_Z 52
_cell_length_a 21.228659
_cell_length_b 27.708218
_cell_length_c 5.301253
_cell_angle_alpha 90.000000
_cell_angle_beta 58.761516
_cell_angle_gamma 90.000000
_cell_volume 2666.146394
_symmetry_space_group_name_H-M "C 2/C"
_symmetry_group_IT_number 15
_symmetry_cell_setting 'monoclinic'
loop_
_space_group_symop_operation_xyz
x,y,z
-x,y,1/2-z
-x,-y,-z
x,-y,1/2+z
1/2+x,1/2+y,z
1/2-x,1/2+y,1/2-z
1/2-x,1/2-y,-z
1/2+x,1/2-y,1/2+z
loop_
_atom_site_type_symbol
_atom_site_label
_atom_site_fract_x
_atom_site_fract_y
_atom_site_fract_z
Si Si1 0.866741 0.730175 0.752238
Si Si2 0.093916 0.316179 0.831056
Si Si3 0.213401 0.174349 0.063361
Si Si4 0.751952 0.483692 0.941144
Si Si5 0.246820 0.371671 0.521386
Si Si6 0.500000 0.112301 0.250000
Si Si7 0.413424 0.975958 0.067176
O O1 0.907708 0.720824 0.402315
O O2 0.790393 0.701887 0.912197
O O3 0.917632 0.712170 0.880896
O O4 0.852907 0.787181 0.811303
O O5 0.171399 0.343005 0.679708
O O6 0.030050 0.355399 0.918195
O O7 0.208153 0.140473 0.827045
O O8 0.204588 0.142701 0.335476
O O9 0.707247 0.495459 0.775864
O O10 0.771668 0.428028 0.927779
O O11 0.825648 0.516596 0.752068
O O12 0.433632 0.080805 0.510280
O O13 0.448576 0.000154 0.242527
#
# Coordination Sequence:
#
# PCOD8130880 Si02
#       7
#     8   8   8   8   8   4   8
#     4   9  18  33  47  67  85 106 132 191 258 292
#     4  10  21  31  46  64  89 113 151 195 235 283
#     4   9  17  30  51  67  84 102 137 188 252 305
#     4  10  19  31  44  61  89 119 151 193 234 266
#     4  10  18  30  47  68  84 112 150 193 237 286
#     4  12  24  36  48  66  90 132 174 202 234 274
#     4  10  22  35  47  59  82 120 166 209 240 266
#
# _framework density 19.503806000000001
#
# number of rings (size 3 to 8) (size 9 to 14) (size 15 to 20)
#    0.000    2.154    0.000    4.154    0.000   12.923 
#    0.000    0.000    0.000    0.000    0.000    0.000 
#    0.000    0.000    0.000    0.000    0.000    0.000 
#
# Total GULP energy -322298.352207 kJ/mol
# GULP energy per Si atom -12396.090470 kJ/mol
# Density = 1.945941 g / cm^3
# Si number density = 19.503806 Si / 1000 Ang^3
#
#
#
# Elastic Constant Matrix: (Units=GPa)
#
#
# Indices 1 2 3 4 5 6 
#
# 1 46.9300 36.7875 30.8452 0.0000 27.6960 0.0000
# 2 36.7875 97.8934 38.8255 0.0000 15.1316 0.0000
# 3 30.8452 38.8255 114.1791 0.0000 55.2057 0.0000
# 4 0.0000 0.0000 0.0000 27.0036 0.0000 0.8324
# 5 27.6960 15.1316 55.2057 0.0000 37.2688 0.0000
# 6 0.0000 0.0000 0.0000 0.8324 0.0000 35.1372
#
#
#
# Elastic Compliance Matrix: (Units=1/GPa)
#
#
# Indices 1 2 3 4 5 6 
#
# 1 0.084353 -0.031035 0.042220 0.000000 -0.112626 0.000000
# 2 -0.031035 0.023404 -0.021604 0.000000 0.045563 0.000000
# 3 0.042220 -0.021604 0.055067 0.000000 -0.104173 0.000000
# 4 0.000000 0.000000 0.000000 0.037059 0.000000 -0.000878
# 5 -0.112626 0.045563 -0.104173 0.000000 0.246340 0.000000
# 6 0.000000 0.000000 0.000000 -0.000878 0.000000 0.028481
#
#
# Mechanical properties :
#
#
# Convention : Reuss Voigt Hill
#
# Bulk Modulus (GPa) = 7.04297 52.43545 29.73921
# Shear Modulus (GPa) = 9.21031 30.05153 19.63092
#
# Velocity S-wave (km/s) = 2.17545 3.92957 3.17601
# Velocity P-wave (km/s) = 3.15103 6.89433 5.36007
#
# Compressibility (1/GPa) = 0.14198550
#
# Stress axis : x y z
#
# Youngs Moduli (GPa) = 11.85490 42.72865 18.15985
#
# Poissons Ratio (x) = 1.32610 -0.76671
# Poissons Ratio (y) = 0.36792 0.39232
# Poissons Ratio (z) = -0.50051 0.92309
#
# Static dielectric constant tensor:
#      x y z
#    x 3.340710 0.000000 0.764720 
#    y 0.000000 3.509450 0.000000 
#    z 0.764720 0.000000 4.170880 
# 
# 
# High freq. dielectric constant tensor:
#      x y z
#    x 1.704470 0.000000 0.056480 
#    y 0.000000 1.748710 0.000000 
#    z 0.056480 0.000000 1.764710 
# 
# From -- ./inp_files/11262.got.cif
#   From: 2010.06.25/outbox.cif.g09.slc.cpg/sg15_6_cif.got.tgz:11262.got - 2010.06.28 07:06:18.
