data_PCOD8130450
_publ_section_title
;
Structure prediction by ZEFSAII (Michael W. Deem and Ramdas Pophale) SiO2 
 PCOD8130450
Probable space group: C 2/C
;
_chemical_formula_sum "Si O2"
_cell_formula_units_Z 56
_cell_length_a 13.990192
_cell_length_b 14.453316
_cell_length_c 24.820126
_cell_angle_alpha 90.000000
_cell_angle_beta 144.754036
_cell_angle_gamma 90.000000
_cell_volume 2896.255988
_symmetry_space_group_name_H-M "C 2/C"
_symmetry_group_IT_number 15
_symmetry_cell_setting 'monoclinic'
loop_
_space_group_symop_operation_xyz
x,y,z
-x,y,1/2-z
-x,-y,-z
x,-y,1/2+z
1/2+x,1/2+y,z
1/2-x,1/2+y,1/2-z
1/2-x,1/2-y,-z
1/2+x,1/2-y,1/2+z
loop_
_atom_site_type_symbol
_atom_site_label
_atom_site_fract_x
_atom_site_fract_y
_atom_site_fract_z
Si Si1 0.816002 0.678435 0.644146
Si Si2 0.061604 0.743496 0.358362
Si Si3 0.757999 0.684805 0.159943
Si Si4 0.347281 0.012178 0.720977
Si Si5 0.669123 0.119341 0.501448
Si Si6 0.091339 0.569482 0.916901
Si Si7 0.466462 0.186046 0.504584
O O1 0.741421 0.599971 0.650517
O O2 0.815009 0.633443 0.583728
O O3 0.705782 0.770776 0.596335
O O4 0.000000 0.705197 0.750000
O O5 0.159412 0.679193 0.360864
O O6 0.145079 0.845288 0.398550
O O7 0.075349 0.694941 0.422048
O O8 0.870187 0.748587 0.251595
O O9 0.738930 0.580684 0.173877
O O10 0.577242 0.726711 0.072462
O O11 0.500000 0.998706 0.750000
O O12 0.416780 0.033501 0.812551
O O13 0.555241 0.117820 0.502674
O O14 0.692700 0.021329 0.482860
O O15 0.064509 0.628343 0.957027
#
# Coordination Sequence:
#
# PCOD8130450 Si02
#       7
#     8   8   8   8   8   8   8
#     4   9  21  39  59  75 102 149 192 227 273 327
#     4   9  17  31  56  82 107 139 175 221 283 320
#     4  10  17  33  55  83 110 134 182 230 272 318
#     4   9  16  33  59  77 100 142 181 221 271 317
#     4  10  19  33  57  82 108 145 179 222 272 335
#     4  10  19  37  55  75 111 151 182 216 281 327
#     4  11  23  33  54  84 113 145 182 228 269 334
#
# _framework density 19.335307
#
# number of rings (size 3 to 8) (size 9 to 14) (size 15 to 20)
#    0.000    2.571    2.857    1.714    0.000    2.857 
#    0.000    1.429    9.429    0.000    0.000    0.000 
#    0.000    0.000    0.000    0.000    0.000    0.000 
#
# Total GULP energy -347021.028314 kJ/mol
# GULP energy per Si atom -12393.608154 kJ/mol
# Density = 1.929130 g / cm^3
# Si number density = 19.335307 Si / 1000 Ang^3
#
#
#
# Elastic Constant Matrix: (Units=GPa)
#
#
# Indices 1 2 3 4 5 6 
#
# 1 36.6510 24.9906 30.4463 0.0000 -8.5136 0.0000
# 2 24.9906 69.2156 32.4103 0.0000 -8.4619 0.0000
# 3 30.4463 32.4103 92.7777 0.0000 -9.9736 0.0000
# 4 0.0000 0.0000 0.0000 40.7613 0.0000 -7.5659
# 5 -8.5136 -8.4619 -9.9736 0.0000 24.4332 0.0000
# 6 0.0000 0.0000 0.0000 -7.5659 0.0000 15.6137
#
#
#
# Elastic Compliance Matrix: (Units=1/GPa)
#
#
# Indices 1 2 3 4 5 6 
#
# 1 0.044642 -0.010398 -0.010179 0.000000 0.007799 0.000000
# 2 -0.010398 0.020018 -0.003373 0.000000 0.001933 0.000000
# 3 -0.010179 -0.003373 0.015469 0.000000 0.001600 0.000000
# 4 0.000000 0.000000 0.000000 0.026958 0.000000 0.013063
# 5 0.007799 0.001933 0.001600 0.000000 0.044968 0.000000
# 6 0.000000 0.000000 0.000000 0.013063 0.000000 0.070376
#
#
# Mechanical properties :
#
#
# Convention : Reuss Voigt Hill
#
# Bulk Modulus (GPa) = 31.02859 41.59321 36.31090
# Shear Modulus (GPa) = 17.78900 23.54812 20.66856
#
# Velocity S-wave (km/s) = 3.03648 3.49360 3.27303
# Velocity P-wave (km/s) = 5.32692 6.15077 5.75361
#
# Compressibility (1/GPa) = 0.03222834
#
# Stress axis : x y z
#
# Youngs Moduli (GPa) = 22.40047 49.95625 64.64565
#
# Poissons Ratio (x) = 0.51947 0.65803
# Poissons Ratio (y) = 0.23293 0.21803
# Poissons Ratio (z) = 0.22801 0.16848
#
# Static dielectric constant tensor:
#      x y z
#    x 2.724360 0.000000 -1.159220 
#    y 0.000000 3.750830 0.000000 
#    z -1.159220 0.000000 2.263330 
# 
# 
# High freq. dielectric constant tensor:
#      x y z
#    x 1.724630 0.000000 -0.030280 
#    y 0.000000 1.745110 0.000000 
#    z -0.030280 0.000000 1.750800 
# 
# From -- ./inp_files/316334.got.cif
#   From: 2010.06.25/outbox.cif.g09.slc.cpg/sg15_159_cif.got.tgz:316334.got - 2010.06.28 07:06:18.
