data_PCOD8130065
_publ_section_title
;
Structure prediction by ZEFSAII (Michael W. Deem and Ramdas Pophale) SiO2 
 PCOD8130065
Probable space group: C 2/C
;
_chemical_formula_sum "Si O2"
_cell_formula_units_Z 56
_cell_length_a 27.398857
_cell_length_b 4.932393
_cell_length_c 24.024580
_cell_angle_alpha 90.000000
_cell_angle_beta 99.834819
_cell_angle_gamma 90.000000
_cell_volume 3199.015110
_symmetry_space_group_name_H-M "C 2/C"
_symmetry_group_IT_number 15
_symmetry_cell_setting 'monoclinic'
loop_
_space_group_symop_operation_xyz
x,y,z
-x,y,1/2-z
-x,-y,-z
x,-y,1/2+z
1/2+x,1/2+y,z
1/2-x,1/2+y,1/2-z
1/2-x,1/2-y,-z
1/2+x,1/2-y,1/2+z
loop_
_atom_site_type_symbol
_atom_site_label
_atom_site_fract_x
_atom_site_fract_y
_atom_site_fract_z
Si Si1 0.736144 0.263090 0.280281
Si Si2 0.859796 0.879352 0.286493
Si Si3 0.909158 0.333392 0.450089
Si Si4 0.830605 0.381008 0.350141
Si Si5 0.950229 0.132879 0.013774
Si Si6 0.510142 0.789601 0.124043
Si Si7 0.027298 0.202565 0.699252
O O1 0.759265 0.447692 0.234856
O O2 0.677936 0.344066 0.273995
O O3 0.770977 0.322875 0.341060
O O4 0.841325 0.685048 0.332434
O O5 0.914228 0.799976 0.276857
O O6 0.857078 0.181989 0.310523
O O7 0.852985 0.355911 0.416704
O O8 0.932310 0.616132 0.473519
O O9 0.941965 0.227156 0.404508
O O10 0.909792 0.109458 0.500036
O O11 0.959855 0.238188 0.078359
O O12 0.000000 0.000000 0.000000
O O13 0.509734 0.593680 0.177050
O O14 0.512298 0.095534 0.146583
O O15 0.000000 0.289534 0.750000
#
# Coordination Sequence:
#
# PCOD8130065 Si02
#       7
#     8   8   8   8   8   8   8
#     4   8  16  26  42  62  85 116 145 172 221 275
#     4  10  17  31  42  61  91 121 148 185 221 254
#     4  11  17  29  47  68  90 117 150 175 226 281
#     4  10  17  27  46  66  90 117 144 177 223 276
#     4  10  20  29  45  66  88 121 150 178 224 280
#     4  11  20  34  44  61  94 119 153 192 222 252
#     4  12  22  32  47  65  87 126 165 188 213 255
#
# _framework density 17.505388
#
# number of rings (size 3 to 8) (size 9 to 14) (size 15 to 20)
#    0.000    1.714    2.857    5.571    0.000    0.000 
#    0.000    0.000    0.000    0.000    0.000    0.000 
#    0.000    6.857    0.000    0.000    0.000    0.571 
#
# Total GULP energy -346970.285542 kJ/mol
# GULP energy per Si atom -12391.795912 kJ/mol
# Density = 1.746555 g / cm^3
# Si number density = 17.505388 Si / 1000 Ang^3
#
#
#
# Elastic Constant Matrix: (Units=GPa)
#
#
# Indices 1 2 3 4 5 6 
#
# 1 79.9010 18.8365 55.9692 0.0000 38.1871 0.0000
# 2 18.8365 82.1255 22.2108 0.0000 13.1641 0.0000
# 3 55.9692 22.2108 74.5639 0.0000 37.7182 0.0000
# 4 0.0000 0.0000 0.0000 30.9021 0.0000 11.3606
# 5 38.1871 13.1641 37.7182 0.0000 39.2391 0.0000
# 6 0.0000 0.0000 0.0000 11.3606 0.0000 12.2989
#
#
#
# Elastic Compliance Matrix: (Units=1/GPa)
#
#
# Indices 1 2 3 4 5 6 
#
# 1 0.030273 -0.000490 -0.015100 0.000000 -0.014783 0.000000
# 2 -0.000490 0.013284 -0.003068 0.000000 -0.001031 0.000000
# 3 -0.015100 -0.003068 0.034462 0.000000 -0.017402 0.000000
# 4 0.000000 0.000000 0.000000 0.049000 0.000000 -0.045262
# 5 -0.014783 -0.001031 -0.017402 0.000000 0.056945 0.000000
# 6 0.000000 0.000000 0.000000 -0.045262 0.000000 0.123118
#
#
# Mechanical properties :
#
#
# Convention : Reuss Voigt Hill
#
# Bulk Modulus (GPa) = 24.56763 47.84705 36.20734
# Shear Modulus (GPa) = 13.96783 25.79294 19.88039
#
# Velocity S-wave (km/s) = 2.82781 3.84269 3.37363
# Velocity P-wave (km/s) = 4.97260 6.86152 5.99196
#
# Compressibility (1/GPa) = 0.04070397
#
# Stress axis : x y z
#
# Youngs Moduli (GPa) = 33.03233 75.27984 29.01715
#
# Poissons Ratio (x) = 0.03690 0.43816
# Poissons Ratio (y) = 0.01619 0.08901
# Poissons Ratio (z) = 0.49879 0.23092
#
# Static dielectric constant tensor:
#      x y z
#    x 3.224160 0.000000 0.793780 
#    y 0.000000 3.486330 0.000000 
#    z 0.793780 0.000000 3.302580 
# 
# 
# High freq. dielectric constant tensor:
#      x y z
#    x 1.631960 0.000000 0.071260 
#    y 0.000000 1.706130 0.000000 
#    z 0.071260 0.000000 1.640640 
# 
# From -- ./inp_files/256372.got.cif
#   From: 2010.06.25/outbox.cif.g09.slc.cpg/sg15_129_cif.got.tgz:256372.got - 2010.06.28 07:06:18.
