data_PCOD8130083
_publ_section_title
;
Structure prediction by ZEFSAII (Michael W. Deem and Ramdas Pophale) SiO2 
 PCOD8130083
Probable space group: C 2/C
;
_chemical_formula_sum "Si O2"
_cell_formula_units_Z 60
_cell_length_a 11.819398
_cell_length_b 21.091137
_cell_length_c 14.508552
_cell_angle_alpha 90.000000
_cell_angle_beta 95.321734
_cell_angle_gamma 90.000000
_cell_volume 3601.168030
_symmetry_space_group_name_H-M "C 2/C"
_symmetry_group_IT_number 15
_symmetry_cell_setting 'monoclinic'
loop_
_space_group_symop_operation_xyz
x,y,z
-x,y,1/2-z
-x,-y,-z
x,-y,1/2+z
1/2+x,1/2+y,z
1/2-x,1/2+y,1/2-z
1/2-x,1/2-y,-z
1/2+x,1/2-y,1/2+z
loop_
_atom_site_type_symbol
_atom_site_label
_atom_site_fract_x
_atom_site_fract_y
_atom_site_fract_z
Si Si1 0.318691 0.671936 0.962018
Si Si2 0.000000 0.901704 0.250000
Si Si3 0.575348 0.766209 0.168864
Si Si4 0.111447 0.284375 0.893860
Si Si5 0.161263 0.171308 0.033386
Si Si6 0.500598 0.432721 0.452767
Si Si7 0.183396 0.202593 0.746673
Si Si8 0.919337 0.701389 0.507276
O O1 0.386470 0.606435 0.968147
O O2 0.310287 0.707287 0.862744
O O3 0.193298 0.657784 0.994881
O O4 0.384236 0.725186 0.025785
O O5 0.002062 0.944046 0.342558
O O6 0.887218 0.859625 0.233528
O O7 0.500000 0.747931 0.250000
O O8 0.603672 0.700148 0.120420
O O9 0.689347 0.803653 0.204874
O O10 0.507704 0.814383 0.095943
O O11 0.204267 0.336385 0.933622
O O12 0.121294 0.265354 0.786265
O O13 0.140435 0.217985 0.946320
O O14 0.985189 0.307556 0.914116
O O15 0.110124 0.103683 0.001248
O O16 0.500000 0.500000 0.500000
#
# Coordination Sequence:
#
# PCOD8130083 Si02
#       8
#     8   4   8   8   8   8   8   8
#     4  10  19  31  47  74 105 136 165 211 253 301
#     4  10  20  34  52  76  90 126 180 216 248 294
#     4  10  17  28  45  77 106 135 156 201 264 317
#     4   9  15  28  51  74 100 126 160 203 257 303
#     4   9  17  30  47  72  99 132 163 202 247 302
#     4  11  21  36  51  70 101 138 173 211 245 301
#     4  10  17  28  50  73 104 124 170 210 249 299
#     4  10  18  29  47  72 108 130 158 205 267 303
#
# _framework density 16.661262000000001
#
# number of rings (size 3 to 8) (size 9 to 14) (size 15 to 20)
#    0.000    2.133    5.333    1.600    0.000    0.000 
#    1.200    0.000    0.000    0.800    0.000    0.000 
#    0.000    0.000    0.000    0.000    0.000    0.000 
#
# Total GULP energy -371732.455764 kJ/mol
# GULP energy per Si atom -12391.081859 kJ/mol
# Density = 1.662334 g / cm^3
# Si number density = 16.661262 Si / 1000 Ang^3
#
#
#
# Elastic Constant Matrix: (Units=GPa)
#
#
# Indices 1 2 3 4 5 6 
#
# 1 135.5227 36.1569 41.3934 0.0000 -7.8287 0.0000
# 2 36.1569 73.0883 35.7023 0.0000 5.3399 0.0000
# 3 41.3934 35.7023 74.9244 0.0000 -3.1682 0.0000
# 4 0.0000 0.0000 0.0000 20.8039 0.0000 2.1023
# 5 -7.8287 5.3399 -3.1682 0.0000 28.3113 0.0000
# 6 0.0000 0.0000 0.0000 2.1023 0.0000 14.6826
#
#
#
# Elastic Compliance Matrix: (Units=1/GPa)
#
#
# Indices 1 2 3 4 5 6 
#
# 1 0.009483 -0.003122 -0.003633 0.000000 0.002805 0.000000
# 2 -0.003122 0.019406 -0.007751 0.000000 -0.005391 0.000000
# 3 -0.003633 -0.007751 0.019157 0.000000 0.002601 0.000000
# 4 0.000000 0.000000 0.000000 0.048774 0.000000 -0.006984
# 5 0.002805 -0.005391 0.002601 0.000000 0.037405 0.000000
# 6 0.000000 0.000000 0.000000 -0.006984 0.000000 0.069108
#
#
# Mechanical properties :
#
#
# Convention : Reuss Voigt Hill
#
# Bulk Modulus (GPa) = 52.53206 56.67118 54.60162
# Shear Modulus (GPa) = 20.94769 24.11173 22.52971
#
# Velocity S-wave (km/s) = 3.54965 3.80830 3.68125
# Velocity P-wave (km/s) = 6.95686 7.30925 7.13523
#
# Compressibility (1/GPa) = 0.01903600
#
# Stress axis : x y z
#
# Youngs Moduli (GPa) = 105.44747 51.52979 52.19952
#
# Poissons Ratio (x) = 0.16086 0.18965
# Poissons Ratio (y) = 0.32916 0.40458
# Poissons Ratio (z) = 0.38311 0.39939
#
# Static dielectric constant tensor:
#      x y z
#    x 3.546100 0.000000 -0.014300 
#    y 0.000000 2.454970 0.000000 
#    z -0.014300 0.000000 3.491660 
# 
# 
# High freq. dielectric constant tensor:
#      x y z
#    x 1.666620 0.000000 -0.000800 
#    y 0.000000 1.553890 0.000000 
#    z -0.000800 0.000000 1.656190 
# 
# From -- ./inp_files/146761.got.cif
#   From: 2010.06.25/outbox.cif.g09.slc.cpg/sg15_74_cif.got.tgz:146761.got - 2010.06.28 07:06:18.
