data_PCOD8130283
_publ_section_title
;
Structure prediction by ZEFSAII (Michael W. Deem and Ramdas Pophale) SiO2 
 PCOD8130283
Probable space group: C 2/C
;
_chemical_formula_sum "Si O2"
_cell_formula_units_Z 60
_cell_length_a 9.705314
_cell_length_b 18.880270
_cell_length_c 16.412100
_cell_angle_alpha 90.000000
_cell_angle_beta 86.344710
_cell_angle_gamma 90.000000
_cell_volume 3001.218041
_symmetry_space_group_name_H-M "C 2/C"
_symmetry_group_IT_number 15
_symmetry_cell_setting 'monoclinic'
loop_
_space_group_symop_operation_xyz
x,y,z
-x,y,1/2-z
-x,-y,-z
x,-y,1/2+z
1/2+x,1/2+y,z
1/2-x,1/2+y,1/2-z
1/2-x,1/2-y,-z
1/2+x,1/2-y,1/2+z
loop_
_atom_site_type_symbol
_atom_site_label
_atom_site_fract_x
_atom_site_fract_y
_atom_site_fract_z
Si Si1 0.748844 0.343914 0.213196
Si Si2 0.225558 0.208771 0.884587
Si Si3 0.424993 0.514192 0.417522
Si Si4 0.444024 0.228567 0.340346
Si Si5 0.711960 0.650114 0.049681
Si Si6 0.623374 0.050333 0.905210
Si Si7 0.500000 0.552586 0.750000
Si Si8 0.002009 0.593251 0.077843
O O1 0.800084 0.312575 0.297433
O O2 0.689559 0.280622 0.157947
O O3 0.869328 0.388541 0.164141
O O4 0.631327 0.398179 0.243328
O O5 0.321659 0.270876 0.918351
O O6 0.064761 0.230775 0.883903
O O7 0.225521 0.145370 0.950600
O O8 0.500000 0.500000 0.500000
O O9 0.408209 0.598810 0.414347
O O10 0.275876 0.476439 0.423129
O O11 0.510066 0.493167 0.333099
O O12 0.500000 0.211384 0.250000
O O13 0.402562 0.150700 0.377970
O O14 0.852890 0.627703 0.086056
O O15 0.520308 0.985693 0.881947
O O16 0.560958 0.087752 0.985842
#
# Coordination Sequence:
#
# PCOD8130283 Si02
#       8
#     8   8   8   8   8   8   4   8
#     4  10  17  31  54  82 101 140 178 232 274 313
#     4   9  16  31  53  77 101 137 179 219 268 326
#     4  10  20  33  54  80 107 141 177 222 277 330
#     4   9  17  30  55  78 103 135 178 226 268 326
#     4   9  18  31  55  74 102 146 175 212 267 329
#     4   9  20  34  53  75 108 142 175 228 268 323
#     4  10  18  32  52  78 110 134 174 228 278 316
#     4   9  18  37  49  73 109 140 179 213 269 330
#
# _framework density 19.991882
#
# number of rings (size 3 to 8) (size 9 to 14) (size 15 to 20)
#    0.000    2.667    2.000    0.800    1.867    0.533 
#    0.000   11.333    8.800    0.000    0.000    0.000 
#    0.000    0.000    0.000    0.000    0.000    0.000 
#
# Total GULP energy -371680.413201 kJ/mol
# GULP energy per Si atom -12389.347107 kJ/mol
# Density = 1.994638 g / cm^3
# Si number density = 19.991882 Si / 1000 Ang^3
#
#
#
# Elastic Constant Matrix: (Units=GPa)
#
#
# Indices 1 2 3 4 5 6 
#
# 1 18.7188 20.2080 17.9566 0.0000 -3.8150 0.0000
# 2 20.2080 135.9759 71.3446 0.0000 -9.0160 0.0000
# 3 17.9566 71.3446 113.4578 0.0000 -0.7790 0.0000
# 4 0.0000 0.0000 0.0000 42.2007 0.0000 -4.8856
# 5 -3.8150 -9.0160 -0.7790 0.0000 30.2217 0.0000
# 6 0.0000 0.0000 0.0000 -4.8856 0.0000 15.5426
#
#
#
# Elastic Compliance Matrix: (Units=1/GPa)
#
#
# Indices 1 2 3 4 5 6 
#
# 1 0.067904 -0.006028 -0.006911 0.000000 0.006595 0.000000
# 2 -0.006028 0.011808 -0.006453 0.000000 0.002595 0.000000
# 3 -0.006911 -0.006453 0.013949 0.000000 -0.002438 0.000000
# 4 0.000000 0.000000 0.000000 0.024591 0.000000 0.007730
# 5 0.006595 0.002595 -0.002438 0.000000 0.034633 0.000000
# 6 0.000000 0.000000 0.000000 0.007730 0.000000 0.066769
#
#
# Mechanical properties :
#
#
# Convention : Reuss Voigt Hill
#
# Bulk Modulus (GPa) = 18.22294 54.13010 36.17652
# Shear Modulus (GPa) = 18.06808 28.16921 23.11865
#
# Velocity S-wave (km/s) = 3.00954 3.75778 3.40428
# Velocity P-wave (km/s) = 4.60558 6.77958 5.79543
#
# Compressibility (1/GPa) = 0.05487589
#
# Stress axis : x y z
#
# Youngs Moduli (GPa) = 14.72671 84.68703 71.69014
#
# Poissons Ratio (x) = 0.51050 0.49546
# Poissons Ratio (y) = 0.08877 0.46264
# Poissons Ratio (z) = 0.10178 0.54652
#
# Static dielectric constant tensor:
#      x y z
#    x 3.462390 0.000000 0.019410 
#    y 0.000000 4.210050 0.000000 
#    z 0.019410 0.000000 4.076640 
# 
# 
# High freq. dielectric constant tensor:
#      x y z
#    x 1.737660 0.000000 0.005830 
#    y 0.000000 1.794810 0.000000 
#    z 0.005830 0.000000 1.778280 
# 
# From -- ./inp_files/146718.got.cif
#   From: 2010.06.25/outbox.cif.g09.slc.cpg/sg15_74_cif.got.tgz:146718.got - 2010.06.28 07:06:18.
