data_PCOD8130662
_publ_section_title
;
Structure prediction by ZEFSAII (Michael W. Deem and Ramdas Pophale) SiO2 
 PCOD8130662
Probable space group: C 2/C
;
_chemical_formula_sum "Si O2"
_cell_formula_units_Z 44
_cell_length_a 27.803840
_cell_length_b 10.862782
_cell_length_c 15.567681
_cell_angle_alpha 90.000000
_cell_angle_beta 29.293412
_cell_angle_gamma 90.000000
_cell_volume 2300.536688
_symmetry_space_group_name_H-M "C 2/C"
_symmetry_group_IT_number 15
_symmetry_cell_setting 'monoclinic'
loop_
_space_group_symop_operation_xyz
x,y,z
-x,y,1/2-z
-x,-y,-z
x,-y,1/2+z
1/2+x,1/2+y,z
1/2-x,1/2+y,1/2-z
1/2-x,1/2-y,-z
1/2+x,1/2-y,1/2+z
loop_
_atom_site_type_symbol
_atom_site_label
_atom_site_fract_x
_atom_site_fract_y
_atom_site_fract_z
Si Si1 0.957520 0.501510 0.226488
Si Si2 0.278028 0.841950 0.560776
Si Si3 0.620051 0.828919 0.938108
Si Si4 0.312095 0.155746 0.348095
Si Si5 0.816586 0.074562 0.446560
Si Si6 0.000000 0.850049 0.750000
O O1 0.882021 0.389003 0.359476
O O2 0.907323 0.613075 0.253497
O O3 0.000000 0.553932 0.250000
O O4 0.049387 0.445907 0.030113
O O5 0.283232 0.867701 0.655438
O O6 0.190864 0.916078 0.647081
O O7 0.264783 0.696805 0.564542
O O8 0.563729 0.728731 0.083707
O O9 0.653627 0.777693 0.793407
O O10 0.250000 0.250000 0.500000
O O11 0.244161 0.041872 0.425629
O O12 0.928484 0.063429 0.304650
#
# Coordination Sequence:
#
# PCOD8130662 Si02
#       6
#     8   8   8   8   8   4
#     4   9  16  36  62  79 104 145 196 227 255 319
#     4   8  15  32  61  84  99 137 194 234 254 311
#     4  10  17  36  59  84 105 139 192 230 262 316
#     4  11  24  37  50  83 125 147 167 219 293 337
#     4   9  17  35  58  78 113 140 179 228 274 318
#     4  10  18  38  64  82 102 136 200 240 254 312
#
# _framework density 19.125971
#
# number of rings (size 3 to 8) (size 9 to 14) (size 15 to 20)
#    0.000    2.545    4.545    0.545    0.000    0.000 
#   21.273    0.909    0.000    0.000    0.000    0.000 
#    0.000    0.000    0.000    0.000    0.000    0.000 
#
# Total GULP energy -272561.430158 kJ/mol
# GULP energy per Si atom -12389.155916 kJ/mol
# Density = 1.908244 g / cm^3
# Si number density = 19.125971 Si / 1000 Ang^3
#
#
#
# Elastic Constant Matrix: (Units=GPa)
#
#
# Indices 1 2 3 4 5 6 
#
# 1 174.3984 36.3335 70.2657 0.0000 -9.9263 0.0000
# 2 36.3335 59.2741 27.2541 0.0000 3.7702 0.0000
# 3 70.2657 27.2541 76.6801 0.0000 17.0146 0.0000
# 4 0.0000 0.0000 0.0000 20.9564 0.0000 -6.6952
# 5 -9.9263 3.7702 17.0146 0.0000 42.2722 0.0000
# 6 0.0000 0.0000 0.0000 -6.6952 0.0000 24.2714
#
#
#
# Elastic Compliance Matrix: (Units=1/GPa)
#
#
# Indices 1 2 3 4 5 6 
#
# 1 0.010973 -0.002186 -0.010863 0.000000 0.007144 0.000000
# 2 -0.002186 0.020657 -0.005289 0.000000 -0.000227 0.000000
# 3 -0.010863 -0.005289 0.027822 0.000000 -0.013278 0.000000
# 4 0.000000 0.000000 0.000000 0.052330 0.000000 0.014435
# 5 0.007144 -0.000227 -0.013278 0.000000 0.030698 0.000000
# 6 0.000000 0.000000 0.000000 0.014435 0.000000 0.045183
#
#
# Mechanical properties :
#
#
# Convention : Reuss Voigt Hill
#
# Bulk Modulus (GPa) = 43.90641 64.22881 54.06761
# Shear Modulus (GPa) = 21.55828 29.26660 25.41244
#
# Velocity S-wave (km/s) = 3.36098 3.91602 3.64907
# Velocity P-wave (km/s) = 6.16992 7.35540 6.78858
#
# Compressibility (1/GPa) = 0.02277572
#
# Stress axis : x y z
#
# Youngs Moduli (GPa) = 91.13435 48.41044 35.94306
#
# Poissons Ratio (x) = 0.10580 0.39046
# Poissons Ratio (y) = 0.19917 0.19010
# Poissons Ratio (z) = 0.99002 0.25604
#
# Static dielectric constant tensor:
#      x y z
#    x 4.291040 0.000000 -0.300060 
#    y 0.000000 3.113290 0.000000 
#    z -0.300060 0.000000 3.134480 
# 
# 
# High freq. dielectric constant tensor:
#      x y z
#    x 1.776860 0.000000 -0.012860 
#    y 0.000000 1.707580 0.000000 
#    z -0.012860 0.000000 1.697150 
# 
# From -- ./inp_files/177499.got.cif
#   From: 2010.06.25/outbox.cif.g09.slc.cpg/sg15_89_cif.got.tgz:177499.got - 2010.06.28 07:06:18.
