data_PCOD8130415
_publ_section_title
;
Structure prediction by ZEFSAII (Michael W. Deem and Ramdas Pophale) SiO2 
 PCOD8130415
Probable space group: C 2/C
;
_chemical_formula_sum "Si O2"
_cell_formula_units_Z 64
_cell_length_a 14.740219
_cell_length_b 12.667931
_cell_length_c 27.344211
_cell_angle_alpha 90.000000
_cell_angle_beta 140.583816
_cell_angle_gamma 90.000000
_cell_volume 3242.005142
_symmetry_space_group_name_H-M "C 2/C"
_symmetry_group_IT_number 15
_symmetry_cell_setting 'monoclinic'
loop_
_space_group_symop_operation_xyz
x,y,z
-x,y,1/2-z
-x,-y,-z
x,-y,1/2+z
1/2+x,1/2+y,z
1/2-x,1/2+y,1/2-z
1/2-x,1/2-y,-z
1/2+x,1/2-y,1/2+z
loop_
_atom_site_type_symbol
_atom_site_label
_atom_site_fract_x
_atom_site_fract_y
_atom_site_fract_z
Si Si1 0.792186 0.407439 0.493624
Si Si2 0.745923 0.236194 0.919676
Si Si3 0.502545 0.238081 0.465747
Si Si4 0.838754 0.453214 0.177727
Si Si5 0.228869 0.345802 0.907135
Si Si6 0.961799 0.836991 0.180147
Si Si7 0.095695 0.921831 0.146561
Si Si8 0.140397 0.102304 0.446975
O O1 0.948960 0.366728 0.543784
O O2 0.749314 0.346200 0.525204
O O3 0.676929 0.389699 0.402445
O O4 0.785978 0.532515 0.501751
O O5 0.657624 0.159823 0.847318
O O6 0.634742 0.316835 0.898556
O O7 0.864804 0.299850 0.938351
O O8 0.842155 0.169697 0.997223
O O9 0.635625 0.276601 0.555331
O O10 0.465624 0.339541 0.417670
O O11 0.760304 0.538335 0.110837
O O12 0.756642 0.450410 0.195973
O O13 0.000000 0.491514 0.250000
O O14 0.078072 0.287686 0.831517
O O15 0.000000 0.881740 0.250000
O O16 0.095690 0.864730 0.199996
O O17 0.000068 0.028788 0.108637
#
# Coordination Sequence:
#
# PCOD8130415 Si02
#       8
#     8   8   8   8   8   8   8   8
#     4  10  18  33  59  86 115 142 188 239 279 330
#     4  10  21  34  54  82 115 147 187 232 277 343
#     4  10  17  32  59  86 108 143 184 235 287 325
#     4  11  23  38  57  83 113 149 190 244 290 331
#     4  11  17  34  60  90 109 138 195 247 275 328
#     4  10  19  33  56  88 116 146 183 233 284 340
#     4  10  19  37  60  80 110 151 193 225 287 343
#     4  10  19  35  57  83 110 148 188 232 275 333
#
# _framework density 19.740870000000001
#
# number of rings (size 3 to 8) (size 9 to 14) (size 15 to 20)
#    0.000    1.750    5.000    1.875    0.000    2.500 
#    0.000   10.000    5.500    0.000    0.000    0.000 
#    0.000    0.000    0.000    0.000    0.000    0.000 
#
# Total GULP energy -396432.529697 kJ/mol
# GULP energy per Si atom -12388.516553 kJ/mol
# Density = 1.969594 g / cm^3
# Si number density = 19.740870 Si / 1000 Ang^3
#
#
#
# Elastic Constant Matrix: (Units=GPa)
#
#
# Indices 1 2 3 4 5 6 
#
# 1 121.2591 34.1714 37.9578 0.0000 -0.6682 0.0000
# 2 34.1714 55.4012 -0.8123 0.0000 6.5145 0.0000
# 3 37.9578 -0.8123 53.8664 0.0000 -6.8170 0.0000
# 4 0.0000 0.0000 0.0000 13.1243 0.0000 1.5240
# 5 -0.6682 6.5145 -6.8170 0.0000 26.0587 0.0000
# 6 0.0000 0.0000 0.0000 1.5240 0.0000 34.0689
#
#
#
# Elastic Compliance Matrix: (Units=1/GPa)
#
#
# Indices 1 2 3 4 5 6 
#
# 1 0.013752 -0.008619 -0.009829 0.000000 -0.000064 0.000000
# 2 -0.008619 0.024004 0.005841 0.000000 -0.004694 0.000000
# 3 -0.009829 0.005841 0.026230 0.000000 0.005150 0.000000
# 4 0.000000 0.000000 0.000000 0.076593 0.000000 -0.003426
# 5 -0.000064 -0.004694 0.005150 0.000000 0.040894 0.000000
# 6 0.000000 0.000000 0.000000 -0.003426 0.000000 0.029506
#
#
# Mechanical properties :
#
#
# Convention : Reuss Voigt Hill
#
# Bulk Modulus (GPa) = 25.79063 41.46227 33.62645
# Shear Modulus (GPa) = 20.07110 25.26435 22.66773
#
# Velocity S-wave (km/s) = 3.19208 3.58131 3.39228
# Velocity P-wave (km/s) = 5.16515 6.17656 5.69336
#
# Compressibility (1/GPa) = 0.03877378
#
# Stress axis : x y z
#
# Youngs Moduli (GPa) = 72.71718 41.66016 38.12413
#
# Poissons Ratio (x) = 0.35906 0.37471
# Poissons Ratio (y) = 0.62673 -0.22270
# Poissons Ratio (z) = 0.71471 -0.24335
#
# Static dielectric constant tensor:
#      x y z
#    x 3.919970 0.000000 -0.005110 
#    y 0.000000 3.715330 0.000000 
#    z -0.005110 0.000000 3.147030 
# 
# 
# High freq. dielectric constant tensor:
#      x y z
#    x 1.773930 0.000000 -0.004340 
#    y 0.000000 1.768080 0.000000 
#    z -0.004340 0.000000 1.727260 
# 
# From -- ./inp_files/313622.got.cif
#   From: 2010.06.25/outbox.cif.g09.slc.cpg/sg15_157_cif.got.tgz:313622.got - 2010.06.28 07:06:18.
