data_PCOD8130508
_publ_section_title
;
Structure prediction by ZEFSAII (Michael W. Deem and Ramdas Pophale) SiO2 
 PCOD8130508
Probable space group: C 2/C
;
_chemical_formula_sum "Si O2"
_cell_formula_units_Z 60
_cell_length_a 13.091688
_cell_length_b 25.173430
_cell_length_c 11.484907
_cell_angle_alpha 90.000000
_cell_angle_beta 110.664625
_cell_angle_gamma 90.000000
_cell_volume 3541.478080
_symmetry_space_group_name_H-M "C 2/C"
_symmetry_group_IT_number 15
_symmetry_cell_setting 'monoclinic'
loop_
_space_group_symop_operation_xyz
x,y,z
-x,y,1/2-z
-x,-y,-z
x,-y,1/2+z
1/2+x,1/2+y,z
1/2-x,1/2+y,1/2-z
1/2-x,1/2-y,-z
1/2+x,1/2-y,1/2+z
loop_
_atom_site_type_symbol
_atom_site_label
_atom_site_fract_x
_atom_site_fract_y
_atom_site_fract_z
Si Si1 0.844289 0.963538 0.240977
Si Si2 0.286915 0.667451 0.086814
Si Si3 0.238348 0.625422 0.826527
Si Si4 0.556444 0.684697 0.654712
Si Si5 0.885572 0.077722 0.270432
Si Si6 0.913768 0.738481 0.526249
Si Si7 0.947194 0.923816 0.060037
Si Si8 0.500000 0.170307 0.750000
O O1 0.750475 0.933196 0.276072
O O2 0.856043 0.931997 0.123381
O O3 0.954438 0.963567 0.364890
O O4 0.816960 0.025270 0.203576
O O5 0.320759 0.631987 0.212564
O O6 0.368040 0.716186 0.094297
O O7 0.284766 0.626911 0.976734
O O8 0.171590 0.695713 0.058981
O O9 0.313402 0.669105 0.786179
O O10 0.109781 0.636540 0.778642
O O11 0.500000 0.702524 0.750000
O O12 0.531881 0.734475 0.562571
O O13 0.492708 0.635034 0.578821
O O14 0.897843 0.068975 0.413095
O O15 0.000000 0.079809 0.250000
O O16 0.001586 0.706255 0.635427
#
# Coordination Sequence:
#
# PCOD8130508 Si02
#       8
#     8   8   8   8   8   8   8   4
#     4  10  19  33  49  74 113 137 169 205 272 322
#     4   9  20  34  50  76 104 138 175 226 264 301
#     4   9  18  36  54  72 105 139 178 214 262 314
#     4  10  17  34  53  73 108 147 162 210 279 323
#     4  12  21  28  52  82 107 140 174 215 263 324
#     4   9  19  35  52  72 104 135 181 225 261 299
#     4  10  19  32  47  78 113 141 167 204 262 333
#     4  10  20  34  58  78  94 136 192 230 250 306
#
# _framework density 16.942079
#
# number of rings (size 3 to 8) (size 9 to 14) (size 15 to 20)
#    0.000    2.133    4.000    3.600    4.667    0.000 
#    0.000    2.000    0.000    3.200    1.733    0.000 
#    0.000    0.000    0.000    0.000    0.000    0.000 
#
# Total GULP energy -371674.326733 kJ/mol
# GULP energy per Si atom -12389.144224 kJ/mol
# Density = 1.690352 g / cm^3
# Si number density = 16.942079 Si / 1000 Ang^3
#
#
#
# Elastic Constant Matrix: (Units=GPa)
#
#
# Indices 1 2 3 4 5 6 
#
# 1 62.5573 28.1010 34.4474 0.0000 -4.8871 0.0000
# 2 28.1010 101.8276 32.5300 0.0000 -0.7648 0.0000
# 3 34.4474 32.5300 77.2894 0.0000 -2.6209 0.0000
# 4 0.0000 0.0000 0.0000 3.6818 0.0000 -2.5305
# 5 -4.8871 -0.7648 -2.6209 0.0000 16.3203 0.0000
# 6 0.0000 0.0000 0.0000 -2.5305 0.0000 9.2072
#
#
#
# Elastic Compliance Matrix: (Units=1/GPa)
#
#
# Indices 1 2 3 4 5 6 
#
# 1 0.022610 -0.003510 -0.008422 0.000000 0.005254 0.000000
# 2 -0.003510 0.011892 -0.003477 0.000000 -0.001052 0.000000
# 3 -0.008422 -0.003477 0.018163 0.000000 0.000232 0.000000
# 4 0.000000 0.000000 0.000000 0.334858 0.000000 0.092031
# 5 0.005254 -0.001052 0.000232 0.000000 0.062835 0.000000
# 6 0.000000 0.000000 0.000000 0.092031 0.000000 0.133904
#
#
# Mechanical properties :
#
#
# Convention : Reuss Voigt Hill
#
# Bulk Modulus (GPa) = 45.76927 47.98124 46.87525
# Shear Modulus (GPa) = 8.03393 15.61492 11.82443
#
# Velocity S-wave (km/s) = 2.17998 3.03919 2.64471
# Velocity P-wave (km/s) = 5.78015 6.37948 6.08720
#
# Compressibility (1/GPa) = 0.02184872
#
# Stress axis : x y z
#
# Youngs Moduli (GPa) = 44.22870 84.09168 55.05707
#
# Poissons Ratio (x) = 0.29513 0.46367
# Poissons Ratio (y) = 0.15523 0.19141
# Poissons Ratio (z) = 0.37248 0.29235
#
# Static dielectric constant tensor:
#      x y z
#    x 2.971770 0.000000 -0.161630 
#    y 0.000000 3.255200 0.000000 
#    z -0.161630 0.000000 3.110960 
# 
# 
# High freq. dielectric constant tensor:
#      x y z
#    x 1.617240 0.000000 -0.018040 
#    y 0.000000 1.655800 0.000000 
#    z -0.018040 0.000000 1.643330 
# 
# From -- ./inp_files/90889.got.cif
#   From: 2010.06.25/outbox.cif.g09.slc.cpg/sg15_46_cif.got.tgz:90889.got - 2010.06.28 07:06:18.
