data_PCOD8130035
_publ_section_title
;
Structure prediction by ZEFSAII (Michael W. Deem and Ramdas Pophale) SiO2 
 PCOD8130035
Probable space group: C 2/C
;
_chemical_formula_sum "Si O2"
_cell_formula_units_Z 56
_cell_length_a 16.858640
_cell_length_b 11.630928
_cell_length_c 22.284668
_cell_angle_alpha 90.000000
_cell_angle_beta 40.291939
_cell_angle_gamma 90.000000
_cell_volume 2825.752773
_symmetry_space_group_name_H-M "C 2/C"
_symmetry_group_IT_number 15
_symmetry_cell_setting 'monoclinic'
loop_
_space_group_symop_operation_xyz
x,y,z
-x,y,1/2-z
-x,-y,-z
x,-y,1/2+z
1/2+x,1/2+y,z
1/2-x,1/2+y,1/2-z
1/2-x,1/2-y,-z
1/2+x,1/2-y,1/2+z
loop_
_atom_site_type_symbol
_atom_site_label
_atom_site_fract_x
_atom_site_fract_y
_atom_site_fract_z
Si Si1 0.257313 0.799895 0.577727
Si Si2 0.932947 0.710821 0.190809
Si Si3 0.672162 0.354353 0.068590
Si Si4 0.500000 0.416220 0.750000
Si Si5 0.500000 0.045450 0.250000
Si Si6 0.211885 0.432463 0.055171
Si Si7 0.603467 0.071815 0.406218
Si Si8 0.322539 0.419153 0.297338
O O1 0.113177 0.837546 0.662321
O O2 0.273142 0.662813 0.562722
O O3 0.323756 0.867167 0.485467
O O4 0.336256 0.827133 0.590199
O O5 0.916667 0.624779 0.255653
O O6 0.950322 0.636396 0.120958
O O7 0.821166 0.801138 0.259102
O O8 0.036814 0.805377 0.143405
O O9 0.709970 0.393555 0.113925
O O10 0.750000 0.250000 0.000000
O O11 0.695984 0.461939 0.010192
O O12 0.553093 0.500468 0.772448
O O13 0.585588 0.970911 0.158070
O O14 0.500000 0.000000 0.500000
O O15 0.713592 0.985940 0.326719
#
# Coordination Sequence:
#
# PCOD8130035 Si02
#       8
#     8   8   8   4   4   8   8   8
#     4  10  22  39  62  94 125 169 213 258 334 390
#     4  12  22  38  63  95 122 167 221 269 317 388
#     4  12  19  37  65  90 121 164 221 270 313 375
#     4  10  16  38  66  88 118 159 221 270 302 394
#     4  12  22  36  60  96 124 157 227 266 314 374
#     4  11  21  37  62  93 125 161 214 273 307 390
#     4  11  24  41  61  88 136 173 208 266 341 393
#     4  11  20  39  63  91 122 165 223 261 320 385
#
# _framework density 19.817727999999999
#
# number of rings (size 3 to 8) (size 9 to 14) (size 15 to 20)
#    0.000    0.857    7.143    2.143    0.000    1.143 
#    0.000    7.857    0.000    0.000    0.000    0.000 
#    0.000    0.000    0.000    0.000    0.000    0.000 
#
# Total GULP energy -346888.589462 kJ/mol
# GULP energy per Si atom -12388.878195 kJ/mol
# Density = 1.977262 g / cm^3
# Si number density = 19.817728 Si / 1000 Ang^3
#
#
#
# Elastic Constant Matrix: (Units=GPa)
#
#
# Indices 1 2 3 4 5 6 
#
# 1 47.2772 23.7705 14.2775 0.0000 5.3953 0.0000
# 2 23.7705 148.2717 43.5174 0.0000 9.3481 0.0000
# 3 14.2775 43.5174 82.9603 0.0000 8.5980 0.0000
# 4 0.0000 0.0000 0.0000 34.1707 0.0000 15.3487
# 5 5.3953 9.3481 8.5980 0.0000 24.1813 0.0000
# 6 0.0000 0.0000 0.0000 15.3487 0.0000 24.2908
#
#
#
# Elastic Compliance Matrix: (Units=1/GPa)
#
#
# Indices 1 2 3 4 5 6 
#
# 1 0.023675 -0.002943 -0.002182 0.000000 -0.003369 0.000000
# 2 -0.002943 0.008402 -0.003771 0.000000 -0.001251 0.000000
# 3 -0.002182 -0.003771 0.014750 0.000000 -0.003300 0.000000
# 4 0.000000 0.000000 0.000000 0.040863 0.000000 -0.025820
# 5 -0.003369 -0.001251 -0.003300 0.000000 0.043763 0.000000
# 6 0.000000 0.000000 0.000000 -0.025820 0.000000 0.057483
#
#
# Mechanical properties :
#
#
# Convention : Reuss Voigt Hill
#
# Bulk Modulus (GPa) = 34.44115 49.07111 41.75613
# Shear Modulus (GPa) = 23.10498 29.65814 26.38156
#
# Velocity S-wave (km/s) = 3.41819 3.87272 3.65253
# Velocity P-wave (km/s) = 5.74416 6.69419 6.23729
#
# Compressibility (1/GPa) = 0.02903504
#
# Stress axis : x y z
#
# Youngs Moduli (GPa) = 42.23908 119.02175 67.79847
#
# Poissons Ratio (x) = 0.35025 0.14791
# Poissons Ratio (y) = 0.12430 0.25568
# Poissons Ratio (z) = 0.09215 0.44885
#
# Static dielectric constant tensor:
#      x y z
#    x 3.297320 0.000000 0.059900 
#    y 0.000000 4.054020 0.000000 
#    z 0.059900 0.000000 3.200870 
# 
# 
# High freq. dielectric constant tensor:
#      x y z
#    x 1.733290 0.000000 0.000220 
#    y 0.000000 1.801970 0.000000 
#    z 0.000220 0.000000 1.778720 
# 
# From -- ./inp_files/277059.got.cif
#   From: 2010.06.25/outbox.cif.g09.slc.cpg/sg15_139_cif.got.tgz:277059.got - 2010.06.28 07:06:18.
