data_PCOD8130183
_publ_section_title
;
Structure prediction by ZEFSAII (Michael W. Deem and Ramdas Pophale) SiO2 
 PCOD8130183
Probable space group: C 2/C
;
_chemical_formula_sum "Si O2"
_cell_formula_units_Z 60
_cell_length_a 12.088853
_cell_length_b 18.927088
_cell_length_c 16.736842
_cell_angle_alpha 90.000000
_cell_angle_beta 60.013810
_cell_angle_gamma 90.000000
_cell_volume 3316.908299
_symmetry_space_group_name_H-M "C 2/C"
_symmetry_group_IT_number 15
_symmetry_cell_setting 'monoclinic'
loop_
_space_group_symop_operation_xyz
x,y,z
-x,y,1/2-z
-x,-y,-z
x,-y,1/2+z
1/2+x,1/2+y,z
1/2-x,1/2+y,1/2-z
1/2-x,1/2-y,-z
1/2+x,1/2-y,1/2+z
loop_
_atom_site_type_symbol
_atom_site_label
_atom_site_fract_x
_atom_site_fract_y
_atom_site_fract_z
Si Si1 0.067728 0.247013 0.649307
Si Si2 0.806554 0.127312 0.379537
Si Si3 0.084560 0.104352 0.820748
Si Si4 0.213333 0.682506 0.842124
Si Si5 0.352394 0.340780 0.038588
Si Si6 0.972324 0.692348 0.024817
Si Si7 0.500000 0.482325 0.750000
Si Si8 0.135903 0.272280 0.202593
O O1 0.216888 0.232314 0.616651
O O2 0.000000 0.283177 0.750000
O O3 0.008307 0.170144 0.657407
O O4 0.042404 0.300231 0.585390
O O5 0.847900 0.118571 0.456840
O O6 0.652776 0.141250 0.424546
O O7 0.867310 0.060709 0.311033
O O8 0.882952 0.192071 0.315601
O O9 0.205742 0.114270 0.716420
O O10 0.115890 0.102298 0.903746
O O11 0.018655 0.030876 0.821693
O O12 0.202320 0.727969 0.764811
O O13 0.076069 0.658567 0.926636
O O14 0.442985 0.271551 0.004155
O O15 0.212126 0.311594 0.106043
O O16 0.000000 0.310960 0.250000
#
# Coordination Sequence:
#
# PCOD8130183 Si02
#       8
#     8   8   8   8   8   8   4   8
#     4   9  16  32  53  76 106 138 180 215 262 317
#     4  11  21  32  49  78 109 140 171 218 277 314
#     4   9  19  36  54  71  99 146 189 213 247 309
#     4  10  17  30  57  79 106 140 174 220 269 324
#     4   9  19  33  51  76 108 134 169 225 267 325
#     4  10  19  30  52  84 113 129 166 230 282 324
#     4  12  22  36  56  66 108 148 188 220 246 328
#     4  10  17  30  51  82 112 136 166 212 281 327
#
# _framework density 18.089134000000001
#
# number of rings (size 3 to 8) (size 9 to 14) (size 15 to 20)
#    0.000    2.133    2.667    6.000    0.000    0.533 
#    0.000    0.667    0.000    0.000    0.000    6.533 
#    0.000    0.000    0.000    0.000    0.000    0.000 
#
# Total GULP energy -371654.395585 kJ/mol
# GULP energy per Si atom -12388.479853 kJ/mol
# Density = 1.804796 g / cm^3
# Si number density = 18.089134 Si / 1000 Ang^3
#
#
#
# Elastic Constant Matrix: (Units=GPa)
#
#
# Indices 1 2 3 4 5 6 
#
# 1 82.3615 17.3031 28.4725 0.0000 0.0617 0.0000
# 2 17.3031 57.9786 23.3134 0.0000 4.3171 0.0000
# 3 28.4725 23.3134 77.4617 0.0000 -4.1099 0.0000
# 4 0.0000 0.0000 0.0000 36.4353 0.0000 10.8717
# 5 0.0617 4.3171 -4.1099 0.0000 41.2892 0.0000
# 6 0.0000 0.0000 0.0000 10.8717 0.0000 27.2366
#
#
#
# Elastic Compliance Matrix: (Units=1/GPa)
#
#
# Indices 1 2 3 4 5 6 
#
# 1 0.014207 -0.002411 -0.004508 0.000000 -0.000218 0.000000
# 2 -0.002411 0.020325 -0.005372 0.000000 -0.002656 0.000000
# 3 -0.004508 -0.005372 0.016300 0.000000 0.002191 0.000000
# 4 0.000000 0.000000 0.000000 0.031157 0.000000 -0.012436
# 5 -0.000218 -0.002656 0.002191 0.000000 0.024716 0.000000
# 6 0.000000 0.000000 0.000000 -0.012436 0.000000 0.041679
#
#
# Mechanical properties :
#
#
# Convention : Reuss Voigt Hill
#
# Bulk Modulus (GPa) = 38.09548 39.55331 38.82440
# Shear Modulus (GPa) = 27.51570 30.90641 29.21106
#
# Velocity S-wave (km/s) = 3.90438 4.13796 4.02287
# Velocity P-wave (km/s) = 6.43671 6.68906 6.56410
#
# Compressibility (1/GPa) = 0.02624983
#
# Stress axis : x y z
#
# Youngs Moduli (GPa) = 70.38956 49.20014 61.35139
#
# Poissons Ratio (x) = 0.11862 0.27656
# Poissons Ratio (y) = 0.16971 0.32957
# Poissons Ratio (z) = 0.31731 0.26430
#
# Static dielectric constant tensor:
#      x y z
#    x 3.632490 0.000000 0.070570 
#    y 0.000000 2.870500 0.000000 
#    z 0.070570 0.000000 3.554530 
# 
# 
# High freq. dielectric constant tensor:
#      x y z
#    x 1.715400 0.000000 0.003710 
#    y 0.000000 1.635810 0.000000 
#    z 0.003710 0.000000 1.713750 
# 
# From -- ./inp_files/199518.got.cif
#   From: 2010.06.25/outbox.cif.g09.slc.cpg/sg15_100_cif.got.tgz:199518.got - 2010.06.28 07:06:18.
