data_PCOD8130155
_publ_section_title
;
Structure prediction by ZEFSAII (Michael W. Deem and Ramdas Pophale) SiO2 
 PCOD8130155
Probable space group: C 2/C
;
_chemical_formula_sum "Si O2"
_cell_formula_units_Z 64
_cell_length_a 29.049307
_cell_length_b 11.965283
_cell_length_c 15.277624
_cell_angle_alpha 90.000000
_cell_angle_beta 39.661369
_cell_angle_gamma 90.000000
_cell_volume 3389.258180
_symmetry_space_group_name_H-M "C 2/C"
_symmetry_group_IT_number 15
_symmetry_cell_setting 'monoclinic'
loop_
_space_group_symop_operation_xyz
x,y,z
-x,y,1/2-z
-x,-y,-z
x,-y,1/2+z
1/2+x,1/2+y,z
1/2-x,1/2+y,1/2-z
1/2-x,1/2-y,-z
1/2+x,1/2-y,1/2+z
loop_
_atom_site_type_symbol
_atom_site_label
_atom_site_fract_x
_atom_site_fract_y
_atom_site_fract_z
Si Si1 0.416022 0.768933 0.957852
Si Si2 0.413424 0.771327 0.770419
Si Si3 0.665177 0.241070 0.622105
Si Si4 0.574002 0.988823 0.004063
Si Si5 0.404835 0.992721 0.223997
Si Si6 0.906132 0.116780 0.126289
Si Si7 0.574992 0.367309 0.410747
Si Si8 0.076794 0.264179 0.088748
O O1 0.390381 0.724591 0.899765
O O2 0.500657 0.771056 0.852662
O O3 0.394539 0.898178 0.000077
O O4 0.378976 0.687083 0.081966
O O5 0.387098 0.698624 0.725754
O O6 0.380728 0.896201 0.810953
O O7 0.750000 0.250000 0.500000
O O8 0.639652 0.116097 0.683327
O O9 0.633367 0.333906 0.732599
O O10 0.638072 0.276126 0.565781
O O11 0.488393 0.971954 0.121289
O O12 0.598068 0.890595 0.033203
O O13 0.608634 0.980075 0.857787
O O14 0.885988 0.987265 0.142007
O O15 0.991135 0.125177 0.013465
O O16 0.583014 0.308768 0.492307
O O17 0.000000 0.253220 0.250000
#
# Coordination Sequence:
#
# PCOD8130155 Si02
#       8
#     8   8   8   8   8   8   8   8
#     4   9  17  28  49  85 123 146 175 236 309 351
#     4   9  17  29  51  87 117 141 184 243 303 339
#     4  12  25  40  58  87 125 160 194 238 302 367
#     4  10  17  29  59  91 115 140 190 254 298 340
#     4  10  17  32  57  86 121 146 184 248 306 340
#     4  10  20  37  56  84 120 158 195 241 289 344
#     4  10  20  35  59  88 115 150 201 252 283 341
#     4  12  21  36  61  91 116 152 201 244 294 346
#
# _framework density 18.883188000000001
#
# number of rings (size 3 to 8) (size 9 to 14) (size 15 to 20)
#    0.000    1.750    5.000    0.750    1.750    1.000 
#    2.250    1.250    0.000    0.750    0.000    0.000 
#    0.000    0.000    0.000    0.000    0.000    0.000 
#
# Total GULP energy -396580.272508 kJ/mol
# GULP energy per Si atom -12393.133516 kJ/mol
# Density = 1.884021 g / cm^3
# Si number density = 18.883188 Si / 1000 Ang^3
#
#
#
# Elastic Constant Matrix: (Units=GPa)
#
#
# Indices 1 2 3 4 5 6 
#
# 1 90.2545 54.0213 46.1380 0.0000 39.2771 0.0000
# 2 54.0213 154.8074 55.0610 0.0000 30.1907 0.0000
# 3 46.1380 55.0610 49.6373 0.0000 31.7175 0.0000
# 4 0.0000 0.0000 0.0000 18.0574 0.0000 6.5655
# 5 39.2771 30.1907 31.7175 0.0000 39.0680 0.0000
# 6 0.0000 0.0000 0.0000 6.5655 0.0000 8.4907
#
#
#
# Elastic Compliance Matrix: (Units=1/GPa)
#
#
# Indices 1 2 3 4 5 6 
#
# 1 0.023841 -0.001404 -0.012427 0.000000 -0.012794 0.000000
# 2 -0.001404 0.010905 -0.013109 0.000000 0.003627 0.000000
# 3 -0.012427 -0.013109 0.066042 0.000000 -0.030993 0.000000
# 4 0.000000 0.000000 0.000000 0.077038 0.000000 -0.059570
# 5 -0.012794 0.003627 -0.030993 0.000000 0.060818 0.000000
# 6 0.000000 0.000000 0.000000 -0.059570 0.000000 0.163838
#
#
# Mechanical properties :
#
#
# Convention : Reuss Voigt Hill
#
# Bulk Modulus (GPa) = 21.31844 67.23776 44.27810
# Shear Modulus (GPa) = 10.59326 22.42181 16.50754
#
# Velocity S-wave (km/s) = 2.37109 3.44960 2.95988
# Velocity P-wave (km/s) = 4.33708 7.17989 5.93132
#
# Compressibility (1/GPa) = 0.04690776
#
# Stress axis : x y z
#
# Youngs Moduli (GPa) = 41.94488 91.70344 15.14183
#
# Poissons Ratio (x) = 0.12878 0.18817
# Poissons Ratio (y) = 0.05890 0.19849
# Poissons Ratio (z) = 0.52125 1.20211
#
# Static dielectric constant tensor:
#      x y z
#    x 3.367730 0.000000 0.458570 
#    y 0.000000 3.789830 0.000000 
#    z 0.458570 0.000000 3.122260 
# 
# 
# High freq. dielectric constant tensor:
#      x y z
#    x 1.713440 0.000000 0.053310 
#    y 0.000000 1.741020 0.000000 
#    z 0.053310 0.000000 1.702810 
# 
# From -- ./inp_files/181750.got.cif
#   From: 2010.06.25/outbox.cif.g09.slc.cpg/sg15_91_cif.got.tgz:181750.got - 2010.06.28 07:06:18.
