data_PCOD8130636
_publ_section_title
;
Structure prediction by ZEFSAII (Michael W. Deem and Ramdas Pophale) SiO2 
 PCOD8130636
Probable space group: C 2/C
;
_chemical_formula_sum "Si O2"
_cell_formula_units_Z 64
_cell_length_a 14.184733
_cell_length_b 14.365466
_cell_length_c 17.171840
_cell_angle_alpha 90.000000
_cell_angle_beta 56.500863
_cell_angle_gamma 90.000000
_cell_volume 2917.888127
_symmetry_space_group_name_H-M "C 2/C"
_symmetry_group_IT_number 15
_symmetry_cell_setting 'monoclinic'
loop_
_space_group_symop_operation_xyz
x,y,z
-x,y,1/2-z
-x,-y,-z
x,-y,1/2+z
1/2+x,1/2+y,z
1/2-x,1/2+y,1/2-z
1/2-x,1/2-y,-z
1/2+x,1/2-y,1/2+z
loop_
_atom_site_type_symbol
_atom_site_label
_atom_site_fract_x
_atom_site_fract_y
_atom_site_fract_z
Si Si1 0.200879 0.447213 0.370324
Si Si2 0.238410 0.353572 0.844034
Si Si3 0.840773 0.816304 0.207042
Si Si4 0.494385 0.829740 0.462090
Si Si5 0.134673 0.800267 0.574770
Si Si6 0.578878 0.251400 0.079793
Si Si7 0.621104 0.452737 0.454487
Si Si8 0.240522 0.595103 0.022182
O O1 0.242001 0.541529 0.307438
O O2 0.283680 0.363656 0.307120
O O3 0.072113 0.418867 0.405228
O O4 0.208306 0.464137 0.459881
O O5 0.232926 0.274592 0.781080
O O6 0.352567 0.331615 0.841250
O O7 0.125848 0.358353 0.948148
O O8 0.845616 0.888628 0.133277
O O9 0.963468 0.778822 0.175814
O O10 0.470519 0.769709 0.394284
O O11 0.559217 0.767532 0.496793
O O12 0.250000 0.750000 0.500000
O O13 0.113193 0.891847 0.534962
O O14 0.633707 0.159783 0.095722
O O15 0.658325 0.339353 0.051002
O O16 0.500000 0.500000 0.500000
O O17 0.720516 0.528924 0.424467
#
# Coordination Sequence:
#
# PCOD8130636 Si02
#       8
#     8   8   8   8   8   8   8   8
#     4  11  23  38  60  92 123 164 206 264 321 372
#     4  10  20  40  62  88 118 166 215 255 305 395
#     4  11  23  41  59  89 137 156 199 275 332 353
#     4   9  18  36  65  87 116 161 208 251 306 377
#     4  10  17  35  65  90 113 153 206 252 297 354
#     4   9  18  38  56  87 118 160 199 253 300 377
#     4  12  20  37  65  93 123 163 211 257 304 382
#     4  10  20  35  64  89 116 161 223 241 297 389
#
# _framework density 21.933671
#
# number of rings (size 3 to 8) (size 9 to 14) (size 15 to 20)
#    0.000    1.750    6.250    0.375    0.000    0.500 
#    9.000    0.625    0.000    0.000    0.000    0.000 
#    0.000    0.000    0.000    0.000    0.000    0.000 
#
# Total GULP energy -396604.688633 kJ/mol
# GULP energy per Si atom -12393.896520 kJ/mol
# Density = 2.188375 g / cm^3
# Si number density = 21.933671 Si / 1000 Ang^3
#
#
#
# Elastic Constant Matrix: (Units=GPa)
#
#
# Indices 1 2 3 4 5 6 
#
# 1 131.3965 50.5693 8.1731 0.0000 -1.0972 0.0000
# 2 50.5693 127.8124 6.3966 0.0000 2.3484 0.0000
# 3 8.1731 6.3966 26.0974 0.0000 -4.6537 0.0000
# 4 0.0000 0.0000 0.0000 22.3973 0.0000 3.6042
# 5 -1.0972 2.3484 -4.6537 0.0000 13.6517 0.0000
# 6 0.0000 0.0000 0.0000 3.6042 0.0000 53.1620
#
#
#
# Elastic Compliance Matrix: (Units=1/GPa)
#
#
# Indices 1 2 3 4 5 6 
#
# 1 0.009084 -0.003514 -0.001859 0.000000 0.000701 0.000000
# 2 -0.003514 0.009341 -0.001624 0.000000 -0.002443 0.000000
# 3 -0.001859 -0.001624 0.041866 0.000000 0.014402 0.000000
# 4 0.000000 0.000000 0.000000 0.045141 0.000000 -0.003060
# 5 0.000701 -0.002443 0.014402 0.000000 0.078637 0.000000
# 6 0.000000 0.000000 0.000000 -0.003060 0.000000 0.019018
#
#
# Mechanical properties :
#
#
# Convention : Reuss Voigt Hill
#
# Bulk Modulus (GPa) = 21.59983 46.17602 33.88792
# Shear Modulus (GPa) = 21.50410 32.52002 27.01206
#
# Velocity S-wave (km/s) = 3.13456 3.85470 3.51313
# Velocity P-wave (km/s) = 4.79268 6.39608 5.65153
#
# Compressibility (1/GPa) = 0.04629667
#
# Stress axis : x y z
#
# Youngs Moduli (GPa) = 110.07778 107.06017 23.88556
#
# Poissons Ratio (x) = 0.37623 0.04440
# Poissons Ratio (y) = 0.38683 0.03880
# Poissons Ratio (z) = 0.20460 0.17392
#
# Static dielectric constant tensor:
#      x y z
#    x 4.421730 0.000000 0.035300 
#    y 0.000000 4.230300 0.000000 
#    z 0.035300 0.000000 3.311850 
# 
# 
# High freq. dielectric constant tensor:
#      x y z
#    x 1.883360 0.000000 0.001030 
#    y 0.000000 1.879540 0.000000 
#    z 0.001030 0.000000 1.797750 
# 
# From -- ./inp_files/205416.got.cif
#   From: 2010.06.25/outbox.cif.g09.slc.cpg/sg15_103_cif.got.tgz:205416.got - 2010.06.28 07:06:18.
