data_PCOD8130850
_publ_section_title
;
Structure prediction by ZEFSAII (Michael W. Deem and Ramdas Pophale) SiO2 
 PCOD8130850
Probable space group: C 2/C
;
_chemical_formula_sum "Si O2"
_cell_formula_units_Z 52
_cell_length_a 9.094305
_cell_length_b 18.733844
_cell_length_c 24.499055
_cell_angle_alpha 90.000000
_cell_angle_beta 139.300604
_cell_angle_gamma 90.000000
_cell_volume 2721.783405
_symmetry_space_group_name_H-M "C 2/C"
_symmetry_group_IT_number 15
_symmetry_cell_setting 'monoclinic'
loop_
_space_group_symop_operation_xyz
x,y,z
-x,y,1/2-z
-x,-y,-z
x,-y,1/2+z
1/2+x,1/2+y,z
1/2-x,1/2+y,1/2-z
1/2-x,1/2-y,-z
1/2+x,1/2-y,1/2+z
loop_
_atom_site_type_symbol
_atom_site_label
_atom_site_fract_x
_atom_site_fract_y
_atom_site_fract_z
Si Si1 0.053564 0.623064 0.189917
Si Si2 0.862637 0.434539 0.899687
Si Si3 0.804347 0.957463 0.851627
Si Si4 0.000000 0.750269 0.250000
Si Si5 0.361072 0.864334 0.322756
Si Si6 0.500000 0.088632 0.750000
Si Si7 0.000000 0.976251 0.250000
Si Si8 0.820232 0.566453 0.506985
O O1 0.120018 0.623029 0.144585
O O2 0.255296 0.589588 0.283356
O O3 0.836752 0.573301 0.137134
O O4 0.992377 0.702743 0.192879
O O5 0.622112 0.475546 0.829865
O O6 0.064833 0.490265 0.952448
O O7 0.869616 0.398621 0.961199
O O8 0.722273 0.039324 0.821477
O O9 0.059056 0.949258 0.942312
O O10 0.772361 0.796429 0.191310
O O11 0.454148 0.857488 0.287502
O O12 0.578515 0.877014 0.422013
O O13 0.190515 0.931089 0.273190
#
# Coordination Sequence:
#
# PCOD8130850 Si02
#       8
#     8   8   8   4   8   4   4   8
#     4   9  19  36  55  71  97 147 184 199 241 316
#     4  10  18  29  51  82 109 134 167 203 262 324
#     4   9  17  32  53  79 109 130 160 216 270 313
#     4   9  21  42  54  64  99 147 188 218 242 293
#     4  10  20  34  53  76 105 139 176 216 261 305
#     4  10  19  32  54  80 101 136 180 210 260 330
#     4   9  16  32  54  78 110 139 166 208 260 323
#     4  10  19  30  50  85 115 127 152 219 280 307
#
# _framework density 19.105121
#
# number of rings (size 3 to 8) (size 9 to 14) (size 15 to 20)
#    0.000    2.769    0.000    5.538    0.000    3.692 
#    0.000    7.692    0.000    0.000    0.000    0.000 
#    0.000    0.000    0.000    0.000    0.000    0.000 
#
# Total GULP energy -322211.275059 kJ/mol
# GULP energy per Si atom -12392.741348 kJ/mol
# Density = 1.906164 g / cm^3
# Si number density = 19.105121 Si / 1000 Ang^3
#
#
#
# Elastic Constant Matrix: (Units=GPa)
#
#
# Indices 1 2 3 4 5 6 
#
# 1 98.4676 30.1643 52.4107 0.0004 -18.7228 0.0004
# 2 30.1643 64.2358 26.4417 0.0001 -2.5122 0.0000
# 3 52.4107 26.4417 119.5666 0.0003 15.6739 0.0002
# 4 0.0004 0.0001 0.0003 9.6036 0.0004 -1.1901
# 5 -18.7228 -2.5122 15.6739 0.0004 39.7621 0.0003
# 6 0.0004 0.0000 0.0002 -1.1901 0.0003 18.1797
#
#
#
# Elastic Compliance Matrix: (Units=1/GPa)
#
#
# Indices 1 2 3 4 5 6 
#
# 1 0.018364 -0.004641 -0.008561 -0.000001 0.011728 -0.000001
# 2 -0.004641 0.018582 -0.002048 0.000000 -0.000204 0.000000
# 3 -0.008561 -0.002048 0.013829 0.000000 -0.009612 0.000000
# 4 -0.000001 0.000000 0.000000 0.104979 -0.000002 0.006872
# 5 0.011728 -0.000204 -0.009612 -0.000002 0.034448 -0.000001
# 6 -0.000001 0.000000 0.000000 0.006872 -0.000001 0.055456
#
#
# Mechanical properties :
#
#
# Convention : Reuss Voigt Hill
#
# Bulk Modulus (GPa) = 49.32165 55.58925 52.45545
# Shear Modulus (GPa) = 17.67304 25.05933 21.36619
#
# Velocity S-wave (km/s) = 3.04475 3.62561 3.34780
# Velocity P-wave (km/s) = 6.18326 6.83274 6.51610
#
# Compressibility (1/GPa) = 0.02027507
#
# Stress axis : x y z
#
# Youngs Moduli (GPa) = 54.45454 53.81505 72.31150
#
# Poissons Ratio (x) = 0.24975 0.61904
# Poissons Ratio (y) = 0.25272 0.14812
# Poissons Ratio (z) = 0.46617 0.11023
#
# Static dielectric constant tensor:
#      x y z
#    x 3.513320 0.000000 -0.005340 
#    y 0.000000 3.158960 0.000000 
#    z -0.005340 0.000000 3.575340 
# 
# 
# High freq. dielectric constant tensor:
#      x y z
#    x 1.755510 0.000000 0.003320 
#    y 0.000000 1.693710 0.000000 
#    z 0.003320 0.000000 1.740620 
# 
# From -- ./inp_files/182937.got.cif
#   From: 2010.06.25/outbox.cif.g09.slc.cpg/sg15_92_cif.got.tgz:182937.got - 2010.06.28 07:06:18.
