data_PCOD8130882
_publ_section_title
;
Structure prediction by ZEFSAII (Michael W. Deem and Ramdas Pophale) SiO2 
 PCOD8130882
Probable space group: C 2/C
;
_chemical_formula_sum "Si O2"
_cell_formula_units_Z 60
_cell_length_a 14.905047
_cell_length_b 22.066264
_cell_length_c 19.780683
_cell_angle_alpha 90.000000
_cell_angle_beta 31.858706
_cell_angle_gamma 90.000000
_cell_volume 3433.954159
_symmetry_space_group_name_H-M "C 2/C"
_symmetry_group_IT_number 15
_symmetry_cell_setting 'monoclinic'
loop_
_space_group_symop_operation_xyz
x,y,z
-x,y,1/2-z
-x,-y,-z
x,-y,1/2+z
1/2+x,1/2+y,z
1/2-x,1/2+y,1/2-z
1/2-x,1/2-y,-z
1/2+x,1/2-y,1/2+z
loop_
_atom_site_type_symbol
_atom_site_label
_atom_site_fract_x
_atom_site_fract_y
_atom_site_fract_z
Si Si1 0.711510 0.156220 0.504704
Si Si2 0.060553 0.521948 0.374247
Si Si3 0.800706 0.737765 0.866948
Si Si4 0.171457 0.357483 0.255324
Si Si5 0.830189 0.412498 0.107108
Si Si6 0.306464 0.517990 0.614240
Si Si7 0.000000 0.054554 0.750000
Si Si8 0.276627 0.473548 0.977429
O O1 0.719402 0.195106 0.429351
O O2 0.782341 0.196030 0.521528
O O3 0.521741 0.134796 0.645302
O O4 0.825323 0.095975 0.428718
O O5 0.159534 0.478585 0.363757
O O6 0.190827 0.531329 0.228751
O O7 0.995962 0.585463 0.450300
O O8 0.891998 0.488678 0.456033
O O9 0.758507 0.706193 0.821172
O O10 0.000000 0.745578 0.750000
O O11 0.168604 0.357683 0.339327
O O12 0.280085 0.414007 0.159120
O O13 0.654661 0.404416 0.178390
O O14 0.500000 0.500000 0.500000
O O15 0.247215 0.515438 0.575193
O O16 0.064146 0.013591 0.647107
#
# Coordination Sequence:
#
# PCOD8130882 Si02
#       8
#     8   8   8   8   8   8   4   8
#     4  10  18  30  47  70  96 135 175 204 255 306
#     4   9  18  29  47  67  94 132 176 205 244 320
#     4   9  19  31  47  71 100 127 176 219 248 310
#     4  10  18  33  52  65  99 138 166 213 268 303
#     4   9  17  32  47  69  97 132 169 213 254 320
#     4  11  20  30  46  71 101 136 180 212 247 308
#     4  10  22  30  44  76 108 128 172 212 256 312
#     4  11  18  30  48  68 100 142 168 205 260 301
#
# _framework density 17.472569
#
# number of rings (size 3 to 8) (size 9 to 14) (size 15 to 20)
#    0.000    2.133    4.000    2.000    0.933    0.000 
#    0.000    0.000    0.000    0.000    0.000    0.933 
#    0.000    0.000    0.000    0.000    0.000    0.400 
#
# Total GULP energy -371654.917946 kJ/mol
# GULP energy per Si atom -12388.497265 kJ/mol
# Density = 1.743280 g / cm^3
# Si number density = 17.472569 Si / 1000 Ang^3
#
#
#
# Elastic Constant Matrix: (Units=GPa)
#
#
# Indices 1 2 3 4 5 6 
#
# 1 83.1031 26.1903 29.6903 -0.0320 12.9569 0.0346
# 2 26.1903 54.0616 33.1319 -0.0309 15.0325 0.0387
# 3 29.6903 33.1319 91.7661 -0.0194 16.2480 0.0486
# 4 -0.0320 -0.0309 -0.0194 24.7025 0.0260 11.2895
# 5 12.9569 15.0325 16.2480 0.0260 34.2106 -0.0278
# 6 0.0346 0.0387 0.0486 11.2895 -0.0278 25.5462
#
#
#
# Elastic Compliance Matrix: (Units=1/GPa)
#
#
# Indices 1 2 3 4 5 6 
#
# 1 0.014887 -0.004992 -0.002625 0.000022 -0.002198 -0.000020
# 2 -0.004992 0.027043 -0.006965 0.000052 -0.006684 -0.000051
# 3 -0.002625 -0.006965 0.014787 0.000013 -0.002968 -0.000023
# 4 0.000022 0.000052 0.000013 0.050727 -0.000094 -0.022418
# 5 -0.002198 -0.006684 -0.002968 -0.000094 0.034410 0.000098
# 6 -0.000020 -0.000051 -0.000023 -0.022418 0.000098 0.049052
#
#
# Mechanical properties :
#
#
# Convention : Reuss Voigt Hill
#
# Bulk Modulus (GPa) = 36.29415 45.21730 40.75573
# Shear Modulus (GPa) = 21.80971 26.21974 24.01472
#
# Velocity S-wave (km/s) = 3.53686 3.87799 3.71134
# Velocity P-wave (km/s) = 6.12342 6.78137 6.46078
#
# Compressibility (1/GPa) = 0.02755265
#
# Stress axis : x y z
#
# Youngs Moduli (GPa) = 67.17219 36.97779 67.62756
#
# Poissons Ratio (x) = 0.18460 0.17752
# Poissons Ratio (y) = 0.33533 0.47104
# Poissons Ratio (z) = 0.17633 0.25756
#
# Static dielectric constant tensor:
#      x y z
#    x 3.290730 0.000000 0.369400 
#    y 0.000000 3.073420 0.000070 
#    z 0.369400 0.000070 3.598480 
# 
# 
# High freq. dielectric constant tensor:
#      x y z
#    x 1.661450 0.000000 0.017250 
#    y 0.000000 1.625150 0.000010 
#    z 0.017250 0.000010 1.684750 
# 
# From -- ./inp_files/245579.got.cif
#   From: 2010.06.25/outbox.cif.g09.slc.cpg/sg15_123_cif.got.tgz:245579.got - 2010.06.28 07:06:18.
