data_PCOD8130195
_publ_section_title
;
Structure prediction by ZEFSAII (Michael W. Deem and Ramdas Pophale) SiO2 
 PCOD8130195
Probable space group: C 2/C
;
_chemical_formula_sum "Si O2"
_cell_formula_units_Z 48
_cell_length_a 6.444978
_cell_length_b 19.710958
_cell_length_c 23.340236
_cell_angle_alpha 90.000000
_cell_angle_beta 57.970550
_cell_angle_gamma 90.000000
_cell_volume 2513.710914
_symmetry_space_group_name_H-M "C 2/C"
_symmetry_group_IT_number 15
_symmetry_cell_setting 'monoclinic'
loop_
_space_group_symop_operation_xyz
x,y,z
-x,y,1/2-z
-x,-y,-z
x,-y,1/2+z
1/2+x,1/2+y,z
1/2-x,1/2+y,1/2-z
1/2-x,1/2-y,-z
1/2+x,1/2-y,1/2+z
loop_
_atom_site_type_symbol
_atom_site_label
_atom_site_fract_x
_atom_site_fract_y
_atom_site_fract_z
Si Si1 0.789681 0.998709 0.355073
Si Si2 0.007803 0.070325 0.567729
Si Si3 0.256510 0.166345 0.812278
Si Si4 0.722887 0.402057 0.802565
Si Si5 0.500000 0.704445 0.250000
Si Si6 0.281218 0.062281 0.417406
Si Si7 0.000000 0.895593 0.250000
O O1 0.777944 0.943731 0.305458
O O2 0.798708 0.959792 0.414741
O O3 0.573920 0.053980 0.382744
O O4 0.048737 0.036787 0.309576
O O5 0.841599 0.132504 0.615073
O O6 0.165058 0.097137 0.490658
O O7 0.818577 0.013571 0.574931
O O8 0.500000 0.130645 0.750000
O O9 0.306180 0.247171 0.812656
O O10 0.055884 0.154704 0.793330
O O11 0.645319 0.336782 0.777171
O O12 0.709997 0.390495 0.873475
O O13 0.000000 0.424199 0.750000
#
# Coordination Sequence:
#
# PCOD8130195 Si02
#       7
#     8   8   8   8   4   8   4
#     4  10  19  32  56  86 114 141 175 227 282 336
#     4   9  19  34  54  87 117 145 173 222 281 341
#     4   9  20  34  53  76 108 139 184 224 270 318
#     4  11  22  37  56  79 108 145 190 230 272 322
#     4  10  23  36  54  76 105 148 194 232 266 308
#     4  10  19  33  57  83 116 145 177 220 282 337
#     4  10  17  30  52  82 103 136 176 224 282 324
#
# _framework density 19.095275000000001
#
# number of rings (size 3 to 8) (size 9 to 14) (size 15 to 20)
#    0.500    1.667    0.000    4.000    1.167    4.667 
#    0.000    0.833    0.000    4.000    0.000    0.000 
#    0.000    0.000    0.000    0.000    0.000    0.000 
#
# Total GULP energy -297341.772028 kJ/mol
# GULP energy per Si atom -12389.240501 kJ/mol
# Density = 1.905181 g / cm^3
# Si number density = 19.095275 Si / 1000 Ang^3
#
#
#
# Elastic Constant Matrix: (Units=GPa)
#
#
# Indices 1 2 3 4 5 6 
#
# 1 91.5078 33.2933 44.9801 0.0000 -2.7852 0.0000
# 2 33.2933 64.8842 44.2829 0.0000 5.6377 0.0000
# 3 44.9801 44.2829 111.6570 0.0000 4.9358 0.0000
# 4 0.0000 0.0000 0.0000 22.2352 0.0000 2.0414
# 5 -2.7852 5.6377 4.9358 0.0000 28.0825 0.0000
# 6 0.0000 0.0000 0.0000 2.0414 0.0000 26.2870
#
#
#
# Elastic Compliance Matrix: (Units=1/GPa)
#
#
# Indices 1 2 3 4 5 6 
#
# 1 0.014915 -0.005122 -0.004120 0.000000 0.003232 0.000000
# 2 -0.005122 0.023110 -0.006928 0.000000 -0.003930 0.000000
# 3 -0.004120 -0.006928 0.013424 0.000000 -0.001377 0.000000
# 4 0.000000 0.000000 0.000000 0.045297 0.000000 -0.003518
# 5 0.003232 -0.003930 -0.001377 0.000000 0.036961 0.000000
# 6 0.000000 0.000000 0.000000 -0.003518 0.000000 0.038315
#
#
# Mechanical properties :
#
#
# Convention : Reuss Voigt Hill
#
# Bulk Modulus (GPa) = 52.33159 57.01796 54.67477
# Shear Modulus (GPa) = 23.72676 25.02047 24.37361
#
# Velocity S-wave (km/s) = 3.52880 3.62373 3.57658
# Velocity P-wave (km/s) = 6.63839 6.88717 6.76392
#
# Compressibility (1/GPa) = 0.01910892
#
# Stress axis : x y z
#
# Youngs Moduli (GPa) = 67.04624 43.27058 74.49203
#
# Poissons Ratio (x) = 0.22164 0.30689
# Poissons Ratio (y) = 0.34343 0.51611
# Poissons Ratio (z) = 0.27622 0.29979
#
# Static dielectric constant tensor:
#      x y z
#    x 3.521180 0.000000 0.135910 
#    y 0.000000 3.125190 0.000000 
#    z 0.135910 0.000000 3.718530 
# 
# 
# High freq. dielectric constant tensor:
#      x y z
#    x 1.747560 0.000000 0.009640 
#    y 0.000000 1.703040 0.000000 
#    z 0.009640 0.000000 1.744310 
# 
# From -- ./inp_files/261005.got.cif
#   From: 2010.06.25/outbox.cif.g09.slc.cpg/sg15_131_cif.got.tgz:261005.got - 2010.06.28 07:06:18.
