data_PCOD8130651
_publ_section_title
;
Structure prediction by ZEFSAII (Michael W. Deem and Ramdas Pophale) SiO2 
 PCOD8130651
Probable space group: C 2/C
;
_chemical_formula_sum "Si O2"
_cell_formula_units_Z 52
_cell_length_a 10.475383
_cell_length_b 16.389883
_cell_length_c 20.989801
_cell_angle_alpha 90.000000
_cell_angle_beta 132.728241
_cell_angle_gamma 90.000000
_cell_volume 2647.240071
_symmetry_space_group_name_H-M "C 2/C"
_symmetry_group_IT_number 15
_symmetry_cell_setting 'monoclinic'
loop_
_space_group_symop_operation_xyz
x,y,z
-x,y,1/2-z
-x,-y,-z
x,-y,1/2+z
1/2+x,1/2+y,z
1/2-x,1/2+y,1/2-z
1/2-x,1/2-y,-z
1/2+x,1/2-y,1/2+z
loop_
_atom_site_type_symbol
_atom_site_label
_atom_site_fract_x
_atom_site_fract_y
_atom_site_fract_z
Si Si1 0.767078 0.245852 0.274204
Si Si2 0.500000 0.350451 0.250000
Si Si3 0.000000 0.556985 0.750000
Si Si4 0.290781 0.559832 0.296357
Si Si5 0.154729 0.099939 0.415215
Si Si6 0.500000 0.292085 0.750000
Si Si7 0.041749 0.367013 0.398050
Si Si8 0.728292 0.018760 0.642497
O O1 0.589071 0.295962 0.224655
O O2 0.725679 0.153226 0.280512
O O3 0.831981 0.255722 0.222123
O O4 0.922048 0.287050 0.369374
O O5 0.644005 0.406762 0.331776
O O6 0.165893 0.499916 0.792692
O O7 0.052076 0.615521 0.826003
O O8 0.488731 0.553848 0.390834
O O9 0.302672 0.534440 0.226276
O O10 0.068006 0.160777 0.335119
O O11 0.267366 0.146566 0.507083
O O12 0.284688 0.038141 0.423553
O O13 0.960208 0.446966 0.403685
#
# Coordination Sequence:
#
# PCOD8130651 Si02
#       8
#     8   4   4   8   8   4   8   8
#     4  10  20  36  54  88 107 154 183 242 274 340
#     4  10  18  32  61  79 114 142 196 230 288 318
#     4  10  22  40  51  89 114 148 178 242 284 334
#     4  10  19  34  62  75 116 149 188 218 291 335
#     4  11  18  36  59  84 104 153 190 227 267 347
#     4  10  20  34  60  80 116 146 194 226 286 332
#     4  10  23  33  59  82 117 139 190 233 284 318
#     4  10  17  36  56  84 105 149 186 234 266 343
#
# _framework density 19.643098999999999
#
# number of rings (size 3 to 8) (size 9 to 14) (size 15 to 20)
#    0.000    1.846    4.615    1.385    0.000    3.077 
#    0.000    0.000    3.385    1.846    0.000    0.000 
#    0.000    0.000    0.000    0.000    0.000    0.000 
#
# Total GULP energy -322129.146352 kJ/mol
# GULP energy per Si atom -12389.582552 kJ/mol
# Density = 1.959839 g / cm^3
# Si number density = 19.643099 Si / 1000 Ang^3
#
#
#
# Elastic Constant Matrix: (Units=GPa)
#
#
# Indices 1 2 3 4 5 6 
#
# 1 104.6968 21.9495 30.8658 0.0000 -0.9276 0.0000
# 2 21.9495 80.3539 25.6157 0.0000 -4.2652 0.0000
# 3 30.8658 25.6157 110.5664 0.0000 10.0472 0.0000
# 4 0.0000 0.0000 0.0000 11.1986 0.0000 -0.6470
# 5 -0.9276 -4.2652 10.0472 0.0000 19.1217 0.0000
# 6 0.0000 0.0000 0.0000 -0.6470 0.0000 41.3627
#
#
#
# Elastic Compliance Matrix: (Units=1/GPa)
#
#
# Indices 1 2 3 4 5 6 
#
# 1 0.010775 -0.002012 -0.002677 0.000000 0.001480 0.000000
# 2 -0.002012 0.014258 -0.003173 0.000000 0.004750 0.000000
# 3 -0.002677 -0.003173 0.011134 0.000000 -0.006688 0.000000
# 4 0.000000 0.000000 0.000000 0.089377 0.000000 0.001398
# 5 0.001480 0.004750 -0.006688 0.000000 0.056942 0.000000
# 6 0.000000 0.000000 0.000000 0.001398 0.000000 0.024198
#
#
# Mechanical properties :
#
#
# Convention : Reuss Voigt Hill
#
# Bulk Modulus (GPa) = 48.91174 50.27545 49.59359
# Shear Modulus (GPa) = 21.81273 28.81567 25.31420
#
# Velocity S-wave (km/s) = 3.33596 3.83425 3.59375
# Velocity P-wave (km/s) = 6.30813 6.72696 6.52091
#
# Compressibility (1/GPa) = 0.02044499
#
# Stress axis : x y z
#
# Youngs Moduli (GPa) = 92.80489 70.13510 89.81116
#
# Poissons Ratio (x) = 0.14108 0.24038
# Poissons Ratio (y) = 0.18668 0.28501
# Poissons Ratio (z) = 0.24840 0.22257
#
# Static dielectric constant tensor:
#      x y z
#    x 3.891410 0.000000 0.133360 
#    y 0.000000 3.758390 0.000000 
#    z 0.133360 0.000000 3.176930 
# 
# 
# High freq. dielectric constant tensor:
#      x y z
#    x 1.774450 0.000000 0.015560 
#    y 0.000000 1.778000 0.000000 
#    z 0.015560 0.000000 1.722440 
# 
# From -- ./inp_files/145071.got.cif
#   From: 2010.06.25/outbox.cif.g09.slc.cpg/sg15_73_cif.got.tgz:145071.got - 2010.06.28 07:06:18.
