data_PCOD8130361
_publ_section_title
;
Structure prediction by ZEFSAII (Michael W. Deem and Ramdas Pophale) SiO2 
 PCOD8130361
Probable space group: C 2/C
;
_chemical_formula_sum "Si O2"
_cell_formula_units_Z 60
_cell_length_a 20.790915
_cell_length_b 13.323705
_cell_length_c 25.667022
_cell_angle_alpha 90.000000
_cell_angle_beta 152.150311
_cell_angle_gamma 90.000000
_cell_volume 3321.496504
_symmetry_space_group_name_H-M "C 2/C"
_symmetry_group_IT_number 15
_symmetry_cell_setting 'monoclinic'
loop_
_space_group_symop_operation_xyz
x,y,z
-x,y,1/2-z
-x,-y,-z
x,-y,1/2+z
1/2+x,1/2+y,z
1/2-x,1/2+y,1/2-z
1/2-x,1/2-y,-z
1/2+x,1/2-y,1/2+z
loop_
_atom_site_type_symbol
_atom_site_label
_atom_site_fract_x
_atom_site_fract_y
_atom_site_fract_z
Si Si1 0.934316 0.331134 0.652889
Si Si2 0.000000 0.050036 0.250000
Si Si3 0.312628 0.380123 0.081551
Si Si4 0.664213 0.804133 0.742165
Si Si5 0.082764 0.713967 0.070909
Si Si6 0.696262 0.119666 0.607844
Si Si7 0.157549 0.084978 0.262919
Si Si8 0.056651 0.906761 0.575605
O O1 0.784897 0.380824 0.538890
O O2 0.917764 0.212089 0.651855
O O3 0.000000 0.383922 0.750000
O O4 0.033019 0.354645 0.675088
O O5 0.073672 0.111478 0.256270
O O6 0.103506 0.981926 0.357226
O O7 0.204820 0.376572 0.051882
O O8 0.615720 0.755033 0.653423
O O9 0.714145 0.714239 0.812803
O O10 0.783273 0.888274 0.823454
O O11 0.224330 0.669111 0.150480
O O12 0.960131 0.630804 0.983145
O O13 0.037989 0.810733 0.005566
O O14 0.766301 0.021414 0.681367
O O15 0.058228 0.082070 0.140295
O O16 0.000000 0.000000 0.500000
#
# Coordination Sequence:
#
# PCOD8130361 Si02
#       8
#     8   4   8   8   8   8   8   8
#     4  11  18  28  44  77 116 151 178 204 260 324
#     4  10  20  38  54  78 106 142 192 230 282 314
#     4  10  19  28  49  76 112 146 177 211 261 338
#     4  10  19  31  51  79 115 146 176 213 265 330
#     4  10  20  35  54  79 106 140 182 223 277 322
#     4  10  17  32  53  80 111 141 175 218 265 325
#     4  10  21  36  57  81 105 139 187 231 270 329
#     4  10  22  37  56  82 108 144 181 228 279 327
#
# _framework density 18.064146000000001
#
# number of rings (size 3 to 8) (size 9 to 14) (size 15 to 20)
#    0.000    1.867    3.333    2.000    0.000    1.067 
#    0.000    0.667    0.000    0.000    1.733    0.000 
#    0.000    0.000    0.000    0.000    0.000    0.000 
#
# Total GULP energy -371698.786176 kJ/mol
# GULP energy per Si atom -12389.959539 kJ/mol
# Density = 1.802303 g / cm^3
# Si number density = 18.064146 Si / 1000 Ang^3
#
#
#
# Elastic Constant Matrix: (Units=GPa)
#
#
# Indices 1 2 3 4 5 6 
#
# 1 107.6325 25.5231 39.4417 0.0036 2.2612 0.0022
# 2 25.5231 44.2282 20.5211 0.0138 1.1544 0.0070
# 3 39.4417 20.5211 115.8628 0.0140 -3.7034 0.0072
# 4 0.0036 0.0138 0.0140 -2.7874 0.0081 -13.4684
# 5 2.2612 1.1544 -3.7034 0.0081 21.9190 0.0040
# 6 0.0022 0.0070 0.0072 -13.4684 0.0040 16.0192
#
#
#
# Elastic Compliance Matrix: (Units=1/GPa)
#
#
# Indices 1 2 3 4 5 6 
#
# 1 0.011709 -0.005282 -0.003097 -0.000008 -0.001453 -0.000005
# 2 -0.005282 0.027109 -0.003048 0.000030 -0.001398 0.000016
# 3 -0.003097 -0.003048 0.010296 0.000011 0.002220 0.000006
# 4 -0.000008 0.000030 0.000011 -0.070866 0.000038 -0.059582
# 5 -0.001453 -0.001398 0.002220 0.000038 0.046221 0.000020
# 6 -0.000005 0.000016 0.000006 -0.059582 0.000020 0.012331
#
#
# Mechanical properties :
#
#
# Convention : Reuss Voigt Hill
#
# Bulk Modulus (GPa) = 38.08097 48.74394 43.41245
# Shear Modulus (GPa) = 73.09254 19.17933 46.13593
#
# Velocity S-wave (km/s) = 6.36794 3.26196 5.05920
# Velocity P-wave (km/s) = 8.67146 6.42103 7.62967
#
# Compressibility (1/GPa) = 0.02625984
#
# Stress axis : x y z
#
# Youngs Moduli (GPa) = 85.40614 36.88831 97.12622
#
# Poissons Ratio (x) = 0.19485 0.30078
# Poissons Ratio (y) = 0.45112 0.29604
# Poissons Ratio (z) = 0.26448 0.11243
#
# Static dielectric constant tensor:
#      x y z
#    x 3.411660 0.000000 -0.004230 
#    y 0.000000 3.028040 -0.000010 
#    z -0.004230 -0.000010 3.625340 
# 
# 
# High freq. dielectric constant tensor:
#      x y z
#    x 1.698450 0.000000 -0.001550 
#    y 0.000000 1.655860 0.000000 
#    z -0.001550 0.000000 1.725780 
# 
# From -- ./inp_files/112379.got.cif
#   From: 2010.06.25/outbox.cif.g09.slc.cpg/sg15_57_cif.got.tgz:112379.got - 2010.06.28 07:06:18.
