data_PCOD8130267
_publ_section_title
;
Structure prediction by ZEFSAII (Michael W. Deem and Ramdas Pophale) SiO2 
 PCOD8130267
Probable space group: C 2/C
;
_chemical_formula_sum "Si O2"
_cell_formula_units_Z 36
_cell_length_a 22.374923
_cell_length_b 6.739858
_cell_length_c 9.735076
_cell_angle_alpha 90.000000
_cell_angle_beta 118.608087
_cell_angle_gamma 90.000000
_cell_volume 1288.855742
_symmetry_space_group_name_H-M "C 2/C"
_symmetry_group_IT_number 15
_symmetry_cell_setting 'monoclinic'
loop_
_space_group_symop_operation_xyz
x,y,z
-x,y,1/2-z
-x,-y,-z
x,-y,1/2+z
1/2+x,1/2+y,z
1/2-x,1/2+y,1/2-z
1/2-x,1/2-y,-z
1/2+x,1/2-y,1/2+z
loop_
_atom_site_type_symbol
_atom_site_label
_atom_site_fract_x
_atom_site_fract_y
_atom_site_fract_z
Si Si1 0.573270 0.225965 0.871343
Si Si2 0.891324 0.272038 0.800285
Si Si3 0.820290 0.852326 0.725234
Si Si4 0.000000 0.900743 0.250000
Si Si5 0.297942 0.105538 0.971378
O O1 0.500000 0.125020 0.750000
O O2 0.633456 0.224891 0.826587
O O3 0.557687 0.459801 0.884938
O O4 0.603476 0.120958 0.043534
O O5 0.862668 0.416535 0.647629
O O6 0.968223 0.227781 0.837392
O O7 0.849004 0.072519 0.781579
O O8 0.819727 0.713293 0.856762
O O9 0.741186 0.893881 0.592316
O O10 0.250000 0.250000 0.000000
#
# Coordination Sequence:
#
# PCOD8130267 Si02
#       5
#     8   8   8   4   8
#     4   9  19  30  55  89 128 144 192 262 317 339
#     4  10  17  31  51  87 120 152 190 244 308 354
#     4  10  20  38  55  87 126 161 198 244 304 364
#     4   8  16  24  50  80 120 148 174 250 308 342
#     4  10  22  37  58  83 128 163 202 243 300 370
#
# _framework density 27.931754999999999
#
# number of rings (size 3 to 8) (size 9 to 14) (size 15 to 20)
#    0.667    1.778    0.000    4.667    3.111    0.000 
#    0.000   20.000    0.000    0.000    0.000   15.556 
#    0.000    0.222    0.000    0.000    0.000    0.000 
#
# Total GULP energy -222992.895047 kJ/mol
# GULP energy per Si atom -12388.494169 kJ/mol
# Density = 2.786818 g / cm^3
# Si number density = 27.931755 Si / 1000 Ang^3
#
#
#
# Elastic Constant Matrix: (Units=GPa)
#
#
# Indices 1 2 3 4 5 6 
#
# 1 181.3118 42.1336 109.1306 0.0000 -15.5723 0.0000
# 2 42.1336 101.7491 56.0780 0.0000 0.3912 0.0000
# 3 109.1306 56.0780 258.6502 0.0000 -17.9001 0.0000
# 4 0.0000 0.0000 0.0000 31.6803 0.0000 18.6314
# 5 -15.5723 0.3912 -17.9001 0.0000 53.9749 0.0000
# 6 0.0000 0.0000 0.0000 18.6314 0.0000 1.0592
#
#
#
# Elastic Compliance Matrix: (Units=1/GPa)
#
#
# Indices 1 2 3 4 5 6 
#
# 1 0.007695 -0.001649 -0.002799 0.000000 0.001304 0.000000
# 2 -0.001649 0.011558 -0.001892 0.000000 -0.001187 0.000000
# 3 -0.002799 -0.001892 0.005529 0.000000 0.001040 0.000000
# 4 0.000000 0.000000 0.000000 -0.003378 0.000000 0.059416
# 5 0.001304 -0.001187 0.001040 0.000000 0.019257 0.000000
# 6 0.000000 0.000000 0.000000 0.059416 0.000000 -0.101030
#
#
# Mechanical properties :
#
#
# Convention : Reuss Voigt Hill
#
# Bulk Modulus (GPa) = 82.62825 106.26615 94.44720
# Shear Modulus (GPa) = -114.53997 39.63414 -37.45291
#
# Velocity S-wave (km/s) = -6.41062 3.77100 -3.66576
# Velocity P-wave (km/s) = 5.01482 7.55567 3.99623
#
# Compressibility (1/GPa) = 0.01210240
#
# Stress axis : x y z
#
# Youngs Moduli (GPa) = 129.94998 86.51677 180.84829
#
# Poissons Ratio (x) = 0.14266 0.50621
# Poissons Ratio (y) = 0.21427 0.34224
# Poissons Ratio (z) = 0.36374 0.16373
#
# Static dielectric constant tensor:
#      x y z
#    x 5.574100 0.000000 0.711350 
#    y 0.000000 4.556890 0.000000 
#    z 0.711350 0.000000 5.468990 
# 
# 
# High freq. dielectric constant tensor:
#      x y z
#    x 2.153890 0.000000 -0.002730 
#    y 0.000000 2.137490 0.000000 
#    z -0.002730 0.000000 2.117610 
# 
# From -- ./inp_files/60119.got.cif
#   From: 2010.06.25/outbox.cif.g09.slc.cpg/sg15_31_cif.got.tgz:60119.got - 2010.06.28 07:06:18.
