data_PCOD8130420
_publ_section_title
;
Structure prediction by ZEFSAII (Michael W. Deem and Ramdas Pophale) SiO2 
 PCOD8130420
Probable space group: C 2/C
;
_chemical_formula_sum "Si O2"
_cell_formula_units_Z 60
_cell_length_a 10.528092
_cell_length_b 21.594571
_cell_length_c 14.294730
_cell_angle_alpha 90.000000
_cell_angle_beta 100.166740
_cell_angle_gamma 90.000000
_cell_volume 3198.872402
_symmetry_space_group_name_H-M "C 2/C"
_symmetry_group_IT_number 15
_symmetry_cell_setting 'monoclinic'
loop_
_space_group_symop_operation_xyz
x,y,z
-x,y,1/2-z
-x,-y,-z
x,-y,1/2+z
1/2+x,1/2+y,z
1/2-x,1/2+y,1/2-z
1/2-x,1/2-y,-z
1/2+x,1/2-y,1/2+z
loop_
_atom_site_type_symbol
_atom_site_label
_atom_site_fract_x
_atom_site_fract_y
_atom_site_fract_z
Si Si1 0.976532 0.898491 0.139150
Si Si2 0.566359 0.701892 0.008893
Si Si3 0.710682 0.052106 0.167666
Si Si4 0.641892 0.486642 0.632640
Si Si5 0.135870 0.671095 0.443297
Si Si6 0.215089 0.549983 0.529358
Si Si7 0.500000 0.873116 0.750000
Si Si8 0.950424 0.121193 0.141365
O O1 0.000000 0.885471 0.250000
O O2 0.987608 0.832542 0.089725
O O3 0.837441 0.927862 0.104431
O O4 0.082941 0.945418 0.112123
O O5 0.563052 0.775497 0.991877
O O6 0.712188 0.681712 0.050192
O O7 0.473348 0.682921 0.082680
O O8 0.798250 0.018018 0.256365
O O9 0.591166 0.084442 0.199813
O O10 0.799868 0.102271 0.124880
O O11 0.651512 0.003323 0.085159
O O12 0.749027 0.476673 0.567805
O O13 0.530155 0.435300 0.605411
O O14 0.116166 0.606949 0.498307
O O15 0.080823 0.669474 0.331086
O O16 0.000000 0.137862 0.250000
#
# Coordination Sequence:
#
# PCOD8130420 Si02
#       8
#     8   8   8   8   8   8   4   8
#     4  11  18  28  54  92 123 139 183 250 309 337
#     4  10  21  37  59  90 114 153 198 249 290 346
#     4  11  22  34  60  87 115 155 199 245 303 355
#     4  11  17  33  55  94 120 140 189 253 312 350
#     4  10  22  39  59  79 121 158 200 229 287 355
#     4  11  19  35  58  85 120 152 185 243 295 353
#     4  12  24  44  56  84 116 164 206 230 280 390
#     4  10  17  32  60  89 116 149 191 250 304 345
#
# _framework density 18.756609000000001
#
# number of rings (size 3 to 8) (size 9 to 14) (size 15 to 20)
#    0.000    1.333    6.667    2.400    0.933    0.533 
#    0.000    0.667    1.467    0.000    0.000    0.000 
#    0.000    0.000    0.000    0.000    0.000    0.000 
#
# Total GULP energy -372019.103726 kJ/mol
# GULP energy per Si atom -12400.636791 kJ/mol
# Density = 1.871392 g / cm^3
# Si number density = 18.756609 Si / 1000 Ang^3
#
#
#
# Elastic Constant Matrix: (Units=GPa)
#
#
# Indices 1 2 3 4 5 6 
#
# 1 58.6958 53.5058 28.9166 0.0000 -16.3767 0.0000
# 2 53.5058 131.3769 65.7561 0.0000 -12.8987 0.0000
# 3 28.9166 65.7561 117.2038 0.0000 -5.6254 0.0000
# 4 0.0000 0.0000 0.0000 30.3584 0.0000 -6.8586
# 5 -16.3767 -12.8987 -5.6254 0.0000 27.5560 0.0000
# 6 0.0000 0.0000 0.0000 -6.8586 0.0000 21.4656
#
#
#
# Elastic Compliance Matrix: (Units=1/GPa)
#
#
# Indices 1 2 3 4 5 6 
#
# 1 0.031129 -0.010922 -0.000919 0.000000 0.013200 0.000000
# 2 -0.010922 0.014820 -0.005654 0.000000 -0.000708 0.000000
# 3 -0.000919 -0.005654 0.011894 0.000000 -0.000765 0.000000
# 4 0.000000 0.000000 0.000000 0.035503 0.000000 0.011344
# 5 0.013200 -0.000708 -0.000765 0.000000 0.043647 0.000000
# 6 0.000000 0.000000 0.000000 0.011344 0.000000 0.050211
#
#
# Mechanical properties :
#
#
# Convention : Reuss Voigt Hill
#
# Bulk Modulus (GPa) = 43.75677 67.07040 55.41358
# Shear Modulus (GPa) = 21.75694 26.48253 24.11974
#
# Velocity S-wave (km/s) = 3.40952 3.76161 3.58988
# Velocity P-wave (km/s) = 6.23531 7.39609 6.84037
#
# Compressibility (1/GPa) = 0.02285361
#
# Stress axis : x y z
#
# Youngs Moduli (GPa) = 32.12454 67.47500 84.07341
#
# Poissons Ratio (x) = 0.73695 0.07726
# Poissons Ratio (y) = 0.35086 0.47536
# Poissons Ratio (z) = 0.02952 0.38151
#
# Static dielectric constant tensor:
#      x y z
#    x 3.205640 0.000000 0.068490 
#    y 0.000000 3.472390 0.000000 
#    z 0.068490 0.000000 3.736740 
# 
# 
# High freq. dielectric constant tensor:
#      x y z
#    x 1.698640 0.000000 0.001730 
#    y 0.000000 1.713070 0.000000 
#    z 0.001730 0.000000 1.744080 
# 
# From -- ./inp_files/137408.got.cif
#   From: 2010.06.25/outbox.cif.g09.slc.cpg/sg15_69_cif.got.tgz:137408.got - 2010.06.28 07:06:18.
