data_PCOD8130318
_publ_section_title
;
Structure prediction by ZEFSAII (Michael W. Deem and Ramdas Pophale) SiO2 
 PCOD8130318
Probable space group: C 2/C
;
_chemical_formula_sum "Si O2"
_cell_formula_units_Z 56
_cell_length_a 14.991109
_cell_length_b 12.629244
_cell_length_c 20.630696
_cell_angle_alpha 90.000000
_cell_angle_beta 138.685898
_cell_angle_gamma 90.000000
_cell_volume 2578.645671
_symmetry_space_group_name_H-M "C 2/C"
_symmetry_group_IT_number 15
_symmetry_cell_setting 'monoclinic'
loop_
_space_group_symop_operation_xyz
x,y,z
-x,y,1/2-z
-x,-y,-z
x,-y,1/2+z
1/2+x,1/2+y,z
1/2-x,1/2+y,1/2-z
1/2-x,1/2-y,-z
1/2+x,1/2-y,1/2+z
loop_
_atom_site_type_symbol
_atom_site_label
_atom_site_fract_x
_atom_site_fract_y
_atom_site_fract_z
Si Si1 0.972100 0.756096 0.505894
Si Si2 0.224949 0.871660 0.870366
Si Si3 0.401255 0.312006 0.143912
Si Si4 0.124925 0.424606 0.013115
Si Si5 0.582574 0.577149 0.972727
Si Si6 0.392928 0.069079 0.140766
Si Si7 0.502453 0.625631 0.358257
O O1 0.810576 0.737210 0.411943
O O2 0.042841 0.651331 0.516181
O O3 0.016924 0.869252 0.500066
O O4 0.003333 0.769478 0.599760
O O5 0.131483 0.877934 0.757110
O O6 0.137462 0.874198 0.888215
O O7 0.334896 0.967231 0.928707
O O8 0.500000 0.369878 0.250000
O O9 0.257291 0.363126 0.066780
O O10 0.445610 0.328504 0.094344
O O11 0.390988 0.191685 0.157441
O O12 0.055383 0.450938 0.905086
O O13 0.499321 0.476914 0.902447
O O14 0.736915 0.535131 0.067129
O O15 0.500000 0.014530 0.250000
#
# Coordination Sequence:
#
# PCOD8130318 Si02
#       7
#     8   8   8   8   8   8   8
#     4  12  25  41  64  98 134 164 206 281 323 368
#     4  11  25  45  68  89 123 176 220 258 320 394
#     4  10  17  31  62  93 125 167 209 254 318 385
#     4  11  20  40  64  95 129 166 213 266 317 375
#     4  11  20  40  64  95 129 166 213 266 317 375
#     4  10  19  33  62  97 131 168 211 259 320 380
#     4  11  25  45  68  89 123 176 220 258 320 394
#
# _framework density 21.716825
#
# number of rings (size 3 to 8) (size 9 to 14) (size 15 to 20)
#    0.000    1.143    5.714    3.000    0.000    3.429 
#    0.000    1.429    0.000    0.000    0.000    0.000 
#    0.000    0.000    0.000    0.000    0.000    0.000 
#
# Total GULP energy -346968.025929 kJ/mol
# GULP energy per Si atom -12391.715212 kJ/mol
# Density = 2.166740 g / cm^3
# Si number density = 21.716825 Si / 1000 Ang^3
#
#
#
# Elastic Constant Matrix: (Units=GPa)
#
#
# Indices 1 2 3 4 5 6 
#
# 1 -154.0412 61.0530 -113.3420 -0.0001 -134.4967 0.0000
# 2 61.0530 58.7779 50.8292 0.0000 -0.4922 0.0000
# 3 -113.3420 50.8292 45.6348 0.0000 -101.4352 0.0000
# 4 -0.0001 0.0000 0.0000 31.8295 0.0000 -0.6263
# 5 -134.4967 -0.4922 -101.4352 0.0000 -36.4869 0.0000
# 6 0.0000 0.0000 0.0000 -0.6263 0.0000 3.8020
#
#
#
# Elastic Compliance Matrix: (Units=1/GPa)
#
#
# Indices 1 2 3 4 5 6 
#
# 1 0.007970 -0.003372 -0.005801 0.000000 -0.013205 0.000000
# 2 -0.003372 0.021241 -0.000702 0.000000 0.014096 0.000000
# 3 -0.005801 -0.000702 0.007778 0.000000 -0.000229 0.000000
# 4 0.000000 0.000000 0.000000 0.031520 0.000000 0.005193
# 5 -0.013205 0.014096 -0.000229 0.000000 0.021716 0.000000
# 6 0.000000 0.000000 0.000000 0.005193 0.000000 0.263878
#
#
# Mechanical properties :
#
#
# Convention : Reuss Voigt Hill
#
# Bulk Modulus (GPa) = 58.01245 -5.83867 26.08689
# Shear Modulus (GPa) = 13.17177 -3.38233 4.89472
#
# Velocity S-wave (km/s) = 2.46544 -1.24934 1.50292
# Velocity P-wave (km/s) = 5.90556 2.18530 3.87944
#
# Compressibility (1/GPa) = 0.01723768
#
# Stress axis : x y z
#
# Youngs Moduli (GPa) = 125.47192 47.07820 128.57033
#
# Poissons Ratio (x) = 0.15876 0.74587
# Poissons Ratio (y) = 0.42312 0.09028
# Poissons Ratio (z) = 0.72789 0.03306
#
# Static dielectric constant tensor:
#      x y z
#    x 7.526940 0.000000 -3.889000 
#    y 0.000000 4.033840 0.000000 
#    z -3.889000 0.000000 8.376470 
# 
# 
# High freq. dielectric constant tensor:
#      x y z
#    x 1.853200 0.000000 -0.009500 
#    y 0.000000 1.839900 0.000000 
#    z -0.009500 0.000000 1.859510 
# 
# From -- ./inp_files/244559.got.cif
#   From: 2010.06.25/outbox.cif.g09.slc.cpg/sg15_123_cif.got.tgz:244559.got - 2010.06.28 07:06:18.
