data_PCOD8130187
_publ_section_title
;
Structure prediction by ZEFSAII (Michael W. Deem and Ramdas Pophale) SiO2 
 PCOD8130187
Probable space group: C 2/C
;
_chemical_formula_sum "Si O2"
_cell_formula_units_Z 56
_cell_length_a 14.701243
_cell_length_b 12.361468
_cell_length_c 18.662284
_cell_angle_alpha 90.000000
_cell_angle_beta 73.398005
_cell_angle_gamma 90.000000
_cell_volume 3250.095405
_symmetry_space_group_name_H-M "C 2/C"
_symmetry_group_IT_number 15
_symmetry_cell_setting 'monoclinic'
loop_
_space_group_symop_operation_xyz
x,y,z
-x,y,1/2-z
-x,-y,-z
x,-y,1/2+z
1/2+x,1/2+y,z
1/2-x,1/2+y,1/2-z
1/2-x,1/2-y,-z
1/2+x,1/2-y,1/2+z
loop_
_atom_site_type_symbol
_atom_site_label
_atom_site_fract_x
_atom_site_fract_y
_atom_site_fract_z
Si Si1 0.522385 0.424034 0.165431
Si Si2 0.693869 0.800339 0.446476
Si Si3 0.294949 0.869251 0.839001
Si Si4 0.049721 0.700075 0.089377
Si Si5 0.815508 0.064829 0.685564
Si Si6 0.782629 0.002691 0.851876
Si Si7 0.336429 0.188000 0.168562
O O1 0.500000 0.378869 0.250000
O O2 0.560617 0.323725 0.111523
O O3 0.425798 0.474397 0.155033
O O4 0.607298 0.511892 0.148339
O O5 0.750000 0.750000 0.500000
O O6 0.712889 0.718615 0.376411
O O7 0.584677 0.808030 0.498433
O O8 0.726916 0.921027 0.419491
O O9 0.382358 0.872192 0.874842
O O10 0.334370 0.838855 0.752578
O O11 0.247343 0.988072 0.850776
O O12 0.941987 0.660138 0.117531
O O13 0.777925 0.057790 0.775001
O O14 0.808399 0.187954 0.660060
O O15 0.736372 0.884304 0.860676
#
# Coordination Sequence:
#
# PCOD8130187 Si02
#       7
#     8   8   8   8   8   8   8
#     4   9  15  29  49  72  92 123 173 205 233 279
#     4  10  18  30  51  77  96 128 165 205 243 281
#     4  10  17  31  53  73 101 124 167 208 242 282
#     4  10  18  30  52  73  96 128 168 201 236 288
#     4   9  18  30  51  76  96 125 164 210 245 281
#     4  10  17  30  52  72 100 128 164 204 243 286
#     4  10  19  31  51  75  98 130 166 202 243 289
#
# _framework density 17.230263999999998
#
# number of rings (size 3 to 8) (size 9 to 14) (size 15 to 20)
#    0.000    2.286    4.286    2.143    0.000    0.571 
#    0.000    2.857    3.143    6.857    0.000    0.000 
#    0.000    0.000    0.000    0.000    0.000    0.000 
#
# Total GULP energy -347033.324795 kJ/mol
# GULP energy per Si atom -12394.047314 kJ/mol
# Density = 1.719105 g / cm^3
# Si number density = 17.230264 Si / 1000 Ang^3
#
#
#
# Elastic Constant Matrix: (Units=GPa)
#
#
# Indices 1 2 3 4 5 6 
#
# 1 103.4829 62.8732 28.9259 0.0000 -22.9104 0.0000
# 2 62.8732 97.8387 22.4630 0.0000 -13.5680 0.0000
# 3 28.9259 22.4630 69.8974 0.0000 -32.3729 0.0000
# 4 0.0000 0.0000 0.0000 18.4776 0.0000 2.9381
# 5 -22.9104 -13.5680 -32.3729 0.0000 26.1698 0.0000
# 6 0.0000 0.0000 0.0000 2.9381 0.0000 33.8441
#
#
#
# Elastic Compliance Matrix: (Units=1/GPa)
#
#
# Indices 1 2 3 4 5 6 
#
# 1 0.018329 -0.010395 0.001618 0.000000 0.012659 0.000000
# 2 -0.010395 0.017040 -0.003038 0.000000 -0.004024 0.000000
# 3 0.001618 -0.003038 0.034046 0.000000 0.041957 0.000000
# 4 0.000000 0.000000 0.000000 0.054877 0.000000 -0.004764
# 5 0.012659 -0.004024 0.041957 0.000000 0.099111 0.000000
# 6 0.000000 0.000000 0.000000 -0.004764 0.000000 0.029961
#
#
# Mechanical properties :
#
#
# Convention : Reuss Voigt Hill
#
# Bulk Modulus (GPa) = 21.84058 55.52700 38.68379
# Shear Modulus (GPa) = 17.10831 26.16209 21.63520
#
# Velocity S-wave (km/s) = 3.15449 3.90087 3.54736
# Velocity P-wave (km/s) = 5.09617 7.25158 6.26723
#
# Compressibility (1/GPa) = 0.04578633
#
# Stress axis : x y z
#
# Youngs Moduli (GPa) = 54.55748 58.68415 29.37215
#
# Poissons Ratio (x) = 0.61001 -0.04753
# Poissons Ratio (y) = 0.56712 0.08924
# Poissons Ratio (z) = -0.08829 0.17829
#
# Static dielectric constant tensor:
#      x y z
#    x 3.278070 0.000000 -0.411450 
#    y 0.000000 3.088910 0.000000 
#    z -0.411450 0.000000 3.529220 
# 
# 
# High freq. dielectric constant tensor:
#      x y z
#    x 1.650450 0.000000 -0.028910 
#    y 0.000000 1.643660 0.000000 
#    z -0.028910 0.000000 1.662820 
# 
# From -- ./inp_files/203944.got.cif
#   From: 2010.06.25/outbox.cif.g09.slc.cpg/sg15_102_cif.got.tgz:203944.got - 2010.06.28 07:06:18.
