data_PCOD8130675
_publ_section_title
;
Structure prediction by ZEFSAII (Michael W. Deem and Ramdas Pophale) SiO2 
 PCOD8130675
Probable space group: C 2/C
;
_chemical_formula_sum "Si O2"
_cell_formula_units_Z 40
_cell_length_a 13.077323
_cell_length_b 17.468192
_cell_length_c 8.834792
_cell_angle_alpha 90.000000
_cell_angle_beta 89.885599
_cell_angle_gamma 90.000000
_cell_volume 2018.191027
_symmetry_space_group_name_H-M "C 2/C"
_symmetry_group_IT_number 15
_symmetry_cell_setting 'monoclinic'
loop_
_space_group_symop_operation_xyz
x,y,z
-x,y,1/2-z
-x,-y,-z
x,-y,1/2+z
1/2+x,1/2+y,z
1/2-x,1/2+y,1/2-z
1/2-x,1/2-y,-z
1/2+x,1/2-y,1/2+z
loop_
_atom_site_type_symbol
_atom_site_label
_atom_site_fract_x
_atom_site_fract_y
_atom_site_fract_z
Si Si1 0.381592 0.478003 0.020206
Si Si2 0.691326 0.599320 0.682566
Si Si3 0.887879 0.686688 0.689784
Si Si4 0.412431 0.333014 0.861658
Si Si5 0.447939 0.260114 0.396288
O O1 0.359147 0.455357 0.192203
O O2 0.500000 0.500000 0.000000
O O3 0.313729 0.551348 0.973796
O O4 0.346871 0.406577 0.911818
O O5 0.808905 0.618726 0.723342
O O6 0.632801 0.678707 0.665062
O O7 0.850892 0.765034 0.775703
O O8 0.892016 0.700148 0.508082
O O9 0.000000 0.663289 0.750000
O O10 0.500000 0.363675 0.750000
O O11 0.461451 0.301844 0.015365
O O12 0.500000 0.218904 0.250000
#
# Coordination Sequence:
#
# PCOD8130675 Si02
#       5
#     8   8   8   8   8
#     4  12  22  36  60  91 126 151 193 246 312 359
#     4  12  23  37  59  91 121 159 196 240 304 369
#     4   9  23  41  59  82 123 158 205 243 286 350
#     4   9  18  35  57  84 122 156 182 243 301 345
#     4  10  17  36  60  89 117 147 190 248 301 348
#
# _framework density 19.81973
#
# number of rings (size 3 to 8) (size 9 to 14) (size 15 to 20)
#    0.000    2.000    4.000    2.400    2.800    0.800 
#    0.000    1.000    0.000    0.000    0.000    0.000 
#    0.000    0.000    0.000    0.000    0.000    0.000 
#
# Total GULP energy -247866.479960 kJ/mol
# GULP energy per Si atom -12393.323998 kJ/mol
# Density = 1.977462 g / cm^3
# Si number density = 19.819730 Si / 1000 Ang^3
#
#
#
# Elastic Constant Matrix: (Units=GPa)
#
#
# Indices 1 2 3 4 5 6 
#
# 1 80.3258 51.1245 38.7454 0.0000 3.4056 0.0000
# 2 51.1245 57.3488 15.9953 0.0000 1.4514 0.0000
# 3 38.7454 15.9953 110.3806 0.0000 -7.7228 0.0000
# 4 0.0000 0.0000 0.0000 27.4227 0.0000 -0.2949
# 5 3.4056 1.4514 -7.7228 0.0000 19.7389 0.0000
# 6 0.0000 0.0000 0.0000 -0.2949 0.0000 36.5215
#
#
#
# Elastic Compliance Matrix: (Units=1/GPa)
#
#
# Indices 1 2 3 4 5 6 
#
# 1 0.035392 -0.028923 -0.008750 0.000000 -0.007403 0.000000
# 2 -0.028923 0.041923 0.004330 0.000000 0.003601 0.000000
# 3 -0.008750 0.004330 0.011913 0.000000 0.005852 0.000000
# 4 0.000000 0.000000 0.000000 0.036469 0.000000 0.000294
# 5 -0.007403 0.003601 0.005852 0.000000 0.053963 0.000000
# 6 0.000000 0.000000 0.000000 0.000294 0.000000 0.027384
#
#
# Mechanical properties :
#
#
# Convention : Reuss Voigt Hill
#
# Bulk Modulus (GPa) = 44.36459 51.08727 47.72593
# Shear Modulus (GPa) = 17.77806 26.21594 21.99700
#
# Velocity S-wave (km/s) = 2.99823 3.64087 3.33506
# Velocity P-wave (km/s) = 5.86672 6.59594 6.24199
#
# Compressibility (1/GPa) = 0.02254050
#
# Stress axis : x y z
#
# Youngs Moduli (GPa) = 28.25465 23.85345 83.94186
#
# Poissons Ratio (x) = 0.68992 0.73449
# Poissons Ratio (y) = 0.81722 -0.36343
# Poissons Ratio (z) = 0.24723 -0.10327
#
# Static dielectric constant tensor:
#      x y z
#    x 3.229250 0.000000 -0.061400 
#    y 0.000000 3.495440 0.000000 
#    z -0.061400 0.000000 4.019170 
# 
# 
# High freq. dielectric constant tensor:
#      x y z
#    x 1.728930 0.000000 0.002200 
#    y 0.000000 1.747680 0.000000 
#    z 0.002200 0.000000 1.795310 
# 
# From -- ./inp_files/29222.got.cif
#   From: 2010.06.25/outbox.cif.g09.slc.cpg/sg15_15_cif.got.tgz:29222.got - 2010.06.28 07:06:18.
