data_PCOD8130163
_publ_section_title
;
Structure prediction by ZEFSAII (Michael W. Deem and Ramdas Pophale) SiO2 
 PCOD8130163
Probable space group: C 2/C
;
_chemical_formula_sum "Si O2"
_cell_formula_units_Z 56
_cell_length_a 20.345480
_cell_length_b 21.319977
_cell_length_c 16.830207
_cell_angle_alpha 90.000000
_cell_angle_beta 27.993447
_cell_angle_gamma 90.000000
_cell_volume 3426.573016
_symmetry_space_group_name_H-M "C 2/C"
_symmetry_group_IT_number 15
_symmetry_cell_setting 'monoclinic'
loop_
_space_group_symop_operation_xyz
x,y,z
-x,y,1/2-z
-x,-y,-z
x,-y,1/2+z
1/2+x,1/2+y,z
1/2-x,1/2+y,1/2-z
1/2-x,1/2-y,-z
1/2+x,1/2-y,1/2+z
loop_
_atom_site_type_symbol
_atom_site_label
_atom_site_fract_x
_atom_site_fract_y
_atom_site_fract_z
Si Si1 0.035580 0.432663 0.494139
Si Si2 0.258529 0.613884 0.634807
Si Si3 0.647638 0.539560 0.106663
Si Si4 0.656438 0.126650 0.407981
Si Si5 0.046843 0.291423 0.289024
Si Si6 0.102773 0.504719 0.567447
Si Si7 0.569069 0.351005 0.805215
O O1 0.172314 0.404957 0.304820
O O2 0.067896 0.442268 0.553210
O O3 0.000000 0.500000 0.500000
O O4 0.899553 0.387886 0.622142
O O5 0.273278 0.553685 0.560798
O O6 0.184656 0.669284 0.664625
O O7 0.411482 0.635539 0.501912
O O8 0.500000 0.503794 0.250000
O O9 0.612525 0.606544 0.184381
O O10 0.740928 0.496276 0.064145
O O11 0.583647 0.190423 0.515440
O O12 0.824220 0.133960 0.235120
O O13 0.594219 0.069331 0.527196
O O14 0.087288 0.219563 0.256898
O O15 0.000000 0.306404 0.250000
O O16 0.000000 0.511414 0.750000
#
# Coordination Sequence:
#
# PCOD8130163 Si02
#       7
#     8   8   8   8   8   8   8
#     4   9  18  31  45  60  79 112 149 180 218 258
#     4  10  19  30  42  61  92 119 144 178 210 245
#     4   9  17  28  40  60  90 117 143 175 209 246
#     4   9  18  30  42  62  91 116 146 178 207 245
#     4  11  18  26  42  63  90 125 154 171 194 238
#     4  10  17  30  48  62  79 109 147 183 219 256
#     4  10  19  28  41  63  91 122 149 172 201 243
#
# _framework density 16.342859000000001
#
# number of rings (size 3 to 8) (size 9 to 14) (size 15 to 20)
#    0.000    2.286    0.000    6.857    0.000    1.714 
#    0.000   12.857    0.000    0.000    0.000    0.000 
#    0.000   18.286    0.000    0.000    0.000    0.000 
#
# Total GULP energy -347004.251068 kJ/mol
# GULP energy per Si atom -12393.008967 kJ/mol
# Density = 1.630566 g / cm^3
# Si number density = 16.342859 Si / 1000 Ang^3
#
#
#
# Elastic Constant Matrix: (Units=GPa)
#
#
# Indices 1 2 3 4 5 6 
#
# 1 110.6505 38.3305 45.8187 -0.0026 -28.7992 0.0003
# 2 38.3305 40.4259 19.6265 -0.0040 -6.8533 0.0015
# 3 45.8187 19.6265 69.0089 -0.0073 -25.3624 0.0032
# 4 -0.0026 -0.0040 -0.0073 12.5066 0.0033 -2.3200
# 5 -28.7992 -6.8533 -25.3624 0.0033 29.6353 -0.0005
# 6 0.0003 0.0015 0.0032 -2.3200 -0.0005 22.6562
#
#
#
# Elastic Compliance Matrix: (Units=1/GPa)
#
#
# Indices 1 2 3 4 5 6 
#
# 1 0.018347 -0.013435 -0.004303 -0.000006 0.011039 0.000001
# 2 -0.013435 0.038543 -0.005200 0.000008 -0.008593 -0.000001
# 3 -0.004303 -0.005200 0.024579 0.000007 0.015651 -0.000002
# 4 -0.000006 0.000008 0.000007 0.081506 -0.000006 0.008346
# 5 0.011039 -0.008593 0.015651 -0.000006 0.055879 -0.000001
# 6 0.000001 -0.000001 -0.000002 0.008346 -0.000001 0.044993
#
#
# Mechanical properties :
#
#
# Convention : Reuss Voigt Hill
#
# Bulk Modulus (GPa) = 28.09546 47.51519 37.80533
# Shear Modulus (GPa) = 15.54799 20.71360 18.13080
#
# Velocity S-wave (km/s) = 3.08776 3.56397 3.33438
# Velocity P-wave (km/s) = 5.47183 6.78771 6.16498
#
# Compressibility (1/GPa) = 0.03559294
#
# Stress axis : x y z
#
# Youngs Moduli (GPa) = 54.50622 25.94516 40.68560
#
# Poissons Ratio (x) = 0.34857 0.17507
# Poissons Ratio (y) = 0.73229 0.21155
# Poissons Ratio (z) = 0.23454 0.13490
#
# Static dielectric constant tensor:
#      x y z
#    x 3.697010 0.000160 -0.361410 
#    y 0.000160 3.312710 0.000060 
#    z -0.361410 0.000060 3.142610 
# 
# 
# High freq. dielectric constant tensor:
#      x y z
#    x 1.624380 0.000000 -0.038750 
#    y 0.000000 1.588000 0.000000 
#    z -0.038750 0.000000 1.619660 
# 
# From -- ./inp_files/156233.got.cif
#   From: 2010.06.25/outbox.cif.g09.slc.cpg/sg15_79_cif.got.tgz:156233.got - 2010.06.28 07:06:18.
