data_PCOD8130026
_publ_section_title
;
Structure prediction by ZEFSAII (Michael W. Deem and Ramdas Pophale) SiO2 
 PCOD8130026
Probable space group: C 2/C
;
_chemical_formula_sum "Si O2"
_cell_formula_units_Z 48
_cell_length_a 14.445347
_cell_length_b 12.559241
_cell_length_c 13.760063
_cell_angle_alpha 90.000000
_cell_angle_beta 111.932267
_cell_angle_gamma 90.000000
_cell_volume 2315.712995
_symmetry_space_group_name_H-M "C 2/C"
_symmetry_group_IT_number 15
_symmetry_cell_setting 'monoclinic'
loop_
_space_group_symop_operation_xyz
x,y,z
-x,y,1/2-z
-x,-y,-z
x,-y,1/2+z
1/2+x,1/2+y,z
1/2-x,1/2+y,1/2-z
1/2-x,1/2-y,-z
1/2+x,1/2-y,1/2+z
loop_
_atom_site_type_symbol
_atom_site_label
_atom_site_fract_x
_atom_site_fract_y
_atom_site_fract_z
Si Si1 0.093971 0.074502 0.531902
Si Si2 0.301506 0.605073 0.330608
Si Si3 0.959601 0.259604 0.493289
Si Si4 0.386369 0.655500 0.166219
Si Si5 0.935975 0.377192 0.130459
Si Si6 0.599286 0.105403 0.351506
O O1 0.129037 0.080900 0.433308
O O2 0.059115 0.190255 0.558378
O O3 0.179203 0.018510 0.630748
O O4 0.000000 0.000000 0.500000
O O5 0.380363 0.684611 0.409107
O O6 0.309065 0.615721 0.217020
O O7 0.190753 0.637746 0.318248
O O8 0.908433 0.306873 0.567795
O O9 0.992604 0.353157 0.433170
O O10 0.500000 0.649167 0.250000
O O11 0.362311 0.777489 0.123837
O O12 0.879745 0.489414 0.090842
O O13 0.000000 0.399152 0.250000
O O14 0.500000 0.109066 0.250000
#
# Coordination Sequence:
#
# PCOD8130026 Si02
#       6
#     8   8   8   8   8   8
#     4   9  18  35  61  94 119 151 200 252 299 357
#     4  11  21  41  64  92 120 165 204 242 313 369
#     4  10  19  40  66  86 119 160 200 257 311 354
#     4  10  16  36  67  88 118 162 203 247 299 366
#     4   9  17  38  64  81 114 164 201 237 295 370
#     4  11  25  42  55  91 128 157 205 255 301 358
#
# _framework density 20.727957
#
# number of rings (size 3 to 8) (size 9 to 14) (size 15 to 20)
#    0.000    2.000    6.667    1.000    0.000    0.000 
#   18.000    1.667    0.000    0.000    0.000    0.000 
#    0.000    0.000    0.000    0.000    0.000    0.000 
#
# Total GULP energy -297459.547105 kJ/mol
# GULP energy per Si atom -12394.147796 kJ/mol
# Density = 2.068078 g / cm^3
# Si number density = 20.727957 Si / 1000 Ang^3
#
#
#
# Elastic Constant Matrix: (Units=GPa)
#
#
# Indices 1 2 3 4 5 6 
#
# 1 134.1768 37.9565 50.4004 0.0000 -45.9756 0.0000
# 2 37.9565 90.6401 43.9885 0.0000 -29.0894 0.0000
# 3 50.4004 43.9885 65.9256 0.0000 -36.8572 0.0000
# 4 0.0000 0.0000 0.0000 31.2396 0.0000 -8.2657
# 5 -45.9756 -29.0894 -36.8572 0.0000 40.7118 0.0000
# 6 0.0000 0.0000 0.0000 -8.2657 0.0000 29.0293
#
#
#
# Elastic Compliance Matrix: (Units=1/GPa)
#
#
# Indices 1 2 3 4 5 6 
#
# 1 0.012517 -0.000072 -0.003336 0.000000 0.011065 0.000000
# 2 -0.000072 0.016589 -0.008975 0.000000 0.003646 0.000000
# 3 -0.003336 -0.008975 0.036480 0.000000 0.022846 0.000000
# 4 0.000000 0.000000 0.000000 0.034619 0.000000 0.009857
# 5 0.011065 0.003646 0.022846 0.000000 0.060346 0.000000
# 6 0.000000 0.000000 0.000000 0.009857 0.000000 0.037255
#
#
# Mechanical properties :
#
#
# Convention : Reuss Voigt Hill
#
# Bulk Modulus (GPa) = 24.49751 61.71483 43.10617
# Shear Modulus (GPa) = 21.17039 30.75593 25.96316
#
# Velocity S-wave (km/s) = 3.19932 3.85618 3.54300
# Velocity P-wave (km/s) = 5.04893 7.04735 6.13013
#
# Compressibility (1/GPa) = 0.04082047
#
# Stress axis : x y z
#
# Youngs Moduli (GPa) = 79.88830 60.28179 27.41222
#
# Poissons Ratio (x) = 0.00434 0.09144
# Poissons Ratio (y) = 0.00575 0.24603
# Poissons Ratio (z) = 0.26649 0.54104
#
# Static dielectric constant tensor:
#      x y z
#    x 4.025360 0.000000 -0.318670 
#    y 0.000000 4.413110 0.000000 
#    z -0.318670 0.000000 3.700330 
# 
# 
# High freq. dielectric constant tensor:
#      x y z
#    x 1.802490 0.000000 -0.023410 
#    y 0.000000 1.816440 0.000000 
#    z -0.023410 0.000000 1.791160 
# 
# From -- ./inp_files/152170.got.cif
#   From: 2010.06.25/outbox.cif.g09.slc.cpg/sg15_77_cif.got.tgz:152170.got - 2010.06.28 07:06:18.
