data_PCOD8130137
_publ_section_title
;
Structure prediction by ZEFSAII (Michael W. Deem and Ramdas Pophale) SiO2 
 PCOD8130137
Probable space group: C 2/C
;
_chemical_formula_sum "Si O2"
_cell_formula_units_Z 56
_cell_length_a 12.686393
_cell_length_b 29.398701
_cell_length_c 10.033087
_cell_angle_alpha 90.000000
_cell_angle_beta 69.358050
_cell_angle_gamma 90.000000
_cell_volume 3501.746475
_symmetry_space_group_name_H-M "C 2/C"
_symmetry_group_IT_number 15
_symmetry_cell_setting 'monoclinic'
loop_
_space_group_symop_operation_xyz
x,y,z
-x,y,1/2-z
-x,-y,-z
x,-y,1/2+z
1/2+x,1/2+y,z
1/2-x,1/2+y,1/2-z
1/2-x,1/2-y,-z
1/2+x,1/2-y,1/2+z
loop_
_atom_site_type_symbol
_atom_site_label
_atom_site_fract_x
_atom_site_fract_y
_atom_site_fract_z
Si Si1 0.950713 0.273911 0.124854
Si Si2 0.906028 0.906716 0.178368
Si Si3 0.097428 0.735755 0.313083
Si Si4 0.577908 0.504835 0.340426
Si Si5 0.693113 0.312156 0.889056
Si Si6 0.273294 0.678793 0.813999
Si Si7 0.436354 0.397298 0.641489
O O1 0.894557 0.225568 0.119753
O O2 0.860026 0.314445 0.148083
O O3 0.000000 0.274870 0.250000
O O4 0.051990 0.281284 0.975589
O O5 0.805462 0.871567 0.250739
O O6 0.000000 0.902559 0.250000
O O7 0.849529 0.957969 0.203232
O O8 0.965621 0.896212 0.012551
O O9 0.183081 0.697901 0.221087
O O10 0.158983 0.784336 0.304191
O O11 0.000000 0.741814 0.250000
O O12 0.500000 0.509011 0.250000
O O13 0.500000 0.500000 0.500000
O O14 0.635736 0.554723 0.325782
O O15 0.657811 0.360167 0.844796
O O16 0.693570 0.312969 0.048010
O O17 0.500000 0.386956 0.750000
#
# Coordination Sequence:
#
# PCOD8130137 Si02
#       7
#     8   8   8   8   8   8   8
#     4  11  23  35  48  73 103 126 161 206 242 276
#     4  10  17  29  51  71  96 130 161 193 238 292
#     4  11  19  34  52  67 100 131 158 204 239 274
#     4   8  16  28  43  68  98 126 151 191 244 288
#     4  11  20  32  52  74  93 133 171 192 237 291
#     4  11  20  32  53  74  92 131 174 193 232 294
#     4  10  19  30  45  72 105 125 155 200 242 287
#
# _framework density 15.992020999999999
#
# number of rings (size 3 to 8) (size 9 to 14) (size 15 to 20)
#    0.000    1.714    4.286    2.571    0.000    3.429 
#    0.000    0.000    0.000    0.000    0.000    2.000 
#    0.000    0.000    0.000    0.000    0.000    0.000 
#
# Total GULP energy -346993.663939 kJ/mol
# GULP energy per Si atom -12392.630855 kJ/mol
# Density = 1.595562 g / cm^3
# Si number density = 15.992021 Si / 1000 Ang^3
#
#
#
# Elastic Constant Matrix: (Units=GPa)
#
#
# Indices 1 2 3 4 5 6 
#
# 1 55.2649 38.3410 30.9919 0.0000 -0.9003 0.0000
# 2 38.3410 138.2260 27.6157 0.0000 -13.5713 0.0000
# 3 30.9919 27.6157 104.7795 0.0000 4.7929 0.0000
# 4 0.0000 0.0000 0.0000 22.7230 0.0000 -1.2475
# 5 -0.9003 -13.5713 4.7929 0.0000 31.1351 0.0000
# 6 0.0000 0.0000 0.0000 -1.2475 0.0000 22.2013
#
#
#
# Elastic Compliance Matrix: (Units=1/GPa)
#
#
# Indices 1 2 3 4 5 6 
#
# 1 0.025573 -0.006001 -0.005938 0.000000 -0.000962 0.000000
# 2 -0.006001 0.009484 -0.000912 0.000000 0.004101 0.000000
# 3 -0.005938 -0.000912 0.011649 0.000000 -0.002362 0.000000
# 4 0.000000 0.000000 0.000000 0.044144 0.000000 0.002480
# 5 -0.000962 0.004101 -0.002362 0.000000 0.034241 0.000000
# 6 0.000000 0.000000 0.000000 0.002480 0.000000 0.045182
#
#
# Mechanical properties :
#
#
# Convention : Reuss Voigt Hill
#
# Bulk Modulus (GPa) = 47.61442 54.68528 51.14985
# Shear Modulus (GPa) = 24.63332 28.63333 26.63333
#
# Velocity S-wave (km/s) = 3.92899 4.23599 4.08537
# Velocity P-wave (km/s) = 7.10078 7.62853 7.36938
#
# Compressibility (1/GPa) = 0.02100204
#
# Stress axis : x y z
#
# Youngs Moduli (GPa) = 39.10424 105.44014 85.84640
#
# Poissons Ratio (x) = 0.63279 0.50977
# Poissons Ratio (y) = 0.23468 0.07830
# Poissons Ratio (z) = 0.23221 0.09617
#
# Static dielectric constant tensor:
#      x y z
#    x 2.861700 0.000000 0.035190 
#    y 0.000000 3.538130 0.000000 
#    z 0.035190 0.000000 3.393330 
# 
# 
# High freq. dielectric constant tensor:
#      x y z
#    x 1.575510 0.000000 0.016600 
#    y 0.000000 1.620380 0.000000 
#    z 0.016600 0.000000 1.631360 
# 
# From -- ./inp_files/35153.got.cif
#   From: 2010.06.25/outbox.cif.g09.slc.cpg/sg15_18_cif.got.tgz:35153.got - 2010.06.28 07:06:18.
