data_PCOD8130565
_publ_section_title
;
Structure prediction by ZEFSAII (Michael W. Deem and Ramdas Pophale) SiO2 
 PCOD8130565
Probable space group: C 2/C
;
_chemical_formula_sum "Si O2"
_cell_formula_units_Z 60
_cell_length_a 15.784545
_cell_length_b 11.762118
_cell_length_c 17.581320
_cell_angle_alpha 90.000000
_cell_angle_beta 77.855244
_cell_angle_gamma 90.000000
_cell_volume 3191.088136
_symmetry_space_group_name_H-M "C 2/C"
_symmetry_group_IT_number 15
_symmetry_cell_setting 'monoclinic'
loop_
_space_group_symop_operation_xyz
x,y,z
-x,y,1/2-z
-x,-y,-z
x,-y,1/2+z
1/2+x,1/2+y,z
1/2-x,1/2+y,1/2-z
1/2-x,1/2-y,-z
1/2+x,1/2-y,1/2+z
loop_
_atom_site_type_symbol
_atom_site_label
_atom_site_fract_x
_atom_site_fract_y
_atom_site_fract_z
Si Si1 0.619361 0.104484 0.632832
Si Si2 0.637486 0.608213 0.304649
Si Si3 0.904294 0.381869 0.785872
Si Si4 0.185177 0.123395 0.860096
Si Si5 0.766809 0.789177 0.309788
Si Si6 0.332661 0.197844 0.025383
Si Si7 0.217972 0.541641 0.329816
Si Si8 0.000000 0.766314 0.750000
O O1 0.721837 0.091310 0.623794
O O2 0.600436 0.150122 0.550534
O O3 0.576392 0.190004 0.701019
O O4 0.581300 0.978621 0.652503
O O5 0.631926 0.490754 0.352493
O O6 0.686084 0.706561 0.341921
O O7 0.690349 0.590066 0.216262
O O8 0.540854 0.651056 0.305763
O O9 0.850714 0.274526 0.830665
O O10 0.854183 0.441136 0.723182
O O11 0.000000 0.335553 0.750000
O O12 0.204043 0.202001 0.783816
O O13 0.128813 0.199174 0.930121
O O14 0.736669 0.909975 0.347016
O O15 0.307432 0.095364 0.085662
O O16 0.250000 0.250000 0.000000
#
# Coordination Sequence:
#
# PCOD8130565 Si02
#       8
#     8   8   8   8   8   8   8   4
#     4  11  20  33  60  84 111 148 201 239 280 338
#     4  10  18  31  59  86 112 148 194 238 285 336
#     4  11  20  35  60  89 117 151 195 244 287 350
#     4  10  17  36  56  82 108 152 189 233 284 346
#     4  10  17  34  61  81 114 148 196 235 285 338
#     4  10  20  35  60  85 113 152 199 240 284 349
#     4  10  19  38  60  84 115 152 197 235 292 342
#     4  12  20  34  56  92 114 144 204 250 270 354
#
# _framework density 18.802364000000001
#
# number of rings (size 3 to 8) (size 9 to 14) (size 15 to 20)
#    0.000    1.600    8.667    0.800    0.000    0.000 
#    4.800    2.000    0.000    0.000    0.000    0.000 
#    0.000    0.000    0.000    0.000    0.000    0.000 
#
# Total GULP energy -371682.931710 kJ/mol
# GULP energy per Si atom -12389.431057 kJ/mol
# Density = 1.875957 g / cm^3
# Si number density = 18.802364 Si / 1000 Ang^3
#
#
#
# Elastic Constant Matrix: (Units=GPa)
#
#
# Indices 1 2 3 4 5 6 
#
# 1 72.6653 34.7398 -1.1692 0.0000 4.9369 0.0000
# 2 34.7398 141.5840 33.7807 0.0000 2.4569 0.0000
# 3 -1.1692 33.7807 77.4266 0.0000 -4.3819 0.0000
# 4 0.0000 0.0000 0.0000 34.9389 0.0000 6.6178
# 5 4.9369 2.4569 -4.3819 0.0000 9.6363 0.0000
# 6 0.0000 0.0000 0.0000 6.6178 0.0000 16.9168
#
#
#
# Elastic Compliance Matrix: (Units=1/GPa)
#
#
# Indices 1 2 3 4 5 6 
#
# 1 0.016285 -0.004304 0.001759 0.000000 -0.006446 0.000000
# 2 -0.004304 0.009149 -0.004171 0.000000 -0.002025 0.000000
# 3 0.001759 -0.004171 0.015161 0.000000 0.007057 0.000000
# 4 0.000000 0.000000 0.000000 0.030912 0.000000 -0.012093
# 5 -0.006446 -0.002025 0.007057 0.000000 0.110802 0.000000
# 6 0.000000 0.000000 0.000000 -0.012093 0.000000 0.063844
#
#
# Mechanical properties :
#
#
# Convention : Reuss Voigt Hill
#
# Bulk Modulus (GPa) = 36.81398 47.37539 42.09468
# Shear Modulus (GPa) = 18.61226 27.25337 22.93281
#
# Velocity S-wave (km/s) = 3.14966 3.81131 3.49618
# Velocity P-wave (km/s) = 5.73142 6.67977 6.22368
#
# Compressibility (1/GPa) = 0.02716359
#
# Stress axis : x y z
#
# Youngs Moduli (GPa) = 61.40439 109.29812 65.95732
#
# Poissons Ratio (x) = 0.47038 -0.11600
# Poissons Ratio (y) = 0.26426 0.27513
# Poissons Ratio (z) = -0.10799 0.45592
#
# Static dielectric constant tensor:
#      x y z
#    x 3.191620 0.000000 0.030050 
#    y 0.000000 3.769790 0.000000 
#    z 0.030050 0.000000 3.663900 
# 
# 
# High freq. dielectric constant tensor:
#      x y z
#    x 1.700600 0.000000 0.001730 
#    y 0.000000 1.753760 0.000000 
#    z 0.001730 0.000000 1.691180 
# 
# From -- ./inp_files/204051.got.cif
#   From: 2010.06.25/outbox.cif.g09.slc.cpg/sg15_103_cif.got.tgz:204051.got - 2010.06.28 07:06:18.
