data_PCOD8130252
_publ_section_title
;
Structure prediction by ZEFSAII (Michael W. Deem and Ramdas Pophale) SiO2 
 PCOD8130252
Probable space group: C 2/C
;
_chemical_formula_sum "Si O2"
_cell_formula_units_Z 40
_cell_length_a 28.711489
_cell_length_b 7.600999
_cell_length_c 16.031022
_cell_angle_alpha 90.000000
_cell_angle_beta 138.479701
_cell_angle_gamma 90.000000
_cell_volume 2319.134958
_symmetry_space_group_name_H-M "C 2/C"
_symmetry_group_IT_number 15
_symmetry_cell_setting 'monoclinic'
loop_
_space_group_symop_operation_xyz
x,y,z
-x,y,1/2-z
-x,-y,-z
x,-y,1/2+z
1/2+x,1/2+y,z
1/2-x,1/2+y,1/2-z
1/2-x,1/2-y,-z
1/2+x,1/2-y,1/2+z
loop_
_atom_site_type_symbol
_atom_site_label
_atom_site_fract_x
_atom_site_fract_y
_atom_site_fract_z
Si Si1 0.580434 0.951690 0.360366
Si Si2 0.679156 0.247379 0.458161
Si Si3 0.813666 0.552460 0.875374
Si Si4 0.848348 0.871652 0.607546
Si Si5 0.278715 0.258918 0.673792
O O1 0.500000 0.010603 0.250000
O O2 0.610649 0.968068 0.495909
O O3 0.587818 0.752137 0.336934
O O4 0.628629 0.080811 0.366374
O O5 0.750000 0.250000 0.500000
O O6 0.633667 0.424079 0.383762
O O7 0.701028 0.222069 0.584533
O O8 0.753093 0.409341 0.809941
O O9 0.814670 0.611861 0.780785
O O10 0.779179 0.831566 0.461417
O O11 0.836759 0.842615 0.690688
#
# Coordination Sequence:
#
# PCOD8130252 Si02
#       5
#     8   8   8   8   8
#     4   9  21  36  51  78 110 146 183 211 271 327
#     4  10  17  33  56  81 102 137 182 224 266 309
#     4   9  19  30  55  78 113 131 177 225 266 311
#     4  10  18  32  55  74 109 138 174 219 272 314
#     4  10  17  31  49  86 104 132 175 226 265 312
#
# _framework density 17.247810999999999
#
# number of rings (size 3 to 8) (size 9 to 14) (size 15 to 20)
#    1.200    1.200    2.000    2.400    0.000    0.800 
#    0.000    1.000    0.000    1.200    0.000    0.000 
#    0.000    0.000    0.000    0.000    0.000    0.000 
#
# Total GULP energy -247771.108109 kJ/mol
# GULP energy per Si atom -12388.555405 kJ/mol
# Density = 1.720855 g / cm^3
# Si number density = 17.247811 Si / 1000 Ang^3
#
#
#
# Elastic Constant Matrix: (Units=GPa)
#
#
# Indices 1 2 3 4 5 6 
#
# 1 58.3024 24.8030 41.8287 0.0000 7.7858 0.0000
# 2 24.8030 106.0032 21.1421 0.0000 1.4726 0.0000
# 3 41.8287 21.1421 68.9706 0.0000 -5.0375 0.0000
# 4 0.0000 0.0000 0.0000 18.5628 0.0000 -3.4161
# 5 7.7858 1.4726 -5.0375 0.0000 31.3480 0.0000
# 6 0.0000 0.0000 0.0000 -3.4161 0.0000 23.9044
#
#
#
# Elastic Compliance Matrix: (Units=1/GPa)
#
#
# Indices 1 2 3 4 5 6 
#
# 1 0.035794 -0.003941 -0.021387 0.000000 -0.012142 0.000000
# 2 -0.003941 0.010512 -0.000806 0.000000 0.000355 0.000000
# 3 -0.021387 -0.000806 0.028441 0.000000 0.009920 0.000000
# 4 0.000000 0.000000 0.000000 0.055326 0.000000 0.007906
# 5 -0.012142 0.000355 0.009920 0.000000 0.036493 0.000000
# 6 0.000000 0.000000 0.000000 0.007906 0.000000 0.042963
#
#
# Mechanical properties :
#
#
# Convention : Reuss Voigt Hill
#
# Bulk Modulus (GPa) = 44.48634 45.42487 44.95561
# Shear Modulus (GPa) = 18.56741 24.46319 21.51530
#
# Velocity S-wave (km/s) = 3.28458 3.77017 3.53572
# Velocity P-wave (km/s) = 6.34295 6.73394 6.54137
#
# Compressibility (1/GPa) = 0.02247881
#
# Stress axis : x y z
#
# Youngs Moduli (GPa) = 27.93793 95.13256 35.16055
#
# Poissons Ratio (x) = 0.37491 0.75196
# Poissons Ratio (y) = 0.11010 0.02835
# Poissons Ratio (z) = 0.59750 0.07670
#
# Static dielectric constant tensor:
#      x y z
#    x 2.881910 0.000000 -0.164540 
#    y 0.000000 3.408380 0.000000 
#    z -0.164540 0.000000 2.939830 
# 
# 
# High freq. dielectric constant tensor:
#      x y z
#    x 1.635010 0.000000 -0.017400 
#    y 0.000000 1.678140 0.000000 
#    z -0.017400 0.000000 1.636000 
# 
# From -- ./inp_files/165834.got.cif
#   From: 2010.06.25/outbox.cif.g09.slc.cpg/sg15_83_cif.got.tgz:165834.got - 2010.06.28 07:06:18.
