data_PCOD8130410
_publ_section_title
;
Structure prediction by ZEFSAII (Michael W. Deem and Ramdas Pophale) SiO2 
 PCOD8130410
Probable space group: C 2/C
;
_chemical_formula_sum "Si O2"
_cell_formula_units_Z 64
_cell_length_a 25.304212
_cell_length_b 18.914128
_cell_length_c 20.486179
_cell_angle_alpha 90.000000
_cell_angle_beta 159.052875
_cell_angle_gamma 90.000000
_cell_volume 3505.288288
_symmetry_space_group_name_H-M "C 2/C"
_symmetry_group_IT_number 15
_symmetry_cell_setting 'monoclinic'
loop_
_space_group_symop_operation_xyz
x,y,z
-x,y,1/2-z
-x,-y,-z
x,-y,1/2+z
1/2+x,1/2+y,z
1/2-x,1/2+y,1/2-z
1/2-x,1/2-y,-z
1/2+x,1/2-y,1/2+z
loop_
_atom_site_type_symbol
_atom_site_label
_atom_site_fract_x
_atom_site_fract_y
_atom_site_fract_z
Si Si1 0.776025 0.833335 0.235924
Si Si2 0.730887 0.599170 0.904904
Si Si3 0.528510 0.207180 0.069879
Si Si4 0.432604 0.084009 0.477802
Si Si5 0.748790 0.036656 0.793267
Si Si6 0.855620 0.611525 0.184271
Si Si7 0.064150 0.959389 0.392403
Si Si8 0.434922 0.016851 0.608230
O O1 0.721161 0.852790 0.100223
O O2 0.919818 0.785258 0.390058
O O3 0.814540 0.904882 0.319509
O O4 0.648930 0.791161 0.128480
O O5 0.555521 0.593475 0.713377
O O6 0.821486 0.633148 0.070117
O O7 0.779279 0.518026 0.948173
O O8 0.589081 0.159724 0.080026
O O9 0.586714 0.177553 0.206712
O O10 0.599532 0.061246 0.655497
O O11 0.417734 0.083036 0.539389
O O12 0.299606 0.033881 0.300344
O O13 0.882637 0.022445 0.998504
O O14 0.968741 0.545336 0.315896
O O15 0.704317 0.589248 0.042885
O O16 0.000000 0.990908 0.250000
O O17 0.500000 0.048047 0.750000
#
# Coordination Sequence:
#
# PCOD8130410 Si02
#       8
#     8   8   8   8   8   8   8   8
#     4  11  24  38  52  78 109 148 185 226 268 316
#     4  10  21  33  51  83 114 138 179 226 271 316
#     4  11  23  37  55  76 109 147 187 222 267 323
#     4  10  17  34  61  80 100 146 187 222 267 324
#     4  10  18  35  59  80 106 143 185 224 270 324
#     4  10  18  35  56  76 109 148 180 218 265 332
#     4  10  20  33  55  87 114 138 173 227 284 324
#     4  10  17  32  58  85 107 134 184 231 267 320
#
# _framework density 18.258127999999999
#
# number of rings (size 3 to 8) (size 9 to 14) (size 15 to 20)
#    0.000    1.750    5.000    0.750    1.750    1.000 
#    2.250    0.000    0.000    0.750    0.000    3.500 
#    0.000    0.000    0.000    0.000    0.000    0.000 
#
# Total GULP energy -396533.601244 kJ/mol
# GULP energy per Si atom -12391.675039 kJ/mol
# Density = 1.821657 g / cm^3
# Si number density = 18.258128 Si / 1000 Ang^3
#
#
#
# Elastic Constant Matrix: (Units=GPa)
#
#
# Indices 1 2 3 4 5 6 
#
# 1 89.4965 27.7863 17.6199 0.0089 -10.0951 0.0134
# 2 27.7863 48.6067 13.0743 0.0152 -9.2772 0.0180
# 3 17.6199 13.0743 63.7361 0.0118 -1.7556 0.0180
# 4 0.0089 0.0152 0.0118 14.0578 0.0034 6.8673
# 5 -10.0951 -9.2772 -1.7556 0.0034 31.1542 0.0032
# 6 0.0134 0.0180 0.0180 6.8673 0.0032 28.3604
#
#
#
# Elastic Compliance Matrix: (Units=1/GPa)
#
#
# Indices 1 2 3 4 5 6 
#
# 1 0.014069 -0.006948 -0.002399 0.000001 0.002355 -0.000001
# 2 -0.006948 0.026489 -0.003363 -0.000019 0.005447 -0.000007
# 3 -0.002399 -0.003363 0.017020 -0.000006 -0.000820 -0.000006
# 4 0.000001 -0.000019 -0.000006 0.080678 -0.000013 -0.019536
# 5 0.002355 0.005447 -0.000820 -0.000013 0.034437 -0.000005
# 6 -0.000001 -0.000007 -0.000006 -0.019536 -0.000005 0.039991
#
#
# Mechanical properties :
#
#
# Convention : Reuss Voigt Hill
#
# Bulk Modulus (GPa) = 31.09623 35.42227 33.25925
# Shear Modulus (GPa) = 20.09451 24.27171 22.18311
#
# Velocity S-wave (km/s) = 3.32110 3.65000 3.48943
# Velocity P-wave (km/s) = 5.63690 6.09970 5.87286
#
# Compressibility (1/GPa) = 0.03215824
#
# Stress axis : x y z
#
# Youngs Moduli (GPa) = 71.07999 37.75117 58.75349
#
# Poissons Ratio (x) = 0.26228 0.14096
# Poissons Ratio (y) = 0.49384 0.19759
# Poissons Ratio (z) = 0.17054 0.12696
#
# Static dielectric constant tensor:
#      x y z
#    x 3.650430 -0.000020 -0.090100 
#    y -0.000020 2.971860 -0.000040 
#    z -0.090100 -0.000040 3.530140 
# 
# 
# High freq. dielectric constant tensor:
#      x y z
#    x 1.723530 0.000000 0.003070 
#    y 0.000000 1.653970 0.000000 
#    z 0.003070 0.000000 1.706050 
# 
# From -- ./inp_files/258072.got.cif
#   From: 2010.06.25/outbox.cif.g09.slc.cpg/sg15_130_cif.got.tgz:258072.got - 2010.06.28 07:06:18.
