data_PCOD8130907
_publ_section_title
;
Structure prediction by ZEFSAII (Michael W. Deem and Ramdas Pophale) SiO2 
 PCOD8130907
Probable space group: C 2/C
;
_chemical_formula_sum "Si O2"
_cell_formula_units_Z 64
_cell_length_a 27.271348
_cell_length_b 18.453160
_cell_length_c 23.118204
_cell_angle_alpha 90.000000
_cell_angle_beta 21.303068
_cell_angle_gamma 90.000000
_cell_volume 4226.668428
_symmetry_space_group_name_H-M "C 2/C"
_symmetry_group_IT_number 15
_symmetry_cell_setting 'monoclinic'
loop_
_space_group_symop_operation_xyz
x,y,z
-x,y,1/2-z
-x,-y,-z
x,-y,1/2+z
1/2+x,1/2+y,z
1/2-x,1/2+y,1/2-z
1/2-x,1/2-y,-z
1/2+x,1/2-y,1/2+z
loop_
_atom_site_type_symbol
_atom_site_label
_atom_site_fract_x
_atom_site_fract_y
_atom_site_fract_z
Si Si1 0.326436 0.963020 0.242480
Si Si2 0.345733 0.528008 0.230522
Si Si3 0.124290 0.587191 0.391328
Si Si4 0.102439 0.256103 0.939167
Si Si5 0.886362 0.100396 0.609890
Si Si6 0.688949 0.249732 0.686477
Si Si7 0.811825 0.108668 0.506595
Si Si8 0.120451 0.106852 0.196911
O O1 0.329931 0.046593 0.217882
O O2 0.230819 0.916665 0.306301
O O3 0.266979 0.955594 0.372626
O O4 0.473601 0.929896 0.076207
O O5 0.213538 0.561697 0.347176
O O6 0.359529 0.442504 0.199648
O O7 0.342291 0.538015 0.303473
O O8 0.470326 0.575358 0.071245
O O9 0.138740 0.672399 0.362274
O O10 0.112949 0.187427 0.883990
O O11 0.202789 0.252475 0.882112
O O12 0.954432 0.263538 0.127449
O O13 0.727128 0.182646 0.603490
O O14 0.690917 0.321775 0.645436
O O15 0.819483 0.086606 0.431310
O O16 0.960136 0.120061 0.370573
#
# Coordination Sequence:
#
# PCOD8130907 Si02
#       8
#     8   8   8   8   8   8   8   8
#     4  10  18  34  44  68  89 129 151 192 234 277
#     4  10  18  32  46  70  86 124 161 199 220 270
#     4  10  20  28  50  66  96 117 157 190 238 278
#     4  12  18  30  49  70  93 129 149 192 237 282
#     4  10  18  30  50  62  96 121 156 192 239 270
#     4  12  19  32  44  68  99 122 163 185 221 280
#     4  11  21  33  48  64  98 131 160 192 231 273
#     4  11  21  33  47  68  93 131 165 191 226 272
#
# _framework density 15.141949
#
# number of rings (size 3 to 8) (size 9 to 14) (size 15 to 20)
#    0.000    1.250    7.500    0.375    0.000    0.000 
#    0.000    1.875    0.000    0.000    0.000    0.875 
#    0.000    0.000    0.000    0.000    0.000    0.000 
#
# Total GULP energy -396685.188265 kJ/mol
# GULP energy per Si atom -12396.412133 kJ/mol
# Density = 1.510749 g / cm^3
# Si number density = 15.141949 Si / 1000 Ang^3
#
#
#
# Elastic Constant Matrix: (Units=GPa)
#
#
# Indices 1 2 3 4 5 6 
#
# 1 96.0266 59.2039 46.1753 -0.0001 6.1931 -0.0026
# 2 59.2039 118.5533 39.3050 -0.0030 16.7863 0.0005
# 3 46.1753 39.3050 91.5007 0.0019 -5.5279 -0.0046
# 4 -0.0001 -0.0030 0.0019 21.2077 0.0006 3.6465
# 5 6.1931 16.7863 -5.5279 0.0006 31.2144 0.0018
# 6 -0.0026 0.0005 -0.0046 3.6465 0.0018 25.7088
#
#
#
# Elastic Compliance Matrix: (Units=1/GPa)
#
#
# Indices 1 2 3 4 5 6 
#
# 1 0.017425 -0.006559 -0.006036 0.000000 -0.000999 0.000001
# 2 -0.006559 0.013607 -0.002930 0.000003 -0.006535 -0.000001
# 3 -0.006036 -0.002930 0.015568 -0.000002 0.005530 0.000002
# 4 0.000000 0.000003 -0.000002 0.048331 -0.000002 -0.006855
# 5 -0.000999 -0.006535 0.005530 -0.000002 0.036728 -0.000001
# 6 0.000001 -0.000001 0.000002 -0.006855 -0.000001 0.039870
#
#
# Mechanical properties :
#
#
# Convention : Reuss Voigt Hill
#
# Bulk Modulus (GPa) = 64.31127 66.16101 65.23614
# Shear Modulus (GPa) = 24.06601 26.38595 25.22598
#
# Velocity S-wave (km/s) = 3.99100 4.17894 4.08605
# Velocity P-wave (km/s) = 7.98761 8.18984 8.08936
#
# Compressibility (1/GPa) = 0.01554937
#
# Stress axis : x y z
#
# Youngs Moduli (GPa) = 57.39041 73.49054 64.23582
#
# Poissons Ratio (x) = 0.48202 0.38773
# Poissons Ratio (y) = 0.37642 0.18821
# Poissons Ratio (z) = 0.34641 0.21533
#
# Static dielectric constant tensor:
#      x y z
#    x 2.859780 0.000000 -0.058540 
#    y 0.000000 3.156350 0.000010 
#    z -0.058540 0.000010 2.953630 
# 
# 
# High freq. dielectric constant tensor:
#      x y z
#    x 1.562390 0.000000 -0.025230 
#    y 0.000000 1.570300 0.000000 
#    z -0.025230 0.000000 1.589170 
# 
# From -- ./inp_files/282248.got.cif
#   From: 2010.06.25/outbox.cif.g09.slc.cpg/sg15_142_cif.got.tgz:282248.got - 2010.06.28 07:06:18.
