data_PCOD8130133
_publ_section_title
;
Structure prediction by ZEFSAII (Michael W. Deem and Ramdas Pophale) SiO2 
 PCOD8130133
Probable space group: C 2/C
;
_chemical_formula_sum "Si O2"
_cell_formula_units_Z 64
_cell_length_a 11.417211
_cell_length_b 15.219237
_cell_length_c 25.711007
_cell_angle_alpha 90.000000
_cell_angle_beta 49.273699
_cell_angle_gamma 90.000000
_cell_volume 3385.685439
_symmetry_space_group_name_H-M "C 2/C"
_symmetry_group_IT_number 15
_symmetry_cell_setting 'monoclinic'
loop_
_space_group_symop_operation_xyz
x,y,z
-x,y,1/2-z
-x,-y,-z
x,-y,1/2+z
1/2+x,1/2+y,z
1/2-x,1/2+y,1/2-z
1/2-x,1/2-y,-z
1/2+x,1/2-y,1/2+z
loop_
_atom_site_type_symbol
_atom_site_label
_atom_site_fract_x
_atom_site_fract_y
_atom_site_fract_z
Si Si1 0.822474 0.887862 0.816279
Si Si2 0.123321 0.141585 0.786250
Si Si3 0.340979 0.880387 0.829064
Si Si4 0.247978 0.030790 0.261908
Si Si5 0.057968 0.461046 0.141174
Si Si6 0.596086 0.968992 0.423457
Si Si7 0.209734 0.809822 0.147759
Si Si8 0.332258 0.191838 0.822306
O O1 0.733716 0.891926 0.786133
O O2 0.798435 0.792807 0.850652
O O3 0.000000 0.908292 0.750000
O O4 0.740797 0.964551 0.873556
O O5 0.214816 0.173424 0.708390
O O6 0.203467 0.169514 0.816865
O O7 0.952192 0.177255 0.833829
O O8 0.108817 0.035280 0.788260
O O9 0.500000 0.861583 0.750000
O O10 0.219384 0.926429 0.825724
O O11 0.256207 0.792448 0.872751
O O12 0.359253 0.945339 0.872439
O O13 0.398470 0.965748 0.220507
O O14 0.162298 0.378235 0.131157
O O15 0.021371 0.457888 0.090798
O O16 0.664101 0.872173 0.415618
O O17 0.500000 0.000000 0.500000
O O18 0.500000 0.193834 0.750000
#
# Coordination Sequence:
#
# PCOD8130133 Si02
#       8
#     8   8   8   8   8   8   8   8
#     4  10  21  33  58  89 117 143 193 235 286 336
#     4  11  18  30  54  85 126 141 181 231 293 322
#     4  10  18  30  51  86 114 148 182 233 284 337
#     4  10  17  29  50  81 123 147 176 228 284 333
#     4  10  19  34  55  79 115 154 195 223 282 348
#     4  11  24  43  61  79 112 156 194 239 290 345
#     4  11  21  32  54  84 114 149 184 236 284 333
#     4  11  18  32  54  90 119 153 179 237 285 342
#
# _framework density 18.903113999999999
#
# number of rings (size 3 to 8) (size 9 to 14) (size 15 to 20)
#    0.000    1.500    6.250    1.875    3.500    1.000 
#    0.000    1.250    0.000    0.750    0.000    0.000 
#    0.000    0.000    0.000    0.000    0.000    0.000 
#
# Total GULP energy -396426.127721 kJ/mol
# GULP energy per Si atom -12388.316491 kJ/mol
# Density = 1.886009 g / cm^3
# Si number density = 18.903114 Si / 1000 Ang^3
#
#
#
# Elastic Constant Matrix: (Units=GPa)
#
#
# Indices 1 2 3 4 5 6 
#
# 1 92.9416 46.4991 24.8236 0.0001 12.2853 0.0000
# 2 46.4991 154.2454 21.4456 0.0000 4.6811 0.0000
# 3 24.8236 21.4456 49.2399 -0.0001 1.6598 0.0000
# 4 0.0001 0.0000 -0.0001 9.2212 0.0000 -2.2970
# 5 12.2853 4.6811 1.6598 0.0000 11.6931 0.0000
# 6 0.0000 0.0000 0.0000 -2.2970 0.0000 31.4366
#
#
#
# Elastic Compliance Matrix: (Units=1/GPa)
#
#
# Indices 1 2 3 4 5 6 
#
# 1 0.016097 -0.003565 -0.006070 0.000000 -0.014624 0.000000
# 2 -0.003565 0.007755 -0.001610 0.000000 0.000869 0.000000
# 3 -0.006070 -0.001610 0.023948 0.000000 0.003622 0.000000
# 4 0.000000 0.000000 0.000000 0.110456 0.000000 0.008071
# 5 -0.014624 0.000869 0.003622 0.000000 0.100023 0.000000
# 6 0.000000 0.000000 0.000000 0.008071 0.000000 0.032400
#
#
# Mechanical properties :
#
#
# Convention : Reuss Voigt Hill
#
# Bulk Modulus (GPa) = 39.50776 53.55152 46.52964
# Shear Modulus (GPa) = 15.54706 24.04742 19.79724
#
# Velocity S-wave (km/s) = 2.87097 3.57058 3.23971
# Velocity P-wave (km/s) = 5.65115 6.73719 6.21792
#
# Compressibility (1/GPa) = 0.02531148
#
# Stress axis : x y z
#
# Youngs Moduli (GPa) = 62.12279 128.94386 41.75781
#
# Poissons Ratio (x) = 0.45968 0.25345
# Poissons Ratio (y) = 0.22147 0.06722
# Poissons Ratio (z) = 0.37706 0.20757
#
# Static dielectric constant tensor:
#      x y z
#    x 3.722570 0.000000 0.049450 
#    y 0.000000 3.906590 0.000000 
#    z 0.049450 0.000000 2.723610 
# 
# 
# High freq. dielectric constant tensor:
#      x y z
#    x 1.751750 0.000000 0.010730 
#    y 0.000000 1.759330 0.000000 
#    z 0.010730 0.000000 1.640100 
# 
# From -- ./inp_files/293238.got.cif
#   From: 2010.06.25/outbox.cif.g09.slc.cpg/sg15_147_cif.got.tgz:293238.got - 2010.06.28 07:06:18.
