data_PCOD8130037
_publ_section_title
;
Structure prediction by ZEFSAII (Michael W. Deem and Ramdas Pophale) SiO2 
 PCOD8130037
Probable space group: C 2/C
;
_chemical_formula_sum "Si O2"
_cell_formula_units_Z 56
_cell_length_a 23.742242
_cell_length_b 8.234656
_cell_length_c 14.933547
_cell_angle_alpha 90.000000
_cell_angle_beta 72.745663
_cell_angle_gamma 90.000000
_cell_volume 2788.254388
_symmetry_space_group_name_H-M "C 2/C"
_symmetry_group_IT_number 15
_symmetry_cell_setting 'monoclinic'
loop_
_space_group_symop_operation_xyz
x,y,z
-x,y,1/2-z
-x,-y,-z
x,-y,1/2+z
1/2+x,1/2+y,z
1/2-x,1/2+y,1/2-z
1/2-x,1/2-y,-z
1/2+x,1/2-y,1/2+z
loop_
_atom_site_type_symbol
_atom_site_label
_atom_site_fract_x
_atom_site_fract_y
_atom_site_fract_z
Si Si1 0.818500 0.823838 0.194629
Si Si2 0.758948 0.867739 0.636612
Si Si3 0.988490 0.629441 0.611473
Si Si4 0.833513 0.342140 0.972464
Si Si5 0.596719 0.362415 0.191647
Si Si6 0.903790 0.581258 0.051150
Si Si7 0.500000 0.614277 0.250000
Si Si8 0.500000 0.117417 0.250000
O O1 0.768099 0.707647 0.259738
O O2 0.853408 0.909292 0.259924
O O3 0.862964 0.714111 0.116675
O O4 0.791169 0.963532 0.145153
O O5 0.802221 0.733868 0.574063
O O6 0.709680 0.905765 0.585232
O O7 0.925281 0.566408 0.605284
O O8 0.036041 0.669261 0.511577
O O9 0.975328 0.785506 0.677770
O O10 0.019280 0.490631 0.656965
O O11 0.875310 0.200408 0.913891
O O12 0.868007 0.502277 0.986347
O O13 0.555575 0.513956 0.187098
O O14 0.555931 0.222894 0.254542
#
# Coordination Sequence:
#
# PCOD8130037 Si02
#       8
#     8   8   8   8   8   8   4   4
#     4  11  23  42  64  89 120 162 204 255 309 355
#     4  10  24  42  62  90 118 156 212 256 300 361
#     4  10  22  37  57  97 119 158 202 244 291 383
#     4  10  22  42  63  85 125 159 200 260 308 350
#     4  10  21  39  61  89 122 165 190 254 308 355
#     4  11  22  38  64  90 122 161 199 249 312 364
#     4  10  24  36  60  92 126 158 210 244 294 386
#     4  10  16  40  58  82 126 158 192 238 294 378
#
# _framework density 20.084250000000001
#
# number of rings (size 3 to 8) (size 9 to 14) (size 15 to 20)
#    0.000    1.714    2.857    0.857    4.000    0.571 
#    2.571    1.429    0.000    0.000    0.000    0.000 
#    0.000    0.000    0.000    0.000    0.000    0.000 
#
# Total GULP energy -347186.957003 kJ/mol
# GULP energy per Si atom -12399.534179 kJ/mol
# Density = 2.003854 g / cm^3
# Si number density = 20.084250 Si / 1000 Ang^3
#
#
#
# Elastic Constant Matrix: (Units=GPa)
#
#
# Indices 1 2 3 4 5 6 
#
# 1 89.1403 40.8618 24.5606 0.0000 -1.9953 0.0000
# 2 40.8618 77.8524 29.3991 0.0000 -0.0488 0.0000
# 3 24.5606 29.3991 87.7359 0.0000 -12.1498 0.0000
# 4 0.0000 0.0000 0.0000 25.4485 0.0000 0.0019
# 5 -1.9953 -0.0488 -12.1498 0.0000 34.5130 0.0000
# 6 0.0000 0.0000 0.0000 0.0019 0.0000 33.1539
#
#
#
# Elastic Compliance Matrix: (Units=1/GPa)
#
#
# Indices 1 2 3 4 5 6 
#
# 1 0.015016 -0.007220 -0.001751 0.000000 0.000242 0.000000
# 2 -0.007220 0.018284 -0.004373 0.000000 -0.001931 0.000000
# 3 -0.001751 -0.004373 0.014022 0.000000 0.004829 0.000000
# 4 0.000000 0.000000 0.000000 0.039295 0.000000 -0.000002
# 5 0.000242 -0.001931 0.004829 0.000000 0.030686 0.000000
# 6 0.000000 0.000000 0.000000 -0.000002 0.000000 0.030162
#
#
# Mechanical properties :
#
#
# Convention : Reuss Voigt Hill
#
# Bulk Modulus (GPa) = 48.46226 49.37462 48.91844
# Shear Modulus (GPa) = 27.61960 29.28357 28.45159
#
# Velocity S-wave (km/s) = 3.71237 3.82257 3.76787
# Velocity P-wave (km/s) = 6.52361 6.64227 6.58321
#
# Compressibility (1/GPa) = 0.02063461
#
# Stress axis : x y z
#
# Youngs Moduli (GPa) = 66.59732 54.69130 71.31642
#
# Poissons Ratio (x) = 0.39486 0.12485
# Poissons Ratio (y) = 0.48082 0.31188
# Poissons Ratio (z) = 0.11659 0.23917
#
# Static dielectric constant tensor:
#      x y z
#    x 3.751660 0.000000 -0.042730 
#    y 0.000000 3.393980 0.000000 
#    z -0.042730 0.000000 3.651310 
# 
# 
# High freq. dielectric constant tensor:
#      x y z
#    x 1.791340 0.000000 -0.004160 
#    y 0.000000 1.767040 0.000000 
#    z -0.004160 0.000000 1.790350 
# 
# From -- ./inp_files/171834.got.cif
#   From: 2010.06.25/outbox.cif.g09.slc.cpg/sg15_86_cif.got.tgz:171834.got - 2010.06.28 07:06:18.
