data_PCOD8130924
_publ_section_title
;
Structure prediction by ZEFSAII (Michael W. Deem and Ramdas Pophale) SiO2 
 PCOD8130924
Probable space group: C 2/C
;
_chemical_formula_sum "Si O2"
_cell_formula_units_Z 48
_cell_length_a 17.122205
_cell_length_b 20.831189
_cell_length_c 19.493345
_cell_angle_alpha 90.000000
_cell_angle_beta 157.763023
_cell_angle_gamma 90.000000
_cell_volume 2631.207704
_symmetry_space_group_name_H-M "C 2/C"
_symmetry_group_IT_number 15
_symmetry_cell_setting 'monoclinic'
loop_
_space_group_symop_operation_xyz
x,y,z
-x,y,1/2-z
-x,-y,-z
x,-y,1/2+z
1/2+x,1/2+y,z
1/2-x,1/2+y,1/2-z
1/2-x,1/2-y,-z
1/2+x,1/2-y,1/2+z
loop_
_atom_site_type_symbol
_atom_site_label
_atom_site_fract_x
_atom_site_fract_y
_atom_site_fract_z
Si Si1 0.067199 0.478811 0.227271
Si Si2 0.187641 0.621431 0.282984
Si Si3 0.836752 0.814208 0.036026
Si Si4 0.991619 0.060304 0.042681
Si Si5 0.661276 0.511878 0.320489
Si Si6 0.243452 0.130759 0.892852
O O1 0.145541 0.551728 0.281443
O O2 0.248746 0.427363 0.358373
O O3 0.000000 0.468454 0.250000
O O4 0.882916 0.463075 0.025633
O O5 0.229467 0.673413 0.376368
O O6 0.387539 0.619014 0.395709
O O7 0.985996 0.645265 0.075796
O O8 0.781142 0.871539 0.043879
O O9 0.089362 0.815200 0.235040
O O10 0.750000 0.750000 0.000000
O O11 0.101822 0.050550 0.204931
O O12 0.000000 0.000000 0.000000
O O13 0.500000 0.523044 0.250000
O O14 0.675915 0.437891 0.308819
#
# Coordination Sequence:
#
# PCOD8130924 Si02
#       6
#     8   8   8   8   8   8
#     4  10  18  30  51  71  99 138 178 225 263 322
#     4  10  21  33  47  69 104 134 179 222 270 311
#     4  11  22  33  50  72  98 138 187 221 254 311
#     4  10  21  31  48  74 101 136 182 224 273 316
#     4  11  18  32  51  71 100 138 184 216 262 328
#     4  10  21  32  50  69  98 135 181 221 257 309
#
# _framework density 18.242573
#
# number of rings (size 3 to 8) (size 9 to 14) (size 15 to 20)
#    0.000    1.667    3.333    4.500    4.667    7.333 
#    0.000    0.000    0.000    0.000    0.000    0.000 
#    0.000    0.000    0.000    4.500    0.667    0.000 
#
# Total GULP energy -297390.517500 kJ/mol
# GULP energy per Si atom -12391.271562 kJ/mol
# Density = 1.820105 g / cm^3
# Si number density = 18.242573 Si / 1000 Ang^3
#
#
#
# Elastic Constant Matrix: (Units=GPa)
#
#
# Indices 1 2 3 4 5 6 
#
# 1 79.5511 19.9763 48.0323 0.0426 4.9324 0.0525
# 2 19.9763 38.4937 35.8662 0.0024 4.1618 0.1642
# 3 48.0323 35.8662 162.5913 0.3087 16.7201 0.0940
# 4 0.0426 0.0024 0.3087 16.9692 0.0859 5.9236
# 5 4.9324 4.1618 16.7201 0.0859 37.7437 -0.0036
# 6 0.0525 0.1642 0.0940 5.9236 -0.0036 19.9568
#
#
#
# Elastic Compliance Matrix: (Units=1/GPa)
#
#
# Indices 1 2 3 4 5 6 
#
# 1 0.016004 -0.004910 -0.003652 0.000024 0.000068 0.000008
# 2 -0.004910 0.034214 -0.006051 0.000227 -0.000451 -0.000307
# 3 -0.003652 -0.006051 0.008850 -0.000159 -0.002776 0.000065
# 4 0.000024 0.000227 -0.000159 0.065746 -0.000109 -0.019516
# 5 0.000068 -0.000451 -0.002776 -0.000109 0.027765 0.000054
# 6 0.000008 -0.000307 0.000065 -0.019516 0.000054 0.055903
#
#
# Mechanical properties :
#
#
# Convention : Reuss Voigt Hill
#
# Bulk Modulus (GPa) = 33.50905 54.26507 43.88706
# Shear Modulus (GPa) = 20.18934 26.71803 23.45369
#
# Velocity S-wave (km/s) = 3.33034 3.83116 3.58950
# Velocity P-wave (km/s) = 5.76166 7.02719 6.42565
#
# Compressibility (1/GPa) = 0.02984269
#
# Stress axis : x y z
#
# Youngs Moduli (GPa) = 62.48337 29.22769 112.99954
#
# Poissons Ratio (x) = 0.14351 0.41265
# Poissons Ratio (y) = 0.30681 0.68372
# Poissons Ratio (z) = 0.22818 0.17685
#
# Static dielectric constant tensor:
#      x y z
#    x 3.461220 -0.000310 0.352580 
#    y -0.000310 2.879600 -0.001740 
#    z 0.352580 -0.001740 3.972910 
# 
# 
# High freq. dielectric constant tensor:
#      x y z
#    x 1.687600 -0.000020 0.002670 
#    y -0.000020 1.631190 -0.000070 
#    z 0.002670 -0.000070 1.744500 
# 
# From -- ./inp_files/249994.got.cif
#   From: 2010.06.25/outbox.cif.g09.slc.cpg/sg15_125_cif.got.tgz:249994.got - 2010.06.28 07:06:18.
