data_PCOD8130993
_publ_section_title
;
Structure prediction by ZEFSAII (Michael W. Deem and Ramdas Pophale) SiO2 
 PCOD8130993
Probable space group: C 2/C
;
_chemical_formula_sum "Si O2"
_cell_formula_units_Z 36
_cell_length_a 13.587893
_cell_length_b 18.346197
_cell_length_c 9.709423
_cell_angle_alpha 90.000000
_cell_angle_beta 132.179773
_cell_angle_gamma 90.000000
_cell_volume 1793.635670
_symmetry_space_group_name_H-M "C 2/C"
_symmetry_group_IT_number 15
_symmetry_cell_setting 'monoclinic'
loop_
_space_group_symop_operation_xyz
x,y,z
-x,y,1/2-z
-x,-y,-z
x,-y,1/2+z
1/2+x,1/2+y,z
1/2-x,1/2+y,1/2-z
1/2-x,1/2-y,-z
1/2+x,1/2-y,1/2+z
loop_
_atom_site_type_symbol
_atom_site_label
_atom_site_fract_x
_atom_site_fract_y
_atom_site_fract_z
Si Si1 0.586473 0.527229 0.453333
Si Si2 0.085918 0.235821 0.069428
Si Si3 0.000000 0.339326 0.750000
Si Si4 0.714187 0.379150 0.493835
Si Si5 0.680119 0.331108 0.154936
O O1 0.500000 0.500000 0.500000
O O2 0.658024 0.459638 0.448990
O O3 0.693192 0.588383 0.600986
O O4 0.500000 0.562917 0.250000
O O5 0.163715 0.169483 0.072264
O O6 0.192377 0.280639 0.264075
O O7 0.021973 0.290443 0.902487
O O8 0.958605 0.203693 0.031922
O O9 0.872110 0.389551 0.653507
O O10 0.670333 0.338960 0.311899
#
# Coordination Sequence:
#
# PCOD8130993 Si02
#       5
#     8   8   4   8   8
#     4  12  23  39  61  88 119 157 197 241 294 359
#     4  11  17  33  57  92 117 150 196 250 293 333
#     4  10  18  30  56  92 124 142 196 256 290 336
#     4  11  19  34  59  91 118 152 199 246 295 338
#     4  11  21  35  62  89 116 152 199 248 292 343
#
# _framework density 20.070967
#
# number of rings (size 3 to 8) (size 9 to 14) (size 15 to 20)
#    0.000    0.889    8.889    1.333    0.000    0.000 
#    0.000    5.556    4.889    0.000    0.000    0.000 
#    0.000    0.000    0.000    0.000    0.000    0.000 
#
# Total GULP energy -223130.350795 kJ/mol
# GULP energy per Si atom -12396.130600 kJ/mol
# Density = 2.002528 g / cm^3
# Si number density = 20.070967 Si / 1000 Ang^3
#
#
#
# Elastic Constant Matrix: (Units=GPa)
#
#
# Indices 1 2 3 4 5 6 
#
# 1 53.1662 15.2605 32.6501 0.0000 31.6055 0.0000
# 2 15.2605 91.8280 35.4544 0.0000 23.6320 0.0000
# 3 32.6501 35.4544 83.8173 0.0000 24.6564 0.0000
# 4 0.0000 0.0000 0.0000 44.2078 0.0000 2.5568
# 5 31.6055 23.6320 24.6564 0.0000 35.3979 0.0000
# 6 0.0000 0.0000 0.0000 2.5568 0.0000 24.8513
#
#
#
# Elastic Compliance Matrix: (Units=1/GPa)
#
#
# Indices 1 2 3 4 5 6 
#
# 1 0.045176 0.005673 -0.008826 0.000000 -0.037976 0.000000
# 2 0.005673 0.014869 -0.005143 0.000000 -0.011410 0.000000
# 3 -0.008826 -0.005143 0.017880 0.000000 -0.001140 0.000000
# 4 0.000000 0.000000 0.000000 0.022756 0.000000 -0.002341
# 5 -0.037976 -0.011410 -0.001140 0.000000 0.070568 0.000000
# 6 0.000000 0.000000 0.000000 -0.002341 0.000000 0.040480
#
#
# Mechanical properties :
#
#
# Convention : Reuss Voigt Hill
#
# Bulk Modulus (GPa) = 16.30458 43.94906 30.12682
# Shear Modulus (GPa) = 20.09919 30.58785 25.34352
#
# Velocity S-wave (km/s) = 3.16793 3.90806 3.55730
# Velocity P-wave (km/s) = 4.63920 6.50448 5.64936
#
# Compressibility (1/GPa) = 0.06133247
#
# Stress axis : x y z
#
# Youngs Moduli (GPa) = 22.13557 67.25317 55.92920
#
# Poissons Ratio (x) = -0.38155 0.49365
# Poissons Ratio (y) = -0.12558 0.28765
# Poissons Ratio (z) = 0.19538 0.34589
#
# Static dielectric constant tensor:
#      x y z
#    x 3.564050 0.000000 0.419120 
#    y 0.000000 3.740990 0.000000 
#    z 0.419120 0.000000 3.880280 
# 
# 
# High freq. dielectric constant tensor:
#      x y z
#    x 1.752900 0.000000 0.024300 
#    y 0.000000 1.784390 0.000000 
#    z 0.024300 0.000000 1.779430 
# 
# From -- ./inp_files/30098.got.cif
#   From: 2010.06.25/outbox.cif.g09.slc.cpg/sg15_16_cif.got.tgz:30098.got - 2010.06.28 07:06:18.
