data_PCOD8130363
_publ_section_title
;
Structure prediction by ZEFSAII (Michael W. Deem and Ramdas Pophale) SiO2 
 PCOD8130363
Probable space group: C 2/C
;
_chemical_formula_sum "Si O2"
_cell_formula_units_Z 52
_cell_length_a 10.835903
_cell_length_b 15.631871
_cell_length_c 19.719286
_cell_angle_alpha 90.000000
_cell_angle_beta 58.558668
_cell_angle_gamma 90.000000
_cell_volume 2849.740014
_symmetry_space_group_name_H-M "C 2/C"
_symmetry_group_IT_number 15
_symmetry_cell_setting 'monoclinic'
loop_
_space_group_symop_operation_xyz
x,y,z
-x,y,1/2-z
-x,-y,-z
x,-y,1/2+z
1/2+x,1/2+y,z
1/2-x,1/2+y,1/2-z
1/2-x,1/2-y,-z
1/2+x,1/2-y,1/2+z
loop_
_atom_site_type_symbol
_atom_site_label
_atom_site_fract_x
_atom_site_fract_y
_atom_site_fract_z
Si Si1 0.690406 0.841515 0.326963
Si Si2 0.000000 0.783072 0.250000
Si Si3 0.451142 0.182201 0.127695
Si Si4 0.725273 0.141945 0.543393
Si Si5 0.343966 0.241363 0.802297
Si Si6 0.487069 0.993151 0.423821
Si Si7 0.479471 0.747699 0.479450
O O1 0.677213 0.827091 0.251166
O O2 0.617821 0.931775 0.363889
O O3 0.614664 0.763318 0.390991
O O4 0.859862 0.843573 0.297088
O O5 0.003653 0.723132 0.314640
O O6 0.277881 0.185955 0.167089
O O7 0.500359 0.084420 0.115198
O O8 0.526040 0.234970 0.044099
O O9 0.658831 0.186737 0.628507
O O10 0.670412 0.043771 0.554922
O O11 0.651549 0.186073 0.498864
O O12 0.901521 0.153728 0.492122
O O13 0.500000 0.286962 0.750000
O O14 0.500000 0.000000 0.500000
#
# Coordination Sequence:
#
# PCOD8130363 Si02
#       7
#     8   4   8   8   8   8   8
#     4  10  20  35  58  76 110 143 183 213 270 320
#     4  10  24  40  52  76 110 154 180 208 260 344
#     4  10  21  34  53  80 108 138 182 219 271 319
#     4   9  17  28  53  80 107 128 176 224 267 308
#     4  10  17  32  53  81 101 140 183 225 258 315
#     4  11  19  33  54  85 106 136 176 229 274 309
#     4   9  16  31  53  80  99 139 176 221 254 319
#
# _framework density 18.247278000000001
#
# number of rings (size 3 to 8) (size 9 to 14) (size 15 to 20)
#    0.000    2.154    6.154    0.000    0.000    1.846 
#    1.385    0.000    0.000    0.923    0.000    0.000 
#    0.000    0.000    0.000    0.000    0.000    0.000 
#
# Total GULP energy -322167.464224 kJ/mol
# GULP energy per Si atom -12391.056316 kJ/mol
# Density = 1.820575 g / cm^3
# Si number density = 18.247278 Si / 1000 Ang^3
#
#
#
# Elastic Constant Matrix: (Units=GPa)
#
#
# Indices 1 2 3 4 5 6 
#
# 1 72.4941 25.5110 19.0213 0.0000 -0.1680 0.0000
# 2 25.5110 80.4483 11.3871 0.0000 3.2961 0.0000
# 3 19.0213 11.3871 76.9884 0.0000 16.1403 0.0000
# 4 0.0000 0.0000 0.0000 26.7536 0.0000 -4.2818
# 5 -0.1680 3.2961 16.1403 0.0000 38.4967 0.0000
# 6 0.0000 0.0000 0.0000 -4.2818 0.0000 24.8910
#
#
#
# Elastic Compliance Matrix: (Units=1/GPa)
#
#
# Indices 1 2 3 4 5 6 
#
# 1 0.016475 -0.004772 -0.003799 0.000000 0.002073 0.000000
# 2 -0.004772 0.014082 -0.000709 0.000000 -0.000929 0.000000
# 3 -0.003799 -0.000709 0.015375 0.000000 -0.006402 0.000000
# 4 0.000000 0.000000 0.000000 0.038436 0.000000 0.006612
# 5 0.002073 -0.000929 -0.006402 0.000000 0.028749 0.000000
# 6 0.000000 0.000000 0.000000 0.006612 0.000000 0.041313
#
#
# Mechanical properties :
#
#
# Convention : Reuss Voigt Hill
#
# Bulk Modulus (GPa) = 36.53428 37.97439 37.25434
# Shear Modulus (GPa) = 27.45541 29.62902 28.54221
#
# Velocity S-wave (km/s) = 3.88316 4.03395 3.95928
# Velocity P-wave (km/s) = 6.33802 6.52328 6.43132
#
# Compressibility (1/GPa) = 0.02737155
#
# Stress axis : x y z
#
# Youngs Moduli (GPa) = 60.69784 71.01313 65.04195
#
# Poissons Ratio (x) = 0.33884 0.24712
# Poissons Ratio (y) = 0.28962 0.04612
# Poissons Ratio (z) = 0.23061 0.05036
#
# Static dielectric constant tensor:
#      x y z
#    x 3.578900 0.000000 0.015830 
#    y 0.000000 3.225090 0.000000 
#    z 0.015830 0.000000 3.703300 
# 
# 
# High freq. dielectric constant tensor:
#      x y z
#    x 1.704670 0.000000 0.011180 
#    y 0.000000 1.660800 0.000000 
#    z 0.011180 0.000000 1.726770 
# 
# From -- ./inp_files/197300.got.cif
#   From: 2010.06.25/outbox.cif.g09.slc.cpg/sg15_99_cif.got.tgz:197300.got - 2010.06.28 07:06:18.
