data_PCOD8130555
_publ_section_title
;
Structure prediction by ZEFSAII (Michael W. Deem and Ramdas Pophale) SiO2 
 PCOD8130555
Probable space group: C 2/C
;
_chemical_formula_sum "Si O2"
_cell_formula_units_Z 60
_cell_length_a 17.665295
_cell_length_b 19.093874
_cell_length_c 9.669508
_cell_angle_alpha 90.000000
_cell_angle_beta 73.874215
_cell_angle_gamma 90.000000
_cell_volume 3133.187858
_symmetry_space_group_name_H-M "C 2/C"
_symmetry_group_IT_number 15
_symmetry_cell_setting 'monoclinic'
loop_
_space_group_symop_operation_xyz
x,y,z
-x,y,1/2-z
-x,-y,-z
x,-y,1/2+z
1/2+x,1/2+y,z
1/2-x,1/2+y,1/2-z
1/2-x,1/2-y,-z
1/2+x,1/2-y,1/2+z
loop_
_atom_site_type_symbol
_atom_site_label
_atom_site_fract_x
_atom_site_fract_y
_atom_site_fract_z
Si Si1 0.103566 0.722877 0.923050
Si Si2 0.259810 0.132248 0.697264
Si Si3 0.947932 0.786233 0.034037
Si Si4 0.827308 0.111100 0.477931
Si Si5 0.337940 0.766754 0.810365
Si Si6 0.846269 0.048234 0.931381
Si Si7 0.000000 0.883224 0.250000
Si Si8 0.700810 0.353723 0.808442
O O1 0.145523 0.648702 0.858349
O O2 0.150962 0.783133 0.821062
O O3 0.104795 0.730259 0.088341
O O4 0.011549 0.734133 0.927617
O O5 0.215612 0.197302 0.645205
O O6 0.231880 0.064150 0.623187
O O7 0.235619 0.125303 0.869167
O O8 0.886959 0.736548 0.144497
O O9 0.993250 0.836633 0.117068
O O10 0.901576 0.835724 0.949405
O O11 0.784023 0.120144 0.354227
O O12 0.856815 0.031708 0.469272
O O13 0.285436 0.836660 0.833109
O O14 0.921931 0.069934 0.802510
O O15 0.843551 0.088590 0.078487
#
# Coordination Sequence:
#
# PCOD8130555 Si02
#       8
#     8   8   8   8   8   8   4   8
#     4  11  18  34  61  79 107 149 200 249 280 341
#     4  10  19  37  57  80 106 152 203 241 279 328
#     4  11  20  36  54  86 117 144 184 247 297 337
#     4  11  26  36  51  86 124 153 187 235 294 348
#     4  10  17  34  60  79 107 142 198 249 282 340
#     4  12  21  39  57  78 118 167 194 222 275 362
#     4  12  20  34  56  80 112 150 192 222 270 342
#     4  11  21  35  56  81 109 152 197 236 289 341
#
# _framework density 19.149825
#
# number of rings (size 3 to 8) (size 9 to 14) (size 15 to 20)
#    0.000    1.067    8.000    1.600    0.000    6.933 
#    0.000    0.000    0.000    0.000    0.000    5.600 
#    0.000    0.000    0.000    0.000    0.000    0.000 
#
# Total GULP energy -371898.251973 kJ/mol
# GULP energy per Si atom -12396.608399 kJ/mol
# Density = 1.910624 g / cm^3
# Si number density = 19.149825 Si / 1000 Ang^3
#
#
#
# Elastic Constant Matrix: (Units=GPa)
#
#
# Indices 1 2 3 4 5 6 
#
# 1 71.2782 42.3294 28.2786 0.0000 -22.8081 0.0000
# 2 42.3294 58.7518 30.2304 0.0000 -12.6063 0.0000
# 3 28.2786 30.2304 85.7714 0.0000 1.1981 0.0000
# 4 0.0000 0.0000 0.0000 22.6982 0.0000 1.9675
# 5 -22.8081 -12.6063 1.1981 0.0000 32.8222 0.0000
# 6 0.0000 0.0000 0.0000 1.9675 0.0000 20.8837
#
#
#
# Elastic Compliance Matrix: (Units=1/GPa)
#
#
# Indices 1 2 3 4 5 6 
#
# 1 0.030248 -0.016312 -0.004432 0.000000 0.014916 0.000000
# 2 -0.016312 0.032094 -0.005951 0.000000 0.001209 0.000000
# 3 -0.004432 -0.005951 0.015300 0.000000 -0.005924 0.000000
# 4 0.000000 0.000000 0.000000 0.044419 0.000000 -0.004185
# 5 0.014916 0.001209 -0.005924 0.000000 0.041513 0.000000
# 6 0.000000 0.000000 0.000000 -0.004185 0.000000 0.048278
#
#
# Mechanical properties :
#
#
# Convention : Reuss Voigt Hill
#
# Bulk Modulus (GPa) = 41.23123 46.38646 43.80884
# Shear Modulus (GPa) = 18.29321 22.94502 20.61911
#
# Velocity S-wave (km/s) = 3.09409 3.46524 3.28491
# Velocity P-wave (km/s) = 5.86022 6.34712 6.10852
#
# Compressibility (1/GPa) = 0.02425346
#
# Stress axis : x y z
#
# Youngs Moduli (GPa) = 33.06042 31.15803 65.35909
#
# Poissons Ratio (x) = 0.50825 0.28965
# Poissons Ratio (y) = 0.53928 0.38893
# Poissons Ratio (z) = 0.14651 0.18541
#
# Static dielectric constant tensor:
#      x y z
#    x 3.544730 0.000000 -0.141000 
#    y 0.000000 3.403300 0.000000 
#    z -0.141000 0.000000 3.536890 
# 
# 
# High freq. dielectric constant tensor:
#      x y z
#    x 1.721890 0.000000 -0.002990 
#    y 0.000000 1.709030 0.000000 
#    z -0.002990 0.000000 1.755070 
# 
# From -- ./inp_files/50182.got.cif
#   From: 2010.06.25/outbox.cif.g09.slc.cpg/sg15_26_cif.got.tgz:50182.got - 2010.06.28 07:06:18.
