data_PCOD8130324
_publ_section_title
;
Structure prediction by ZEFSAII (Michael W. Deem and Ramdas Pophale) SiO2 
 PCOD8130324
Probable space group: C 2/C
;
_chemical_formula_sum "Si O2"
_cell_formula_units_Z 64
_cell_length_a 25.988178
_cell_length_b 19.683982
_cell_length_c 9.182717
_cell_angle_alpha 90.000000
_cell_angle_beta 52.932475
_cell_angle_gamma 90.000000
_cell_volume 3748.197299
_symmetry_space_group_name_H-M "C 2/C"
_symmetry_group_IT_number 15
_symmetry_cell_setting 'monoclinic'
loop_
_space_group_symop_operation_xyz
x,y,z
-x,y,1/2-z
-x,-y,-z
x,-y,1/2+z
1/2+x,1/2+y,z
1/2-x,1/2+y,1/2-z
1/2-x,1/2-y,-z
1/2+x,1/2-y,1/2+z
loop_
_atom_site_type_symbol
_atom_site_label
_atom_site_fract_x
_atom_site_fract_y
_atom_site_fract_z
Si Si1 0.981097 0.313432 0.619308
Si Si2 0.850003 0.255161 0.913277
Si Si3 0.187714 0.627354 0.465916
Si Si4 0.054602 0.583754 0.549345
Si Si5 0.249331 0.647835 0.067443
Si Si6 0.618818 0.808898 0.343499
Si Si7 0.618403 0.956005 0.475087
Si Si8 0.200771 0.492106 0.588318
O O1 0.922146 0.258912 0.721791
O O2 0.955692 0.382353 0.589195
O O3 0.000000 0.333630 0.750000
O O4 0.045531 0.283867 0.427389
O O5 0.806205 0.317062 0.932687
O O6 0.818337 0.183353 0.920247
O O7 0.851034 0.258668 0.088148
O O8 0.122910 0.604040 0.499289
O O9 0.233844 0.659482 0.265486
O O10 0.167256 0.683142 0.624084
O O11 0.224898 0.562144 0.472215
O O12 0.055322 0.501341 0.541516
O O13 0.000000 0.611047 0.750000
O O14 0.253991 0.568225 0.012536
O O15 0.604962 0.880706 0.445657
O O16 0.638245 0.960963 0.610913
O O17 0.679691 0.988427 0.286269
#
# Coordination Sequence:
#
# PCOD8130324 Si02
#       8
#     8   8   8   8   8   8   8   8
#     4  10  20  32  46  66  95 124 167 207 233 281
#     4  10  21  32  49  68  90 132 173 202 238 279
#     4  10  20  32  49  70  95 130 160 203 250 283
#     4  11  19  31  42  67  95 133 169 195 241 277
#     4  11  19  34  51  65  96 130 168 206 237 290
#     4  10  20  33  47  69  97 129 162 206 240 280
#     4  10  20  29  44  66  97 125 167 198 235 281
#     4  10  17  32  47  66  93 125 159 206 238 274
#
# _framework density 17.074874999999999
#
# number of rings (size 3 to 8) (size 9 to 14) (size 15 to 20)
#    0.000    1.750    6.250    0.000    1.750    2.500 
#    0.000    0.000    0.000    0.000    0.000    0.000 
#    0.000    9.000    0.000    0.000    0.000    2.125 
#
# Total GULP energy -396455.394764 kJ/mol
# GULP energy per Si atom -12389.231086 kJ/mol
# Density = 1.703601 g / cm^3
# Si number density = 17.074875 Si / 1000 Ang^3
#
#
#
# Elastic Constant Matrix: (Units=GPa)
#
#
# Indices 1 2 3 4 5 6 
#
# 1 60.9783 28.3763 17.6832 0.0000 -3.7974 0.0000
# 2 28.3763 44.9064 10.7361 0.0000 -16.2822 0.0000
# 3 17.6832 10.7361 40.5660 0.0000 -7.3473 0.0000
# 4 0.0000 0.0000 0.0000 18.6241 0.0000 -10.1788
# 5 -3.7974 -16.2822 -7.3473 0.0000 17.1133 0.0000
# 6 0.0000 0.0000 0.0000 -10.1788 0.0000 -16.0347
#
#
#
# Elastic Compliance Matrix: (Units=1/GPa)
#
#
# Indices 1 2 3 4 5 6 
#
# 1 0.028750 -0.022925 -0.010041 0.000000 -0.019743 0.000000
# 2 -0.022925 0.052715 0.004559 0.000000 0.047026 0.000000
# 3 -0.010041 0.004559 0.030582 0.000000 0.015239 0.000000
# 4 0.000000 0.000000 0.000000 0.039863 0.000000 -0.025305
# 5 -0.019743 0.047026 0.015239 0.000000 0.105338 0.000000
# 6 0.000000 0.000000 0.000000 -0.025305 0.000000 -0.046301
#
#
# Mechanical properties :
#
#
# Convention : Reuss Voigt Hill
#
# Bulk Modulus (GPa) = 18.10500 28.89354 23.49927
# Shear Modulus (GPa) = 17.47202 9.91755 13.69479
#
# Velocity S-wave (km/s) = 3.20231 2.41265 2.83511
# Velocity P-wave (km/s) = 4.92944 4.97188 4.95071
#
# Compressibility (1/GPa) = 0.05523336
#
# Stress axis : x y z
#
# Youngs Moduli (GPa) = 34.78318 18.96979 32.69926
#
# Poissons Ratio (x) = 0.43488 0.32833
# Poissons Ratio (y) = 0.79739 -0.14907
# Poissons Ratio (z) = 0.34925 -0.08648
#
# Static dielectric constant tensor:
#      x y z
#    x 3.213960 0.000000 0.255530 
#    y 0.000000 2.974590 0.000000 
#    z 0.255530 0.000000 3.402380 
# 
# 
# High freq. dielectric constant tensor:
#      x y z
#    x 1.645810 0.000000 0.027100 
#    y 0.000000 1.617270 0.000000 
#    z 0.027100 0.000000 1.651180 
# 
# From -- ./inp_files/63389.got.cif
#   From: 2010.06.25/outbox.cif.g09.slc.cpg/sg15_32_cif.got.tgz:63389.got - 2010.06.28 07:06:18.
