data_PCOD8130946
_publ_section_title
;
Structure prediction by ZEFSAII (Michael W. Deem and Ramdas Pophale) SiO2 
 PCOD8130946
Probable space group: C 2/C
;
_chemical_formula_sum "Si O2"
_cell_formula_units_Z 60
_cell_length_a 32.484407
_cell_length_b 20.677091
_cell_length_c 15.605871
_cell_angle_alpha 90.000000
_cell_angle_beta 161.132874
_cell_angle_gamma 90.000000
_cell_volume 3389.676231
_symmetry_space_group_name_H-M "C 2/C"
_symmetry_group_IT_number 15
_symmetry_cell_setting 'monoclinic'
loop_
_space_group_symop_operation_xyz
x,y,z
-x,y,1/2-z
-x,-y,-z
x,-y,1/2+z
1/2+x,1/2+y,z
1/2-x,1/2+y,1/2-z
1/2-x,1/2-y,-z
1/2+x,1/2-y,1/2+z
loop_
_atom_site_type_symbol
_atom_site_label
_atom_site_fract_x
_atom_site_fract_y
_atom_site_fract_z
Si Si1 0.865503 0.033958 0.712956
Si Si2 0.500000 0.333078 0.750000
Si Si3 0.535673 0.424464 0.411190
Si Si4 0.739354 0.349939 0.924827
Si Si5 0.375867 0.112519 0.957423
Si Si6 0.833210 0.938027 0.335117
Si Si7 0.115549 0.546283 0.700411
Si Si8 0.802979 0.211195 0.983031
O O1 0.810543 0.071073 0.688055
O O2 0.754922 0.985718 0.465985
O O3 0.903990 0.077597 0.707109
O O4 0.000000 0.000000 0.000000
O O5 0.412723 0.377150 0.520007
O O6 0.429632 0.286520 0.677079
O O7 0.642722 0.386552 0.673332
O O8 0.591011 0.495650 0.499147
O O9 0.500000 0.391554 0.250000
O O10 0.776325 0.285228 0.949277
O O11 0.863436 0.395053 0.189525
O O12 0.673597 0.331069 0.885342
O O13 0.296430 0.065512 0.865064
O O14 0.420814 0.071246 0.964588
O O15 0.305127 0.177281 0.787240
O O16 0.500000 0.137869 0.250000
O O17 0.000000 0.500000 0.500000
#
# Coordination Sequence:
#
# PCOD8130946 Si02
#       8
#     8   4   8   8   8   8   8   8
#     4  10  19  32  53  81 115 144 183 222 284 338
#     4  10  18  32  56  82 104 138 192 234 270 316
#     4  11  20  31  55  86 114 139 178 240 290 326
#     4  10  20  38  56  79 112 149 191 224 279 346
#     4  10  21  34  54  80 110 146 189 230 276 334
#     4  10  18  30  53  79 110 134 180 236 278 322
#     4  11  21  35  56  83 119 151 179 228 292 346
#     4   9  21  37  57  76 105 154 194 227 265 333
#
# _framework density 17.700807000000001
#
# number of rings (size 3 to 8) (size 9 to 14) (size 15 to 20)
#    0.000    1.867    3.333    2.400    7.467    0.533 
#    0.000    2.667    0.000    0.000    0.000   13.067 
#    0.000    0.000    0.000    0.000    0.000    0.000 
#
# Total GULP energy -371741.006645 kJ/mol
# GULP energy per Si atom -12391.366888 kJ/mol
# Density = 1.766052 g / cm^3
# Si number density = 17.700807 Si / 1000 Ang^3
#
#
#
# Elastic Constant Matrix: (Units=GPa)
#
#
# Indices 1 2 3 4 5 6 
#
# 1 131.7152 58.4536 53.3718 0.0000 -4.1432 0.0000
# 2 58.4536 83.1842 36.6961 0.0000 7.1212 0.0000
# 3 53.3718 36.6961 92.5407 0.0000 -1.4118 0.0000
# 4 0.0000 0.0000 0.0000 21.0731 0.0000 -15.1590
# 5 -4.1432 7.1212 -1.4118 0.0000 30.9194 0.0000
# 6 0.0000 0.0000 0.0000 -15.1590 0.0000 36.2347
#
#
#
# Elastic Compliance Matrix: (Units=1/GPa)
#
#
# Indices 1 2 3 4 5 6 
#
# 1 0.012690 -0.007250 -0.004396 0.000000 0.003170 0.000000
# 2 -0.007250 0.019129 -0.003489 0.000000 -0.005536 0.000000
# 3 -0.004396 -0.003489 0.014738 0.000000 0.000887 0.000000
# 4 0.000000 0.000000 0.000000 0.067883 0.000000 0.028399
# 5 0.003170 -0.005536 0.000887 0.000000 0.034082 0.000000
# 6 0.000000 0.000000 0.000000 0.028399 0.000000 0.039479
#
#
# Mechanical properties :
#
#
# Convention : Reuss Voigt Hill
#
# Bulk Modulus (GPa) = 61.39093 67.16479 64.27786
# Shear Modulus (GPa) = 22.35136 28.24001 25.29568
#
# Velocity S-wave (km/s) = 3.55735 3.99859 3.78440
# Velocity P-wave (km/s) = 7.18546 7.70358 7.44903
#
# Compressibility (1/GPa) = 0.01628905
#
# Stress axis : x y z
#
# Youngs Moduli (GPa) = 78.79975 52.27712 67.85063
#
# Poissons Ratio (x) = 0.37899 0.29826
# Poissons Ratio (y) = 0.57127 0.23671
# Poissons Ratio (z) = 0.34640 0.18238
#
# Static dielectric constant tensor:
#      x y z
#    x 3.841170 0.000000 -0.023950 
#    y 0.000000 3.135840 0.000000 
#    z -0.023950 0.000000 3.228970 
# 
# 
# High freq. dielectric constant tensor:
#      x y z
#    x 1.705310 0.000000 -0.008160 
#    y 0.000000 1.658720 0.000000 
#    z -0.008160 0.000000 1.676740 
# 
# From -- ./inp_files/183085.got.cif
#   From: 2010.06.25/outbox.cif.g09.slc.cpg/sg15_92_cif.got.tgz:183085.got - 2010.06.28 07:06:18.
