data_PCOD8130977
_publ_section_title
;
Structure prediction by ZEFSAII (Michael W. Deem and Ramdas Pophale) SiO2 
 PCOD8130977
Probable space group: C 2/C
;
_chemical_formula_sum "Si O2"
_cell_formula_units_Z 60
_cell_length_a 10.495781
_cell_length_b 26.041014
_cell_length_c 12.756212
_cell_angle_alpha 90.000000
_cell_angle_beta 58.831082
_cell_angle_gamma 90.000000
_cell_volume 2983.239188
_symmetry_space_group_name_H-M "C 2/C"
_symmetry_group_IT_number 15
_symmetry_cell_setting 'monoclinic'
loop_
_space_group_symop_operation_xyz
x,y,z
-x,y,1/2-z
-x,-y,-z
x,-y,1/2+z
1/2+x,1/2+y,z
1/2-x,1/2+y,1/2-z
1/2-x,1/2-y,-z
1/2+x,1/2-y,1/2+z
loop_
_atom_site_type_symbol
_atom_site_label
_atom_site_fract_x
_atom_site_fract_y
_atom_site_fract_z
Si Si1 0.654630 0.957029 0.228958
Si Si2 0.580348 0.060709 0.372615
Si Si3 0.500000 0.611208 0.250000
Si Si4 0.810330 0.037348 0.449824
Si Si5 0.248724 0.430068 0.410789
Si Si6 0.231669 0.338827 0.759685
Si Si7 0.482327 0.230387 0.377775
Si Si8 0.809593 0.825869 0.489517
O O1 0.500000 0.933177 0.250000
O O2 0.719430 0.923852 0.298574
O O3 0.626427 0.015086 0.276752
O O4 0.779618 0.957861 0.086045
O O5 0.665401 0.056237 0.446985
O O6 0.405749 0.058639 0.465308
O O7 0.618968 0.113392 0.297558
O O8 0.451954 0.573738 0.365879
O O9 0.634181 0.648451 0.220643
O O10 0.851165 0.979167 0.396385
O O11 0.329700 0.379793 0.421851
O O12 0.303134 0.328466 0.616852
O O13 0.141090 0.291046 0.853149
O O14 0.500000 0.213836 0.250000
O O15 0.341196 0.201152 0.490201
O O16 0.456051 0.291321 0.401303
#
# Coordination Sequence:
#
# PCOD8130977 Si02
#       8
#     8   8   4   8   8   8   8   8
#     4  11  18  29  53  86 124 163 204 249 291 336
#     4  10  18  30  55  86 116 162 211 235 279 369
#     4  10  24  42  58  84 120 172 210 234 286 382
#     4  10  20  36  51  79 127 164 203 242 280 350
#     4  11  19  32  54  90 122 160 203 246 297 359
#     4  10  20  38  63  83 114 159 204 245 305 364
#     4   9  19  37  61  85 114 144 187 265 310 357
#     4  10  20  35  59  93 112 142 201 253 313 358
#
# _framework density 20.112366000000002
#
# number of rings (size 3 to 8) (size 9 to 14) (size 15 to 20)
#    0.000    1.867    4.000    1.600    0.000    0.000 
#    3.600   10.000    0.000    0.000   15.600    0.000 
#    0.000    0.000    0.000    0.000    0.000    0.000 
#
# Total GULP energy -371917.224098 kJ/mol
# GULP energy per Si atom -12397.240803 kJ/mol
# Density = 2.006659 g / cm^3
# Si number density = 20.112366 Si / 1000 Ang^3
#
#
#
# Elastic Constant Matrix: (Units=GPa)
#
#
# Indices 1 2 3 4 5 6 
#
# 1 65.4300 54.1539 37.5305 0.0000 -10.1428 0.0000
# 2 54.1539 130.9995 40.3900 0.0000 -8.9389 0.0000
# 3 37.5305 40.3900 106.7283 0.0000 3.2013 0.0000
# 4 0.0000 0.0000 0.0000 35.7855 0.0000 -9.3144
# 5 -10.1428 -8.9389 3.2013 0.0000 20.4217 0.0000
# 6 0.0000 0.0000 0.0000 -9.3144 0.0000 33.3277
#
#
#
# Elastic Compliance Matrix: (Units=1/GPa)
#
#
# Indices 1 2 3 4 5 6 
#
# 1 0.028298 -0.008779 -0.006968 0.000000 0.011305 0.000000
# 2 -0.008779 0.011761 -0.001394 0.000000 0.001007 0.000000
# 3 -0.006968 -0.001394 0.012528 0.000000 -0.006035 0.000000
# 4 0.000000 0.000000 0.000000 0.030136 0.000000 0.008422
# 5 0.011305 0.001007 -0.006035 0.000000 0.055969 0.000000
# 6 0.000000 0.000000 0.000000 0.008422 0.000000 0.032359
#
#
# Mechanical properties :
#
#
# Convention : Reuss Voigt Hill
#
# Bulk Modulus (GPa) = 54.62466 63.03406 58.82936
# Shear Modulus (GPa) = 23.64789 29.31255 26.48022
#
# Velocity S-wave (km/s) = 3.43270 3.82178 3.63245
# Velocity P-wave (km/s) = 6.55209 7.13328 6.84885
#
# Compressibility (1/GPa) = 0.01830675
#
# Stress axis : x y z
#
# Youngs Moduli (GPa) = 35.33772 85.02612 79.81851
#
# Poissons Ratio (x) = 0.74640 0.55617
# Poissons Ratio (y) = 0.31021 0.11128
# Poissons Ratio (z) = 0.24623 0.11854
#
# Static dielectric constant tensor:
#      x y z
#    x 3.542690 0.000000 -0.076710 
#    y 0.000000 3.709840 0.000000 
#    z -0.076710 0.000000 3.665200 
# 
# 
# High freq. dielectric constant tensor:
#      x y z
#    x 1.761160 0.000000 -0.009110 
#    y 0.000000 1.771660 0.000000 
#    z -0.009110 0.000000 1.786680 
# 
# From -- ./inp_files/92042.got.cif
#   From: 2010.06.25/outbox.cif.g09.slc.cpg/sg15_47_cif.got.tgz:92042.got - 2010.06.28 07:06:18.
