data_PCOD8130701
_publ_section_title
;
Structure prediction by ZEFSAII (Michael W. Deem and Ramdas Pophale) SiO2 
 PCOD8130701
Probable space group: C 2/C
;
_chemical_formula_sum "Si O2"
_cell_formula_units_Z 56
_cell_length_a 18.317572
_cell_length_b 8.418101
_cell_length_c 20.649187
_cell_angle_alpha 90.000000
_cell_angle_beta 56.215776
_cell_angle_gamma 90.000000
_cell_volume 2646.414892
_symmetry_space_group_name_H-M "C 2/C"
_symmetry_group_IT_number 15
_symmetry_cell_setting 'monoclinic'
loop_
_space_group_symop_operation_xyz
x,y,z
-x,y,1/2-z
-x,-y,-z
x,-y,1/2+z
1/2+x,1/2+y,z
1/2-x,1/2+y,1/2-z
1/2-x,1/2-y,-z
1/2+x,1/2-y,1/2+z
loop_
_atom_site_type_symbol
_atom_site_label
_atom_site_fract_x
_atom_site_fract_y
_atom_site_fract_z
Si Si1 0.905334 0.303106 0.048406
Si Si2 0.670185 0.919021 0.094819
Si Si3 0.746187 0.767467 0.838426
Si Si4 0.822529 0.118763 0.978732
Si Si5 0.401025 0.249256 0.321339
Si Si6 0.234803 0.879969 0.208909
Si Si7 0.411230 0.852609 0.493765
O O1 0.831061 0.328877 0.138417
O O2 0.918632 0.457456 0.997147
O O3 0.879837 0.157856 0.013984
O O4 0.995783 0.265374 0.041048
O O5 0.678838 0.807300 0.153021
O O6 0.616158 0.075790 0.140632
O O7 0.618690 0.820859 0.065104
O O8 0.768473 0.957183 0.018224
O O9 0.727035 0.649057 0.788887
O O10 0.655580 0.783630 0.921239
O O11 0.782456 0.934929 0.795212
O O12 0.883263 0.113993 0.884591
O O13 0.750000 0.250000 0.000000
O O14 0.500000 0.264760 0.250000
O O15 0.337322 0.274277 0.291955
#
# Coordination Sequence:
#
# PCOD8130701 Si02
#       7
#     8   8   8   8   8   8   8
#     4  10  19  37  64  94 125 165 210 268 312 383
#     4  11  21  42  67  94 126 178 219 261 324 389
#     4  11  25  41  66  90 130 171 213 272 327 387
#     4  10  17  37  64  90 125 164 208 255 316 379
#     4  11  23  38  69  98 127 170 215 261 319 397
#     4  11  23  43  61  95 131 168 210 271 337 382
#     4  10  21  36  64  98 123 161 226 262 311 390
#
# _framework density 21.160703999999999
#
# number of rings (size 3 to 8) (size 9 to 14) (size 15 to 20)
#    0.000    1.429    5.714    2.143    2.000    2.286 
#    0.000    4.286    0.000    0.000    0.000    0.000 
#    0.000    0.000    0.000    0.000    0.000    0.000 
#
# Total GULP energy -347271.955450 kJ/mol
# GULP energy per Si atom -12402.569838 kJ/mol
# Density = 2.111254 g / cm^3
# Si number density = 21.160704 Si / 1000 Ang^3
#
#
#
# Elastic Constant Matrix: (Units=GPa)
#
#
# Indices 1 2 3 4 5 6 
#
# 1 168.2613 41.5261 68.2249 -0.0001 21.4499 0.0000
# 2 41.5261 37.9337 35.8597 -0.0002 8.4009 -0.0007
# 3 68.2249 35.8597 120.8466 0.0000 15.5647 0.0001
# 4 -0.0001 -0.0002 0.0000 32.2224 0.0000 9.0211
# 5 21.4499 8.4009 15.5647 0.0000 47.5422 -0.0001
# 6 0.0000 -0.0007 0.0001 9.0211 -0.0001 26.7654
#
#
#
# Elastic Compliance Matrix: (Units=1/GPa)
#
#
# Indices 1 2 3 4 5 6 
#
# 1 0.009005 -0.006752 -0.002830 0.000000 -0.001943 0.000000
# 2 -0.006752 0.042129 -0.008481 0.000000 -0.001622 0.000001
# 3 -0.002830 -0.008481 0.012561 0.000000 -0.001337 0.000000
# 4 0.000000 0.000000 0.000000 0.034268 0.000000 -0.011550
# 5 -0.001943 -0.001622 -0.001337 0.000000 0.022635 0.000000
# 6 0.000000 0.000001 0.000000 -0.011550 0.000000 0.041254
#
#
# Mechanical properties :
#
#
# Convention : Reuss Voigt Hill
#
# Bulk Modulus (GPa) = 36.27075 68.69590 52.48333
# Shear Modulus (GPa) = 24.13510 33.40139 28.76825
#
# Velocity S-wave (km/s) = 3.38089 3.97730 3.69116
# Velocity P-wave (km/s) = 5.69371 7.32299 6.55914
#
# Compressibility (1/GPa) = 0.02757042
#
# Stress axis : x y z
#
# Youngs Moduli (GPa) = 111.05458 23.73649 79.60981
#
# Poissons Ratio (x) = 0.16027 0.22528
# Poissons Ratio (y) = 0.74983 0.67514
# Poissons Ratio (z) = 0.31426 0.20130
#
# Static dielectric constant tensor:
#      x y z
#    x 3.990460 0.000000 0.193450 
#    y 0.000000 3.741990 0.000000 
#    z 0.193450 0.000000 4.169510 
# 
# 
# High freq. dielectric constant tensor:
#      x y z
#    x 1.832280 0.000000 0.013910 
#    y 0.000000 1.812220 0.000000 
#    z 0.013910 0.000000 1.827030 
# 
# From -- ./inp_files/247336.got.cif
#   From: 2010.06.25/outbox.cif.g09.slc.cpg/sg15_124_cif.got.tgz:247336.got - 2010.06.28 07:06:18.
