data_PCOD8130549
_publ_section_title
;
Structure prediction by ZEFSAII (Michael W. Deem and Ramdas Pophale) SiO2 
 PCOD8130549
Probable space group: C 2/C
;
_chemical_formula_sum "Si O2"
_cell_formula_units_Z 48
_cell_length_a 11.522808
_cell_length_b 13.817999
_cell_length_c 27.943982
_cell_angle_alpha 90.000000
_cell_angle_beta 34.753289
_cell_angle_gamma 90.000000
_cell_volume 2536.296946
_symmetry_space_group_name_H-M "C 2/C"
_symmetry_group_IT_number 15
_symmetry_cell_setting 'monoclinic'
loop_
_space_group_symop_operation_xyz
x,y,z
-x,y,1/2-z
-x,-y,-z
x,-y,1/2+z
1/2+x,1/2+y,z
1/2-x,1/2+y,1/2-z
1/2-x,1/2-y,-z
1/2+x,1/2-y,1/2+z
loop_
_atom_site_type_symbol
_atom_site_label
_atom_site_fract_x
_atom_site_fract_y
_atom_site_fract_z
Si Si1 0.091846 0.163011 0.549910
Si Si2 0.147495 0.479516 0.059658
Si Si3 0.911416 0.585861 0.329257
Si Si4 0.838216 0.651357 0.623463
Si Si5 0.042840 0.804107 0.303879
Si Si6 0.518936 0.660744 0.018378
O O1 0.250000 0.250000 0.500000
O O2 0.936308 0.169580 0.647277
O O3 0.961969 0.174100 0.545485
O O4 0.215170 0.062514 0.510437
O O5 0.028621 0.517470 0.147016
O O6 0.278051 0.385535 0.029547
O O7 0.976155 0.445088 0.079861
O O8 0.666819 0.587285 0.408266
O O9 0.000000 0.543428 0.250000
O O10 0.995182 0.692131 0.311238
O O11 0.648040 0.634412 0.652446
O O12 0.752622 0.673307 0.705847
O O13 0.981956 0.737598 0.556661
#
# Coordination Sequence:
#
# PCOD8130549 Si02
#       6
#     8   8   8   8   8   8
#     4  11  19  36  58  82 106 146 190 226 261 328
#     4  11  23  32  56  90 112 138 184 234 281 317
#     4  10  17  34  59  77 107 147 186 223 264 329
#     4  10  20  37  58  79 114 149 180 223 280 331
#     4  10  19  38  59  78 106 153 189 220 269 335
#     4  10  20  37  56  82 114 144 184 225 276 326
#
# _framework density 18.925228000000001
#
# number of rings (size 3 to 8) (size 9 to 14) (size 15 to 20)
#    0.000    1.667    8.333    2.500    0.000    3.333 
#    0.000    0.000    0.000    0.000    0.000    0.000 
#    0.000    0.000    0.000    0.000    0.000    0.000 
#
# Total GULP energy -297558.370163 kJ/mol
# GULP energy per Si atom -12398.265423 kJ/mol
# Density = 1.888215 g / cm^3
# Si number density = 18.925228 Si / 1000 Ang^3
#
#
#
# Elastic Constant Matrix: (Units=GPa)
#
#
# Indices 1 2 3 4 5 6 
#
# 1 68.5903 30.9626 31.6772 0.0009 14.3171 -0.0002
# 2 30.9626 71.9605 17.2517 -0.0003 -1.9195 0.0000
# 3 31.6772 17.2517 71.7201 0.0019 33.1505 -0.0013
# 4 0.0009 -0.0003 0.0019 20.1293 -0.0022 3.1779
# 5 14.3171 -1.9195 33.1505 -0.0022 42.0683 0.0003
# 6 -0.0002 0.0000 -0.0013 3.1779 0.0003 32.7289
#
#
#
# Elastic Compliance Matrix: (Units=1/GPa)
#
#
# Indices 1 2 3 4 5 6 
#
# 1 0.021650 -0.007838 -0.006459 -0.000001 -0.002636 0.000000
# 2 -0.007838 0.018425 -0.004077 0.000002 0.006721 0.000000
# 3 -0.006459 -0.004077 0.026498 -0.000005 -0.018869 0.000002
# 4 -0.000001 0.000002 -0.000005 0.050452 0.000007 -0.004899
# 5 -0.002636 0.006721 -0.018869 0.000007 0.039844 -0.000002
# 6 0.000000 0.000000 0.000002 -0.004899 -0.000002 0.031030
#
#
# Mechanical properties :
#
#
# Convention : Reuss Voigt Hill
#
# Bulk Modulus (GPa) = 33.52604 41.33936 37.43270
# Shear Modulus (GPa) = 21.31397 27.81059 24.56228
#
# Velocity S-wave (km/s) = 3.35956 3.83756 3.60649
# Velocity P-wave (km/s) = 5.72733 6.44413 6.09627
#
# Compressibility (1/GPa) = 0.02982756
#
# Stress axis : x y z
#
# Youngs Moduli (GPa) = 46.18849 54.27282 37.73889
#
# Poissons Ratio (x) = 0.42536 0.24374
# Poissons Ratio (y) = 0.36200 0.15386
# Poissons Ratio (z) = 0.29832 0.22126
#
# Static dielectric constant tensor:
#      x y z
#    x 3.515450 0.000000 0.456410 
#    y 0.000000 3.357030 0.000000 
#    z 0.456410 0.000000 3.817290 
# 
# 
# High freq. dielectric constant tensor:
#      x y z
#    x 1.723140 0.000000 0.020860 
#    y 0.000000 1.724730 0.000000 
#    z 0.020860 0.000000 1.730620 
# 
# From -- ./inp_files/311117.got.cif
#   From: 2010.06.25/outbox.cif.g09.slc.cpg/sg15_156_cif.got.tgz:311117.got - 2010.06.28 07:06:18.
