data_PCOD8130809
_publ_section_title
;
Structure prediction by ZEFSAII (Michael W. Deem and Ramdas Pophale) SiO2 
 PCOD8130809
Probable space group: C 2/C
;
_chemical_formula_sum "Si O2"
_cell_formula_units_Z 56
_cell_length_a 21.940562
_cell_length_b 20.281594
_cell_length_c 9.552781
_cell_angle_alpha 90.000000
_cell_angle_beta 55.805857
_cell_angle_gamma 90.000000
_cell_volume 3516.071049
_symmetry_space_group_name_H-M "C 2/C"
_symmetry_group_IT_number 15
_symmetry_cell_setting 'monoclinic'
loop_
_space_group_symop_operation_xyz
x,y,z
-x,y,1/2-z
-x,-y,-z
x,-y,1/2+z
1/2+x,1/2+y,z
1/2-x,1/2+y,1/2-z
1/2-x,1/2-y,-z
1/2+x,1/2-y,1/2+z
loop_
_atom_site_type_symbol
_atom_site_label
_atom_site_fract_x
_atom_site_fract_y
_atom_site_fract_z
Si Si1 0.714756 0.321376 0.543918
Si Si2 0.923843 0.745126 0.778000
Si Si3 0.173928 0.502099 0.035907
Si Si4 0.161334 0.635143 0.436310
Si Si5 0.786706 0.421694 0.267948
Si Si6 0.090070 0.379269 0.749991
Si Si7 0.569590 0.847129 0.477008
O O1 0.750000 0.250000 0.500000
O O2 0.626906 0.310969 0.665319
O O3 0.752348 0.358318 0.628685
O O4 0.732541 0.360837 0.376143
O O5 0.934848 0.720525 0.604632
O O6 0.000000 0.767186 0.750000
O O7 0.888592 0.686467 0.914511
O O8 0.223591 0.478252 0.101656
O O9 0.107089 0.546899 0.176693
O O10 0.137942 0.440213 0.000105
O O11 0.227391 0.546196 0.865758
O O12 0.150339 0.646877 0.284543
O O13 0.870958 0.395869 0.169772
O O14 0.091527 0.331597 0.611020
O O15 0.010159 0.381688 0.925276
#
# Coordination Sequence:
#
# PCOD8130809 Si02
#       7
#     8   8   8   8   8   8   8
#     4   9  18  32  51  68  93 122 167 207 226 280
#     4  11  19  33  54  68  90 126 166 202 239 281
#     4  10  18  29  44  70 101 128 161 192 223 289
#     4  10  18  32  48  70  95 129 162 192 236 277
#     4  10  18  31  46  67  98 128 161 197 233 273
#     4  10  20  30  41  66 107 131 158 189 234 271
#     4  10  19  31  41  68  99 136 161 190 223 275
#
# _framework density 15.926868000000001
#
# number of rings (size 3 to 8) (size 9 to 14) (size 15 to 20)
#    0.000    2.000    7.143    0.000    0.000    0.571 
#   10.286    0.714    0.000    0.000    0.000    4.000 
#    0.000    0.000    0.000    0.000    0.000    0.000 
#
# Total GULP energy -346912.205089 kJ/mol
# GULP energy per Si atom -12389.721610 kJ/mol
# Density = 1.589062 g / cm^3
# Si number density = 15.926868 Si / 1000 Ang^3
#
#
#
# Elastic Constant Matrix: (Units=GPa)
#
#
# Indices 1 2 3 4 5 6 
#
# 1 99.6872 35.7894 49.7435 0.0000 2.1956 0.0000
# 2 35.7894 64.0220 50.4538 0.0000 -8.7682 0.0000
# 3 49.7435 50.4538 88.6479 0.0000 7.7612 0.0000
# 4 0.0000 0.0000 0.0000 24.3935 0.0000 -6.1759
# 5 2.1956 -8.7682 7.7612 0.0000 24.2956 0.0000
# 6 0.0000 0.0000 0.0000 -6.1759 0.0000 15.9973
#
#
#
# Elastic Compliance Matrix: (Units=1/GPa)
#
#
# Indices 1 2 3 4 5 6 
#
# 1 0.014251 -0.003199 -0.006134 0.000000 -0.000483 0.000000
# 2 -0.003199 0.036503 -0.020739 0.000000 0.020088 0.000000
# 3 -0.006134 -0.020739 0.027914 0.000000 -0.015848 0.000000
# 4 0.000000 0.000000 0.000000 0.045436 0.000000 0.017541
# 5 -0.000483 0.020088 -0.015848 0.000000 0.053516 0.000000
# 6 0.000000 0.000000 0.000000 0.017541 0.000000 0.069283
#
#
# Mechanical properties :
#
#
# Convention : Reuss Voigt Hill
#
# Bulk Modulus (GPa) = 53.98483 58.25895 56.12189
# Shear Modulus (GPa) = 15.96315 20.69529 18.32922
#
# Velocity S-wave (km/s) = 3.16931 3.60862 3.39608
# Velocity P-wave (km/s) = 6.88199 7.34992 7.11980
#
# Compressibility (1/GPa) = 0.01852372
#
# Stress axis : x y z
#
# Youngs Moduli (GPa) = 70.16904 27.39493 35.82441
#
# Poissons Ratio (x) = 0.08763 0.21975
# Poissons Ratio (y) = 0.22445 0.74298
# Poissons Ratio (z) = 0.43042 0.56816
#
# Static dielectric constant tensor:
#      x y z
#    x 3.249100 0.000000 0.129890 
#    y 0.000000 3.038720 0.000000 
#    z 0.129890 0.000000 3.222210 
# 
# 
# High freq. dielectric constant tensor:
#      x y z
#    x 1.585100 0.000000 0.023560 
#    y 0.000000 1.585700 0.000000 
#    z 0.023560 0.000000 1.611200 
# 
# From -- ./inp_files/58171.got.cif
#   From: 2010.06.25/outbox.cif.g09.slc.cpg/sg15_30_cif.got.tgz:58171.got - 2010.06.28 07:06:18.
