data_PCOD8130056
_publ_section_title
;
Structure prediction by ZEFSAII (Michael W. Deem and Ramdas Pophale) SiO2 
 PCOD8130056
Probable space group: C 2/C
;
_chemical_formula_sum "Si O2"
_cell_formula_units_Z 64
_cell_length_a 12.508031
_cell_length_b 21.190616
_cell_length_c 14.415840
_cell_angle_alpha 90.000000
_cell_angle_beta 112.638761
_cell_angle_gamma 90.000000
_cell_volume 3526.555078
_symmetry_space_group_name_H-M "C 2/C"
_symmetry_group_IT_number 15
_symmetry_cell_setting 'monoclinic'
loop_
_space_group_symop_operation_xyz
x,y,z
-x,y,1/2-z
-x,-y,-z
x,-y,1/2+z
1/2+x,1/2+y,z
1/2-x,1/2+y,1/2-z
1/2-x,1/2-y,-z
1/2+x,1/2-y,1/2+z
loop_
_atom_site_type_symbol
_atom_site_label
_atom_site_fract_x
_atom_site_fract_y
_atom_site_fract_z
Si Si1 0.335008 0.932321 0.324413
Si Si2 0.630516 0.714404 0.309807
Si Si3 0.669539 0.612121 0.182877
Si Si4 0.772542 0.347674 0.145807
Si Si5 0.583312 0.385119 0.953440
Si Si6 0.592277 0.066024 0.944779
Si Si7 0.288670 0.532914 0.129239
Si Si8 0.623497 0.960805 0.814409
O O1 0.292137 0.868802 0.259223
O O2 0.456534 0.921977 0.418630
O O3 0.237253 0.958186 0.363626
O O4 0.351011 0.986710 0.253965
O O5 0.500000 0.739094 0.250000
O O6 0.681665 0.680510 0.234861
O O7 0.714676 0.772639 0.358536
O O8 0.629474 0.666048 0.394867
O O9 0.554454 0.612511 0.080596
O O10 0.652966 0.561141 0.259137
O O11 0.778822 0.594046 0.154803
O O12 0.868193 0.379174 0.111790
O O13 0.643207 0.368712 0.071417
O O14 0.627344 0.453928 0.930748
O O15 0.619186 0.996530 0.911271
O O16 0.664204 0.067761 0.065192
O O17 0.500000 0.928586 0.750000
#
# Coordination Sequence:
#
# PCOD8130056 Si02
#       8
#     8   8   8   8   8   8   8   8
#     4   9  16  26  41  63  91 113 139 180 216 250
#     4   9  16  27  44  64  88 115 141 174 215 254
#     4   9  17  30  44  63  88 113 142 177 210 253
#     4  10  17  27  42  65  91 117 143 173 216 260
#     4   9  18  29  42  62  91 118 142 173 209 256
#     4   9  16  26  42  65  89 111 139 181 220 249
#     4   9  16  27  41  60  87 117 142 169 211 254
#     4   8  15  28  45  64  84 108 141 179 217 252
#
# _framework density 18.148022999999998
#
# number of rings (size 3 to 8) (size 9 to 14) (size 15 to 20)
#    0.000    3.000    0.000    3.750    0.000    0.000 
#    0.000   11.250    0.000    0.000    0.000    8.750 
#    0.000    0.000    0.000    0.000    0.000    0.000 
#
# Total GULP energy -396525.848929 kJ/mol
# GULP energy per Si atom -12391.432779 kJ/mol
# Density = 1.810672 g / cm^3
# Si number density = 18.148023 Si / 1000 Ang^3
#
#
#
# Elastic Constant Matrix: (Units=GPa)
#
#
# Indices 1 2 3 4 5 6 
#
# 1 81.1545 40.0169 21.1579 0.0000 23.1391 0.0000
# 2 40.0169 65.1668 8.6362 0.0000 5.4987 0.0000
# 3 21.1579 8.6362 48.3463 0.0000 21.8647 0.0000
# 4 0.0000 0.0000 0.0000 15.7610 0.0000 4.0484
# 5 23.1391 5.4987 21.8647 0.0000 25.1964 0.0000
# 6 0.0000 0.0000 0.0000 4.0484 0.0000 19.2031
#
#
#
# Elastic Compliance Matrix: (Units=1/GPa)
#
#
# Indices 1 2 3 4 5 6 
#
# 1 0.024538 -0.013466 0.000871 0.000000 -0.020351 0.000000
# 2 -0.013466 0.023148 -0.002551 0.000000 0.009529 0.000000
# 3 0.000871 -0.002551 0.034349 0.000000 -0.030050 0.000000
# 4 0.000000 0.000000 0.000000 0.067080 0.000000 -0.014142
# 5 -0.020351 0.009529 -0.030050 0.000000 0.082374 0.000000
# 6 0.000000 0.000000 0.000000 -0.014142 0.000000 0.055056
#
#
# Mechanical properties :
#
#
# Convention : Reuss Voigt Hill
#
# Bulk Modulus (GPa) = 19.32667 37.14332 28.23500
# Shear Modulus (GPa) = 14.96617 20.35585 17.66101
#
# Velocity S-wave (km/s) = 2.87483 3.35275 3.12294
# Velocity P-wave (km/s) = 4.65748 5.95812 5.34749
#
# Compressibility (1/GPa) = 0.05174196
#
# Stress axis : x y z
#
# Youngs Moduli (GPa) = 40.75334 43.19943 29.11308
#
# Poissons Ratio (x) = 0.58173 -0.02535
# Poissons Ratio (y) = 0.54879 0.07427
# Poissons Ratio (z) = -0.03549 0.11021
#
# Static dielectric constant tensor:
#      x y z
#    x 3.265470 0.000000 0.203910 
#    y 0.000000 3.176380 0.000000 
#    z 0.203910 0.000000 3.392140 
# 
# 
# High freq. dielectric constant tensor:
#      x y z
#    x 1.671530 0.000000 0.032520 
#    y 0.000000 1.667320 0.000000 
#    z 0.032520 0.000000 1.701390 
# 
# From -- ./inp_files/147870.got.cif
#   From: 2010.06.25/outbox.cif.g09.slc.cpg/sg15_74_cif.got.tgz:147870.got - 2010.06.28 07:06:18.
