data_PCOD8130119
_publ_section_title
;
Structure prediction by ZEFSAII (Michael W. Deem and Ramdas Pophale) SiO2 
 PCOD8130119
Probable space group: C 2/C
;
_chemical_formula_sum "Si O2"
_cell_formula_units_Z 56
_cell_length_a 15.504622
_cell_length_b 25.801761
_cell_length_c 21.865863
_cell_angle_alpha 90.000000
_cell_angle_beta 156.591096
_cell_angle_gamma 90.000000
_cell_volume 3475.244329
_symmetry_space_group_name_H-M "C 2/C"
_symmetry_group_IT_number 15
_symmetry_cell_setting 'monoclinic'
loop_
_space_group_symop_operation_xyz
x,y,z
-x,y,1/2-z
-x,-y,-z
x,-y,1/2+z
1/2+x,1/2+y,z
1/2-x,1/2+y,1/2-z
1/2-x,1/2-y,-z
1/2+x,1/2-y,1/2+z
loop_
_atom_site_type_symbol
_atom_site_label
_atom_site_fract_x
_atom_site_fract_y
_atom_site_fract_z
Si Si1 0.200518 0.399060 0.001835
Si Si2 0.720846 0.502894 0.864765
Si Si3 0.839788 0.536486 0.813608
Si Si4 0.277039 0.202378 0.143675
Si Si5 0.141671 0.537106 0.286877
Si Si6 0.972127 0.104369 0.563027
Si Si7 0.106265 0.284085 0.953240
O O1 0.229195 0.440470 0.074415
O O2 0.406511 0.398015 0.091265
O O3 0.190535 0.341540 0.022517
O O4 0.985994 0.412594 0.822934
O O5 0.500000 0.480629 0.750000
O O6 0.708872 0.507796 0.783647
O O7 0.906788 0.460980 0.003233
O O8 0.813244 0.505075 0.734412
O O9 0.732920 0.593460 0.732236
O O10 0.500000 0.192600 0.250000
O O11 0.358693 0.210656 0.266676
O O12 0.105401 0.156232 0.021419
O O13 0.135568 0.253375 0.035527
O O14 0.371059 0.555598 0.461681
O O15 0.000000 0.512568 0.250000
O O16 0.250000 0.250000 0.000000
#
# Coordination Sequence:
#
# PCOD8130119 Si02
#       7
#     8   8   8   8   8   8   8
#     4  10  17  29  47  65  94 139 167 190 233 290
#     4  10  20  34  47  66 100 130 165 204 254 293
#     4  10  21  31  47  72  87 128 176 207 241 301
#     4  10  18  28  42  66  98 136 171 198 229 287
#     4   9  18  31  49  65  92 127 171 206 246 277
#     4  11  16  29  46  65  92 124 170 201 235 276
#     4  10  18  28  42  68  98 132 183 189 229 290
#
# _framework density 16.113973999999999
#
# number of rings (size 3 to 8) (size 9 to 14) (size 15 to 20)
#    0.000    2.000    5.714    0.857    0.000    2.857 
#    0.000    0.000    0.000    0.000    0.000    0.000 
#    0.000    0.000    0.000   46.286    0.000    0.000 
#
# Total GULP energy -346887.839989 kJ/mol
# GULP energy per Si atom -12388.851428 kJ/mol
# Density = 1.607730 g / cm^3
# Si number density = 16.113974 Si / 1000 Ang^3
#
#
#
# Elastic Constant Matrix: (Units=GPa)
#
#
# Indices 1 2 3 4 5 6 
#
# 1 69.1570 23.9963 28.9239 0.0292 -4.8413 0.0204
# 2 23.9963 83.9630 52.0206 -0.0459 -0.3539 0.0159
# 3 28.9239 52.0206 98.1422 -0.1878 2.2631 0.1013
# 4 0.0292 -0.0459 -0.1878 28.0224 0.0595 -2.1793
# 5 -4.8413 -0.3539 2.2631 0.0595 21.8799 0.0198
# 6 0.0204 0.0159 0.1013 -2.1793 0.0198 12.3814
#
#
#
# Elastic Compliance Matrix: (Units=1/GPa)
#
#
# Indices 1 2 3 4 5 6 
#
# 1 0.017234 -0.002533 -0.003832 -0.000057 0.004169 -0.000011
# 2 -0.002533 0.018141 -0.008884 -0.000025 0.000652 0.000048
# 3 -0.003832 -0.008884 0.016089 0.000096 -0.002656 -0.000093
# 4 -0.000057 -0.000025 0.000096 0.036182 -0.000127 0.006368
# 5 0.004169 0.000652 -0.002656 -0.000127 0.046912 -0.000083
# 6 -0.000011 0.000048 -0.000093 0.006368 -0.000083 0.081888
#
#
# Mechanical properties :
#
#
# Convention : Reuss Voigt Hill
#
# Bulk Modulus (GPa) = 47.70060 51.23822 49.46941
# Shear Modulus (GPa) = 19.69013 22.21151 20.95082
#
# Velocity S-wave (km/s) = 3.49940 3.71671 3.60969
# Velocity P-wave (km/s) = 6.78189 7.09119 6.93826
#
# Compressibility (1/GPa) = 0.02096410
#
# Stress axis : x y z
#
# Youngs Moduli (GPa) = 58.02627 55.12319 62.15250
#
# Poissons Ratio (x) = 0.13964 0.23819
# Poissons Ratio (y) = 0.14700 0.55218
# Poissons Ratio (z) = 0.22238 0.48973
#
# Static dielectric constant tensor:
#      x y z
#    x 3.006520 0.000020 -0.411170 
#    y 0.000020 2.960670 -0.000140 
#    z -0.411170 -0.000140 3.510480 
# 
# 
# High freq. dielectric constant tensor:
#      x y z
#    x 1.584830 0.000000 -0.037650 
#    y 0.000000 1.596120 -0.000010 
#    z -0.037650 -0.000010 1.625220 
# 
# From -- ./inp_files/299479.got.cif
#   From: 2010.06.25/outbox.cif.g09.slc.cpg/sg15_150_cif.got.tgz:299479.got - 2010.06.28 07:06:18.
