data_PCOD8130401
_publ_section_title
;
Structure prediction by ZEFSAII (Michael W. Deem and Ramdas Pophale) SiO2 
 PCOD8130401
Probable space group: C 2/C
;
_chemical_formula_sum "Si O2"
_cell_formula_units_Z 48
_cell_length_a 9.095427
_cell_length_b 20.878043
_cell_length_c 14.095168
_cell_angle_alpha 90.000000
_cell_angle_beta 112.160940
_cell_angle_gamma 90.000000
_cell_volume 2478.872158
_symmetry_space_group_name_H-M "C 2/C"
_symmetry_group_IT_number 15
_symmetry_cell_setting 'monoclinic'
loop_
_space_group_symop_operation_xyz
x,y,z
-x,y,1/2-z
-x,-y,-z
x,-y,1/2+z
1/2+x,1/2+y,z
1/2-x,1/2+y,1/2-z
1/2-x,1/2-y,-z
1/2+x,1/2-y,1/2+z
loop_
_atom_site_type_symbol
_atom_site_label
_atom_site_fract_x
_atom_site_fract_y
_atom_site_fract_z
Si Si1 0.448768 0.601364 0.344851
Si Si2 0.249652 0.679593 0.040748
Si Si3 0.373865 0.147812 0.289692
Si Si4 0.134034 0.034046 0.714094
Si Si5 0.951106 0.487532 0.880803
Si Si6 0.868683 0.600132 0.651760
O O1 0.500000 0.603144 0.250000
O O2 0.581223 0.643152 0.431669
O O3 0.276829 0.633606 0.314247
O O4 0.435617 0.525320 0.367012
O O5 0.184521 0.687184 0.132152
O O6 0.250000 0.750000 0.000000
O O7 0.132407 0.637884 0.947119
O O8 0.500000 0.183715 0.250000
O O9 0.465031 0.085952 0.353252
O O10 0.198043 0.091770 0.662479
O O11 0.000000 0.063719 0.750000
O O12 0.270909 0.009465 0.818772
O O13 0.074883 0.527052 0.848067
O O14 0.000000 0.500000 0.000000
O O15 0.000000 0.635688 0.750000
#
# Coordination Sequence:
#
# PCOD8130401 Si02
#       6
#     8   8   8   8   8   8
#     4   8  17  34  56  80 112 146 186 230 277 340
#     4  11  23  39  57  82 111 158 202 226 274 337
#     4  10  19  37  61  85 111 146 192 241 287 339
#     4   9  18  33  52  84 118 144 179 228 291 344
#     4  10  17  32  57  86 116 145 181 231 291 351
#     4  10  21  36  55  84 118 148 181 233 293 340
#
# _framework density 19.363645000000002
#
# number of rings (size 3 to 8) (size 9 to 14) (size 15 to 20)
#    0.000    2.333    1.667    3.500    0.000    2.667 
#    3.000    1.667    0.000    0.000    0.000    0.000 
#    0.000    0.000    0.000    0.000    0.000    0.000 
#
# Total GULP energy -297316.191581 kJ/mol
# GULP energy per Si atom -12388.174649 kJ/mol
# Density = 1.931957 g / cm^3
# Si number density = 19.363645 Si / 1000 Ang^3
#
#
#
# Elastic Constant Matrix: (Units=GPa)
#
#
# Indices 1 2 3 4 5 6 
#
# 1 127.3613 22.2863 29.3769 0.0000 -12.7159 0.0000
# 2 22.2863 65.7303 23.7920 0.0000 2.6161 0.0000
# 3 29.3769 23.7920 89.9002 0.0000 2.4723 0.0000
# 4 0.0000 0.0000 0.0000 20.8454 0.0000 -6.2934
# 5 -12.7159 2.6161 2.4723 0.0000 28.4639 0.0000
# 6 0.0000 0.0000 0.0000 -6.2934 0.0000 9.9975
#
#
#
# Elastic Compliance Matrix: (Units=1/GPa)
#
#
# Indices 1 2 3 4 5 6 
#
# 1 0.009320 -0.002428 -0.002530 0.000000 0.004606 0.000000
# 2 -0.002428 0.017496 -0.003772 0.000000 -0.002365 0.000000
# 3 -0.002530 -0.003772 0.013001 0.000000 -0.001913 0.000000
# 4 0.000000 0.000000 0.000000 0.059228 0.000000 0.037284
# 5 0.004606 -0.002365 -0.001913 0.000000 0.037574 0.000000
# 6 0.000000 0.000000 0.000000 0.037284 0.000000 0.123494
#
#
# Mechanical properties :
#
#
# Convention : Reuss Voigt Hill
#
# Bulk Modulus (GPa) = 44.72604 48.21135 46.46870
# Shear Modulus (GPa) = 17.54232 25.69715 21.61973
#
# Velocity S-wave (km/s) = 3.01315 3.64687 3.34505
# Velocity P-wave (km/s) = 5.93747 6.53336 6.24253
#
# Compressibility (1/GPa) = 0.02235834
#
# Stress axis : x y z
#
# Youngs Moduli (GPa) = 107.29757 57.15503 76.91749
#
# Poissons Ratio (x) = 0.13875 0.19458
# Poissons Ratio (y) = 0.26048 0.29014
# Poissons Ratio (z) = 0.27143 0.21559
#
# Static dielectric constant tensor:
#      x y z
#    x 4.485960 0.000000 0.474200 
#    y 0.000000 3.220630 0.000000 
#    z 0.474200 0.000000 4.093330 
# 
# 
# High freq. dielectric constant tensor:
#      x y z
#    x 1.761360 0.000000 0.003240 
#    y 0.000000 1.704000 0.000000 
#    z 0.003240 0.000000 1.751540 
# 
# From -- ./inp_files/136178.got.cif
#   From: 2010.06.25/outbox.cif.g09.slc.cpg/sg15_69_cif.got.tgz:136178.got - 2010.06.28 07:06:18.
