data_PCOD8130697
_publ_section_title
;
Structure prediction by ZEFSAII (Michael W. Deem and Ramdas Pophale) SiO2 
 PCOD8130697
Probable space group: C 2/C
;
_chemical_formula_sum "Si O2"
_cell_formula_units_Z 60
_cell_length_a 17.698991
_cell_length_b 16.671766
_cell_length_c 11.691957
_cell_angle_alpha 90.000000
_cell_angle_beta 62.849970
_cell_angle_gamma 90.000000
_cell_volume 3069.848157
_symmetry_space_group_name_H-M "C 2/C"
_symmetry_group_IT_number 15
_symmetry_cell_setting 'monoclinic'
loop_
_space_group_symop_operation_xyz
x,y,z
-x,y,1/2-z
-x,-y,-z
x,-y,1/2+z
1/2+x,1/2+y,z
1/2-x,1/2+y,1/2-z
1/2-x,1/2-y,-z
1/2+x,1/2-y,1/2+z
loop_
_atom_site_type_symbol
_atom_site_label
_atom_site_fract_x
_atom_site_fract_y
_atom_site_fract_z
Si Si1 0.668723 0.378947 0.727300
Si Si2 0.194888 0.410631 0.053619
Si Si3 0.758529 0.577151 0.382423
Si Si4 0.500000 0.321547 0.750000
Si Si5 0.922437 0.686279 0.235737
Si Si6 0.255253 0.786921 0.304260
Si Si7 0.808071 0.188498 0.894359
Si Si8 0.410335 0.791077 0.491684
O O1 0.720693 0.403492 0.579747
O O2 0.697499 0.436899 0.813491
O O3 0.569932 0.381300 0.758019
O O4 0.684725 0.288844 0.761389
O O5 0.191108 0.499521 0.107654
O O6 0.192940 0.351890 0.162471
O O7 0.111646 0.381363 0.040035
O O8 0.833995 0.637847 0.294766
O O9 0.695679 0.607660 0.527445
O O10 0.532393 0.262021 0.629605
O O11 0.901686 0.772051 0.311984
O O12 0.954865 0.698421 0.083914
O O13 0.000000 0.644364 0.250000
O O14 0.228804 0.829667 0.205371
O O15 0.176833 0.757691 0.434975
O O16 0.750000 0.250000 0.000000
#
# Coordination Sequence:
#
# PCOD8130697 Si02
#       8
#     8   8   8   4   8   8   8   8
#     4  11  21  40  60  89 119 156 212 257 289 367
#     4  11  21  39  62  85 121 163 196 253 316 371
#     4  11  23  38  61  89 123 163 202 246 316 377
#     4  12  22  34  68  94 116 160 210 264 290 352
#     4  10  21  39  61  87 125 156 200 264 302 351
#     4  10  17  37  63  80 116 154 208 250 291 358
#     4   9  18  34  57  85 112 157 206 237 293 365
#     4  10  20  38  60  89 117 152 207 251 303 354
#
# _framework density 19.54494
#
# number of rings (size 3 to 8) (size 9 to 14) (size 15 to 20)
#    0.000    1.600    8.000    0.800    3.733    0.000 
#    1.200    1.333    1.467    0.000    0.000    0.000 
#    0.000    0.000    0.000    0.000    0.000    0.000 
#
# Total GULP energy -371717.446377 kJ/mol
# GULP energy per Si atom -12390.581546 kJ/mol
# Density = 1.950045 g / cm^3
# Si number density = 19.544940 Si / 1000 Ang^3
#
#
#
# Elastic Constant Matrix: (Units=GPa)
#
#
# Indices 1 2 3 4 5 6 
#
# 1 103.3505 -1.1594 26.3109 0.0000 14.5342 0.0000
# 2 -1.1594 45.6250 11.8297 0.0000 11.7409 0.0000
# 3 26.3109 11.8297 92.5277 0.0000 16.6820 0.0000
# 4 0.0000 0.0000 0.0000 15.9482 0.0000 3.9466
# 5 14.5342 11.7409 16.6820 0.0000 23.7408 0.0000
# 6 0.0000 0.0000 0.0000 3.9466 0.0000 20.4362
#
#
#
# Elastic Compliance Matrix: (Units=1/GPa)
#
#
# Indices 1 2 3 4 5 6 
#
# 1 0.011214 0.002562 -0.002348 0.000000 -0.006483 0.000000
# 2 0.002562 0.025800 -0.001653 0.000000 -0.013166 0.000000
# 3 -0.002348 -0.001653 0.012916 0.000000 -0.006821 0.000000
# 4 0.000000 0.000000 0.000000 0.065850 0.000000 -0.012717
# 5 -0.006483 -0.013166 -0.006821 0.000000 0.057394 0.000000
# 6 0.000000 0.000000 0.000000 -0.012717 0.000000 0.051388
#
#
# Mechanical properties :
#
#
# Convention : Reuss Voigt Hill
#
# Bulk Modulus (GPa) = 21.25326 35.05174 28.15250
# Shear Modulus (GPa) = 20.56565 25.65986 23.11276
#
# Velocity S-wave (km/s) = 3.24732 3.62728 3.44254
# Velocity P-wave (km/s) = 4.99577 5.95951 5.49879
#
# Compressibility (1/GPa) = 0.04705161
#
# Stress axis : x y z
#
# Youngs Moduli (GPa) = 89.17573 38.76039 77.42164
#
# Poissons Ratio (x) = -0.09930 0.18175
# Poissons Ratio (y) = -0.22845 0.12800
# Poissons Ratio (z) = 0.20934 0.06408
#
# Static dielectric constant tensor:
#      x y z
#    x 3.495940 0.000000 0.181950 
#    y 0.000000 5.241760 0.000000 
#    z 0.181950 0.000000 3.267840 
# 
# 
# High freq. dielectric constant tensor:
#      x y z
#    x 1.746060 0.000000 0.022680 
#    y 0.000000 1.726120 0.000000 
#    z 0.022680 0.000000 1.776310 
# 
# From -- ./inp_files/106371.got.cif
#   From: 2010.06.25/outbox.cif.g09.slc.cpg/sg15_54_cif.got.tgz:106371.got - 2010.06.28 07:06:18.
