data_PCOD8130142
_publ_section_title
;
Structure prediction by ZEFSAII (Michael W. Deem and Ramdas Pophale) SiO2 
 PCOD8130142
Probable space group: C 2/C
;
_chemical_formula_sum "Si O2"
_cell_formula_units_Z 64
_cell_length_a 20.375365
_cell_length_b 9.149553
_cell_length_c 24.730074
_cell_angle_alpha 90.000000
_cell_angle_beta 127.317217
_cell_angle_gamma 90.000000
_cell_volume 3666.544405
_symmetry_space_group_name_H-M "C 2/C"
_symmetry_group_IT_number 15
_symmetry_cell_setting 'monoclinic'
loop_
_space_group_symop_operation_xyz
x,y,z
-x,y,1/2-z
-x,-y,-z
x,-y,1/2+z
1/2+x,1/2+y,z
1/2-x,1/2+y,1/2-z
1/2-x,1/2-y,-z
1/2+x,1/2-y,1/2+z
loop_
_atom_site_type_symbol
_atom_site_label
_atom_site_fract_x
_atom_site_fract_y
_atom_site_fract_z
Si Si1 0.499978 0.670792 0.004948
Si Si2 0.806092 0.746263 0.580577
Si Si3 0.765430 0.436674 0.162034
Si Si4 0.697517 0.016852 0.062718
Si Si5 0.878016 0.562070 0.813941
Si Si6 0.682835 0.750481 0.119838
Si Si7 0.437325 0.156244 0.572457
Si Si8 0.365820 0.204313 0.373323
O O1 0.457841 0.735136 0.929882
O O2 0.500000 0.500000 0.000000
O O3 0.591762 0.725595 0.052755
O O4 0.447615 0.720293 0.031530
O O5 0.750000 0.750000 0.500000
O O6 0.781105 0.613860 0.608389
O O7 0.901029 0.732679 0.608857
O O8 0.785424 0.900946 0.598606
O O9 0.849475 0.413279 0.238014
O O10 0.736244 0.604104 0.149624
O O11 0.696195 0.339909 0.157058
O O12 0.721613 0.852071 0.091710
O O13 0.650266 0.083836 0.089596
O O14 0.631382 0.034606 0.980211
O O15 0.823959 0.670390 0.825123
O O16 0.861187 0.389210 0.816053
O O17 0.975575 0.586274 0.868911
#
# Coordination Sequence:
#
# PCOD8130142 Si02
#       8
#     8   8   8   8   8   8   8   8
#     4  10  17  29  53  78 103 130 166 221 266 301
#     4   9  19  35  55  72  98 134 176 215 252 302
#     4  11  20  32  51  75 103 141 170 211 256 311
#     4   8  16  32  53  75  99 131 164 219 259 299
#     4  10  20  32  50  76 104 137 169 209 260 319
#     4  10  19  31  52  81 106 129 173 215 264 312
#     4   9  18  33  52  74  99 135 176 207 256 316
#     4   9  17  31  49  74 105 130 165 211 264 304
#
# _framework density 17.455127999999998
#
# number of rings (size 3 to 8) (size 9 to 14) (size 15 to 20)
#    0.000    2.500    1.250    2.250    0.000    3.500 
#    0.000    2.500    2.750    0.000    0.000    0.000 
#    0.000    0.000    0.000    0.000    0.000    0.000 
#
# Total GULP energy -396477.811976 kJ/mol
# GULP energy per Si atom -12389.931624 kJ/mol
# Density = 1.741540 g / cm^3
# Si number density = 17.455128 Si / 1000 Ang^3
#
#
#
# Elastic Constant Matrix: (Units=GPa)
#
#
# Indices 1 2 3 4 5 6 
#
# 1 79.5337 42.1819 25.8101 0.0000 -5.7784 0.0000
# 2 42.1819 122.8136 39.3249 0.0000 -3.6417 0.0000
# 3 25.8101 39.3249 92.8007 0.0000 2.8247 0.0000
# 4 0.0000 0.0000 0.0000 18.2438 0.0000 1.3234
# 5 -5.7784 -3.6417 2.8247 0.0000 19.4583 0.0000
# 6 0.0000 0.0000 0.0000 1.3234 0.0000 19.3491
#
#
#
# Elastic Compliance Matrix: (Units=1/GPa)
#
#
# Indices 1 2 3 4 5 6 
#
# 1 0.016187 -0.004566 -0.002699 0.000000 0.004344 0.000000
# 2 -0.004566 0.010817 -0.003349 0.000000 0.001155 0.000000
# 3 -0.002699 -0.003349 0.013047 0.000000 -0.003322 0.000000
# 4 0.000000 0.000000 0.000000 0.055087 0.000000 -0.003768
# 5 0.004344 0.001155 -0.003322 0.000000 0.053380 0.000000
# 6 0.000000 0.000000 0.000000 -0.003768 0.000000 0.051940
#
#
# Mechanical properties :
#
#
# Convention : Reuss Voigt Hill
#
# Bulk Modulus (GPa) = 53.13016 56.64244 54.88630
# Shear Modulus (GPa) = 21.93360 23.93229 22.93295
#
# Velocity S-wave (km/s) = 3.54866 3.70682 3.62860
# Velocity P-wave (km/s) = 6.87713 7.13032 7.00487
#
# Compressibility (1/GPa) = 0.01882170
#
# Stress axis : x y z
#
# Youngs Moduli (GPa) = 61.77914 92.44324 76.64733
#
# Poissons Ratio (x) = 0.42214 0.20688
# Poissons Ratio (y) = 0.28211 0.25670
# Poissons Ratio (z) = 0.16675 0.30960
#
# Static dielectric constant tensor:
#      x y z
#    x 3.371300 0.000000 -0.090140 
#    y 0.000000 3.452790 0.000000 
#    z -0.090140 0.000000 3.213900 
# 
# 
# High freq. dielectric constant tensor:
#      x y z
#    x 1.653320 0.000000 0.007650 
#    y 0.000000 1.673290 0.000000 
#    z 0.007650 0.000000 1.666460 
# 
# From -- ./inp_files/251545.got.cif
#   From: 2010.06.25/outbox.cif.g09.slc.cpg/sg15_126_cif.got.tgz:251545.got - 2010.06.28 07:06:18.
