data_PCOD8130951
_publ_section_title
;
Structure prediction by ZEFSAII (Michael W. Deem and Ramdas Pophale) SiO2 
 PCOD8130951
Probable space group: C 2/C
;
_chemical_formula_sum "Si O2"
_cell_formula_units_Z 64
_cell_length_a 11.634468
_cell_length_b 17.716847
_cell_length_c 21.140860
_cell_angle_alpha 90.000000
_cell_angle_beta 51.223556
_cell_angle_gamma 90.000000
_cell_volume 3397.229965
_symmetry_space_group_name_H-M "C 2/C"
_symmetry_group_IT_number 15
_symmetry_cell_setting 'monoclinic'
loop_
_space_group_symop_operation_xyz
x,y,z
-x,y,1/2-z
-x,-y,-z
x,-y,1/2+z
1/2+x,1/2+y,z
1/2-x,1/2+y,1/2-z
1/2-x,1/2-y,-z
1/2+x,1/2-y,1/2+z
loop_
_atom_site_type_symbol
_atom_site_label
_atom_site_fract_x
_atom_site_fract_y
_atom_site_fract_z
Si Si1 0.671826 0.180224 0.559469
Si Si2 0.293759 0.976058 0.510124
Si Si3 0.611217 0.815539 0.803084
Si Si4 0.446924 0.803380 0.040067
Si Si5 0.283139 0.183707 0.372913
Si Si6 0.437423 0.067807 0.081521
Si Si7 0.149262 0.804611 0.388634
Si Si8 0.431057 0.568012 0.984441
O O1 0.750000 0.250000 0.500000
O O2 0.747114 0.103201 0.508350
O O3 0.501757 0.182857 0.594014
O O4 0.694215 0.182021 0.628298
O O5 0.310662 0.967044 0.580260
O O6 0.452321 0.005055 0.427609
O O7 0.163568 0.034737 0.540802
O O8 0.689552 0.831105 0.710292
O O9 0.434161 0.812729 0.859499
O O10 0.648504 0.886762 0.834678
O O11 0.671667 0.738128 0.814083
O O12 0.284998 0.767382 0.095922
O O13 0.451880 0.880808 0.999482
O O14 0.555697 0.746139 0.968064
O O15 0.176018 0.118107 0.434279
O O16 0.062607 0.883064 0.408233
O O17 0.500000 0.500000 0.000000
#
# Coordination Sequence:
#
# PCOD8130951 Si02
#       8
#     8   8   8   8   8   8   8   8
#     4   9  16  31  49  76 106 132 172 220 266 309
#     4  10  18  30  53  83 106 134 179 226 277 309
#     4  10  20  36  55  76 110 148 181 221 275 339
#     4   8  17  30  52  77 102 131 180 225 256 309
#     4  10  21  35  55  79 109 146 181 223 280 330
#     4   9  18  32  55  81 104 138 181 230 264 324
#     4   9  18  30  53  79 102 139 178 221 260 318
#     4  11  20  33  58  85 111 139 185 233 275 324
#
# _framework density 18.838877
#
# number of rings (size 3 to 8) (size 9 to 14) (size 15 to 20)
#    0.000    2.500    2.500    0.750    1.750    1.500 
#    0.000    0.625    8.250    3.000    0.000    0.000 
#    0.000    0.000    0.000    0.000    0.000    0.000 
#
# Total GULP energy -396522.578953 kJ/mol
# GULP energy per Si atom -12391.330592 kJ/mol
# Density = 1.879600 g / cm^3
# Si number density = 18.838877 Si / 1000 Ang^3
#
#
#
# Elastic Constant Matrix: (Units=GPa)
#
#
# Indices 1 2 3 4 5 6 
#
# 1 91.2337 30.3894 21.1769 -0.0001 21.9228 0.0001
# 2 30.3894 94.2276 17.8710 0.0000 9.2919 0.0001
# 3 21.1769 17.8710 44.4582 0.0000 10.7106 0.0001
# 4 -0.0001 0.0000 0.0000 15.2000 0.0001 6.0500
# 5 21.9228 9.2919 10.7106 0.0001 23.0978 -0.0001
# 6 0.0001 0.0001 0.0001 6.0500 -0.0001 38.1637
#
#
#
# Elastic Compliance Matrix: (Units=1/GPa)
#
#
# Indices 1 2 3 4 5 6 
#
# 1 0.015706 -0.003255 -0.003261 0.000000 -0.012085 0.000000
# 2 -0.003255 0.012325 -0.003325 0.000000 -0.000327 0.000000
# 3 -0.003261 -0.003325 0.027373 0.000000 -0.008260 0.000000
# 4 0.000000 0.000000 0.000000 0.070220 0.000000 -0.011132
# 5 -0.012085 -0.000327 -0.008260 0.000000 0.058726 0.000000
# 6 0.000000 0.000000 0.000000 -0.011132 0.000000 0.027968
#
#
# Mechanical properties :
#
#
# Convention : Reuss Voigt Hill
#
# Bulk Modulus (GPa) = 27.99457 40.97713 34.48585
# Shear Modulus (GPa) = 20.49947 25.99112 23.24529
#
# Velocity S-wave (km/s) = 3.30229 3.71840 3.51650
# Velocity P-wave (km/s) = 5.42516 6.34302 5.90196
#
# Compressibility (1/GPa) = 0.03572121
#
# Stress axis : x y z
#
# Youngs Moduli (GPa) = 63.66933 81.13398 36.53220
#
# Poissons Ratio (x) = 0.26410 0.11915
# Poissons Ratio (y) = 0.20725 0.12148
# Poissons Ratio (z) = 0.20765 0.26978
#
# Static dielectric constant tensor:
#      x y z
#    x 3.899870 0.000000 0.245020 
#    y 0.000000 3.845240 0.000000 
#    z 0.245020 0.000000 2.926190 
# 
# 
# High freq. dielectric constant tensor:
#      x y z
#    x 1.750120 0.000000 0.026060 
#    y 0.000000 1.746270 0.000000 
#    z 0.026060 0.000000 1.665150 
# 
# From -- ./inp_files/239548.got.cif
#   From: 2010.06.25/outbox.cif.g09.slc.cpg/sg15_120_cif.got.tgz:239548.got - 2010.06.28 07:06:18.
