data_PCOD8130856
_publ_section_title
;
Structure prediction by ZEFSAII (Michael W. Deem and Ramdas Pophale) SiO2 
 PCOD8130856
Probable space group: C 2/C
;
_chemical_formula_sum "Si O2"
_cell_formula_units_Z 56
_cell_length_a 26.854250
_cell_length_b 9.293223
_cell_length_c 14.520516
_cell_angle_alpha 90.000000
_cell_angle_beta 42.846115
_cell_angle_gamma 90.000000
_cell_volume 2464.282830
_symmetry_space_group_name_H-M "C 2/C"
_symmetry_group_IT_number 15
_symmetry_cell_setting 'monoclinic'
loop_
_space_group_symop_operation_xyz
x,y,z
-x,y,1/2-z
-x,-y,-z
x,-y,1/2+z
1/2+x,1/2+y,z
1/2-x,1/2+y,1/2-z
1/2-x,1/2-y,-z
1/2+x,1/2-y,1/2+z
loop_
_atom_site_type_symbol
_atom_site_label
_atom_site_fract_x
_atom_site_fract_y
_atom_site_fract_z
Si Si1 0.362151 0.015739 0.835326
Si Si2 0.547379 0.140439 0.931149
Si Si3 0.772822 0.729933 0.250071
Si Si4 0.409828 0.278084 0.174439
Si Si5 0.579639 0.568641 0.660756
Si Si6 0.729907 0.445617 0.394566
Si Si7 0.871063 0.349531 0.994081
O O1 0.388865 0.866232 0.756516
O O2 0.277103 0.043372 0.924507
O O3 0.410641 0.145152 0.724658
O O4 0.375050 0.997897 0.927893
O O5 0.607970 0.123484 0.928794
O O6 0.492199 0.274115 0.019466
O O7 0.500000 0.000000 0.000000
O O8 0.851119 0.795562 0.173061
O O9 0.763566 0.557202 0.271973
O O10 0.712053 0.794553 0.401523
O O11 0.761751 0.785855 0.160391
O O12 0.407031 0.412457 0.247895
O O13 0.500000 0.496124 0.750000
O O14 0.644675 0.471827 0.531675
O O15 0.576094 0.725402 0.616899
#
# Coordination Sequence:
#
# PCOD8130856 Si02
#       7
#     8   8   8   8   8   8   8
#     4   9  18  31  54  88 115 143 196 246 298 343
#     4  10  18  29  52  87 121 146 186 248 302 340
#     4  10  20  36  58  84 117 154 197 238 297 344
#     4   9  18  31  52  83 115 146 190 247 293 339
#     4  10  18  31  54  80 109 147 199 246 284 339
#     4  10  20  35  58  87 113 154 196 244 289 352
#     4  10  18  32  56  84 117 150 194 250 296 341
#
# _framework density 22.724664000000001
#
# number of rings (size 3 to 8) (size 9 to 14) (size 15 to 20)
#    0.000    2.286    2.857    0.857    0.000    3.429 
#    0.000    0.714    0.000    5.143    0.000    0.000 
#    0.000    0.000    0.000    0.000    0.000    0.000 
#
# Total GULP energy -346992.024478 kJ/mol
# GULP energy per Si atom -12392.572303 kJ/mol
# Density = 2.267294 g / cm^3
# Si number density = 22.724664 Si / 1000 Ang^3
#
#
#
# Elastic Constant Matrix: (Units=GPa)
#
#
# Indices 1 2 3 4 5 6 
#
# 1 81.6675 -3.6765 26.6188 0.0000 -23.7803 0.0000
# 2 -3.6765 22.2528 9.4661 -0.0003 -3.5918 0.0000
# 3 26.6188 9.4661 86.3891 -0.0002 -27.2261 0.0000
# 4 0.0000 -0.0003 -0.0002 20.5017 0.0000 -1.1837
# 5 -23.7803 -3.5918 -27.2261 0.0000 38.4482 0.0000
# 6 0.0000 0.0000 0.0000 -1.1837 0.0000 17.6920
#
#
#
# Elastic Compliance Matrix: (Units=1/GPa)
#
#
# Indices 1 2 3 4 5 6 
#
# 1 0.015802 0.005147 -0.002834 0.000000 0.008248 0.000000
# 2 0.005147 0.048840 -0.005788 0.000001 0.003648 0.000000
# 3 -0.002834 -0.005788 0.015911 0.000000 0.008974 0.000000
# 4 0.000000 0.000001 0.000000 0.048966 0.000000 0.003276
# 5 0.008248 0.003648 0.008974 0.000000 0.037806 0.000000
# 6 0.000000 0.000000 0.000000 0.003276 0.000000 0.056742
#
#
# Mechanical properties :
#
#
# Convention : Reuss Voigt Hill
#
# Bulk Modulus (GPa) = 13.58630 28.34732 20.96681
# Shear Modulus (GPa) = 19.56575 25.85510 22.71043
#
# Velocity S-wave (km/s) = 2.93745 3.37672 3.16472
# Velocity P-wave (km/s) = 4.18288 5.26349 4.75399
#
# Compressibility (1/GPa) = 0.07360356
#
# Stress axis : x y z
#
# Youngs Moduli (GPa) = 63.28432 20.47521 62.84962
#
# Poissons Ratio (x) = -0.10539 0.17809
# Poissons Ratio (y) = -0.32575 0.36378
# Poissons Ratio (z) = 0.17932 0.11851
#
# Static dielectric constant tensor:
#      x y z
#    x 3.928980 0.000000 -0.032130 
#    y 0.000000 3.622390 0.000000 
#    z -0.032130 0.000000 4.381430 
# 
# 
# High freq. dielectric constant tensor:
#      x y z
#    x 1.893500 0.000000 -0.018950 
#    y 0.000000 1.839630 0.000000 
#    z -0.018950 0.000000 1.902400 
# 
# From -- ./inp_files/177542.got.cif
#   From: 2010.06.25/outbox.cif.g09.slc.cpg/sg15_89_cif.got.tgz:177542.got - 2010.06.28 07:06:18.
