data_PCOD8130003
_publ_section_title
;
Structure prediction by ZEFSAII (Michael W. Deem and Ramdas Pophale) SiO2 
 PCOD8130003
Probable space group: C 2/C
;
_chemical_formula_sum "Si O2"
_cell_formula_units_Z 52
_cell_length_a 11.324595
_cell_length_b 18.027116
_cell_length_c 25.185855
_cell_angle_alpha 90.000000
_cell_angle_beta 150.016381
_cell_angle_gamma 90.000000
_cell_volume 2569.570296
_symmetry_space_group_name_H-M "C 2/C"
_symmetry_group_IT_number 15
_symmetry_cell_setting 'monoclinic'
loop_
_space_group_symop_operation_xyz
x,y,z
-x,y,1/2-z
-x,-y,-z
x,-y,1/2+z
1/2+x,1/2+y,z
1/2-x,1/2+y,1/2-z
1/2-x,1/2-y,-z
1/2+x,1/2-y,1/2+z
loop_
_atom_site_type_symbol
_atom_site_label
_atom_site_fract_x
_atom_site_fract_y
_atom_site_fract_z
Si Si1 0.817250 0.736490 0.722026
Si Si2 0.964164 0.784420 0.890609
Si Si3 0.500000 0.257620 0.250000
Si Si4 0.136794 0.637584 0.995991
Si Si5 0.441174 0.642754 0.623167
Si Si6 0.901316 0.613297 0.399134
Si Si7 0.212249 0.038602 0.791701
O O1 0.943178 0.737604 0.827843
O O2 0.578031 0.687694 0.630554
O O3 0.747143 0.819732 0.680977
O O4 0.000000 0.703947 0.750000
O O5 0.705052 0.800100 0.813122
O O6 0.113061 0.861192 0.939677
O O7 0.084685 0.726441 0.979020
O O8 0.574740 0.310687 0.327990
O O9 0.169269 0.601564 0.066677
O O10 0.924869 0.595690 0.885128
O O11 0.589089 0.566034 0.689195
O O12 0.180728 0.624468 0.501029
O O13 0.822326 0.543029 0.333306
O O14 0.000000 0.043685 0.750000
#
# Coordination Sequence:
#
# PCOD8130003 Si02
#       7
#     8   8   4   8   8   8   8
#     4  11  22  38  58  91 121 155 202 252 296 356
#     4  10  20  34  60  86 124 158 199 251 293 356
#     4  10  16  36  58  84 122 154 202 240 300 350
#     4  11  20  35  56  90 122 158 196 240 310 361
#     4  11  21  40  57  86 126 159 193 250 310 350
#     4  12  23  35  59  94 123 152 205 248 306 363
#     4  12  22  36  59  88 124 158 186 255 315 360
#
# _framework density 20.236846
#
# number of rings (size 3 to 8) (size 9 to 14) (size 15 to 20)
#    0.000    0.923    8.462    1.385    0.000    0.000 
#    0.000    0.000    0.000    0.923   10.000    0.000 
#    0.000    0.000    0.000    0.000    0.000    0.000 
#
# Total GULP energy -322168.526167 kJ/mol
# GULP energy per Si atom -12391.097160 kJ/mol
# Density = 2.019079 g / cm^3
# Si number density = 20.236846 Si / 1000 Ang^3
#
#
#
# Elastic Constant Matrix: (Units=GPa)
#
#
# Indices 1 2 3 4 5 6 
#
# 1 105.1064 29.0745 33.9565 -0.0007 39.7322 -0.0002
# 2 29.0745 60.8153 20.4495 -0.0001 19.6818 -0.0001
# 3 33.9565 20.4495 74.9889 -0.0005 35.5736 -0.0005
# 4 -0.0007 -0.0001 -0.0005 26.2696 -0.0010 7.8947
# 5 39.7322 19.6818 35.5736 -0.0010 40.8792 -0.0001
# 6 -0.0002 -0.0001 -0.0005 7.8947 -0.0001 16.9414
#
#
#
# Elastic Compliance Matrix: (Units=1/GPa)
#
#
# Indices 1 2 3 4 5 6 
#
# 1 0.015498 -0.003031 0.000447 0.000000 -0.013992 0.000000
# 2 -0.003031 0.020167 -0.001564 0.000000 -0.005402 0.000000
# 3 0.000447 -0.001564 0.022835 -0.000001 -0.019552 0.000001
# 4 0.000000 0.000000 -0.000001 0.044266 0.000002 -0.020628
# 5 -0.013992 -0.005402 -0.019552 0.000002 0.057677 -0.000001
# 6 0.000000 0.000000 0.000001 -0.020628 -0.000001 0.068640
#
#
# Mechanical properties :
#
#
# Convention : Reuss Voigt Hill
#
# Bulk Modulus (GPa) = 19.91951 45.31904 32.61928
# Shear Modulus (GPa) = 19.67625 27.31337 23.49481
#
# Velocity S-wave (km/s) = 3.12155 3.67779 3.41103
# Velocity P-wave (km/s) = 4.78087 6.36222 5.62737
#
# Compressibility (1/GPa) = 0.05020204
#
# Stress axis : x y z
#
# Youngs Moduli (GPa) = 64.52617 49.58691 43.79264
#
# Poissons Ratio (x) = 0.15029 -0.01955
# Poissons Ratio (y) = 0.19557 0.06850
# Poissons Ratio (z) = -0.02881 0.07756
#
# Static dielectric constant tensor:
#      x y z
#    x 3.881580 0.000000 0.343540 
#    y 0.000000 3.556460 0.000000 
#    z 0.343540 0.000000 4.017230 
# 
# 
# High freq. dielectric constant tensor:
#      x y z
#    x 1.765920 0.000000 0.028240 
#    y 0.000000 1.754820 0.000000 
#    z 0.028240 0.000000 1.813450 
# 
# From -- ./inp_files/293474.got.cif
#   From: 2010.06.25/outbox.cif.g09.slc.cpg/sg15_147_cif.got.tgz:293474.got - 2010.06.28 07:06:18.
