data_PCOD8130392
_publ_section_title
;
Structure prediction by ZEFSAII (Michael W. Deem and Ramdas Pophale) SiO2 
 PCOD8130392
Probable space group: C 2/C
;
_chemical_formula_sum "Si O2"
_cell_formula_units_Z 48
_cell_length_a 9.639262
_cell_length_b 27.536037
_cell_length_c 12.472381
_cell_angle_alpha 90.000000
_cell_angle_beta 128.117592
_cell_angle_gamma 90.000000
_cell_volume 2604.527067
_symmetry_space_group_name_H-M "C 2/C"
_symmetry_group_IT_number 15
_symmetry_cell_setting 'monoclinic'
loop_
_space_group_symop_operation_xyz
x,y,z
-x,y,1/2-z
-x,-y,-z
x,-y,1/2+z
1/2+x,1/2+y,z
1/2-x,1/2+y,1/2-z
1/2-x,1/2-y,-z
1/2+x,1/2-y,1/2+z
loop_
_atom_site_type_symbol
_atom_site_label
_atom_site_fract_x
_atom_site_fract_y
_atom_site_fract_z
Si Si1 0.306656 0.388919 0.837837
Si Si2 0.000000 0.547412 0.250000
Si Si3 0.500000 0.444943 0.750000
Si Si4 0.652775 0.787165 0.733692
Si Si5 0.831542 0.884315 0.098039
Si Si6 0.157593 0.283099 0.044402
Si Si7 0.180652 0.486088 0.032012
O O1 0.451109 0.411977 0.828248
O O2 0.279367 0.333475 0.790245
O O3 0.121937 0.417797 0.734662
O O4 0.377693 0.391405 0.994231
O O5 0.133950 0.514350 0.382947
O O6 0.663573 0.477267 0.866507
O O7 0.500000 0.794970 0.750000
O O8 0.774936 0.739441 0.811249
O O9 0.554143 0.779182 0.572548
O O10 0.702380 0.839312 0.052258
O O11 0.737387 0.932506 0.097641
O O12 0.000000 0.873218 0.250000
O O13 0.250000 0.250000 0.000000
O O14 0.000000 0.500000 0.000000
#
# Coordination Sequence:
#
# PCOD8130392 Si02
#       7
#     8   4   4   8   8   8   8
#     4  11  21  37  60  89 120 160 202 242 302 367
#     4  10  20  38  66  79 119 154 202 254 298 342
#     4  12  26  40  62  89 123 168 206 238 308 376
#     4  10  17  32  55  89 117 148 191 253 305 344
#     4  11  21  35  59  93 121 150 199 256 298 350
#     4  10  18  29  56  92 118 143 189 253 307 343
#     4  11  23  40  59  88 122 158 200 249 304 351
#
# _framework density 18.429449000000002
#
# number of rings (size 3 to 8) (size 9 to 14) (size 15 to 20)
#    0.000    1.333    6.667    2.500    0.000    4.000 
#    0.000    0.000    0.000    1.000    0.000    0.000 
#    0.000    0.000    0.000    0.000    0.000    0.000 
#
# Total GULP energy -297459.613035 kJ/mol
# GULP energy per Si atom -12394.150543 kJ/mol
# Density = 1.838750 g / cm^3
# Si number density = 18.429449 Si / 1000 Ang^3
#
#
#
# Elastic Constant Matrix: (Units=GPa)
#
#
# Indices 1 2 3 4 5 6 
#
# 1 74.7920 45.6380 31.7056 0.0000 5.6782 0.0000
# 2 45.6380 119.9302 47.9250 0.0000 0.7983 0.0000
# 3 31.7056 47.9250 144.2858 0.0000 20.5584 0.0000
# 4 0.0000 0.0000 0.0000 27.5802 0.0000 4.0089
# 5 5.6782 0.7983 20.5584 0.0000 20.7575 0.0000
# 6 0.0000 0.0000 0.0000 4.0089 0.0000 12.4631
#
#
#
# Elastic Compliance Matrix: (Units=1/GPa)
#
#
# Indices 1 2 3 4 5 6 
#
# 1 0.018053 -0.006285 -0.001409 0.000000 -0.003301 0.000000
# 2 -0.006285 0.011995 -0.003239 0.000000 0.004466 0.000000
# 3 -0.001409 -0.003239 0.009598 0.000000 -0.008996 0.000000
# 4 0.000000 0.000000 0.000000 0.038036 0.000000 -0.012235
# 5 -0.003301 0.004466 -0.008996 0.000000 0.057816 0.000000
# 6 0.000000 0.000000 0.000000 -0.012235 0.000000 0.084173
#
#
# Mechanical properties :
#
#
# Convention : Reuss Voigt Hill
#
# Bulk Modulus (GPa) = 56.24544 65.50504 60.87524
# Shear Modulus (GPa) = 20.20489 26.40944 23.30717
#
# Velocity S-wave (km/s) = 3.31469 3.78961 3.56008
# Velocity P-wave (km/s) = 6.72571 7.40061 7.07121
#
# Compressibility (1/GPa) = 0.01777922
#
# Stress axis : x y z
#
# Youngs Moduli (GPa) = 55.39104 83.37102 104.18740
#
# Poissons Ratio (x) = 0.52398 0.14682
# Poissons Ratio (y) = 0.34813 0.33750
# Poissons Ratio (z) = 0.07806 0.27007
#
# Static dielectric constant tensor:
#      x y z
#    x 2.959250 0.000000 0.203240 
#    y 0.000000 3.664010 0.000000 
#    z 0.203240 0.000000 3.879740 
# 
# 
# High freq. dielectric constant tensor:
#      x y z
#    x 1.657500 0.000000 0.027670 
#    y 0.000000 1.726720 0.000000 
#    z 0.027670 0.000000 1.733250 
# 
# From -- ./inp_files/80955.got.cif
#   From: 2010.06.25/outbox.cif.g09.slc.cpg/sg15_41_cif.got.tgz:80955.got - 2010.06.28 07:06:18.
