data_PCOD8130433
_publ_section_title
;
Structure prediction by ZEFSAII (Michael W. Deem and Ramdas Pophale) SiO2 
 PCOD8130433
Probable space group: C 2/C
;
_chemical_formula_sum "Si O2"
_cell_formula_units_Z 56
_cell_length_a 11.549703
_cell_length_b 19.449001
_cell_length_c 23.363469
_cell_angle_alpha 90.000000
_cell_angle_beta 37.919284
_cell_angle_gamma 90.000000
_cell_volume 3225.248583
_symmetry_space_group_name_H-M "C 2/C"
_symmetry_group_IT_number 15
_symmetry_cell_setting 'monoclinic'
loop_
_space_group_symop_operation_xyz
x,y,z
-x,y,1/2-z
-x,-y,-z
x,-y,1/2+z
1/2+x,1/2+y,z
1/2-x,1/2+y,1/2-z
1/2-x,1/2-y,-z
1/2+x,1/2-y,1/2+z
loop_
_atom_site_type_symbol
_atom_site_label
_atom_site_fract_x
_atom_site_fract_y
_atom_site_fract_z
Si Si1 0.754296 0.295514 0.289410
Si Si2 0.850236 0.317605 0.758945
Si Si3 0.771407 0.027066 0.538242
Si Si4 0.613467 0.560086 0.880991
Si Si5 0.340616 0.763603 0.379241
Si Si6 0.927890 0.840293 0.933090
Si Si7 0.917127 0.466252 0.718640
O O1 0.653747 0.247963 0.281468
O O2 0.634606 0.365183 0.343839
O O3 0.766144 0.253585 0.344154
O O4 0.972766 0.312660 0.188009
O O5 0.647101 0.336499 0.865700
O O6 0.903967 0.387066 0.703374
O O7 0.000000 0.299962 0.750000
O O8 0.797409 0.060661 0.590718
O O9 0.835787 0.084233 0.467759
O O10 0.553196 0.004804 0.620038
O O11 0.895443 0.959507 0.475793
O O12 0.715914 0.504690 0.799568
O O13 0.172540 0.793116 0.481532
O O14 0.400578 0.688823 0.379712
O O15 0.000000 0.466593 0.750000
#
# Coordination Sequence:
#
# PCOD8130433 Si02
#       7
#     8   8   8   8   8   8   8
#     4  10  19  33  51  76 104 129 170 209 252 302
#     4  10  21  35  50  71 105 141 164 200 257 312
#     4  10  18  28  50  73 101 127 167 210 252 292
#     4  10  18  28  48  74  99 128 163 213 252 289
#     4   9  19  30  53  77  98 128 166 213 257 284
#     4  10  17  33  51  75 102 127 166 212 251 302
#     4   9  18  30  47  72 100 127 165 210 258 292
#
# _framework density 17.363002999999999
#
# number of rings (size 3 to 8) (size 9 to 14) (size 15 to 20)
#    0.000    2.286    2.857    0.857    6.000    0.000 
#    0.000    2.857    0.000    2.571    0.000    0.000 
#    0.000    0.000    0.000    0.000    0.000    0.000 
#
# Total GULP energy -346982.606290 kJ/mol
# GULP energy per Si atom -12392.235939 kJ/mol
# Density = 1.732348 g / cm^3
# Si number density = 17.363003 Si / 1000 Ang^3
#
#
#
# Elastic Constant Matrix: (Units=GPa)
#
#
# Indices 1 2 3 4 5 6 
#
# 1 62.4509 34.2077 25.8563 0.0208 -1.7772 -0.0069
# 2 34.2077 110.4562 38.8112 -0.0149 3.5847 -0.0028
# 3 25.8563 38.8112 90.7373 -0.0202 -11.2125 -0.0278
# 4 0.0208 -0.0149 -0.0202 37.5095 -0.0219 4.6137
# 5 -1.7772 3.5847 -11.2125 -0.0219 17.4177 0.0208
# 6 -0.0069 -0.0028 -0.0278 4.6137 0.0208 18.5619
#
#
#
# Elastic Compliance Matrix: (Units=1/GPa)
#
#
# Indices 1 2 3 4 5 6 
#
# 1 0.020265 -0.005075 -0.003498 -0.000015 0.000861 0.000004
# 2 -0.005075 0.012447 -0.004627 0.000002 -0.006058 -0.000001
# 3 -0.003498 -0.004627 0.015286 0.000014 0.010435 0.000006
# 4 -0.000015 0.000002 0.000014 0.027501 0.000050 -0.006836
# 5 0.000861 -0.006058 0.010435 0.000050 0.065465 -0.000071
# 6 0.000004 -0.000001 0.000006 -0.006836 -0.000071 0.055573
#
#
# Mechanical properties :
#
#
# Convention : Reuss Voigt Hill
#
# Bulk Modulus (GPa) = 46.29617 51.26610 48.78113
# Shear Modulus (GPa) = 21.72637 25.68243 23.70440
#
# Velocity S-wave (km/s) = 3.54121 3.85014 3.69890
# Velocity P-wave (km/s) = 6.59104 7.02531 6.81164
#
# Compressibility (1/GPa) = 0.02160006
#
# Stress axis : x y z
#
# Youngs Moduli (GPa) = 49.34613 80.33900 65.41966
#
# Poissons Ratio (x) = 0.40771 0.22881
# Poissons Ratio (y) = 0.25043 0.30266
# Poissons Ratio (z) = 0.17259 0.37169
#
# Static dielectric constant tensor:
#      x y z
#    x 2.868770 -0.000010 -0.113010 
#    y -0.000010 3.313370 0.000040 
#    z -0.113010 0.000040 3.501650 
# 
# 
# High freq. dielectric constant tensor:
#      x y z
#    x 1.612850 0.000000 -0.017340 
#    y 0.000000 1.671920 0.000000 
#    z -0.017340 0.000000 1.686930 
# 
# From -- ./inp_files/240297.got.cif
#   From: 2010.06.25/outbox.cif.g09.slc.cpg/sg15_121_cif.got.tgz:240297.got - 2010.06.28 07:06:18.
