data_PCOD8130198
_publ_section_title
;
Structure prediction by ZEFSAII (Michael W. Deem and Ramdas Pophale) SiO2 
 PCOD8130198
Probable space group: C 2/C
;
_chemical_formula_sum "Si O2"
_cell_formula_units_Z 36
_cell_length_a 23.268281
_cell_length_b 5.090162
_cell_length_c 19.397505
_cell_angle_alpha 90.000000
_cell_angle_beta 147.013158
_cell_angle_gamma 90.000000
_cell_volume 1250.826066
_symmetry_space_group_name_H-M "C 2/C"
_symmetry_group_IT_number 15
_symmetry_cell_setting 'monoclinic'
loop_
_space_group_symop_operation_xyz
x,y,z
-x,y,1/2-z
-x,-y,-z
x,-y,1/2+z
1/2+x,1/2+y,z
1/2-x,1/2+y,1/2-z
1/2-x,1/2-y,-z
1/2+x,1/2-y,1/2+z
loop_
_atom_site_type_symbol
_atom_site_label
_atom_site_fract_x
_atom_site_fract_y
_atom_site_fract_z
Si Si1 0.679220 0.783876 0.582885
Si Si2 0.436666 0.121886 0.816550
Si Si3 0.807058 0.212031 0.485773
Si Si4 0.104332 0.100680 0.642654
Si Si5 0.500000 0.094671 0.250000
O O1 0.730739 0.563550 0.584567
O O2 0.693299 0.698566 0.677582
O O3 0.553780 0.771203 0.445564
O O4 0.721050 0.073167 0.601898
O O5 0.423507 0.838102 0.836162
O O6 0.422434 0.087347 0.719257
O O7 0.357154 0.341483 0.772148
O O8 0.750000 0.250000 0.500000
O O9 0.931905 0.227016 0.628848
O O10 0.000000 0.000000 0.500000
#
# Coordination Sequence:
#
# PCOD8130198 Si02
#       5
#     8   8   8   8   4
#     4  10  19  35  56  83 116 149 192 239 283 339
#     4  10  19  30  53  84 112 145 185 231 281 337
#     4  11  23  38  59  86 116 153 192 238 288 339
#     4  10  17  30  52  83 112 143 189 232 276 336
#     4  10  22  38  58  86 118 150 190 236 290 346
#
# _framework density 28.780978999999999
#
# number of rings (size 3 to 8) (size 9 to 14) (size 15 to 20)
#    0.000    1.778    0.000   10.000    0.000    8.000 
#    0.000    0.000    0.000    5.333    0.000    6.222 
#    0.000    0.000    0.000    0.000    0.000    0.000 
#
# Total GULP energy -223164.667328 kJ/mol
# GULP energy per Si atom -12398.037074 kJ/mol
# Density = 2.871547 g / cm^3
# Si number density = 28.780979 Si / 1000 Ang^3
#
#
#
# Elastic Constant Matrix: (Units=GPa)
#
#
# Indices 1 2 3 4 5 6 
#
# 1 199.0888 82.3472 20.8749 -0.0029 -56.5122 -0.0028
# 2 82.3472 226.4817 57.4251 -0.0095 -39.3391 -0.0132
# 3 20.8749 57.4251 85.7823 -0.0016 -18.0407 -0.0018
# 4 -0.0029 -0.0095 -0.0016 52.9865 -0.0010 -8.2930
# 5 -56.5122 -39.3391 -18.0407 -0.0010 51.3316 -0.0013
# 6 -0.0028 -0.0132 -0.0018 -8.2930 -0.0013 62.7073
#
#
#
# Elastic Compliance Matrix: (Units=1/GPa)
#
#
# Indices 1 2 3 4 5 6 
#
# 1 0.007796 -0.001740 0.000856 0.000000 0.007550 0.000000
# 2 -0.001740 0.006189 -0.003374 0.000001 0.001641 0.000001
# 3 0.000856 -0.003374 0.014429 0.000000 0.003427 0.000000
# 4 0.000000 0.000001 0.000000 0.019272 0.000002 0.002549
# 5 0.007550 0.001641 0.003427 0.000002 0.030255 0.000002
# 6 0.000000 0.000001 0.000000 0.002549 0.000002 0.016284
#
#
# Mechanical properties :
#
#
# Convention : Reuss Voigt Hill
#
# Bulk Modulus (GPa) = 50.26186 92.51635 71.38911
# Shear Modulus (GPa) = 45.71464 56.78545 51.25004
#
# Velocity S-wave (km/s) = 3.98975 4.44669 4.22440
# Velocity P-wave (km/s) = 6.22299 7.65368 6.97511
#
# Compressibility (1/GPa) = 0.01989580
#
# Stress axis : x y z
#
# Youngs Moduli (GPa) = 128.27099 161.58513 69.30592
#
# Poissons Ratio (x) = 0.28117 -0.05929
# Poissons Ratio (y) = 0.22320 0.23386
# Poissons Ratio (z) = -0.10974 0.54523
#
# Static dielectric constant tensor:
#      x y z
#    x 5.864540 0.000660 -0.320740 
#    y 0.000660 6.527230 0.000370 
#    z -0.320740 0.000370 5.895770 
# 
# 
# High freq. dielectric constant tensor:
#      x y z
#    x 2.200830 0.000000 0.011060 
#    y 0.000000 2.168500 0.000000 
#    z 0.011060 0.000000 2.201670 
# 
# From -- ./inp_files/212572.got.cif
#   From: 2010.06.25/outbox.cif.g09.slc.cpg/sg15_107_cif.got.tgz:212572.got - 2010.06.28 07:06:18.
