data_PCOD8130910
_publ_section_title
;
Structure prediction by ZEFSAII (Michael W. Deem and Ramdas Pophale) SiO2 
 PCOD8130910
Probable space group: C 2/C
;
_chemical_formula_sum "Si O2"
_cell_formula_units_Z 52
_cell_length_a 13.086854
_cell_length_b 15.299974
_cell_length_c 20.362400
_cell_angle_alpha 90.000000
_cell_angle_beta 41.019826
_cell_angle_gamma 90.000000
_cell_volume 2675.904727
_symmetry_space_group_name_H-M "C 2/C"
_symmetry_group_IT_number 15
_symmetry_cell_setting 'monoclinic'
loop_
_space_group_symop_operation_xyz
x,y,z
-x,y,1/2-z
-x,-y,-z
x,-y,1/2+z
1/2+x,1/2+y,z
1/2-x,1/2+y,1/2-z
1/2-x,1/2-y,-z
1/2+x,1/2-y,1/2+z
loop_
_atom_site_type_symbol
_atom_site_label
_atom_site_fract_x
_atom_site_fract_y
_atom_site_fract_z
Si Si1 0.683395 0.105933 0.919358
Si Si2 0.968374 0.346246 0.361552
Si Si3 0.532529 0.732369 0.443438
Si Si4 0.031390 0.483957 0.883558
Si Si5 0.165498 0.109912 0.268577
Si Si6 0.732607 0.777502 0.158631
Si Si7 0.500000 0.485700 0.250000
O O1 0.671245 0.210132 0.909146
O O2 0.861798 0.078055 0.839730
O O3 0.597385 0.047731 0.907293
O O4 0.593646 0.086770 0.031100
O O5 0.930442 0.299930 0.449094
O O6 0.942259 0.451008 0.375795
O O7 0.154636 0.332666 0.255633
O O8 0.864595 0.297291 0.359371
O O9 0.590778 0.653403 0.369513
O O10 0.413384 0.697444 0.557499
O O11 0.178631 0.435974 0.779591
O O12 0.217209 0.176132 0.185854
O O13 0.045939 0.043441 0.291468
#
# Coordination Sequence:
#
# PCOD8130910 Si02
#       7
#     8   8   8   8   8   8   4
#     4   9  18  31  49  72 105 135 168 209 256 298
#     4   9  19  28  47  72 108 139 162 205 259 305
#     4  10  18  30  50  73 104 140 165 209 256 303
#     4   9  17  32  48  72 104 142 163 204 259 307
#     4  10  19  31  51  80 103 132 174 211 249 299
#     4  10  18  31  45  79 107 130 166 212 257 300
#     4  10  20  30  50  80 104 126 180 216 242 296
#
# _framework density 19.432680000000001
#
# number of rings (size 3 to 8) (size 9 to 14) (size 15 to 20)
#    0.000    2.462    1.538    2.308    4.308    0.000 
#    0.000    0.769    0.000    2.769    0.000    0.000 
#    0.000    0.000    0.000    0.000    0.000    0.000 
#
# Total GULP energy -322129.851252 kJ/mol
# GULP energy per Si atom -12389.609664 kJ/mol
# Density = 1.938845 g / cm^3
# Si number density = 19.432680 Si / 1000 Ang^3
#
#
#
# Elastic Constant Matrix: (Units=GPa)
#
#
# Indices 1 2 3 4 5 6 
#
# 1 16.8915 17.9697 10.7740 0.0000 -8.5412 0.0000
# 2 17.9697 67.3225 31.1673 -0.0001 -8.5256 0.0000
# 3 10.7740 31.1673 117.0675 -0.0003 -17.0190 0.0000
# 4 0.0000 -0.0001 -0.0003 18.3996 0.0001 -3.3189
# 5 -8.5412 -8.5256 -17.0190 0.0001 21.8814 0.0000
# 6 0.0000 0.0000 0.0000 -3.3189 0.0000 31.2327
#
#
#
# Elastic Compliance Matrix: (Units=1/GPa)
#
#
# Indices 1 2 3 4 5 6 
#
# 1 0.098188 -0.023054 0.001542 0.000000 0.030543 0.000000
# 2 -0.023054 0.022594 -0.004422 0.000000 -0.003635 0.000000
# 3 0.001542 -0.004422 0.010615 0.000000 0.007135 0.000000
# 4 0.000000 0.000000 0.000000 0.055411 0.000000 0.005888
# 5 0.030543 -0.003635 0.007135 0.000000 0.061756 0.000000
# 6 0.000000 0.000000 0.000000 0.005888 0.000000 0.032643
#
#
# Mechanical properties :
#
#
# Convention : Reuss Voigt Hill
#
# Bulk Modulus (GPa) = 12.57422 35.67815 24.12618
# Shear Modulus (GPa) = 13.90489 23.72742 18.81616
#
# Velocity S-wave (km/s) = 2.67786 3.49808 3.11509
# Velocity P-wave (km/s) = 4.00574 5.89196 5.03791
#
# Compressibility (1/GPa) = 0.07952781
#
# Stress axis : x y z
#
# Youngs Moduli (GPa) = 10.18458 44.25893 94.20850
#
# Poissons Ratio (x) = 1.02034 -0.14523
# Poissons Ratio (y) = 0.23479 0.41660
# Poissons Ratio (z) = -0.01570 0.19572
#
# Static dielectric constant tensor:
#      x y z
#    x 3.152420 0.000000 0.027780 
#    y 0.000000 3.609740 0.000000 
#    z 0.027780 0.000000 3.845740 
# 
# 
# High freq. dielectric constant tensor:
#      x y z
#    x 1.705050 0.000000 -0.000870 
#    y 0.000000 1.744460 0.000000 
#    z -0.000870 0.000000 1.766270 
# 
# From -- ./inp_files/296774.got.cif
#   From: 2010.06.25/outbox.cif.g09.slc.cpg/sg15_149_cif.got.tgz:296774.got - 2010.06.28 07:06:18.
