data_PCOD8130503
_publ_section_title
;
Structure prediction by ZEFSAII (Michael W. Deem and Ramdas Pophale) SiO2 
 PCOD8130503
Probable space group: C 2/C
;
_chemical_formula_sum "Si O2"
_cell_formula_units_Z 64
_cell_length_a 24.359310
_cell_length_b 18.676256
_cell_length_c 9.361323
_cell_angle_alpha 90.000000
_cell_angle_beta 134.988465
_cell_angle_gamma 90.000000
_cell_volume 3012.065760
_symmetry_space_group_name_H-M "C 2/C"
_symmetry_group_IT_number 15
_symmetry_cell_setting 'monoclinic'
loop_
_space_group_symop_operation_xyz
x,y,z
-x,y,1/2-z
-x,-y,-z
x,-y,1/2+z
1/2+x,1/2+y,z
1/2-x,1/2+y,1/2-z
1/2-x,1/2-y,-z
1/2+x,1/2-y,1/2+z
loop_
_atom_site_type_symbol
_atom_site_label
_atom_site_fract_x
_atom_site_fract_y
_atom_site_fract_z
Si Si1 0.259483 0.382733 0.719358
Si Si2 0.702346 0.276172 0.102716
Si Si3 0.633480 0.916888 0.699395
Si Si4 0.821964 0.385479 0.205702
Si Si5 0.586607 0.021885 0.405361
Si Si6 0.916657 0.833089 0.083256
Si Si7 0.926638 0.259905 0.335054
Si Si8 0.099167 0.744414 0.167182
O O1 0.243547 0.299604 0.651541
O O2 0.220507 0.411471 0.793786
O O3 0.226064 0.422143 0.515277
O O4 0.352281 0.390537 0.912523
O O5 0.765882 0.336922 0.200017
O O6 0.666462 0.276750 0.193319
O O7 0.631299 0.289145 0.863155
O O8 0.621881 0.973142 0.810111
O O9 0.610900 0.839773 0.721148
O O10 0.581481 0.941345 0.464712
O O11 0.853466 0.444335 0.371552
O O12 0.895277 0.341484 0.276858
O O13 0.500000 0.055824 0.250000
O O14 0.889695 0.794196 0.176554
O O15 0.000000 0.873747 0.250000
O O16 0.929047 0.767122 0.000427
O O17 0.014338 0.252465 0.436643
#
# Coordination Sequence:
#
# PCOD8130503 Si02
#       8
#     8   8   8   8   8   8   8   8
#     4  10  20  37  58  86 118 155 198 244 300 363
#     4  10  19  31  52  82 116 153 194 239 301 359
#     4  11  25  40  59  84 115 163 206 255 294 339
#     4  11  20  36  60  81 118 163 200 243 297 351
#     4  12  26  43  60  84 119 162 214 255 287 342
#     4  10  19  33  55  87 125 154 187 237 303 369
#     4  10  17  34  51  82 115 158 190 233 303 358
#     4  10  22  32  56  87 121 152 196 250 300 358
#
# _framework density 21.247875000000001
#
# number of rings (size 3 to 8) (size 9 to 14) (size 15 to 20)
#    0.000    1.500    2.500    3.750    1.750    5.000 
#    0.000    0.000    0.000    0.000    0.000    5.250 
#    0.000    0.000    0.000    0.000    0.000    0.000 
#
# Total GULP energy -396512.215256 kJ/mol
# GULP energy per Si atom -12391.006727 kJ/mol
# Density = 2.119951 g / cm^3
# Si number density = 21.247875 Si / 1000 Ang^3
#
#
#
# Elastic Constant Matrix: (Units=GPa)
#
#
# Indices 1 2 3 4 5 6 
#
# 1 92.6397 18.1879 44.0809 0.0000 1.4059 0.0000
# 2 18.1879 26.8218 14.7925 0.0000 0.5741 0.0000
# 3 44.0809 14.7925 120.9218 0.0000 6.9307 0.0000
# 4 0.0000 0.0000 0.0000 29.3315 0.0000 -3.3703
# 5 1.4059 0.5741 6.9307 0.0000 40.2182 0.0000
# 6 0.0000 0.0000 0.0000 -3.3703 0.0000 19.9258
#
#
#
# Elastic Compliance Matrix: (Units=1/GPa)
#
#
# Indices 1 2 3 4 5 6 
#
# 1 0.014286 -0.007304 -0.004334 0.000000 0.000352 0.000000
# 2 -0.007304 0.043718 -0.002691 0.000000 0.000095 0.000000
# 3 -0.004334 -0.002691 0.010270 0.000000 -0.001580 0.000000
# 4 0.000000 0.000000 0.000000 0.034769 0.000000 0.005881
# 5 0.000352 0.000095 -0.001580 0.000000 0.025123 0.000000
# 6 0.000000 0.000000 0.000000 0.005881 0.000000 0.051181
#
#
# Mechanical properties :
#
#
# Convention : Reuss Voigt Hill
#
# Bulk Modulus (GPa) = 25.24327 43.83396 34.53862
# Shear Modulus (GPa) = 22.60301 28.78323 25.69312
#
# Velocity S-wave (km/s) = 3.26510 3.68454 3.48114
# Velocity P-wave (km/s) = 5.11084 6.22701 5.69633
#
# Compressibility (1/GPa) = 0.03961452
#
# Stress axis : x y z
#
# Youngs Moduli (GPa) = 70.00054 22.87385 97.37514
#
# Poissons Ratio (x) = 0.16708 0.42205
# Poissons Ratio (y) = 0.51130 0.26202
# Poissons Ratio (z) = 0.30340 0.06155
#
# Static dielectric constant tensor:
#      x y z
#    x 4.132240 0.000000 0.147810 
#    y 0.000000 3.401070 0.000000 
#    z 0.147810 0.000000 4.148640 
# 
# 
# High freq. dielectric constant tensor:
#      x y z
#    x 1.847440 0.000000 -0.004640 
#    y 0.000000 1.778680 0.000000 
#    z -0.004640 0.000000 1.845800 
# 
# From -- ./inp_files/63414.got.cif
#   From: 2010.06.25/outbox.cif.g09.slc.cpg/sg15_32_cif.got.tgz:63414.got - 2010.06.28 07:06:18.
