data_PCOD8130588
_publ_section_title
;
Structure prediction by ZEFSAII (Michael W. Deem and Ramdas Pophale) SiO2 
 PCOD8130588
Probable space group: C 2/C
;
_chemical_formula_sum "Si O2"
_cell_formula_units_Z 64
_cell_length_a 28.180471
_cell_length_b 11.256426
_cell_length_c 10.106779
_cell_angle_alpha 90.000000
_cell_angle_beta 81.059150
_cell_angle_gamma 90.000000
_cell_volume 3167.030449
_symmetry_space_group_name_H-M "C 2/C"
_symmetry_group_IT_number 15
_symmetry_cell_setting 'monoclinic'
loop_
_space_group_symop_operation_xyz
x,y,z
-x,y,1/2-z
-x,-y,-z
x,-y,1/2+z
1/2+x,1/2+y,z
1/2-x,1/2+y,1/2-z
1/2-x,1/2-y,-z
1/2+x,1/2-y,1/2+z
loop_
_atom_site_type_symbol
_atom_site_label
_atom_site_fract_x
_atom_site_fract_y
_atom_site_fract_z
Si Si1 0.450276 0.064540 0.546867
Si Si2 0.818822 0.949995 0.904909
Si Si3 0.262518 0.667941 0.871064
Si Si4 0.134025 0.247369 0.723765
Si Si5 0.906922 0.799247 0.539957
Si Si6 0.392651 0.993848 0.319629
Si Si7 0.879068 0.032465 0.634574
Si Si8 0.674133 0.208539 0.725901
O O1 0.452498 0.208665 0.524115
O O2 0.411001 0.013277 0.461051
O O3 0.500000 0.000000 0.500000
O O4 0.435882 0.046850 0.705521
O O5 0.808185 0.811070 0.882262
O O6 0.771221 0.031440 0.912868
O O7 0.858688 0.992625 0.784446
O O8 0.837173 0.969667 0.044873
O O9 0.309669 0.721216 0.780427
O O10 0.219747 0.661628 0.785306
O O11 0.250000 0.750000 0.000000
O O12 0.116687 0.197589 0.591984
O O13 0.125546 0.386043 0.741726
O O14 0.104235 0.169997 0.848874
O O15 0.865859 0.754295 0.656126
O O16 0.920497 0.936198 0.574731
O O17 0.349203 0.900055 0.346599
#
# Coordination Sequence:
#
# PCOD8130588 Si02
#       8
#     8   8   8   8   8   8   8   8
#     4  10  21  40  67  91 117 152 198 249 317 382
#     4  10  21  34  54  81 110 162 207 250 291 348
#     4  11  19  35  56  77 120 165 211 248 297 348
#     4  10  20  34  55  85 116 166 200 242 301 358
#     4   9  17  37  55  85 114 154 190 241 306 359
#     4  10  23  39  60  89 126 156 198 255 315 365
#     4  10  17  35  55  79 116 147 206 235 296 354
#     4  10  21  35  55  83 118 160 202 254 298 351
#
# _framework density 20.208203999999999
#
# number of rings (size 3 to 8) (size 9 to 14) (size 15 to 20)
#    0.000    2.000    3.750    1.125    3.500    0.000 
#    0.000    2.500    0.000    0.750    0.000    3.500 
#    0.000    0.000    0.000    0.000    0.000    0.000 
#
# Total GULP energy -396464.617475 kJ/mol
# GULP energy per Si atom -12389.519296 kJ/mol
# Density = 2.016221 g / cm^3
# Si number density = 20.208204 Si / 1000 Ang^3
#
#
#
# Elastic Constant Matrix: (Units=GPa)
#
#
# Indices 1 2 3 4 5 6 
#
# 1 62.2629 45.5589 1.2508 0.0000 4.2055 0.0000
# 2 45.5589 179.5563 18.8469 0.0000 6.5906 0.0000
# 3 1.2508 18.8469 48.0477 0.0000 6.4505 0.0000
# 4 0.0000 0.0000 0.0000 26.5767 0.0000 -5.5715
# 5 4.2055 6.5906 6.4505 0.0000 18.5465 0.0000
# 6 0.0000 0.0000 0.0000 -5.5715 0.0000 34.3120
#
#
#
# Elastic Compliance Matrix: (Units=1/GPa)
#
#
# Indices 1 2 3 4 5 6 
#
# 1 0.020028 -0.005163 0.001959 0.000000 -0.003388 0.000000
# 2 -0.005163 0.007171 -0.002616 0.000000 -0.000468 0.000000
# 3 0.001959 -0.002616 0.022786 0.000000 -0.007440 0.000000
# 4 0.000000 0.000000 0.000000 0.038953 0.000000 0.006325
# 5 -0.003388 -0.000468 -0.007440 0.000000 0.057441 0.000000
# 6 0.000000 0.000000 0.000000 0.006325 0.000000 0.030171
#
#
# Mechanical properties :
#
#
# Convention : Reuss Voigt Hill
#
# Bulk Modulus (GPa) = 26.07849 46.79779 36.43814
# Shear Modulus (GPa) = 24.87903 30.83439 27.85671
#
# Velocity S-wave (km/s) = 3.51256 3.91043 3.71682
# Velocity P-wave (km/s) = 5.42067 6.60278 6.04071
#
# Compressibility (1/GPa) = 0.03834578
#
# Stress axis : x y z
#
# Youngs Moduli (GPa) = 49.92941 139.45023 43.88566
#
# Poissons Ratio (x) = 0.71998 -0.08596
# Poissons Ratio (y) = 0.25779 0.11479
# Poissons Ratio (z) = -0.09779 0.36475
#
# Static dielectric constant tensor:
#      x y z
#    x 3.225770 0.000000 0.069140 
#    y 0.000000 4.622330 0.000000 
#    z 0.069140 0.000000 3.704470 
# 
# 
# High freq. dielectric constant tensor:
#      x y z
#    x 1.732260 0.000000 0.014620 
#    y 0.000000 1.814320 0.000000 
#    z 0.014620 0.000000 1.795040 
# 
# From -- ./inp_files/69364.got.cif
#   From: 2010.06.25/outbox.cif.g09.slc.cpg/sg15_35_cif.got.tgz:69364.got - 2010.06.28 07:06:18.
