data_PCOD8130997
_publ_section_title
;
Structure prediction by ZEFSAII (Michael W. Deem and Ramdas Pophale) SiO2 
 PCOD8130997
Probable space group: C 2/C
;
_chemical_formula_sum "Si O2"
_cell_formula_units_Z 64
_cell_length_a 8.910553
_cell_length_b 17.521598
_cell_length_c 22.066851
_cell_angle_alpha 90.000000
_cell_angle_beta 75.392808
_cell_angle_gamma 90.000000
_cell_volume 3333.875560
_symmetry_space_group_name_H-M "C 2/C"
_symmetry_group_IT_number 15
_symmetry_cell_setting 'monoclinic'
loop_
_space_group_symop_operation_xyz
x,y,z
-x,y,1/2-z
-x,-y,-z
x,-y,1/2+z
1/2+x,1/2+y,z
1/2-x,1/2+y,1/2-z
1/2-x,1/2-y,-z
1/2+x,1/2-y,1/2+z
loop_
_atom_site_type_symbol
_atom_site_label
_atom_site_fract_x
_atom_site_fract_y
_atom_site_fract_z
Si Si1 0.525885 0.078105 0.372829
Si Si2 0.543076 0.505320 0.111999
Si Si3 0.721560 0.044818 0.602799
Si Si4 0.386562 0.391583 0.709673
Si Si5 0.851281 0.447223 0.520059
Si Si6 0.273547 0.470111 0.294798
Si Si7 0.132601 0.711379 0.276528
Si Si8 0.830442 0.346677 0.282378
O O1 0.593185 0.109115 0.431177
O O2 0.627371 0.004355 0.345213
O O3 0.546468 0.148259 0.325924
O O4 0.351778 0.041910 0.389868
O O5 0.407416 0.460737 0.090844
O O6 0.481473 0.590800 0.137954
O O7 0.691730 0.509414 0.053617
O O8 0.586272 0.461846 0.170904
O O9 0.681474 0.087850 0.543179
O O10 0.653658 0.096724 0.662810
O O11 0.500000 0.360331 0.750000
O O12 0.313085 0.472993 0.735788
O O13 0.252521 0.328623 0.717267
O O14 0.000000 0.500000 0.500000
O O15 0.234863 0.388448 0.270739
O O16 0.218181 0.775133 0.308262
O O17 0.000000 0.751340 0.250000
O O18 0.000000 0.314456 0.250000
#
# Coordination Sequence:
#
# PCOD8130997 Si02
#       8
#     8   8   8   8   8   8   8   8
#     4   9  19  39  60  80 114 155 200 234 285 342
#     4  10  18  30  58  83 114 139 193 249 293 326
#     4  11  20  33  59  86 113 150 198 242 291 344
#     4   9  17  32  54  81 109 147 191 231 283 345
#     4   9  20  36  54  85 110 147 199 253 282 333
#     4   9  18  32  54  83 112 149 181 236 284 347
#     4  11  24  35  55  86 122 154 190 240 295 354
#     4  12  24  36  54  86 126 154 189 232 304 355
#
# _framework density 19.196876
#
# number of rings (size 3 to 8) (size 9 to 14) (size 15 to 20)
#    0.000    2.000    2.500    2.250    3.500    0.000 
#    0.000    0.625    0.000    0.000    0.000    6.125 
#    0.000    0.000    0.000    0.000    0.000    0.000 
#
# Total GULP energy -396435.547240 kJ/mol
# GULP energy per Si atom -12388.610851 kJ/mol
# Density = 1.915318 g / cm^3
# Si number density = 19.196876 Si / 1000 Ang^3
#
#
#
# Elastic Constant Matrix: (Units=GPa)
#
#
# Indices 1 2 3 4 5 6 
#
# 1 123.0123 29.1718 35.0934 0.0000 5.1794 0.0000
# 2 29.1718 57.8403 22.7754 0.0000 9.6333 0.0000
# 3 35.0934 22.7754 92.1872 0.0000 8.6927 0.0000
# 4 0.0000 0.0000 0.0000 4.4568 0.0000 3.3955
# 5 5.1794 9.6333 8.6927 0.0000 31.0795 0.0000
# 6 0.0000 0.0000 0.0000 3.3955 0.0000 26.9790
#
#
#
# Elastic Compliance Matrix: (Units=1/GPa)
#
#
# Indices 1 2 3 4 5 6 
#
# 1 0.009846 -0.003918 -0.002814 0.000000 0.000361 0.000000
# 2 -0.003918 0.021415 -0.003323 0.000000 -0.005056 0.000000
# 3 -0.002814 -0.003323 0.012940 0.000000 -0.002120 0.000000
# 4 0.000000 0.000000 0.000000 0.248173 0.000000 -0.031235
# 5 0.000361 -0.005056 -0.002120 0.000000 0.034275 0.000000
# 6 0.000000 0.000000 0.000000 -0.031235 0.000000 0.040997
#
#
# Mechanical properties :
#
#
# Convention : Reuss Voigt Hill
#
# Bulk Modulus (GPa) = 41.50831 49.68011 45.59421
# Shear Modulus (GPa) = 12.63310 24.90302 18.76806
#
# Velocity S-wave (km/s) = 2.56809 3.60563 3.13015
# Velocity P-wave (km/s) = 5.51931 6.57796 6.07175
#
# Compressibility (1/GPa) = 0.02409156
#
# Stress axis : x y z
#
# Youngs Moduli (GPa) = 101.56388 46.69571 77.28210
#
# Poissons Ratio (x) = 0.18294 0.21749
# Poissons Ratio (y) = 0.39790 0.25678
# Poissons Ratio (z) = 0.28582 0.15515
#
# Static dielectric constant tensor:
#      x y z
#    x 3.864680 0.000000 0.098690 
#    y 0.000000 2.984340 0.000000 
#    z 0.098690 0.000000 3.835660 
# 
# 
# High freq. dielectric constant tensor:
#      x y z
#    x 1.779310 0.000000 0.006370 
#    y 0.000000 1.684750 0.000000 
#    z 0.006370 0.000000 1.737540 
# 
# From -- ./inp_files/265260.got.cif
#   From: 2010.06.25/outbox.cif.g09.slc.cpg/sg15_133_cif.got.tgz:265260.got - 2010.06.28 07:06:18.
