data_PCOD8130921
_publ_section_title
;
Structure prediction by ZEFSAII (Michael W. Deem and Ramdas Pophale) SiO2 
 PCOD8130921
Probable space group: C 2/C
;
_chemical_formula_sum "Si O2"
_cell_formula_units_Z 52
_cell_length_a 10.137478
_cell_length_b 26.848367
_cell_length_c 10.834985
_cell_angle_alpha 90.000000
_cell_angle_beta 87.110439
_cell_angle_gamma 90.000000
_cell_volume 2945.259622
_symmetry_space_group_name_H-M "C 2/C"
_symmetry_group_IT_number 15
_symmetry_cell_setting 'monoclinic'
loop_
_space_group_symop_operation_xyz
x,y,z
-x,y,1/2-z
-x,-y,-z
x,-y,1/2+z
1/2+x,1/2+y,z
1/2-x,1/2+y,1/2-z
1/2-x,1/2-y,-z
1/2+x,1/2-y,1/2+z
loop_
_atom_site_type_symbol
_atom_site_label
_atom_site_fract_x
_atom_site_fract_y
_atom_site_fract_z
Si Si1 0.256768 0.651708 0.568784
Si Si2 0.279494 0.355369 0.351912
Si Si3 0.975304 0.806660 0.527962
Si Si4 0.907857 0.043852 0.874154
Si Si5 0.482735 0.803285 0.106077
Si Si6 0.000000 0.870221 0.750000
Si Si7 0.629934 0.436866 0.556373
O O1 0.286501 0.660441 0.710152
O O2 0.368253 0.682311 0.489951
O O3 0.113098 0.672451 0.540345
O O4 0.262108 0.592786 0.531246
O O5 0.397772 0.326582 0.413211
O O6 0.296373 0.414805 0.358522
O O7 0.138038 0.340748 0.415455
O O8 0.925688 0.835332 0.653149
O O9 0.950337 0.748150 0.539725
O O10 0.000000 0.036391 0.750000
O O11 0.828663 0.992973 0.909843
O O12 0.993332 0.061367 0.986785
O O13 0.500000 0.793413 0.250000
O O14 0.891025 0.905667 0.817692
#
# Coordination Sequence:
#
# PCOD8130921 Si02
#       7
#     8   8   8   8   8   4   8
#     4  10  20  36  55  79 108 140 179 219 265 314
#     4  11  20  35  55  82 108 136 182 220 260 317
#     4  11  19  35  56  77 107 141 183 220 251 312
#     4  11  18  32  54  84 102 132 178 227 264 307
#     4  10  22  35  53  79 112 145 172 215 271 318
#     4  10  18  30  50  82 106 130 172 224 262 300
#     4  10  20  31  54  79 108 133 171 226 269 304
#
# _framework density 17.655488999999999
#
# number of rings (size 3 to 8) (size 9 to 14) (size 15 to 20)
#    0.000    1.538    6.154    1.385    0.000    0.000 
#    0.000    0.769    0.000    0.000    0.000    0.000 
#    0.000    0.000    0.000    0.000    0.000    0.000 
#
# Total GULP energy -322372.144819 kJ/mol
# GULP energy per Si atom -12398.928647 kJ/mol
# Density = 1.761530 g / cm^3
# Si number density = 17.655489 Si / 1000 Ang^3
#
#
#
# Elastic Constant Matrix: (Units=GPa)
#
#
# Indices 1 2 3 4 5 6 
#
# 1 75.1548 44.5587 23.8125 0.0000 -13.5068 0.0000
# 2 44.5587 135.6964 35.6013 0.0000 -5.4695 0.0000
# 3 23.8125 35.6013 67.4530 0.0000 -6.0253 0.0000
# 4 0.0000 0.0000 0.0000 27.5090 0.0000 -4.9209
# 5 -13.5068 -5.4695 -6.0253 0.0000 17.4318 0.0000
# 6 0.0000 0.0000 0.0000 -4.9209 0.0000 14.1679
#
#
#
# Elastic Compliance Matrix: (Units=1/GPa)
#
#
# Indices 1 2 3 4 5 6 
#
# 1 0.019557 -0.005107 -0.003094 0.000000 0.012482 0.000000
# 2 -0.005107 0.009910 -0.003615 0.000000 -0.002097 0.000000
# 3 -0.003094 -0.003615 0.018068 0.000000 0.002714 0.000000
# 4 0.000000 0.000000 0.000000 0.038760 0.000000 0.013462
# 5 0.012482 -0.002097 0.002714 0.000000 0.067318 0.000000
# 6 0.000000 0.000000 0.000000 0.013462 0.000000 0.075258
#
#
# Mechanical properties :
#
#
# Convention : Reuss Voigt Hill
#
# Bulk Modulus (GPa) = 41.83484 54.02770 47.93127
# Shear Modulus (GPa) = 19.19600 23.44385 21.31992
#
# Velocity S-wave (km/s) = 3.30093 3.64792 3.47875
# Velocity P-wave (km/s) = 6.18666 6.95777 6.58351
#
# Compressibility (1/GPa) = 0.02390352
#
# Stress axis : x y z
#
# Youngs Moduli (GPa) = 51.13144 100.90435 55.34753
#
# Poissons Ratio (x) = 0.51535 0.17123
# Poissons Ratio (y) = 0.26114 0.20008
# Poissons Ratio (z) = 0.15818 0.36477
#
# Static dielectric constant tensor:
#      x y z
#    x 3.069160 0.000000 -0.047180 
#    y 0.000000 3.524900 0.000000 
#    z -0.047180 0.000000 3.372520 
# 
# 
# High freq. dielectric constant tensor:
#      x y z
#    x 1.641940 0.000000 0.001130 
#    y 0.000000 1.696160 0.000000 
#    z 0.001130 0.000000 1.689120 
# 
# From -- ./inp_files/80706.got.cif
#   From: 2010.06.25/outbox.cif.g09.slc.cpg/sg15_41_cif.got.tgz:80706.got - 2010.06.28 07:06:18.
