data_PCOD8130303
_publ_section_title
;
Structure prediction by ZEFSAII (Michael W. Deem and Ramdas Pophale) SiO2 
 PCOD8130303
Probable space group: C 2/C
;
_chemical_formula_sum "Si O2"
_cell_formula_units_Z 64
_cell_length_a 16.082082
_cell_length_b 11.500057
_cell_length_c 21.899877
_cell_angle_alpha 90.000000
_cell_angle_beta 55.300306
_cell_angle_gamma 90.000000
_cell_volume 3329.917395
_symmetry_space_group_name_H-M "C 2/C"
_symmetry_group_IT_number 15
_symmetry_cell_setting 'monoclinic'
loop_
_space_group_symop_operation_xyz
x,y,z
-x,y,1/2-z
-x,-y,-z
x,-y,1/2+z
1/2+x,1/2+y,z
1/2-x,1/2+y,1/2-z
1/2-x,1/2-y,-z
1/2+x,1/2-y,1/2+z
loop_
_atom_site_type_symbol
_atom_site_label
_atom_site_fract_x
_atom_site_fract_y
_atom_site_fract_z
Si Si1 0.243463 0.184023 0.646760
Si Si2 0.778788 0.088566 0.192083
Si Si3 0.252637 0.282425 0.825497
Si Si4 0.947750 0.267537 0.835864
Si Si5 0.507975 0.982323 0.597668
Si Si6 0.097433 0.418246 0.250204
Si Si7 0.852871 0.541357 0.060629
Si Si8 0.884347 0.878048 0.181441
O O1 0.304640 0.301928 0.638265
O O2 0.163797 0.219710 0.627987
O O3 0.317001 0.090428 0.586651
O O4 0.192079 0.134021 0.729301
O O5 0.744573 0.129458 0.272727
O O6 0.684155 0.015767 0.203125
O O7 0.879921 0.010995 0.159307
O O8 0.357723 0.210075 0.783329
O O9 0.236354 0.362175 0.893070
O O10 0.157982 0.196068 0.857543
O O11 0.000000 0.299881 0.750000
O O12 0.949533 0.381778 0.876339
O O13 0.004598 0.160737 0.845720
O O14 0.603248 0.048320 0.526478
O O15 0.441076 0.075548 0.663604
O O16 0.440481 0.926275 0.572460
O O17 0.000000 0.443754 0.250000
#
# Coordination Sequence:
#
# PCOD8130303 Si02
#       8
#     8   8   8   8   8   8   8   8
#     4  10  19  31  51  83 108 140 179 233 278 315
#     4  10  17  31  57  77 107 137 187 227 263 319
#     4  10  18  34  54  81 110 138 184 229 267 318
#     4  10  19  32  54  83 108 137 186 239 274 314
#     4  11  20  35  59  81 108 148 191 222 267 338
#     4  11  21  36  58  86 106 140 190 236 267 319
#     4  11  21  35  55  83 114 145 183 224 280 333
#     4   9  16  30  53  77 105 140 182 230 269 312
#
# _framework density 19.219695999999999
#
# number of rings (size 3 to 8) (size 9 to 14) (size 15 to 20)
#    0.000    1.750    3.750    4.125    0.000    0.500 
#    2.250    0.625    0.000    0.750    3.250    0.000 
#    0.000    0.000    0.000    0.000    0.000    0.000 
#
# Total GULP energy -396610.381908 kJ/mol
# GULP energy per Si atom -12394.074435 kJ/mol
# Density = 1.917595 g / cm^3
# Si number density = 19.219696 Si / 1000 Ang^3
#
#
#
# Elastic Constant Matrix: (Units=GPa)
#
#
# Indices 1 2 3 4 5 6 
#
# 1 56.4172 25.0856 9.5574 0.0000 7.1026 0.0000
# 2 25.0856 114.2692 35.9994 0.0000 -6.4828 0.0000
# 3 9.5574 35.9994 78.1469 0.0000 -6.4146 0.0000
# 4 0.0000 0.0000 0.0000 22.1508 0.0000 -0.7342
# 5 7.1026 -6.4828 -6.4146 0.0000 16.1835 0.0000
# 6 0.0000 0.0000 0.0000 -0.7342 0.0000 22.9170
#
#
#
# Elastic Compliance Matrix: (Units=1/GPa)
#
#
# Indices 1 2 3 4 5 6 
#
# 1 0.021707 -0.005032 -0.001327 0.000000 -0.012068 0.000000
# 2 -0.005032 0.011487 -0.004256 0.000000 0.005123 0.000000
# 3 -0.001327 -0.004256 0.015326 0.000000 0.004952 0.000000
# 4 0.000000 0.000000 0.000000 0.045193 0.000000 0.001448
# 5 -0.012068 0.005123 0.004952 0.000000 0.071103 0.000000
# 6 0.000000 0.000000 0.000000 0.001448 0.000000 0.043682
#
#
# Mechanical properties :
#
#
# Convention : Reuss Voigt Hill
#
# Bulk Modulus (GPa) = 36.64390 43.34646 39.99518
# Shear Modulus (GPa) = 20.93585 24.12965 22.53275
#
# Velocity S-wave (km/s) = 3.30402 3.54710 3.42772
# Velocity P-wave (km/s) = 5.80195 6.27519 6.04320
#
# Compressibility (1/GPa) = 0.02728967
#
# Stress axis : x y z
#
# Youngs Moduli (GPa) = 46.06874 87.05258 65.24958
#
# Poissons Ratio (x) = 0.43803 0.08661
# Poissons Ratio (y) = 0.23181 0.27769
# Poissons Ratio (z) = 0.06115 0.37048
#
# Static dielectric constant tensor:
#      x y z
#    x 3.521210 0.000000 0.078660 
#    y 0.000000 3.750200 0.000000 
#    z 0.078660 0.000000 3.324240 
# 
# 
# High freq. dielectric constant tensor:
#      x y z
#    x 1.736420 0.000000 0.008940 
#    y 0.000000 1.751620 0.000000 
#    z 0.008940 0.000000 1.706740 
# 
# From -- ./inp_files/248355.got.cif
#   From: 2010.06.25/outbox.cif.g09.slc.cpg/sg15_125_cif.got.tgz:248355.got - 2010.06.28 07:06:18.
