data_PCOD8130670
_publ_section_title
;
Structure prediction by ZEFSAII (Michael W. Deem and Ramdas Pophale) SiO2 
 PCOD8130670
Probable space group: C 2/C
;
_chemical_formula_sum "Si O2"
_cell_formula_units_Z 44
_cell_length_a 18.984844
_cell_length_b 20.013506
_cell_length_c 8.882774
_cell_angle_alpha 90.000000
_cell_angle_beta 139.194981
_cell_angle_gamma 90.000000
_cell_volume 2205.543947
_symmetry_space_group_name_H-M "C 2/C"
_symmetry_group_IT_number 15
_symmetry_cell_setting 'monoclinic'
loop_
_space_group_symop_operation_xyz
x,y,z
-x,y,1/2-z
-x,-y,-z
x,-y,1/2+z
1/2+x,1/2+y,z
1/2-x,1/2+y,1/2-z
1/2-x,1/2-y,-z
1/2+x,1/2-y,1/2+z
loop_
_atom_site_type_symbol
_atom_site_label
_atom_site_fract_x
_atom_site_fract_y
_atom_site_fract_z
Si Si1 0.113022 0.000019 0.354630
Si Si2 0.188079 0.711481 0.170750
Si Si3 0.465273 0.369059 0.390789
Si Si4 0.812672 0.912577 0.785395
Si Si5 0.500000 0.296830 0.750000
Si Si6 0.612979 0.762633 0.862587
O O1 0.091917 0.941336 0.195992
O O2 0.201353 0.974064 0.619947
O O3 0.000000 0.021728 0.250000
O O4 0.168246 0.061161 0.354108
O O5 0.216833 0.641211 0.136310
O O6 0.290861 0.761887 0.358892
O O7 0.138500 0.693242 0.255627
O O8 0.104825 0.749009 0.927023
O O9 0.576664 0.376659 0.474974
O O10 0.505799 0.345684 0.618897
O O11 0.388312 0.313549 0.197555
O O12 0.500000 0.787236 0.750000
#
# Coordination Sequence:
#
# PCOD8130670 Si02
#       6
#     8   8   8   8   4   8
#     4  10  20  34  56  90 118 157 189 242 311 354
#     4  10  21  37  57  84 123 156 198 237 297 355
#     4  10  18  33  55  86 124 145 188 237 311 351
#     4  11  21  35  59  84 122 152 194 241 298 360
#     4  10  24  34  56  90 120 162 190 246 286 354
#     4  10  17  36  60  84 115 158 192 239 300 362
#
# _framework density 19.949726999999999
#
# number of rings (size 3 to 8) (size 9 to 14) (size 15 to 20)
#    0.000    1.818    3.636    2.727    3.818    0.727 
#    0.000    0.000    0.000    1.091    0.000    0.000 
#    0.000    0.000    0.000    0.000    0.000    0.000 
#
# Total GULP energy -272628.976279 kJ/mol
# GULP energy per Si atom -12392.226194 kJ/mol
# Density = 1.990432 g / cm^3
# Si number density = 19.949727 Si / 1000 Ang^3
#
#
#
# Elastic Constant Matrix: (Units=GPa)
#
#
# Indices 1 2 3 4 5 6 
#
# 1 104.4687 44.6894 17.2473 0.0000 -0.5993 0.0000
# 2 44.6894 77.7016 10.2871 0.0000 -6.5914 0.0000
# 3 17.2473 10.2871 69.1585 0.0000 1.0303 0.0000
# 4 0.0000 0.0000 0.0000 16.5655 0.0000 -5.0006
# 5 -0.5993 -6.5914 1.0303 0.0000 28.7985 0.0000
# 6 0.0000 0.0000 0.0000 -5.0006 0.0000 44.7249
#
#
#
# Elastic Compliance Matrix: (Units=1/GPa)
#
#
# Indices 1 2 3 4 5 6 
#
# 1 0.013058 -0.007339 -0.002145 0.000000 -0.001331 0.000000
# 2 -0.007339 0.017531 -0.000835 0.000000 0.003890 0.000000
# 3 -0.002145 -0.000835 0.015130 0.000000 -0.000777 0.000000
# 4 0.000000 0.000000 0.000000 0.062475 0.000000 0.006985
# 5 -0.001331 0.003890 -0.000777 0.000000 0.035614 0.000000
# 6 0.000000 0.000000 0.000000 0.006985 0.000000 0.023140
#
#
# Mechanical properties :
#
#
# Convention : Reuss Voigt Hill
#
# Bulk Modulus (GPa) = 39.87143 43.97519 41.92331
# Shear Modulus (GPa) = 25.51683 29.95813 27.73748
#
# Velocity S-wave (km/s) = 3.58027 3.87936 3.73281
# Velocity P-wave (km/s) = 6.09266 6.49282 6.29592
#
# Compressibility (1/GPa) = 0.02508061
#
# Stress axis : x y z
#
# Youngs Moduli (GPa) = 76.57929 57.04025 66.09242
#
# Poissons Ratio (x) = 0.41864 0.14177
# Poissons Ratio (y) = 0.56204 0.05521
# Poissons Ratio (z) = 0.16427 0.04765
#
# Static dielectric constant tensor:
#      x y z
#    x 3.726470 0.000000 -0.239640 
#    y 0.000000 3.495000 0.000000 
#    z -0.239640 0.000000 3.540660 
# 
# 
# High freq. dielectric constant tensor:
#      x y z
#    x 1.768700 0.000000 -0.030640 
#    y 0.000000 1.757940 0.000000 
#    z -0.030640 0.000000 1.763340 
# 
# From -- ./inp_files/49907.got.cif
#   From: 2010.06.25/outbox.cif.g09.slc.cpg/sg15_25_cif.got.tgz:49907.got - 2010.06.28 07:06:18.
