data_PCOD8130626
_publ_section_title
;
Structure prediction by ZEFSAII (Michael W. Deem and Ramdas Pophale) SiO2 
 PCOD8130626
Probable space group: C 2/C
;
_chemical_formula_sum "Si O2"
_cell_formula_units_Z 44
_cell_length_a 10.845314
_cell_length_b 15.159355
_cell_length_c 14.613310
_cell_angle_alpha 90.000000
_cell_angle_beta 98.673035
_cell_angle_gamma 90.000000
_cell_volume 2375.071378
_symmetry_space_group_name_H-M "C 2/C"
_symmetry_group_IT_number 15
_symmetry_cell_setting 'monoclinic'
loop_
_space_group_symop_operation_xyz
x,y,z
-x,y,1/2-z
-x,-y,-z
x,-y,1/2+z
1/2+x,1/2+y,z
1/2-x,1/2+y,1/2-z
1/2-x,1/2-y,-z
1/2+x,1/2-y,1/2+z
loop_
_atom_site_type_symbol
_atom_site_label
_atom_site_fract_x
_atom_site_fract_y
_atom_site_fract_z
Si Si1 0.640833 0.002420 0.920659
Si Si2 0.706123 0.343459 0.582509
Si Si3 0.500000 0.402328 0.250000
Si Si4 0.440496 0.733385 0.590550
Si Si5 0.281497 0.468353 0.764336
Si Si6 0.605121 0.903042 0.590539
O O1 0.719738 0.918195 0.968652
O O2 0.687839 0.022411 0.822275
O O3 0.495472 0.978619 0.899406
O O4 0.658133 0.084056 0.992807
O O5 0.589794 0.304377 0.513874
O O6 0.810606 0.269436 0.618788
O O7 0.654158 0.389027 0.669390
O O8 0.503930 0.343351 0.340889
O O9 0.620600 0.463537 0.264110
O O10 0.547930 0.806260 0.595180
O O11 0.214495 0.418127 0.674583
#
# Coordination Sequence:
#
# PCOD8130626 Si02
#       6
#     8   8   4   8   8   8
#     4   8  18  33  59  84 109 151 184 236 275 343
#     4   8  18  36  57  79 113 140 190 233 281 336
#     4  12  24  34  56  82 116 158 190 226 284 340
#     4  10  19  34  60  88 105 145 191 243 282 334
#     4  10  21  36  55  81 116 157 188 228 275 358
#     4  10  17  35  62  86 111 143 193 238 287 321
#
# _framework density 18.525759000000001
#
# number of rings (size 3 to 8) (size 9 to 14) (size 15 to 20)
#    1.091    1.455    0.000    2.727    0.000    2.182 
#    0.000    0.909    4.000    0.000    0.000    0.000 
#    0.000    0.000    0.000    0.000    0.000    0.000 
#
# Total GULP energy -272584.975252 kJ/mol
# GULP energy per Si atom -12390.226148 kJ/mol
# Density = 1.848359 g / cm^3
# Si number density = 18.525759 Si / 1000 Ang^3
#
#
#
# Elastic Constant Matrix: (Units=GPa)
#
#
# Indices 1 2 3 4 5 6 
#
# 1 56.2623 38.4824 29.8523 0.0000 14.8981 0.0000
# 2 38.4824 96.3463 52.9521 0.0000 19.1626 0.0000
# 3 29.8523 52.9521 87.8180 0.0000 23.9068 0.0000
# 4 0.0000 0.0000 0.0000 26.0297 0.0000 2.7762
# 5 14.8981 19.1626 23.9068 0.0000 28.5828 0.0000
# 6 0.0000 0.0000 0.0000 2.7762 0.0000 30.5405
#
#
#
# Elastic Compliance Matrix: (Units=1/GPa)
#
#
# Indices 1 2 3 4 5 6 
#
# 1 0.026091 -0.007830 -0.002427 0.000000 -0.006319 0.000000
# 2 -0.007830 0.018124 -0.007859 0.000000 -0.001496 0.000000
# 3 -0.002427 -0.007859 0.019646 0.000000 -0.009897 0.000000
# 4 0.000000 0.000000 0.000000 0.038794 0.000000 -0.003526
# 5 -0.006319 -0.001496 -0.009897 0.000000 0.047561 0.000000
# 6 0.000000 0.000000 0.000000 -0.003526 0.000000 0.033064
#
#
# Mechanical properties :
#
#
# Convention : Reuss Voigt Hill
#
# Bulk Modulus (GPa) = 36.19690 53.66668 44.93179
# Shear Modulus (GPa) = 21.86065 24.97324 23.41695
#
# Velocity S-wave (km/s) = 3.43886 3.67553 3.55916
# Velocity P-wave (km/s) = 5.94548 6.85888 6.41845
#
# Compressibility (1/GPa) = 0.02762668
#
# Stress axis : x y z
#
# Youngs Moduli (GPa) = 38.32749 55.17656 50.90191
#
# Poissons Ratio (x) = 0.43204 0.12356
# Poissons Ratio (y) = 0.30011 0.40005
# Poissons Ratio (z) = 0.09304 0.43364
#
# Static dielectric constant tensor:
#      x y z
#    x 3.115800 0.000000 0.045780 
#    y 0.000000 3.308190 0.000000 
#    z 0.045780 0.000000 3.339800 
# 
# 
# High freq. dielectric constant tensor:
#      x y z
#    x 1.692210 0.000000 0.013550 
#    y 0.000000 1.705630 0.000000 
#    z 0.013550 0.000000 1.717350 
# 
# From -- ./inp_files/143025.got.cif
#   From: 2010.06.25/outbox.cif.g09.slc.cpg/sg15_72_cif.got.tgz:143025.got - 2010.06.28 07:06:18.
