data_PCOD8130965
_publ_section_title
;
Structure prediction by ZEFSAII (Michael W. Deem and Ramdas Pophale) SiO2 
 PCOD8130965
Probable space group: C 2/C
;
_chemical_formula_sum "Si O2"
_cell_formula_units_Z 64
_cell_length_a 17.401356
_cell_length_b 24.904225
_cell_length_c 15.472918
_cell_angle_alpha 90.000000
_cell_angle_beta 29.515923
_cell_angle_gamma 90.000000
_cell_volume 3303.546530
_symmetry_space_group_name_H-M "C 2/C"
_symmetry_group_IT_number 15
_symmetry_cell_setting 'monoclinic'
loop_
_space_group_symop_operation_xyz
x,y,z
-x,y,1/2-z
-x,-y,-z
x,-y,1/2+z
1/2+x,1/2+y,z
1/2-x,1/2+y,1/2-z
1/2-x,1/2-y,-z
1/2+x,1/2-y,1/2+z
loop_
_atom_site_type_symbol
_atom_site_label
_atom_site_fract_x
_atom_site_fract_y
_atom_site_fract_z
Si Si1 0.690606 0.890899 0.880663
Si Si2 0.173794 0.693315 0.908464
Si Si3 0.817792 0.391776 0.238479
Si Si4 0.185217 0.587735 0.570890
Si Si5 0.323800 0.031911 0.394608
Si Si6 0.803703 0.689639 0.269976
Si Si7 0.175773 0.508249 0.301033
Si Si8 0.818019 0.141055 0.933960
O O1 0.754646 0.843872 0.756711
O O2 0.757538 0.949507 0.786200
O O3 0.504252 0.893634 0.055994
O O4 0.746285 0.881109 0.925505
O O5 0.242319 0.654815 0.765789
O O6 0.231792 0.752113 0.829189
O O7 0.235387 0.675142 0.940619
O O8 0.988779 0.692733 0.092069
O O9 0.758450 0.382901 0.395933
O O10 0.746598 0.448920 0.275136
O O11 0.242130 0.525857 0.511085
O O12 0.000000 0.585588 0.750000
O O13 0.500000 0.042351 0.250000
O O14 0.218355 0.077972 0.541482
O O15 0.316283 0.036743 0.299218
O O16 0.744039 0.661437 0.414160
O O17 0.000000 0.500000 0.500000
O O18 0.000000 0.151973 0.750000
#
# Coordination Sequence:
#
# PCOD8130965 Si02
#       8
#     8   8   8   8   8   8   8   8
#     4   9  16  28  52  80 115 143 176 230 275 321
#     4  11  23  38  61  79 111 147 186 238 276 331
#     4   8  17  29  50  84 111 140 182 227 274 324
#     4   8  15  29  52  86 116 142 181 232 273 318
#     4  10  18  30  54  86 116 145 186 229 272 327
#     4  11  22  40  57  83 108 146 192 229 283 329
#     4   9  15  26  49  85 116 135 180 228 276 321
#     4  12  25  38  54  80 116 151 186 228 279 337
#
# _framework density 19.37312
#
# number of rings (size 3 to 8) (size 9 to 14) (size 15 to 20)
#    0.000    2.250    1.250    4.500    5.250    0.000 
#    0.000    0.625    0.000    9.750    0.000    0.000 
#    0.000    0.000    0.000    0.000    0.000    0.000 
#
# Total GULP energy -396601.504024 kJ/mol
# GULP energy per Si atom -12393.797001 kJ/mol
# Density = 1.932903 g / cm^3
# Si number density = 19.373120 Si / 1000 Ang^3
#
#
#
# Elastic Constant Matrix: (Units=GPa)
#
#
# Indices 1 2 3 4 5 6 
#
# 1 81.1776 50.9013 53.7656 0.0214 39.4558 -0.0138
# 2 50.9013 123.8067 51.9281 0.0041 28.4576 -0.0040
# 3 53.7656 51.9281 69.0402 0.0081 22.2625 -0.0709
# 4 0.0214 0.0041 0.0081 26.1721 -0.0111 7.9737
# 5 39.4558 28.4576 22.2625 -0.0111 39.7517 0.0448
# 6 -0.0138 -0.0040 -0.0709 7.9737 0.0448 24.4420
#
#
#
# Elastic Compliance Matrix: (Units=1/GPa)
#
#
# Indices 1 2 3 4 5 6 
#
# 1 0.041306 -0.001286 -0.022304 -0.000046 -0.027587 0.000024
# 2 -0.001286 0.012457 -0.007205 0.000004 -0.003606 -0.000014
# 3 -0.022304 -0.007205 0.034746 -0.000011 0.007837 0.000076
# 4 -0.000046 0.000004 -0.000011 0.042425 0.000076 -0.013841
# 5 -0.027587 -0.003606 0.007837 0.000076 0.050730 -0.000111
# 6 0.000024 -0.000014 0.000076 -0.013841 -0.000111 0.045429
#
#
# Mechanical properties :
#
#
# Convention : Reuss Voigt Hill
#
# Bulk Modulus (GPa) = 37.15015 65.24606 51.19810
# Shear Modulus (GPa) = 16.79787 25.90179 21.34983
#
# Velocity S-wave (km/s) = 2.94780 3.66046 3.32329
# Velocity P-wave (km/s) = 5.55012 7.18450 6.41954
#
# Compressibility (1/GPa) = 0.02691779
#
# Stress axis : x y z
#
# Youngs Moduli (GPa) = 24.20943 80.27833 28.78023
#
# Poissons Ratio (x) = 0.10327 0.64193
# Poissons Ratio (y) = 0.03114 0.20735
# Poissons Ratio (z) = 0.53998 0.57838
#
# Static dielectric constant tensor:
#      x y z
#    x 3.608110 -0.000080 0.463980 
#    y -0.000080 3.752440 0.000240 
#    z 0.463980 0.000240 3.385370 
# 
# 
# High freq. dielectric constant tensor:
#      x y z
#    x 1.743250 -0.000010 0.036620 
#    y -0.000010 1.752710 0.000020 
#    z 0.036620 0.000020 1.727560 
# 
# From -- ./inp_files/164220.got.cif
#   From: 2010.06.25/outbox.cif.g09.slc.cpg/sg15_83_cif.got.tgz:164220.got - 2010.06.28 07:06:18.
