data_PCOD8130787
_publ_section_title
;
Structure prediction by ZEFSAII (Michael W. Deem and Ramdas Pophale) SiO2 
 PCOD8130787
Probable space group: C 2/C
;
_chemical_formula_sum "Si O2"
_cell_formula_units_Z 64
_cell_length_a 31.643410
_cell_length_b 18.174866
_cell_length_c 14.509754
_cell_angle_alpha 90.000000
_cell_angle_beta 155.338078
_cell_angle_gamma 90.000000
_cell_volume 3481.966825
_symmetry_space_group_name_H-M "C 2/C"
_symmetry_group_IT_number 15
_symmetry_cell_setting 'monoclinic'
loop_
_space_group_symop_operation_xyz
x,y,z
-x,y,1/2-z
-x,-y,-z
x,-y,1/2+z
1/2+x,1/2+y,z
1/2-x,1/2+y,1/2-z
1/2-x,1/2-y,-z
1/2+x,1/2-y,1/2+z
loop_
_atom_site_type_symbol
_atom_site_label
_atom_site_fract_x
_atom_site_fract_y
_atom_site_fract_z
Si Si1 0.381710 0.761744 0.025259
Si Si2 0.766336 0.889466 0.781149
Si Si3 0.857801 0.174672 0.641610
Si Si4 0.145779 0.866684 0.897201
Si Si5 0.419289 0.618457 0.424084
Si Si6 0.756536 0.941334 0.251300
Si Si7 0.251886 0.680757 0.618890
Si Si8 0.535892 0.468843 0.916769
O O1 0.500000 0.774987 0.250000
O O2 0.357985 0.715033 0.069765
O O3 0.330686 0.841150 0.935348
O O4 0.337213 0.721424 0.848212
O O5 0.726847 0.973361 0.688814
O O6 0.807277 0.878357 0.965352
O O7 0.859271 0.867027 0.899404
O O8 0.835202 0.260713 0.579515
O O9 0.807336 0.149293 0.637713
O O10 0.979398 0.167212 0.882674
O O11 0.160316 0.862791 0.815949
O O12 0.037950 0.906259 0.694479
O O13 0.233819 0.913926 0.123286
O O14 0.450180 0.532313 0.479737
O O15 0.692628 0.884084 0.060632
O O16 0.862356 0.926527 0.408118
O O17 0.500000 0.507839 0.750000
#
# Coordination Sequence:
#
# PCOD8130787 Si02
#       8
#     8   8   8   8   8   8   8   8
#     4  10  19  35  52  70  92 125 171 212 240 278
#     4  10  22  32  47  72 102 131 158 196 245 297
#     4  10  18  32  50  75 101 127 163 202 246 291
#     4  10  18  28  50  73  97 127 158 195 242 293
#     4  11  19  29  46  74 106 131 148 185 250 310
#     4   9  17  32  46  70 101 126 161 201 237 286
#     4   9  19  32  53  75  93 126 170 210 243 278
#     4   9  16  26  43  69  97 123 153 194 243 291
#
# _framework density 18.380417000000001
#
# number of rings (size 3 to 8) (size 9 to 14) (size 15 to 20)
#    0.000    2.250    0.000    6.375    0.000    3.500 
#    0.000    0.000    0.000    4.500    0.000   13.125 
#    0.000    0.000    0.000    0.000    0.000    0.000 
#
# Total GULP energy -396584.398546 kJ/mol
# GULP energy per Si atom -12393.262455 kJ/mol
# Density = 1.833858 g / cm^3
# Si number density = 18.380417 Si / 1000 Ang^3
#
#
#
# Elastic Constant Matrix: (Units=GPa)
#
#
# Indices 1 2 3 4 5 6 
#
# 1 71.8951 36.6054 30.0854 0.0000 -21.4553 0.0000
# 2 36.6054 107.4270 33.4712 0.0000 -8.1849 0.0000
# 3 30.0854 33.4712 51.3362 0.0000 -11.2285 0.0000
# 4 0.0000 0.0000 0.0000 21.8214 0.0000 -1.2376
# 5 -21.4553 -8.1849 -11.2285 0.0000 27.9536 0.0000
# 6 0.0000 0.0000 0.0000 -1.2376 0.0000 25.1663
#
#
#
# Elastic Compliance Matrix: (Units=1/GPa)
#
#
# Indices 1 2 3 4 5 6 
#
# 1 0.023579 -0.004543 -0.007882 0.000000 0.013602 0.000000
# 2 -0.004543 0.012561 -0.006014 0.000000 -0.002224 0.000000
# 3 -0.007882 -0.006014 0.028846 0.000000 0.003776 0.000000
# 4 0.000000 0.000000 0.000000 0.045955 0.000000 0.002260
# 5 0.013602 -0.002224 0.003776 0.000000 0.047079 0.000000
# 6 0.000000 0.000000 0.000000 0.002260 0.000000 0.039847
#
#
# Mechanical properties :
#
#
# Convention : Reuss Voigt Hill
#
# Bulk Modulus (GPa) = 35.57566 47.88691 41.73128
# Shear Modulus (GPa) = 20.48233 23.68802 22.08517
#
# Velocity S-wave (km/s) = 3.34182 3.59383 3.47011
# Velocity P-wave (km/s) = 5.85556 6.58260 6.22969
#
# Compressibility (1/GPa) = 0.02810911
#
# Stress axis : x y z
#
# Youngs Moduli (GPa) = 42.40995 79.61259 34.66723
#
# Poissons Ratio (x) = 0.36164 0.27324
# Poissons Ratio (y) = 0.19265 0.20849
# Poissons Ratio (z) = 0.33427 0.47880
#
# Static dielectric constant tensor:
#      x y z
#    x 3.471070 0.000000 -0.351840 
#    y 0.000000 3.463650 0.000000 
#    z -0.351840 0.000000 3.308510 
# 
# 
# High freq. dielectric constant tensor:
#      x y z
#    x 1.710730 0.000000 -0.032120 
#    y 0.000000 1.715440 0.000000 
#    z -0.032120 0.000000 1.678640 
# 
# From -- ./inp_files/182764.got.cif
#   From: 2010.06.25/outbox.cif.g09.slc.cpg/sg15_92_cif.got.tgz:182764.got - 2010.06.28 07:06:18.
