data_PCOD8130833
_publ_section_title
;
Structure prediction by ZEFSAII (Michael W. Deem and Ramdas Pophale) SiO2 
 PCOD8130833
Probable space group: C 2/C
;
_chemical_formula_sum "Si O2"
_cell_formula_units_Z 48
_cell_length_a 15.443878
_cell_length_b 17.899323
_cell_length_c 17.274252
_cell_angle_alpha 90.000000
_cell_angle_beta 148.887491
_cell_angle_gamma 90.000000
_cell_volume 2467.446290
_symmetry_space_group_name_H-M "C 2/C"
_symmetry_group_IT_number 15
_symmetry_cell_setting 'monoclinic'
loop_
_space_group_symop_operation_xyz
x,y,z
-x,y,1/2-z
-x,-y,-z
x,-y,1/2+z
1/2+x,1/2+y,z
1/2-x,1/2+y,1/2-z
1/2-x,1/2-y,-z
1/2+x,1/2-y,1/2+z
loop_
_atom_site_type_symbol
_atom_site_label
_atom_site_fract_x
_atom_site_fract_y
_atom_site_fract_z
Si Si1 0.518581 0.311111 0.115830
Si Si2 0.123069 0.264174 0.541208
Si Si3 0.097350 0.654279 0.749475
Si Si4 0.359341 0.902348 0.854184
Si Si5 0.791741 0.432042 0.306938
Si Si6 0.648455 0.824494 0.808863
O O1 0.517994 0.274244 0.030102
O O2 0.621048 0.388786 0.196469
O O3 0.604971 0.257701 0.244286
O O4 0.324587 0.323578 0.990333
O O5 0.248810 0.203643 0.601869
O O6 0.216300 0.337800 0.647925
O O7 0.004215 0.287660 0.380799
O O8 0.155161 0.584185 0.741755
O O9 0.000000 0.623518 0.750000
O O10 0.330752 0.884011 0.743271
O O11 0.263031 0.979776 0.797173
O O12 0.558979 0.906233 0.022384
O O13 0.500000 0.853304 0.750000
#
# Coordination Sequence:
#
# PCOD8130833 Si02
#       6
#     8   8   8   8   8   8
#     4  10  19  34  53  76 103 136 176 209 251 309
#     4   9  17  31  50  71  97 132 168 201 242 298
#     4  10  18  29  48  74  99 125 160 207 252 290
#     4   9  18  35  53  72 100 135 173 205 249 305
#     4   9  19  34  54  73  99 138 172 205 248 306
#     4  11  21  33  53  79 105 131 167 219 265 303
#
# _framework density 19.453310999999999
#
# number of rings (size 3 to 8) (size 9 to 14) (size 15 to 20)
#    0.000    2.333    0.000    6.000    0.000    1.333 
#    0.000    0.000    0.000    7.000    0.000    0.000 
#    0.000    0.000    0.000    0.000    0.000    0.000 
#
# Total GULP energy -297554.604892 kJ/mol
# GULP energy per Si atom -12398.108537 kJ/mol
# Density = 1.940903 g / cm^3
# Si number density = 19.453311 Si / 1000 Ang^3
#
#
#
# Elastic Constant Matrix: (Units=GPa)
#
#
# Indices 1 2 3 4 5 6 
#
# 1 35.9296 1.7691 9.7391 -0.0015 13.7111 0.0014
# 2 1.7691 83.2832 24.5412 -0.0055 11.2309 0.0002
# 3 9.7391 24.5412 85.6598 -0.0192 14.8451 0.0010
# 4 -0.0015 -0.0055 -0.0192 24.6791 0.0021 -0.4163
# 5 13.7111 11.2309 14.8451 0.0021 24.5199 0.0037
# 6 0.0014 0.0002 0.0010 -0.4163 0.0037 10.9332
#
#
#
# Elastic Compliance Matrix: (Units=1/GPa)
#
#
# Indices 1 2 3 4 5 6 
#
# 1 0.035818 0.002343 -0.001214 0.000003 -0.020367 0.000003
# 2 0.002343 0.013661 -0.003205 0.000001 -0.005627 0.000002
# 3 -0.001214 -0.003205 0.013807 0.000011 -0.006212 0.000001
# 4 0.000003 0.000001 0.000011 0.040546 -0.000013 0.001544
# 5 -0.020367 -0.005627 -0.006212 -0.000013 0.058510 -0.000017
# 6 0.000003 0.000002 0.000001 0.001544 -0.000017 0.091523
#
#
# Mechanical properties :
#
#
# Convention : Reuss Voigt Hill
#
# Bulk Modulus (GPa) = 16.91058 30.77460 23.84259
# Shear Modulus (GPa) = 18.00318 23.28132 20.64225
#
# Velocity S-wave (km/s) = 3.04543 3.46320 3.26101
# Velocity P-wave (km/s) = 4.59108 5.64321 5.14411
#
# Compressibility (1/GPa) = 0.05913459
#
# Stress axis : x y z
#
# Youngs Moduli (GPa) = 27.91874 73.20283 72.42730
#
# Poissons Ratio (x) = -0.17155 0.08793
# Poissons Ratio (y) = -0.06543 0.23213
# Poissons Ratio (z) = 0.03390 0.23461
#
# Static dielectric constant tensor:
#      x y z
#    x 3.385770 0.000000 -0.010290 
#    y 0.000000 3.490700 0.000000 
#    z -0.010290 0.000000 3.475700 
# 
# 
# High freq. dielectric constant tensor:
#      x y z
#    x 1.730790 0.000000 -0.007800 
#    y 0.000000 1.748990 0.000000 
#    z -0.007800 0.000000 1.759010 
# 
# From -- ./inp_files/39632.got.cif
#   From: 2010.06.25/outbox.cif.g09.slc.cpg/sg15_20_cif.got.tgz:39632.got - 2010.06.28 07:06:18.
