data_PCOD8130278
_publ_section_title
;
Structure prediction by ZEFSAII (Michael W. Deem and Ramdas Pophale) SiO2 
 PCOD8130278
Probable space group: C 2/C
;
_chemical_formula_sum "Si O2"
_cell_formula_units_Z 48
_cell_length_a 9.774911
_cell_length_b 20.275793
_cell_length_c 14.838930
_cell_angle_alpha 90.000000
_cell_angle_beta 70.397845
_cell_angle_gamma 90.000000
_cell_volume 2770.542519
_symmetry_space_group_name_H-M "C 2/C"
_symmetry_group_IT_number 15
_symmetry_cell_setting 'monoclinic'
loop_
_space_group_symop_operation_xyz
x,y,z
-x,y,1/2-z
-x,-y,-z
x,-y,1/2+z
1/2+x,1/2+y,z
1/2-x,1/2+y,1/2-z
1/2-x,1/2-y,-z
1/2+x,1/2-y,1/2+z
loop_
_atom_site_type_symbol
_atom_site_label
_atom_site_fract_x
_atom_site_fract_y
_atom_site_fract_z
Si Si1 0.321572 0.300086 0.553978
Si Si2 0.674291 0.441402 0.018042
Si Si3 0.664075 0.736798 0.742725
Si Si4 0.840255 0.209517 0.551979
Si Si5 0.828364 0.937238 0.094593
Si Si6 0.672217 0.411381 0.211592
O O1 0.250000 0.250000 0.500000
O O2 0.272628 0.374033 0.539497
O O3 0.267562 0.288203 0.668070
O O4 0.493160 0.290738 0.513561
O O5 0.739271 0.504418 0.950855
O O6 0.501197 0.442347 0.056480
O O7 0.733624 0.445989 0.107894
O O8 0.500000 0.750493 0.750000
O O9 0.679167 0.744458 0.846812
O O10 0.717637 0.664918 0.699714
O O11 0.750000 0.250000 0.500000
O O12 0.781095 0.134293 0.567642
O O13 0.768937 0.946062 0.210316
O O14 0.500000 0.414358 0.250000
#
# Coordination Sequence:
#
# PCOD8130278 Si02
#       6
#     8   8   8   8   8   8
#     4  11  18  31  56  82  97 131 181 213 254 299
#     4   9  15  27  47  73  97 122 169 219 240 290
#     4  10  17  31  53  78 101 133 174 214 251 304
#     4  10  21  35  51  76 111 137 165 212 265 308
#     4   8  16  29  45  68 100 133 161 200 259 303
#     4   8  13  24  44  66  93 127 162 200 247 293
#
# _framework density 17.325126999999998
#
# number of rings (size 3 to 8) (size 9 to 14) (size 15 to 20)
#    0.000    2.667    3.333    2.000    0.000    0.667 
#    3.000    0.000    0.000    1.000    8.667    0.000 
#    0.000    0.000    0.000    0.000    0.000    0.000 
#
# Total GULP energy -297446.354326 kJ/mol
# GULP energy per Si atom -12393.598097 kJ/mol
# Density = 1.728569 g / cm^3
# Si number density = 17.325127 Si / 1000 Ang^3
#
#
#
# Elastic Constant Matrix: (Units=GPa)
#
#
# Indices 1 2 3 4 5 6 
#
# 1 43.3988 36.1613 37.4161 0.0000 19.0755 0.0000
# 2 36.1613 121.5981 85.8300 0.0000 21.8681 0.0000
# 3 37.4161 85.8300 165.8084 0.0000 28.5421 0.0000
# 4 0.0000 0.0000 0.0000 32.4875 0.0000 5.0833
# 5 19.0755 21.8681 28.5421 0.0000 27.8919 0.0000
# 6 0.0000 0.0000 0.0000 5.0833 0.0000 20.0780
#
#
#
# Elastic Compliance Matrix: (Units=1/GPa)
#
#
# Indices 1 2 3 4 5 6 
#
# 1 0.038772 -0.006667 -0.001983 0.000000 -0.019261 0.000000
# 2 -0.006667 0.014483 -0.005854 0.000000 -0.000805 0.000000
# 3 -0.001983 -0.005854 0.010300 0.000000 -0.004594 0.000000
# 4 0.000000 0.000000 0.000000 0.032051 0.000000 -0.008115
# 5 -0.019261 -0.000805 -0.004594 0.000000 0.054357 0.000000
# 6 0.000000 0.000000 0.000000 -0.008115 0.000000 0.051860
#
#
# Mechanical properties :
#
#
# Convention : Reuss Voigt Hill
#
# Bulk Modulus (GPa) = 28.94542 72.18000 50.56271
# Shear Modulus (GPa) = 20.63151 27.51801 24.07476
#
# Velocity S-wave (km/s) = 3.45460 3.98971 3.73176
# Velocity P-wave (km/s) = 5.71453 7.93575 6.91491
#
# Compressibility (1/GPa) = 0.03454778
#
# Stress axis : x y z
#
# Youngs Moduli (GPa) = 25.79152 69.04418 97.09039
#
# Poissons Ratio (x) = 0.46032 0.19250
# Poissons Ratio (y) = 0.17195 0.56839
# Poissons Ratio (z) = 0.05114 0.40420
#
# Static dielectric constant tensor:
#      x y z
#    x 3.060560 0.000000 -0.177010 
#    y 0.000000 3.355400 0.000000 
#    z -0.177010 0.000000 4.239600 
# 
# 
# High freq. dielectric constant tensor:
#      x y z
#    x 1.618270 0.000000 0.017830 
#    y 0.000000 1.658980 0.000000 
#    z 0.017830 0.000000 1.682870 
# 
# From -- ./inp_files/135871.got.cif
#   From: 2010.06.25/outbox.cif.g09.slc.cpg/sg15_68_cif.got.tgz:135871.got - 2010.06.28 07:06:18.
