data_PCOD8130620
_publ_section_title
;
Structure prediction by ZEFSAII (Michael W. Deem and Ramdas Pophale) SiO2 
 PCOD8130620
Probable space group: C 2/C
;
_chemical_formula_sum "Si O2"
_cell_formula_units_Z 44
_cell_length_a 25.434177
_cell_length_b 12.224827
_cell_length_c 12.953225
_cell_angle_alpha 90.000000
_cell_angle_beta 147.350913
_cell_angle_gamma 90.000000
_cell_volume 2172.819270
_symmetry_space_group_name_H-M "C 2/C"
_symmetry_group_IT_number 15
_symmetry_cell_setting 'monoclinic'
loop_
_space_group_symop_operation_xyz
x,y,z
-x,y,1/2-z
-x,-y,-z
x,-y,1/2+z
1/2+x,1/2+y,z
1/2-x,1/2+y,1/2-z
1/2-x,1/2-y,-z
1/2+x,1/2-y,1/2+z
loop_
_atom_site_type_symbol
_atom_site_label
_atom_site_fract_x
_atom_site_fract_y
_atom_site_fract_z
Si Si1 0.132091 0.463502 0.804409
Si Si2 0.111496 0.320270 0.949878
Si Si3 0.336508 0.615439 0.582278
Si Si4 0.000000 0.033924 0.250000
Si Si5 0.444900 0.835114 0.422304
Si Si6 0.535767 0.383399 0.020448
O O1 0.136749 0.434398 0.933856
O O2 0.105008 0.591227 0.748716
O O3 0.051225 0.384664 0.620553
O O4 0.233639 0.444682 0.914592
O O5 0.177240 0.225030 0.008326
O O6 0.000000 0.283030 0.750000
O O7 0.127186 0.337979 0.097502
O O8 0.416241 0.538739 0.661744
O O9 0.368902 0.646442 0.753662
O O10 0.052637 0.108470 0.424880
O O11 0.453843 0.709922 0.401271
O O12 0.500000 0.500000 0.000000
#
# Coordination Sequence:
#
# PCOD8130620 Si02
#       6
#     8   8   8   4   8   8
#     4  10  22  35  59  93 124 154 210 259 309 365
#     4  10  17  35  61  82 116 168 212 254 307 370
#     4  11  19  38  62  91 115 166 223 250 291 390
#     4  10  22  38  60  88 122 160 194 266 320 344
#     4  10  21  41  57  92 131 160 199 268 315 368
#     4  10  20  38  63  84 116 163 207 248 305 370
#
# _framework density 20.250188000000001
#
# number of rings (size 3 to 8) (size 9 to 14) (size 15 to 20)
#    0.000    1.818    4.545    1.636    0.000    1.455 
#    8.182    3.636    0.000    0.000    0.000    0.000 
#    0.000    0.000    0.000    0.000    0.000    0.000 
#
# Total GULP energy -272678.943992 kJ/mol
# GULP energy per Si atom -12394.497454 kJ/mol
# Density = 2.020410 g / cm^3
# Si number density = 20.250188 Si / 1000 Ang^3
#
#
#
# Elastic Constant Matrix: (Units=GPa)
#
#
# Indices 1 2 3 4 5 6 
#
# 1 122.6653 57.4019 51.7356 0.0000 -16.1046 0.0000
# 2 57.4019 146.8405 34.6396 0.0000 -7.6580 0.0000
# 3 51.7356 34.6396 53.9005 0.0000 5.3157 0.0000
# 4 0.0000 0.0000 0.0000 21.1767 0.0000 -4.5013
# 5 -16.1046 -7.6580 5.3157 0.0000 35.9484 0.0000
# 6 0.0000 0.0000 0.0000 -4.5013 0.0000 30.0259
#
#
#
# Elastic Compliance Matrix: (Units=1/GPa)
#
#
# Indices 1 2 3 4 5 6 
#
# 1 0.017308 -0.002504 -0.015948 0.000000 0.009579 0.000000
# 2 -0.002504 0.008619 -0.003253 0.000000 0.001195 0.000000
# 3 -0.015948 -0.003253 0.037267 0.000000 -0.013348 0.000000
# 4 0.000000 0.000000 0.000000 0.048776 0.000000 0.007312
# 5 0.009579 0.001195 -0.013348 0.000000 0.034337 0.000000
# 6 0.000000 0.000000 0.000000 0.007312 0.000000 0.034401
#
#
# Mechanical properties :
#
#
# Convention : Reuss Voigt Hill
#
# Bulk Modulus (GPa) = 50.54809 67.88450 59.21629
# Shear Modulus (GPa) = 21.67191 29.40550 25.53870
#
# Velocity S-wave (km/s) = 3.27495 3.81479 3.55513
# Velocity P-wave (km/s) = 6.27028 7.28005 6.79395
#
# Compressibility (1/GPa) = 0.01978314
#
# Stress axis : x y z
#
# Youngs Moduli (GPa) = 57.77672 116.02532 26.83313
#
# Poissons Ratio (x) = 0.29055 0.42794
# Poissons Ratio (y) = 0.14469 0.08729
# Poissons Ratio (z) = 0.92143 0.37745
#
# Static dielectric constant tensor:
#      x y z
#    x 4.002620 0.000000 -0.309410 
#    y 0.000000 3.706770 0.000000 
#    z -0.309410 0.000000 3.550940 
# 
# 
# High freq. dielectric constant tensor:
#      x y z
#    x 1.794110 0.000000 -0.001660 
#    y 0.000000 1.789480 0.000000 
#    z -0.001660 0.000000 1.757480 
# 
# From -- ./inp_files/177672.got.cif
#   From: 2010.06.25/outbox.cif.g09.slc.cpg/sg15_89_cif.got.tgz:177672.got - 2010.06.28 07:06:18.
