data_PCOD8130933
_publ_section_title
;
Structure prediction by ZEFSAII (Michael W. Deem and Ramdas Pophale) SiO2 
 PCOD8130933
Probable space group: C 2/C
;
_chemical_formula_sum "Si O2"
_cell_formula_units_Z 48
_cell_length_a 15.922849
_cell_length_b 29.769698
_cell_length_c 10.216767
_cell_angle_alpha 90.000000
_cell_angle_beta 35.254486
_cell_angle_gamma 90.000000
_cell_volume 2795.386637
_symmetry_space_group_name_H-M "C 2/C"
_symmetry_group_IT_number 15
_symmetry_cell_setting 'monoclinic'
loop_
_space_group_symop_operation_xyz
x,y,z
-x,y,1/2-z
-x,-y,-z
x,-y,1/2+z
1/2+x,1/2+y,z
1/2-x,1/2+y,1/2-z
1/2-x,1/2-y,-z
1/2+x,1/2-y,1/2+z
loop_
_atom_site_type_symbol
_atom_site_label
_atom_site_fract_x
_atom_site_fract_y
_atom_site_fract_z
Si Si1 0.422107 0.559322 0.485932
Si Si2 0.158688 0.809440 0.017504
Si Si3 0.161133 0.607660 0.206523
Si Si4 0.652526 0.786521 0.486504
Si Si5 0.393173 0.457005 0.507318
Si Si6 0.835768 0.379998 0.107060
O O1 0.500000 0.566870 0.250000
O O2 0.360771 0.508938 0.580064
O O3 0.536533 0.568122 0.457238
O O4 0.288769 0.593921 0.657356
O O5 0.213744 0.790285 0.084820
O O6 0.000000 0.830323 0.250000
O O7 0.263619 0.847792 0.825662
O O8 0.149235 0.764869 0.934575
O O9 0.992499 0.603612 0.459678
O O10 0.238209 0.564337 0.169375
O O11 0.182726 0.610094 0.023354
O O12 0.675943 0.826086 0.349445
O O13 0.500000 0.798705 0.750000
O O14 0.500000 0.451481 0.250000
#
# Coordination Sequence:
#
# PCOD8130933 Si02
#       6
#     8   8   8   8   8   8
#     4  10  22  36  52  74 103 136 169 213 259 305
#     4   9  16  23  42  73 110 129 158 206 260 299
#     4  10  18  30  51  79 104 131 170 212 257 300
#     4   9  15  27  41  71 110 133 155 203 265 302
#     4  10  19  35  56  77  98 129 178 217 250 303
#     4  10  18  32  49  73 107 138 164 210 259 302
#
# _framework density 17.171149
#
# number of rings (size 3 to 8) (size 9 to 14) (size 15 to 20)
#    0.000    2.333    5.000    0.500    2.333    0.667 
#    0.000    0.833    0.000    0.000    0.000    4.667 
#    0.000    0.000    0.000    0.000    0.000    0.000 
#
# Total GULP energy -297422.353216 kJ/mol
# GULP energy per Si atom -12392.598051 kJ/mol
# Density = 1.713207 g / cm^3
# Si number density = 17.171149 Si / 1000 Ang^3
#
#
#
# Elastic Constant Matrix: (Units=GPa)
#
#
# Indices 1 2 3 4 5 6 
#
# 1 66.7661 28.2173 34.7580 0.0000 -16.6101 0.0000
# 2 28.2173 105.1600 48.7724 0.0000 -17.6064 0.0000
# 3 34.7580 48.7724 81.9590 0.0000 -20.5647 0.0000
# 4 0.0000 0.0000 0.0000 19.1871 0.0000 -9.6641
# 5 -16.6101 -17.6064 -20.5647 0.0000 30.2339 0.0000
# 6 0.0000 0.0000 0.0000 -9.6641 0.0000 21.0252
#
#
#
# Elastic Compliance Matrix: (Units=1/GPa)
#
#
# Indices 1 2 3 4 5 6 
#
# 1 0.020372 -0.001588 -0.006172 0.000000 0.006069 0.000000
# 2 -0.001588 0.013459 -0.006738 0.000000 0.002382 0.000000
# 3 -0.006172 -0.006738 0.020490 0.000000 0.006622 0.000000
# 4 0.000000 0.000000 0.000000 0.067819 0.000000 0.031172
# 5 0.006069 0.002382 0.006622 0.000000 0.042302 0.000000
# 6 0.000000 0.000000 0.000000 0.031172 0.000000 0.061890
#
#
# Mechanical properties :
#
#
# Convention : Reuss Voigt Hill
#
# Bulk Modulus (GPa) = 39.48575 53.04228 46.26401
# Shear Modulus (GPa) = 18.95597 23.56508 21.26052
#
# Velocity S-wave (km/s) = 3.32617 3.70856 3.52256
# Velocity P-wave (km/s) = 6.14789 7.02106 6.59893
#
# Compressibility (1/GPa) = 0.02532560
#
# Stress axis : x y z
#
# Youngs Moduli (GPa) = 49.08807 74.29748 48.80399
#
# Poissons Ratio (x) = 0.11796 0.30120
# Poissons Ratio (y) = 0.07794 0.32886
# Poissons Ratio (z) = 0.30295 0.50064
#
# Static dielectric constant tensor:
#      x y z
#    x 3.104760 0.000000 -0.366000 
#    y 0.000000 3.569320 0.000000 
#    z -0.366000 0.000000 2.903300 
# 
# 
# High freq. dielectric constant tensor:
#      x y z
#    x 1.637630 0.000000 -0.048920 
#    y 0.000000 1.680110 0.000000 
#    z -0.048920 0.000000 1.627560 
# 
# From -- ./inp_files/108294.got.cif
#   From: 2010.06.25/outbox.cif.g09.slc.cpg/sg15_55_cif.got.tgz:108294.got - 2010.06.28 07:06:18.
