data_PCOD8130828
_publ_section_title
;
Structure prediction by ZEFSAII (Michael W. Deem and Ramdas Pophale) SiO2 
 PCOD8130828
Probable space group: C 2/C
;
_chemical_formula_sum "Si O2"
_cell_formula_units_Z 48
_cell_length_a 23.307971
_cell_length_b 17.077909
_cell_length_c 9.083401
_cell_angle_alpha 90.000000
_cell_angle_beta 129.625986
_cell_angle_gamma 90.000000
_cell_volume 2784.868772
_symmetry_space_group_name_H-M "C 2/C"
_symmetry_group_IT_number 15
_symmetry_cell_setting 'monoclinic'
loop_
_space_group_symop_operation_xyz
x,y,z
-x,y,1/2-z
-x,-y,-z
x,-y,1/2+z
1/2+x,1/2+y,z
1/2-x,1/2+y,1/2-z
1/2-x,1/2-y,-z
1/2+x,1/2-y,1/2+z
loop_
_atom_site_type_symbol
_atom_site_label
_atom_site_fract_x
_atom_site_fract_y
_atom_site_fract_z
Si Si1 0.731989 0.166696 0.540780
Si Si2 0.664097 0.376731 0.037131
Si Si3 0.614047 0.346423 0.646264
Si Si4 0.054627 0.871027 0.112622
Si Si5 0.327251 0.445607 0.005022
Si Si6 0.080622 0.723377 0.354540
O O1 0.750000 0.250000 0.500000
O O2 0.770791 0.164465 0.763949
O O3 0.760779 0.096082 0.486584
O O4 0.642397 0.158757 0.412781
O O5 0.586812 0.376405 0.001046
O O6 0.691117 0.463867 0.041868
O O7 0.650252 0.328988 0.864107
O O8 0.533042 0.386720 0.532456
O O9 0.666592 0.407385 0.646151
O O10 0.608057 0.265373 0.548816
O O11 0.094578 0.935909 0.280175
O O12 0.073640 0.786401 0.212513
O O13 0.000000 0.682988 0.250000
#
# Coordination Sequence:
#
# PCOD8130828 Si02
#       6
#     8   8   8   8   8   8
#     4  11  19  38  56  70 102 146 172 211 267 312
#     4  11  21  29  48  79 108 134 172 216 258 300
#     4  10  18  29  47  77 107 136 177 207 240 312
#     4   9  18  31  48  70 110 147 166 195 256 317
#     4  10  20  32  48  74 105 144 175 203 255 314
#     4   9  18  35  55  74  96 137 180 210 256 314
#
# _framework density 17.236001000000002
#
# number of rings (size 3 to 8) (size 9 to 14) (size 15 to 20)
#    0.000    2.000    5.000    4.000    0.000    4.667 
#    0.000    0.000    0.000    1.000    0.000    0.000 
#    0.000    0.000    0.000    0.000    0.000    0.000 
#
# Total GULP energy -297555.019833 kJ/mol
# GULP energy per Si atom -12398.125826 kJ/mol
# Density = 1.719677 g / cm^3
# Si number density = 17.236001 Si / 1000 Ang^3
#
#
#
# Elastic Constant Matrix: (Units=GPa)
#
#
# Indices 1 2 3 4 5 6 
#
# 1 118.3116 37.3332 52.5527 0.0000 6.9810 0.0000
# 2 37.3332 49.0446 31.6734 0.0000 8.0337 0.0000
# 3 52.5527 31.6734 101.6644 0.0000 -9.9569 0.0000
# 4 0.0000 0.0000 0.0000 17.1542 0.0000 1.0489
# 5 6.9810 8.0337 -9.9569 0.0000 38.3114 0.0000
# 6 0.0000 0.0000 0.0000 1.0489 0.0000 20.6865
#
#
#
# Elastic Compliance Matrix: (Units=1/GPa)
#
#
# Indices 1 2 3 4 5 6 
#
# 1 0.012688 -0.006137 -0.004871 0.000000 -0.002291 0.000000
# 2 -0.006137 0.030858 -0.007148 0.000000 -0.007210 0.000000
# 3 -0.004871 -0.007148 0.015202 0.000000 0.006337 0.000000
# 4 0.000000 0.000000 0.000000 0.058476 0.000000 -0.002965
# 5 -0.002291 -0.007210 0.006337 0.000000 0.029678 0.000000
# 6 0.000000 0.000000 0.000000 -0.002965 0.000000 0.048491
#
#
# Mechanical properties :
#
#
# Convention : Reuss Voigt Hill
#
# Bulk Modulus (GPa) = 44.57047 56.90436 50.73742
# Shear Modulus (GPa) = 20.90453 25.06117 22.98285
#
# Velocity S-wave (km/s) = 3.48637 3.81727 3.65557
# Velocity P-wave (km/s) = 6.49010 7.24674 6.87883
#
# Compressibility (1/GPa) = 0.02243638
#
# Stress axis : x y z
#
# Youngs Moduli (GPa) = 78.81748 32.40632 65.78228
#
# Poissons Ratio (x) = 0.19888 0.32042
# Poissons Ratio (y) = 0.48370 0.47019
# Poissons Ratio (z) = 0.38391 0.23163
#
# Static dielectric constant tensor:
#      x y z
#    x 3.569240 0.000000 -0.013550 
#    y 0.000000 2.808730 0.000000 
#    z -0.013550 0.000000 3.309660 
# 
# 
# High freq. dielectric constant tensor:
#      x y z
#    x 1.674280 0.000000 -0.014060 
#    y 0.000000 1.619060 0.000000 
#    z -0.014060 0.000000 1.661080 
# 
# From -- ./inp_files/48023.got.cif
#   From: 2010.06.25/outbox.cif.g09.slc.cpg/sg15_25_cif.got.tgz:48023.got - 2010.06.28 07:06:18.
