data_PCOD8130016
_publ_section_title
;
Structure prediction by ZEFSAII (Michael W. Deem and Ramdas Pophale) SiO2 
 PCOD8130016
Probable space group: C 2/C
;
_chemical_formula_sum "Si O2"
_cell_formula_units_Z 44
_cell_length_a 17.205390
_cell_length_b 8.061349
_cell_length_c 15.240699
_cell_angle_alpha 90.000000
_cell_angle_beta 94.621167
_cell_angle_gamma 90.000000
_cell_volume 2106.992641
_symmetry_space_group_name_H-M "C 2/C"
_symmetry_group_IT_number 15
_symmetry_cell_setting 'monoclinic'
loop_
_space_group_symop_operation_xyz
x,y,z
-x,y,1/2-z
-x,-y,-z
x,-y,1/2+z
1/2+x,1/2+y,z
1/2-x,1/2+y,1/2-z
1/2-x,1/2-y,-z
1/2+x,1/2-y,1/2+z
loop_
_atom_site_type_symbol
_atom_site_label
_atom_site_fract_x
_atom_site_fract_y
_atom_site_fract_z
Si Si1 0.595998 0.886835 0.294757
Si Si2 0.209091 0.189128 0.409547
Si Si3 0.395577 0.611255 0.636952
Si Si4 0.145789 0.685637 0.197837
Si Si5 0.995371 0.397109 0.588716
Si Si6 0.500000 0.601462 0.250000
O O1 0.642724 0.823087 0.383930
O O2 0.571904 0.726147 0.234013
O O3 0.648736 0.004642 0.241289
O O4 0.520751 0.982190 0.329613
O O5 0.250000 0.250000 0.500000
O O6 0.270347 0.203533 0.336831
O O7 0.171154 0.003148 0.414281
O O8 0.365550 0.674279 0.729094
O O9 0.423847 0.762651 0.577011
O O10 0.474649 0.506593 0.663721
O O11 0.077097 0.694003 0.118148
O O12 0.000000 0.500000 0.500000
#
# Coordination Sequence:
#
# PCOD8130016 Si02
#       6
#     8   8   8   8   8   4
#     4  10  20  38  63  87 122 163 213 251 311 378
#     4  11  24  40  58  94 134 161 203 274 324 374
#     4  10  21  40  65  88 126 169 217 256 315 391
#     4  11  20  41  64  90 119 171 217 253 308 395
#     4  11  21  39  63  94 125 163 208 267 319 371
#     4  10  16  36  62  94 108 154 210 266 286 372
#
# _framework density 20.882843999999999
#
# number of rings (size 3 to 8) (size 9 to 14) (size 15 to 20)
#    0.000    1.455    3.636    3.273    0.000    0.000 
#    3.273   12.727    0.000    0.000    0.000    0.000 
#    0.000    0.000    0.000    0.000    0.000    0.000 
#
# Total GULP energy -272634.090862 kJ/mol
# GULP energy per Si atom -12392.458676 kJ/mol
# Density = 2.083531 g / cm^3
# Si number density = 20.882844 Si / 1000 Ang^3
#
#
#
# Elastic Constant Matrix: (Units=GPa)
#
#
# Indices 1 2 3 4 5 6 
#
# 1 82.4296 41.5288 28.0446 0.0000 9.3428 0.0000
# 2 41.5288 122.5202 52.4681 0.0000 5.2777 0.0000
# 3 28.0446 52.4681 93.9403 0.0000 8.1391 0.0000
# 4 0.0000 0.0000 0.0000 31.7824 0.0000 7.0029
# 5 9.3428 5.2777 8.1391 0.0000 32.9495 0.0000
# 6 0.0000 0.0000 0.0000 7.0029 0.0000 34.9055
#
#
#
# Elastic Compliance Matrix: (Units=1/GPa)
#
#
# Indices 1 2 3 4 5 6 
#
# 1 0.015271 -0.004212 -0.001931 0.000000 -0.003178 0.000000
# 2 -0.004212 0.011892 -0.005439 0.000000 0.000633 0.000000
# 3 -0.001931 -0.005439 0.014446 0.000000 -0.002150 0.000000
# 4 0.000000 0.000000 0.000000 0.032919 0.000000 -0.006604
# 5 -0.003178 0.000633 -0.002150 0.000000 0.031680 0.000000
# 6 0.000000 0.000000 0.000000 -0.006604 0.000000 0.029974
#
#
# Mechanical properties :
#
#
# Convention : Reuss Voigt Hill
#
# Bulk Modulus (GPa) = 54.21940 60.33036 57.27488
# Shear Modulus (GPa) = 30.21255 31.71739 30.96497
#
# Velocity S-wave (km/s) = 3.80776 3.90144 3.85488
# Velocity P-wave (km/s) = 6.73439 7.01766 6.87749
#
# Compressibility (1/GPa) = 0.01844358
#
# Stress axis : x y z
#
# Youngs Moduli (GPa) = 65.48366 84.09216 69.22510
#
# Poissons Ratio (x) = 0.35423 0.13366
# Poissons Ratio (y) = 0.27584 0.37653
# Poissons Ratio (z) = 0.12644 0.45739
#
# Static dielectric constant tensor:
#      x y z
#    x 3.830510 0.000000 0.090930 
#    y 0.000000 4.155520 0.000000 
#    z 0.090930 0.000000 3.419500 
# 
# 
# High freq. dielectric constant tensor:
#      x y z
#    x 1.817990 0.000000 0.013990 
#    y 0.000000 1.835650 0.000000 
#    z 0.013990 0.000000 1.787410 
# 
# From -- ./inp_files/159329.got.cif
#   From: 2010.06.25/outbox.cif.g09.slc.cpg/sg15_80_cif.got.tgz:159329.got - 2010.06.28 07:06:18.
