data_PCOD8130724
_publ_section_title
;
Structure prediction by ZEFSAII (Michael W. Deem and Ramdas Pophale) SiO2 
 PCOD8130724
Probable space group: C 2/C
;
_chemical_formula_sum "Si O2"
_cell_formula_units_Z 60
_cell_length_a 18.283336
_cell_length_b 18.259614
_cell_length_c 9.498807
_cell_angle_alpha 90.000000
_cell_angle_beta 110.709920
_cell_angle_gamma 90.000000
_cell_volume 2966.234518
_symmetry_space_group_name_H-M "C 2/C"
_symmetry_group_IT_number 15
_symmetry_cell_setting 'monoclinic'
loop_
_space_group_symop_operation_xyz
x,y,z
-x,y,1/2-z
-x,-y,-z
x,-y,1/2+z
1/2+x,1/2+y,z
1/2-x,1/2+y,1/2-z
1/2-x,1/2-y,-z
1/2+x,1/2-y,1/2+z
loop_
_atom_site_type_symbol
_atom_site_label
_atom_site_fract_x
_atom_site_fract_y
_atom_site_fract_z
Si Si1 0.413285 0.307226 0.222714
Si Si2 0.410634 0.078583 0.449623
Si Si3 0.765391 0.950704 0.746175
Si Si4 0.184694 0.204211 0.290172
Si Si5 0.000000 0.490604 0.750000
Si Si6 0.824727 0.711158 0.985535
Si Si7 0.280176 0.582262 0.570183
Si Si8 0.364942 0.761053 0.959140
O O1 0.500000 0.334236 0.250000
O O2 0.354389 0.364432 0.110349
O O3 0.399555 0.300921 0.379784
O O4 0.395955 0.226045 0.143173
O O5 0.320840 0.056216 0.375534
O O6 0.444322 0.040286 0.613332
O O7 0.416407 0.165526 0.481749
O O8 0.452909 0.059122 0.330600
O O9 0.820216 0.882521 0.739874
O O10 0.800386 0.024821 0.705800
O O11 0.766284 0.959336 0.914414
O O12 0.148317 0.252343 0.140975
O O13 0.275061 0.225524 0.361167
O O14 0.130915 0.225514 0.384590
O O15 0.801364 0.625915 0.951277
O O16 0.750000 0.750000 0.000000
#
# Coordination Sequence:
#
# PCOD8130724 Si02
#       8
#     8   8   8   8   4   8   8   8
#     4  11  23  42  64  94 126 168 215 257 322 387
#     4  10  22  40  59  92 125 175 211 250 325 385
#     4  11  22  38  65  95 121 164 216 264 316 376
#     4  10  19  37  66  90 125 152 215 273 309 356
#     4  10  22  42  58  84 144 170 200 260 322 400
#     4  10  17  40  64  89 120 163 210 261 303 369
#     4  11  23  39  67  96 124 162 219 263 319 377
#     4  10  21  37  62  94 120 162 213 267 311 363
#
# _framework density 20.227665999999999
#
# number of rings (size 3 to 8) (size 9 to 14) (size 15 to 20)
#    0.000    1.600    5.333    1.600    2.800    2.133 
#    4.800    0.667    0.000    0.000    0.000    0.000 
#    0.000    0.000    0.000    0.000    0.000    0.000 
#
# Total GULP energy -371884.246820 kJ/mol
# GULP energy per Si atom -12396.141561 kJ/mol
# Density = 2.018163 g / cm^3
# Si number density = 20.227666 Si / 1000 Ang^3
#
#
#
# Elastic Constant Matrix: (Units=GPa)
#
#
# Indices 1 2 3 4 5 6 
#
# 1 67.3816 28.4932 45.5535 0.0000 -6.5807 0.0000
# 2 28.4932 104.4984 55.5314 0.0000 -14.2658 0.0000
# 3 45.5535 55.5314 148.2279 0.0000 -26.4814 0.0000
# 4 0.0000 0.0000 0.0000 38.5467 0.0000 -7.3081
# 5 -6.5807 -14.2658 -26.4814 0.0000 31.0391 0.0000
# 6 0.0000 0.0000 0.0000 -7.3081 0.0000 20.4618
#
#
#
# Elastic Compliance Matrix: (Units=1/GPa)
#
#
# Indices 1 2 3 4 5 6 
#
# 1 0.019363 -0.002727 -0.005214 0.000000 -0.001597 0.000000
# 2 -0.002727 0.012436 -0.003425 0.000000 0.002215 0.000000
# 3 -0.005214 -0.003425 0.010799 0.000000 0.006534 0.000000
# 4 0.000000 0.000000 0.000000 0.027827 0.000000 0.009939
# 5 -0.001597 0.002215 0.006534 0.000000 0.038471 0.000000
# 6 0.000000 0.000000 0.000000 0.009939 0.000000 0.052421
#
#
# Mechanical properties :
#
#
# Convention : Reuss Voigt Hill
#
# Bulk Modulus (GPa) = 50.33815 64.36269 57.35042
# Shear Modulus (GPa) = 26.22306 30.71151 28.46728
#
# Velocity S-wave (km/s) = 3.60446 3.90075 3.75553
# Velocity P-wave (km/s) = 6.50097 7.22330 6.87163
#
# Compressibility (1/GPa) = 0.01986565
#
# Stress axis : x y z
#
# Youngs Moduli (GPa) = 51.64441 80.41481 92.59834
#
# Poissons Ratio (x) = 0.21926 0.48285
# Poissons Ratio (y) = 0.14082 0.31716
# Poissons Ratio (z) = 0.26930 0.27543
#
# Static dielectric constant tensor:
#      x y z
#    x 3.463050 0.000000 -0.097860 
#    y 0.000000 3.804680 0.000000 
#    z -0.097860 0.000000 4.134030 
# 
# 
# High freq. dielectric constant tensor:
#      x y z
#    x 1.757230 0.000000 -0.010740 
#    y 0.000000 1.783370 0.000000 
#    z -0.010740 0.000000 1.806060 
# 
# From -- ./inp_files/50280.got.cif
#   From: 2010.06.25/outbox.cif.g09.slc.cpg/sg15_26_cif.got.tgz:50280.got - 2010.06.28 07:06:18.
