data_PCOD8130864
_publ_section_title
;
Structure prediction by ZEFSAII (Michael W. Deem and Ramdas Pophale) SiO2 
 PCOD8130864
Probable space group: C 2/C
;
_chemical_formula_sum "Si O2"
_cell_formula_units_Z 56
_cell_length_a 21.771491
_cell_length_b 9.074001
_cell_length_c 18.789664
_cell_angle_alpha 90.000000
_cell_angle_beta 125.927198
_cell_angle_gamma 90.000000
_cell_volume 3005.827449
_symmetry_space_group_name_H-M "C 2/C"
_symmetry_group_IT_number 15
_symmetry_cell_setting 'monoclinic'
loop_
_space_group_symop_operation_xyz
x,y,z
-x,y,1/2-z
-x,-y,-z
x,-y,1/2+z
1/2+x,1/2+y,z
1/2-x,1/2+y,1/2-z
1/2-x,1/2-y,-z
1/2+x,1/2-y,1/2+z
loop_
_atom_site_type_symbol
_atom_site_label
_atom_site_fract_x
_atom_site_fract_y
_atom_site_fract_z
Si Si1 0.293416 0.710664 0.636378
Si Si2 0.909252 0.681949 0.768693
Si Si3 0.183098 0.437322 0.959714
Si Si4 0.287436 0.341970 0.441880
Si Si5 0.220580 0.473597 0.779502
Si Si6 0.580826 0.187678 0.894175
Si Si7 0.204040 0.086877 0.311330
O O1 0.215234 0.654586 0.547411
O O2 0.340377 0.816400 0.615559
O O3 0.273750 0.803270 0.693263
O O4 0.336997 0.558534 0.683686
O O5 0.864345 0.533735 0.760394
O O6 0.909284 0.705393 0.683694
O O7 0.861952 0.817515 0.770009
O O8 0.993188 0.690724 0.857854
O O9 0.240717 0.559952 0.966370
O O10 0.108658 0.523887 0.934461
O O11 0.284778 0.429089 0.364736
O O12 0.371941 0.312993 0.530346
O O13 0.247857 0.181917 0.401958
O O14 0.236313 0.473675 0.706401
#
# Coordination Sequence:
#
# PCOD8130864 Si02
#       7
#     8   8   8   8   8   8   8
#     4  10  18  29  55  83 106 134 187 232 277 308
#     4  10  22  35  59  84 109 151 182 232 291 325
#     4  10  18  31  56  84 110 134 184 237 281 337
#     4  10  19  34  58  83 102 154 189 223 276 333
#     4  10  21  36  54  81 115 148 194 225 269 336
#     4  11  18  36  60  81 116 135 187 237 284 336
#     4  11  19  35  58  79 107 149 199 222 257 342
#
# _framework density 18.630476000000002
#
# number of rings (size 3 to 8) (size 9 to 14) (size 15 to 20)
#    0.000    1.714    5.714    3.000    0.000    0.000 
#    0.000    1.429   18.857    0.000    0.000    0.000 
#    0.000    0.000    0.000    0.000    0.000    0.000 
#
# Total GULP energy -346888.303986 kJ/mol
# GULP energy per Si atom -12388.868000 kJ/mol
# Density = 1.858807 g / cm^3
# Si number density = 18.630476 Si / 1000 Ang^3
#
#
#
# Elastic Constant Matrix: (Units=GPa)
#
#
# Indices 1 2 3 4 5 6 
#
# 1 68.8009 28.8561 33.5808 0.0000 15.9352 0.0000
# 2 28.8561 130.0582 33.4024 0.0000 8.6411 0.0000
# 3 33.5808 33.4024 71.2072 0.0000 23.4343 0.0000
# 4 0.0000 0.0000 0.0000 21.4560 0.0000 -1.2579
# 5 15.9352 8.6411 23.4343 0.0000 30.6111 0.0000
# 6 0.0000 0.0000 0.0000 -1.2579 0.0000 18.6369
#
#
#
# Elastic Compliance Matrix: (Units=1/GPa)
#
#
# Indices 1 2 3 4 5 6 
#
# 1 0.019880 -0.002370 -0.006788 0.000000 -0.004483 0.000000
# 2 -0.002370 0.009043 -0.003596 0.000000 0.001434 0.000000
# 3 -0.006788 -0.003596 0.023307 0.000000 -0.013293 0.000000
# 4 0.000000 0.000000 0.000000 0.046792 0.000000 0.003158
# 5 -0.004483 0.001434 -0.013293 0.000000 0.044774 0.000000
# 6 0.000000 0.000000 0.000000 0.003158 0.000000 0.053870
#
#
# Mechanical properties :
#
#
# Convention : Reuss Voigt Hill
#
# Bulk Modulus (GPa) = 37.42334 51.30500 44.36417
# Shear Modulus (GPa) = 21.54412 25.75593 23.65002
#
# Velocity S-wave (km/s) = 3.40426 3.72218 3.56677
# Velocity P-wave (km/s) = 5.96513 6.78755 6.38959
#
# Compressibility (1/GPa) = 0.02672129
#
# Stress axis : x y z
#
# Youngs Moduli (GPa) = 50.30117 110.58301 42.90587
#
# Poissons Ratio (x) = 0.26203 0.29126
# Poissons Ratio (y) = 0.11919 0.15431
# Poissons Ratio (z) = 0.34147 0.39771
#
# Static dielectric constant tensor:
#      x y z
#    x 3.118670 0.000000 -0.054170 
#    y 0.000000 3.854960 0.000000 
#    z -0.054170 0.000000 3.442320 
# 
# 
# High freq. dielectric constant tensor:
#      x y z
#    x 1.677570 0.000000 -0.021980 
#    y 0.000000 1.743420 0.000000 
#    z -0.021980 0.000000 1.711580 
# 
# From -- ./inp_files/281386.got.cif
#   From: 2010.06.25/outbox.cif.g09.slc.cpg/sg15_141_cif.got.tgz:281386.got - 2010.06.28 07:06:18.
