data_PCOD8130944
_publ_section_title
;
Structure prediction by ZEFSAII (Michael W. Deem and Ramdas Pophale) SiO2 
 PCOD8130944
Probable space group: C 2/C
;
_chemical_formula_sum "Si O2"
_cell_formula_units_Z 40
_cell_length_a 21.447073
_cell_length_b 9.160484
_cell_length_c 12.061421
_cell_angle_alpha 90.000000
_cell_angle_beta 138.206373
_cell_angle_gamma 90.000000
_cell_volume 1579.254795
_symmetry_space_group_name_H-M "C 2/C"
_symmetry_group_IT_number 15
_symmetry_cell_setting 'monoclinic'
loop_
_space_group_symop_operation_xyz
x,y,z
-x,y,1/2-z
-x,-y,-z
x,-y,1/2+z
1/2+x,1/2+y,z
1/2-x,1/2+y,1/2-z
1/2-x,1/2-y,-z
1/2+x,1/2-y,1/2+z
loop_
_atom_site_type_symbol
_atom_site_label
_atom_site_fract_x
_atom_site_fract_y
_atom_site_fract_z
Si Si1 0.713506 0.419287 0.377659
Si Si2 0.603754 0.926956 0.365635
Si Si3 0.602762 0.665068 0.529862
Si Si4 0.604470 0.291117 0.677810
Si Si5 0.100552 0.851841 0.429259
O O1 0.826127 0.437714 0.527305
O O2 0.684584 0.333464 0.229012
O O3 0.666265 0.580210 0.313091
O O4 0.681005 0.326716 0.442832
O O5 0.500000 0.989532 0.250000
O O6 0.623368 0.802507 0.481017
O O7 0.619722 0.859826 0.264121
O O8 0.504169 0.666687 0.461537
O O9 0.601797 0.524479 0.451716
O O10 0.627357 0.266621 0.578066
O O11 0.000000 0.801701 0.250000
#
# Coordination Sequence:
#
# PCOD8130944 Si02
#       5
#     8   8   8   8   8
#     4  11  19  31  57  86 113 156 191 235 295 349
#     4  10  21  36  55  89 116 151 199 237 280 352
#     4  10  18  31  52  84 122 143 188 248 292 333
#     4  10  18  30  52  86 119 142 187 251 292 330
#     4  11  16  28  52  87 115 141 181 242 300 338
#
# _framework density 25.328403000000002
#
# number of rings (size 3 to 8) (size 9 to 14) (size 15 to 20)
#    0.000    1.600    6.000    2.400    0.000    0.000 
#    0.000    0.000    0.000   12.000    5.200    5.600 
#    0.000    0.000    0.000    0.000    0.000    0.000 
#
# Total GULP energy -248083.589404 kJ/mol
# GULP energy per Si atom -12404.179470 kJ/mol
# Density = 2.527075 g / cm^3
# Si number density = 25.328403 Si / 1000 Ang^3
#
#
#
# Elastic Constant Matrix: (Units=GPa)
#
#
# Indices 1 2 3 4 5 6 
#
# 1 133.3112 21.6153 92.6947 0.0000 12.8451 0.0000
# 2 21.6153 43.3302 27.1356 0.0000 6.7763 0.0000
# 3 92.6947 27.1356 157.8976 0.0000 2.2385 0.0000
# 4 0.0000 0.0000 0.0000 24.3009 0.0000 7.6432
# 5 12.8451 6.7763 2.2385 0.0000 42.7644 0.0000
# 6 0.0000 0.0000 0.0000 7.6432 0.0000 16.0198
#
#
#
# Elastic Compliance Matrix: (Units=1/GPa)
#
#
# Indices 1 2 3 4 5 6 
#
# 1 0.013268 -0.001393 -0.007502 0.000000 -0.003372 0.000000
# 2 -0.001393 0.026664 -0.003713 0.000000 -0.003612 0.000000
# 3 -0.007502 -0.003713 0.011344 0.000000 0.002248 0.000000
# 4 0.000000 0.000000 0.000000 0.048416 0.000000 -0.023100
# 5 -0.003372 -0.003612 0.002248 0.000000 0.024851 0.000000
# 6 0.000000 0.000000 0.000000 -0.023100 0.000000 0.073444
#
#
# Mechanical properties :
#
#
# Convention : Reuss Voigt Hill
#
# Bulk Modulus (GPa) = 38.37478 68.60333 53.48905
# Shear Modulus (GPa) = 21.56183 29.48991 25.52587
#
# Velocity S-wave (km/s) = 2.92085 3.41589 3.17802
# Velocity P-wave (km/s) = 5.15354 6.53468 5.88477
#
# Compressibility (1/GPa) = 0.02605878
#
# Stress axis : x y z
#
# Youngs Moduli (GPa) = 75.36678 37.50378 88.15558
#
# Poissons Ratio (x) = 0.05226 0.66135
# Poissons Ratio (y) = 0.10502 0.32733
# Poissons Ratio (z) = 0.56540 0.13926
#
# Static dielectric constant tensor:
#      x y z
#    x 4.806040 0.000000 -0.017350 
#    y 0.000000 4.017020 0.000000 
#    z -0.017350 0.000000 4.601530 
# 
# 
# High freq. dielectric constant tensor:
#      x y z
#    x 2.024380 0.000000 -0.002870 
#    y 0.000000 1.998200 0.000000 
#    z -0.002870 0.000000 2.016660 
# 
# From -- ./inp_files/95125.got.cif
#   From: 2010.06.25/outbox.cif.g09.slc.cpg/sg15_48_cif.got.tgz:95125.got - 2010.06.28 07:06:18.
