data_PCOD8130791
_publ_section_title
;
Structure prediction by ZEFSAII (Michael W. Deem and Ramdas Pophale) SiO2 
 PCOD8130791
Probable space group: C 2/C
;
_chemical_formula_sum "Si O2"
_cell_formula_units_Z 64
_cell_length_a 19.963928
_cell_length_b 16.530466
_cell_length_c 12.250276
_cell_angle_alpha 90.000000
_cell_angle_beta 52.023232
_cell_angle_gamma 90.000000
_cell_volume 3186.740007
_symmetry_space_group_name_H-M "C 2/C"
_symmetry_group_IT_number 15
_symmetry_cell_setting 'monoclinic'
loop_
_space_group_symop_operation_xyz
x,y,z
-x,y,1/2-z
-x,-y,-z
x,-y,1/2+z
1/2+x,1/2+y,z
1/2-x,1/2+y,1/2-z
1/2-x,1/2-y,-z
1/2+x,1/2-y,1/2+z
loop_
_atom_site_type_symbol
_atom_site_label
_atom_site_fract_x
_atom_site_fract_y
_atom_site_fract_z
Si Si1 0.431028 0.707841 0.581868
Si Si2 0.211149 0.159583 0.920801
Si Si3 0.240197 0.153639 0.134151
Si Si4 0.511933 0.037566 0.119312
Si Si5 0.417861 0.888011 0.531617
Si Si6 0.825282 0.630358 0.616236
Si Si7 0.189791 0.820252 0.099522
Si Si8 0.118857 0.183960 0.445120
O O1 0.381023 0.651107 0.545090
O O2 0.447598 0.795345 0.509988
O O3 0.377221 0.717179 0.747064
O O4 0.520125 0.666972 0.521408
O O5 0.232915 0.253897 0.899021
O O6 0.284049 0.114774 0.777149
O O7 0.207886 0.124478 0.047054
O O8 0.321412 0.101479 0.088803
O O9 0.168594 0.139667 0.297257
O O10 0.500000 0.073927 0.250000
O O11 0.429498 0.068202 0.137051
O O12 0.598280 0.069185 0.977026
O O13 0.520265 0.939357 0.111798
O O14 0.750699 0.615295 0.600509
O O15 0.861226 0.721151 0.571080
O O16 0.250000 0.750000 0.000000
O O17 0.143140 0.856180 0.038491
#
# Coordination Sequence:
#
# PCOD8130791 Si02
#       8
#     8   8   8   8   8   8   8   8
#     4  10  18  32  51  78 112 137 171 226 269 327
#     4   8  17  33  50  71  98 139 174 218 273 312
#     4   9  18  33  51  70 100 138 179 218 260 324
#     4  11  24  35  52  77 106 153 185 216 259 316
#     4  10  22  37  47  73 110 144 182 212 258 321
#     4   9  18  32  49  71 104 139 177 216 261 323
#     4   9  18  28  50  77 103 141 172 218 282 321
#     4  10  18  28  51  81 101 135 172 221 283 317
#
# _framework density 20.083220000000001
#
# number of rings (size 3 to 8) (size 9 to 14) (size 15 to 20)
#    0.000    2.500    1.250    2.625    5.250    2.500 
#    4.500    0.000    0.000    0.000    0.000    3.500 
#    7.500    0.000    0.000    0.000    0.000    0.000 
#
# Total GULP energy -396531.077815 kJ/mol
# GULP energy per Si atom -12391.596182 kJ/mol
# Density = 2.003751 g / cm^3
# Si number density = 20.083220 Si / 1000 Ang^3
#
#
#
# Elastic Constant Matrix: (Units=GPa)
#
#
# Indices 1 2 3 4 5 6 
#
# 1 182.9090 14.7587 84.2005 0.0000 15.4787 0.0000
# 2 14.7587 22.8522 17.2991 0.0000 4.9424 0.0000
# 3 84.2005 17.2991 103.3497 0.0000 22.5887 0.0000
# 4 0.0000 0.0000 0.0000 11.3737 0.0000 -2.4099
# 5 15.4787 4.9424 22.5887 0.0000 34.2606 0.0000
# 6 0.0000 0.0000 0.0000 -2.4099 0.0000 17.0580
#
#
#
# Elastic Compliance Matrix: (Units=1/GPa)
#
#
# Indices 1 2 3 4 5 6 
#
# 1 0.008773 -0.000344 -0.007284 0.000000 0.000889 0.000000
# 2 -0.000344 0.050238 -0.007686 0.000000 -0.002024 0.000000
# 3 -0.007284 -0.007686 0.018618 0.000000 -0.007876 0.000000
# 4 0.000000 0.000000 0.000000 0.090635 0.000000 0.012805
# 5 0.000889 -0.002024 -0.007876 0.000000 0.034271 0.000000
# 6 0.000000 0.000000 0.000000 0.012805 0.000000 0.060432
#
#
# Mechanical properties :
#
#
# Convention : Reuss Voigt Hill
#
# Bulk Modulus (GPa) = 21.27648 60.18082 40.72865
# Shear Modulus (GPa) = 16.16745 25.39532 20.78138
#
# Velocity S-wave (km/s) = 2.84037 3.55984 3.22026
# Velocity P-wave (km/s) = 4.62321 6.85036 5.84387
#
# Compressibility (1/GPa) = 0.04700025
#
# Stress axis : x y z
#
# Youngs Moduli (GPa) = 113.98741 19.90524 53.71079
#
# Poissons Ratio (x) = 0.00685 0.39123
# Poissons Ratio (y) = 0.03921 0.41285
# Poissons Ratio (z) = 0.83029 0.15300
#
# Static dielectric constant tensor:
#      x y z
#    x 4.285690 0.000000 0.318530 
#    y 0.000000 3.075520 0.000000 
#    z 0.318530 0.000000 3.740540 
# 
# 
# High freq. dielectric constant tensor:
#      x y z
#    x 1.806460 0.000000 0.010270 
#    y 0.000000 1.719880 0.000000 
#    z 0.010270 0.000000 1.778300 
# 
# From -- ./inp_files/114078.got.cif
#   From: 2010.06.25/outbox.cif.g09.slc.cpg/sg15_58_cif.got.tgz:114078.got - 2010.06.28 07:06:18.
