data_PCOD8130453
_publ_section_title
;
Structure prediction by ZEFSAII (Michael W. Deem and Ramdas Pophale) SiO2 
 PCOD8130453
Probable space group: C 2/C
;
_chemical_formula_sum "Si O2"
_cell_formula_units_Z 64
_cell_length_a 22.525388
_cell_length_b 20.947455
_cell_length_c 9.816588
_cell_angle_alpha 90.000000
_cell_angle_beta 48.737845
_cell_angle_gamma 90.000000
_cell_volume 3481.838404
_symmetry_space_group_name_H-M "C 2/C"
_symmetry_group_IT_number 15
_symmetry_cell_setting 'monoclinic'
loop_
_space_group_symop_operation_xyz
x,y,z
-x,y,1/2-z
-x,-y,-z
x,-y,1/2+z
1/2+x,1/2+y,z
1/2-x,1/2+y,1/2-z
1/2-x,1/2-y,-z
1/2+x,1/2-y,1/2+z
loop_
_atom_site_type_symbol
_atom_site_label
_atom_site_fract_x
_atom_site_fract_y
_atom_site_fract_z
Si Si1 0.089790 0.245315 0.277035
Si Si2 0.696373 0.365701 0.724511
Si Si3 0.905842 0.246576 0.548769
Si Si4 0.793811 0.001334 0.844045
Si Si5 0.792421 0.861392 0.288917
Si Si6 0.184288 0.634402 0.695816
Si Si7 0.308501 0.138463 0.298455
Si Si8 0.808568 0.500525 0.251281
O O1 0.131206 0.186660 0.290219
O O2 0.117846 0.311364 0.303208
O O3 0.997462 0.238913 0.442027
O O4 0.111710 0.243930 0.085133
O O5 0.657176 0.437022 0.768371
O O6 0.773624 0.361076 0.513288
O O7 0.729733 0.355365 0.825355
O O8 0.861239 0.190298 0.695364
O O9 0.876627 0.312944 0.654898
O O10 0.834891 0.069247 0.747509
O O11 0.713110 0.000650 0.875452
O O12 0.772235 0.998551 0.036189
O O13 0.752730 0.855031 0.202175
O O14 0.722465 0.848865 0.502699
O O15 0.143362 0.564264 0.781811
O O16 0.349985 0.068115 0.223360
#
# Coordination Sequence:
#
# PCOD8130453 Si02
#       8
#     8   8   8   8   8   8   8   8
#     4  11  22  34  52  78 104 140 179 212 247 301
#     4  10  17  33  56  78 100 135 180 210 247 305
#     4  11  22  35  50  77 110 137 172 216 257 297
#     4   8  16  28  50  78 102 125 165 216 252 295
#     4  10  19  34  54  80 105 132 168 214 265 304
#     4  10  17  33  56  78 100 135 180 210 247 305
#     4  10  19  34  54  80 105 132 168 214 265 304
#     4   8  16  28  50  78 102 125 165 216 252 295
#
# _framework density 18.381094999999998
#
# number of rings (size 3 to 8) (size 9 to 14) (size 15 to 20)
#    0.000    2.250    2.500    1.500    0.000    0.000 
#    0.000    3.750    0.000    0.000    0.000    0.000 
#    0.000    0.000    0.000    0.000    0.000    0.000 
#
# Total GULP energy -396531.644548 kJ/mol
# GULP energy per Si atom -12391.613892 kJ/mol
# Density = 1.833926 g / cm^3
# Si number density = 18.381095 Si / 1000 Ang^3
#
#
#
# Elastic Constant Matrix: (Units=GPa)
#
#
# Indices 1 2 3 4 5 6 
#
# 1 36.3108 17.7079 3.4096 0.0000 6.3236 0.0000
# 2 17.7079 117.9355 7.1116 0.0000 -1.6360 0.0000
# 3 3.4096 7.1116 42.6624 0.0000 7.3950 0.0000
# 4 0.0000 0.0000 0.0000 18.7444 0.0000 12.3894
# 5 6.3236 -1.6360 7.3950 0.0000 17.1949 0.0000
# 6 0.0000 0.0000 0.0000 12.3894 0.0000 13.1427
#
#
#
# Elastic Compliance Matrix: (Units=1/GPa)
#
#
# Indices 1 2 3 4 5 6 
#
# 1 0.032121 -0.005022 0.000433 0.000000 -0.012477 0.000000
# 2 -0.005022 0.009389 -0.001771 0.000000 0.003502 0.000000
# 3 0.000433 -0.001771 0.025671 0.000000 -0.011368 0.000000
# 4 0.000000 0.000000 0.000000 0.141540 0.000000 -0.133428
# 5 -0.012477 0.003502 -0.011368 0.000000 0.067968 0.000000
# 6 0.000000 0.000000 0.000000 -0.133428 0.000000 0.201869
#
#
# Mechanical properties :
#
#
# Convention : Reuss Voigt Hill
#
# Bulk Modulus (GPa) = 18.36181 28.15186 23.25683
# Shear Modulus (GPa) = 9.81486 21.06170 15.43828
#
# Velocity S-wave (km/s) = 2.31327 3.38869 2.90125
# Velocity P-wave (km/s) = 4.14079 5.53714 4.88907
#
# Compressibility (1/GPa) = 0.05446086
#
# Stress axis : x y z
#
# Youngs Moduli (GPa) = 31.13184 106.51173 38.95461
#
# Poissons Ratio (x) = 0.53492 -0.01686
# Poissons Ratio (y) = 0.15635 0.06897
# Poissons Ratio (z) = -0.01347 0.18859
#
# Static dielectric constant tensor:
#      x y z
#    x 2.994180 0.000000 0.367140 
#    y 0.000000 3.949090 0.000000 
#    z 0.367140 0.000000 3.190930 
# 
# 
# High freq. dielectric constant tensor:
#      x y z
#    x 1.668010 0.000000 0.045850 
#    y 0.000000 1.747040 0.000000 
#    z 0.045850 0.000000 1.691460 
# 
# From -- ./inp_files/63399.got.cif
#   From: 2010.06.25/outbox.cif.g09.slc.cpg/sg15_32_cif.got.tgz:63399.got - 2010.06.28 07:06:18.
