data_PCOD8130244
_publ_section_title
;
Structure prediction by ZEFSAII (Michael W. Deem and Ramdas Pophale) SiO2 
 PCOD8130244
Probable space group: C 2/C
;
_chemical_formula_sum "Si O2"
_cell_formula_units_Z 48
_cell_length_a 28.223292
_cell_length_b 11.318806
_cell_length_c 12.452173
_cell_angle_alpha 90.000000
_cell_angle_beta 47.359929
_cell_angle_gamma 90.000000
_cell_volume 2926.233901
_symmetry_space_group_name_H-M "C 2/C"
_symmetry_group_IT_number 15
_symmetry_cell_setting 'monoclinic'
loop_
_space_group_symop_operation_xyz
x,y,z
-x,y,1/2-z
-x,-y,-z
x,-y,1/2+z
1/2+x,1/2+y,z
1/2-x,1/2+y,1/2-z
1/2-x,1/2-y,-z
1/2+x,1/2-y,1/2+z
loop_
_atom_site_type_symbol
_atom_site_label
_atom_site_fract_x
_atom_site_fract_y
_atom_site_fract_z
Si Si1 0.675207 0.988136 0.910832
Si Si2 0.750243 0.912380 0.600276
Si Si3 0.529608 0.883952 0.817742
Si Si4 0.912915 0.422631 0.124381
Si Si5 0.161178 0.289311 0.579948
Si Si6 0.704705 0.861145 0.068652
O O1 0.736703 0.955788 0.742253
O O2 0.611364 0.990410 0.934067
O O3 0.671025 0.883987 0.005315
O O4 0.681470 0.116579 0.957054
O O5 0.817634 0.841606 0.490859
O O6 0.694546 0.823826 0.641797
O O7 0.750942 0.027911 0.524030
O O8 0.500000 0.919566 0.750000
O O9 0.583935 0.783589 0.717785
O O10 0.564723 0.000333 0.808842
O O11 0.472458 0.844145 0.987492
O O12 0.852280 0.343623 0.255676
O O13 0.750000 0.750000 0.000000
#
# Coordination Sequence:
#
# PCOD8130244 Si02
#       6
#     8   8   8   8   8   8
#     4  10  17  31  48  72 102 132 165 210 256 306
#     4   9  20  32  48  73 103 133 167 204 254 309
#     4  11  18  29  50  71 103 134 170 216 252 303
#     4  10  19  31  45  76 104 128 170 210 266 296
#     4  10  18  33  48  71 104 133 167 208 256 307
#     4  10  20  33  50  76 105 131 168 211 255 306
#
# _framework density 16.403337000000001
#
# number of rings (size 3 to 8) (size 9 to 14) (size 15 to 20)
#    0.000    2.000    6.667    0.000    4.667    0.000 
#    0.000    0.000    0.000    1.000    0.000    5.833 
#    0.000    0.000    0.000    0.000    0.000    0.000 
#
# Total GULP energy -297370.582912 kJ/mol
# GULP energy per Si atom -12390.440955 kJ/mol
# Density = 1.636600 g / cm^3
# Si number density = 16.403337 Si / 1000 Ang^3
#
#
#
# Elastic Constant Matrix: (Units=GPa)
#
#
# Indices 1 2 3 4 5 6 
#
# 1 86.2928 28.6776 50.7964 0.0000 -3.3463 0.0000
# 2 28.6776 68.3226 52.2792 0.0000 -17.8000 0.0000
# 3 50.7964 52.2792 127.2232 0.0000 -22.3593 0.0000
# 4 0.0000 0.0000 0.0000 23.1406 0.0000 -4.1107
# 5 -3.3463 -17.8000 -22.3593 0.0000 32.8797 0.0000
# 6 0.0000 0.0000 0.0000 -4.1107 0.0000 14.8110
#
#
#
# Elastic Compliance Matrix: (Units=1/GPa)
#
#
# Indices 1 2 3 4 5 6 
#
# 1 0.015895 -0.003398 -0.005666 0.000000 -0.004075 0.000000
# 2 -0.003398 0.023311 -0.006889 0.000000 0.007589 0.000000
# 3 -0.005666 -0.006889 0.013852 0.000000 0.005114 0.000000
# 4 0.000000 0.000000 0.000000 0.045455 0.000000 0.012616
# 5 -0.004075 0.007589 0.005114 0.000000 0.037585 0.000000
# 6 0.000000 0.000000 0.000000 0.012616 0.000000 0.071019
#
#
# Mechanical properties :
#
#
# Convention : Reuss Voigt Hill
#
# Bulk Modulus (GPa) = 47.27516 60.59390 53.93453
# Shear Modulus (GPa) = 20.31911 24.17196 22.24554
#
# Velocity S-wave (km/s) = 3.52336 3.84291 3.68660
# Velocity P-wave (km/s) = 6.74056 7.53066 7.14654
#
# Compressibility (1/GPa) = 0.02115276
#
# Stress axis : x y z
#
# Youngs Moduli (GPa) = 62.91243 42.89848 72.19109
#
# Poissons Ratio (x) = 0.14575 0.40907
# Poissons Ratio (y) = 0.21375 0.49730
# Poissons Ratio (z) = 0.35649 0.29551
#
# Static dielectric constant tensor:
#      x y z
#    x 3.269200 0.000000 0.072160 
#    y 0.000000 2.753490 0.000000 
#    z 0.072160 0.000000 3.424920 
# 
# 
# High freq. dielectric constant tensor:
#      x y z
#    x 1.635900 0.000000 0.014090 
#    y 0.000000 1.575350 0.000000 
#    z 0.014090 0.000000 1.643130 
# 
# From -- ./inp_files/110533.got.cif
#   From: 2010.06.25/outbox.cif.g09.slc.cpg/sg15_56_cif.got.tgz:110533.got - 2010.06.28 07:06:18.
