data_PCOD8130071
_publ_section_title
;
Structure prediction by ZEFSAII (Michael W. Deem and Ramdas Pophale) SiO2 
 PCOD8130071
Probable space group: C 2/C
;
_chemical_formula_sum "Si O2"
_cell_formula_units_Z 64
_cell_length_a 18.521077
_cell_length_b 20.864230
_cell_length_c 12.118774
_cell_angle_alpha 90.000000
_cell_angle_beta 46.396554
_cell_angle_gamma 90.000000
_cell_volume 3391.127008
_symmetry_space_group_name_H-M "C 2/C"
_symmetry_group_IT_number 15
_symmetry_cell_setting 'monoclinic'
loop_
_space_group_symop_operation_xyz
x,y,z
-x,y,1/2-z
-x,-y,-z
x,-y,1/2+z
1/2+x,1/2+y,z
1/2-x,1/2+y,1/2-z
1/2-x,1/2-y,-z
1/2+x,1/2-y,1/2+z
loop_
_atom_site_type_symbol
_atom_site_label
_atom_site_fract_x
_atom_site_fract_y
_atom_site_fract_z
Si Si1 0.098814 0.708743 0.199606
Si Si2 0.280443 0.861936 0.328925
Si Si3 0.261083 0.660318 0.280537
Si Si4 0.255996 0.218203 0.650316
Si Si5 0.042241 0.453854 0.323716
Si Si6 0.390934 0.361583 0.847964
Si Si7 0.888469 0.714964 0.887582
Si Si8 0.106559 0.583998 0.329443
O O1 0.144677 0.764312 0.227692
O O2 0.067757 0.646949 0.305529
O O3 0.000000 0.737651 0.250000
O O4 0.178001 0.692288 0.020285
O O5 0.246228 0.840443 0.244509
O O6 0.369871 0.910087 0.225072
O O7 0.189706 0.897180 0.489415
O O8 0.317148 0.799149 0.358329
O O9 0.301720 0.717395 0.159059
O O10 0.352592 0.637521 0.261670
O O11 0.162147 0.683804 0.451300
O O12 0.220247 0.600474 0.249531
O O13 0.092066 0.524608 0.261416
O O14 0.000000 0.434020 0.250000
O O15 0.953544 0.441237 0.501536
O O16 0.500000 0.393691 0.750000
O O17 0.396221 0.290607 0.894065
O O18 0.000000 0.686319 0.750000
#
# Coordination Sequence:
#
# PCOD8130071 Si02
#       8
#     8   8   8   8   8   8   8   8
#     4  10  21  36  52  72 106 145 178 220 264 312
#     4  11  18  32  49  77 110 139 172 224 272 322
#     4  10  17  34  50  75 113 142 180 221 272 320
#     4  10  20  32  49  75 102 140 184 216 258 335
#     4  11  22  36  57  84 110 138 180 216 269 336
#     4  10  19  29  48  78 109 139 174 222 266 318
#     4  10  17  27  48  79 111 140 166 213 274 326
#     4  10  22  37  56  80 108 144 176 221 268 329
#
# _framework density 18.872782000000001
#
# number of rings (size 3 to 8) (size 9 to 14) (size 15 to 20)
#    0.000    1.750    2.500    4.500    0.000    3.000 
#    0.000    0.000    0.000    0.750    0.000    8.750 
#    0.000    0.000    0.000    0.000    0.000    0.000 
#
# Total GULP energy -396579.586343 kJ/mol
# GULP energy per Si atom -12393.112073 kJ/mol
# Density = 1.882983 g / cm^3
# Si number density = 18.872782 Si / 1000 Ang^3
#
#
#
# Elastic Constant Matrix: (Units=GPa)
#
#
# Indices 1 2 3 4 5 6 
#
# 1 140.7508 23.4513 22.2252 0.0000 -0.0497 0.0000
# 2 23.4513 52.4217 4.4657 0.0000 2.9302 0.0000
# 3 22.2252 4.4657 35.4763 0.0000 7.6603 0.0000
# 4 0.0000 0.0000 0.0000 11.6065 0.0000 -10.0460
# 5 -0.0497 2.9302 7.6603 0.0000 28.5209 0.0000
# 6 0.0000 0.0000 0.0000 -10.0460 0.0000 12.0842
#
#
#
# Elastic Compliance Matrix: (Units=1/GPa)
#
#
# Indices 1 2 3 4 5 6 
#
# 1 0.008517 -0.003460 -0.005287 0.000000 0.001790 0.000000
# 2 -0.003460 0.020742 0.000019 0.000000 -0.002142 0.000000
# 3 -0.005287 0.000019 0.033439 0.000000 -0.008992 0.000000
# 4 0.000000 0.000000 0.000000 0.307223 0.000000 0.255404
# 5 0.001790 -0.002142 -0.008992 0.000000 0.037700 0.000000
# 6 0.000000 0.000000 0.000000 0.255404 0.000000 0.295078
#
#
# Mechanical properties :
#
#
# Convention : Reuss Voigt Hill
#
# Bulk Modulus (GPa) = 22.10278 36.54812 29.32545
# Shear Modulus (GPa) = 6.80055 22.34275 14.57165
#
# Velocity S-wave (km/s) = 1.90031 3.44446 2.78168
# Velocity P-wave (km/s) = 4.06839 5.93520 5.08814
#
# Compressibility (1/GPa) = 0.04524317
#
# Stress axis : x y z
#
# Youngs Moduli (GPa) = 117.41792 48.21154 29.90521
#
# Poissons Ratio (x) = 0.16680 0.15809
# Poissons Ratio (y) = 0.40623 -0.00057
# Poissons Ratio (z) = 0.62073 -0.00092
#
# Static dielectric constant tensor:
#      x y z
#    x 3.722410 0.000000 -0.037550 
#    y 0.000000 3.228870 0.000000 
#    z -0.037550 0.000000 3.588400 
# 
# 
# High freq. dielectric constant tensor:
#      x y z
#    x 1.745520 0.000000 0.010360 
#    y 0.000000 1.690490 0.000000 
#    z 0.010360 0.000000 1.724750 
# 
# From -- ./inp_files/107509.got.cif
#   From: 2010.06.25/outbox.cif.g09.slc.cpg/sg15_54_cif.got.tgz:107509.got - 2010.06.28 07:06:18.
