data_PCOD8130227
_publ_section_title
;
Structure prediction by ZEFSAII (Michael W. Deem and Ramdas Pophale) SiO2 
 PCOD8130227
Probable space group: C 2/C
;
_chemical_formula_sum "Si O2"
_cell_formula_units_Z 48
_cell_length_a 13.660194
_cell_length_b 12.729062
_cell_length_c 19.573923
_cell_angle_alpha 90.000000
_cell_angle_beta 134.997434
_cell_angle_gamma 90.000000
_cell_volume 2406.775577
_symmetry_space_group_name_H-M "C 2/C"
_symmetry_group_IT_number 15
_symmetry_cell_setting 'monoclinic'
loop_
_space_group_symop_operation_xyz
x,y,z
-x,y,1/2-z
-x,-y,-z
x,-y,1/2+z
1/2+x,1/2+y,z
1/2-x,1/2+y,1/2-z
1/2-x,1/2-y,-z
1/2+x,1/2-y,1/2+z
loop_
_atom_site_type_symbol
_atom_site_label
_atom_site_fract_x
_atom_site_fract_y
_atom_site_fract_z
Si Si1 0.350783 0.553119 0.916785
Si Si2 0.346366 0.974460 0.795111
Si Si3 0.895298 0.736487 0.142756
Si Si4 0.340486 0.980087 0.566453
Si Si5 0.439703 0.767514 0.903107
Si Si6 0.677283 0.895995 0.082211
O O1 0.268222 0.485782 0.819957
O O2 0.263665 0.555745 0.944577
O O3 0.357320 0.675265 0.899722
O O4 0.500000 0.500000 0.000000
O O5 0.497397 0.000915 0.837811
O O6 0.338260 0.855179 0.819673
O O7 0.313398 0.055550 0.838818
O O8 0.801748 0.640104 0.069009
O O9 0.810902 0.824506 0.140033
O O10 0.000000 0.688438 0.250000
O O11 0.972581 0.785287 0.114975
O O12 0.320057 0.987948 0.474293
O O13 0.538180 0.827075 0.005868
#
# Coordination Sequence:
#
# PCOD8130227 Si02
#       6
#     8   8   8   8   8   8
#     4  12  23  36  59  91 118 144 189 246 286 324
#     4  10  22  41  60  82 115 157 191 226 283 350
#     4  10  17  30  55  84 111 144 185 234 285 334
#     4  10  20  37  57  81 112 151 191 230 281 344
#     4  10  21  36  57  86 113 147 190 234 284 337
#     4  10  19  36  59  82 112 149 192 234 278 337
#
# _framework density 19.943695999999999
#
# number of rings (size 3 to 8) (size 9 to 14) (size 15 to 20)
#    0.000    2.000    0.000    9.500    0.000    1.333 
#    0.000    3.333    0.000   10.000    0.000    0.000 
#    0.000    0.000    0.000    0.000    0.000    0.000 
#
# Total GULP energy -297532.675671 kJ/mol
# GULP energy per Si atom -12397.194820 kJ/mol
# Density = 1.989830 g / cm^3
# Si number density = 19.943696 Si / 1000 Ang^3
#
#
#
# Elastic Constant Matrix: (Units=GPa)
#
#
# Indices 1 2 3 4 5 6 
#
# 1 118.5073 49.8900 24.8086 0.0000 4.1231 0.0000
# 2 49.8900 78.6536 3.8894 0.0000 9.3436 0.0000
# 3 24.8086 3.8894 88.8876 0.0000 3.5134 0.0000
# 4 0.0000 0.0000 0.0000 17.1760 0.0000 -0.8361
# 5 4.1231 9.3436 3.5134 0.0000 20.8953 0.0000
# 6 0.0000 0.0000 0.0000 -0.8361 0.0000 40.2249
#
#
#
# Elastic Compliance Matrix: (Units=1/GPa)
#
#
# Indices 1 2 3 4 5 6 
#
# 1 0.012361 -0.007876 -0.003169 0.000000 0.001616 0.000000
# 2 -0.007876 0.018456 0.001666 0.000000 -0.006979 0.000000
# 3 -0.003169 0.001666 0.012147 0.000000 -0.002162 0.000000
# 4 0.000000 0.000000 0.000000 0.058280 0.000000 0.001211
# 5 0.001616 -0.006979 -0.002162 0.000000 0.051023 0.000000
# 6 0.000000 0.000000 0.000000 0.001211 0.000000 0.024885
#
#
# Mechanical properties :
#
#
# Convention : Reuss Voigt Hill
#
# Bulk Modulus (GPa) = 41.30977 49.24716 45.27846
# Shear Modulus (GPa) = 24.51225 29.48994 27.00109
#
# Velocity S-wave (km/s) = 3.50962 3.84951 3.68348
# Velocity P-wave (km/s) = 6.09765 6.67120 6.39087
#
# Compressibility (1/GPa) = 0.02420735
#
# Stress axis : x y z
#
# Youngs Moduli (GPa) = 80.89834 54.18198 82.32315
#
# Poissons Ratio (x) = 0.42673 0.26090
# Poissons Ratio (y) = 0.63715 -0.13719
# Poissons Ratio (z) = 0.25639 -0.09029
#
# Static dielectric constant tensor:
#      x y z
#    x 3.706550 0.000000 -0.118560 
#    y 0.000000 3.400380 0.000000 
#    z -0.118560 0.000000 3.688180 
# 
# 
# High freq. dielectric constant tensor:
#      x y z
#    x 1.775100 0.000000 -0.010800 
#    y 0.000000 1.753010 0.000000 
#    z -0.010800 0.000000 1.785290 
# 
# From -- ./inp_files/243974.got.cif
#   From: 2010.06.25/outbox.cif.g09.slc.cpg/sg15_122_cif.got.tgz:243974.got - 2010.06.28 07:06:18.
