data_PCOD8130893
_publ_section_title
;
Structure prediction by ZEFSAII (Michael W. Deem and Ramdas Pophale) SiO2 
 PCOD8130893
Probable space group: C 2/C
;
_chemical_formula_sum "Si O2"
_cell_formula_units_Z 52
_cell_length_a 13.732525
_cell_length_b 22.348274
_cell_length_c 11.735443
_cell_angle_alpha 90.000000
_cell_angle_beta 55.471805
_cell_angle_gamma 90.000000
_cell_volume 2967.157706
_symmetry_space_group_name_H-M "C 2/C"
_symmetry_group_IT_number 15
_symmetry_cell_setting 'monoclinic'
loop_
_space_group_symop_operation_xyz
x,y,z
-x,y,1/2-z
-x,-y,-z
x,-y,1/2+z
1/2+x,1/2+y,z
1/2-x,1/2+y,1/2-z
1/2-x,1/2-y,-z
1/2+x,1/2-y,1/2+z
loop_
_atom_site_type_symbol
_atom_site_label
_atom_site_fract_x
_atom_site_fract_y
_atom_site_fract_z
Si Si1 0.544677 0.658984 0.846355
Si Si2 0.596591 0.794213 0.782764
Si Si3 0.297706 0.375419 0.572582
Si Si4 0.163787 0.522642 0.284273
Si Si5 0.000000 0.558856 0.750000
Si Si6 0.013770 0.613800 0.509724
Si Si7 0.245700 0.587938 0.852003
O O1 0.500000 0.648073 0.750000
O O2 0.596734 0.725668 0.820278
O O3 0.652569 0.613875 0.799157
O O4 0.434153 0.644534 0.003261
O O5 0.500000 0.809112 0.750000
O O6 0.720877 0.815526 0.646414
O O7 0.575680 0.828445 0.915503
O O8 0.260285 0.428974 0.680781
O O9 0.279944 0.401607 0.459183
O O10 0.110310 0.481657 0.218825
O O11 0.050489 0.555336 0.413311
O O12 0.229667 0.482158 0.334714
O O13 0.950731 0.602158 0.882566
O O14 0.873996 0.623568 0.594227
#
# Coordination Sequence:
#
# PCOD8130893 Si02
#       7
#     8   8   8   8   4   8   8
#     4   9  21  31  47  74 100 133 163 199 251 301
#     4  10  19  31  52  75 100 130 163 205 253 287
#     4  10  19  32  48  74 105 128 162 203 248 300
#     4  10  19  30  51  74  99 131 160 209 246 292
#     4  10  18  30  48  78 102 120 170 202 248 292
#     4  10  19  30  51  76  98 131 161 206 251 287
#     4  10  18  31  48  72 102 130 163 198 255 293
#
# _framework density 17.525189000000001
#
# number of rings (size 3 to 8) (size 9 to 14) (size 15 to 20)
#    0.000    2.154    1.538    3.692    4.308    2.462 
#    0.000    0.000    0.000    3.692    4.000    0.000 
#    0.000    0.000    0.000    0.000    0.000    0.000 
#
# Total GULP energy -322254.192662 kJ/mol
# GULP energy per Si atom -12394.392025 kJ/mol
# Density = 1.748530 g / cm^3
# Si number density = 17.525189 Si / 1000 Ang^3
#
#
#
# Elastic Constant Matrix: (Units=GPa)
#
#
# Indices 1 2 3 4 5 6 
#
# 1 50.1859 40.0602 38.6836 0.0000 -16.1719 0.0000
# 2 40.0602 81.9092 34.5593 0.0000 -14.9552 0.0000
# 3 38.6836 34.5593 91.3453 0.0000 -18.3994 0.0000
# 4 0.0000 0.0000 0.0000 20.7780 0.0000 -7.0978
# 5 -16.1719 -14.9552 -18.3994 0.0000 39.1591 0.0000
# 6 0.0000 0.0000 0.0000 -7.0978 0.0000 11.2398
#
#
#
# Elastic Compliance Matrix: (Units=1/GPa)
#
#
# Indices 1 2 3 4 5 6 
#
# 1 0.042445 -0.014903 -0.010993 0.000000 0.006672 0.000000
# 2 -0.014903 0.020151 -0.001107 0.000000 0.001021 0.000000
# 3 -0.010993 -0.001107 0.016592 0.000000 0.002834 0.000000
# 4 0.000000 0.000000 0.000000 0.061366 0.000000 0.038752
# 5 0.006672 0.001021 0.002834 0.000000 0.030014 0.000000
# 6 0.000000 0.000000 0.000000 0.038752 0.000000 0.113441
#
#
# Mechanical properties :
#
#
# Convention : Reuss Voigt Hill
#
# Bulk Modulus (GPa) = 39.70880 50.00518 44.85699
# Shear Modulus (GPa) = 14.43383 21.57788 18.00585
#
# Velocity S-wave (km/s) = 2.87296 3.51272 3.20883
# Velocity P-wave (km/s) = 5.80625 6.71175 6.27535
#
# Compressibility (1/GPa) = 0.02518334
#
# Stress axis : x y z
#
# Youngs Moduli (GPa) = 23.55977 49.62592 60.26875
#
# Poissons Ratio (x) = 0.73956 0.66252
# Poissons Ratio (y) = 0.35111 0.06672
# Poissons Ratio (z) = 0.25899 0.05493
#
# Static dielectric constant tensor:
#      x y z
#    x 3.131070 0.000000 -0.276750 
#    y 0.000000 3.286900 0.000000 
#    z -0.276750 0.000000 3.566660 
# 
# 
# High freq. dielectric constant tensor:
#      x y z
#    x 1.643160 0.000000 -0.018220 
#    y 0.000000 1.676250 0.000000 
#    z -0.018220 0.000000 1.682180 
# 
# From -- ./inp_files/89484.got.cif
#   From: 2010.06.25/outbox.cif.g09.slc.cpg/sg15_45_cif.got.tgz:89484.got - 2010.06.28 07:06:18.
