data_PCOD8130818
_publ_section_title
;
Structure prediction by ZEFSAII (Michael W. Deem and Ramdas Pophale) SiO2 
 PCOD8130818
Probable space group: C 2/C
;
_chemical_formula_sum "Si O2"
_cell_formula_units_Z 48
_cell_length_a 15.110814
_cell_length_b 26.615027
_cell_length_c 11.468069
_cell_angle_alpha 90.000000
_cell_angle_beta 29.748892
_cell_angle_gamma 90.000000
_cell_volume 2288.556180
_symmetry_space_group_name_H-M "C 2/C"
_symmetry_group_IT_number 15
_symmetry_cell_setting 'monoclinic'
loop_
_space_group_symop_operation_xyz
x,y,z
-x,y,1/2-z
-x,-y,-z
x,-y,1/2+z
1/2+x,1/2+y,z
1/2-x,1/2+y,1/2-z
1/2-x,1/2-y,-z
1/2+x,1/2-y,1/2+z
loop_
_atom_site_type_symbol
_atom_site_label
_atom_site_fract_x
_atom_site_fract_y
_atom_site_fract_z
Si Si1 0.143413 0.907978 0.338431
Si Si2 0.332714 0.195759 0.279734
Si Si3 0.760935 0.694496 0.622070
Si Si4 0.576123 0.958923 0.325300
Si Si5 0.250346 0.402531 0.745068
Si Si6 0.702781 0.535508 0.538017
O O1 0.149112 0.848140 0.315120
O O2 0.257474 0.926951 0.315798
O O3 0.226185 0.935913 0.131982
O O4 0.933887 0.920040 0.596650
O O5 0.305055 0.251232 0.258101
O O6 0.223452 0.190738 0.525951
O O7 0.260805 0.157176 0.264567
O O8 0.536414 0.185041 0.075373
O O9 0.413029 0.920698 0.484720
O O10 0.500000 0.000000 0.500000
O O11 0.661966 0.987601 0.115327
O O12 0.235566 0.427240 0.634615
O O13 0.500000 0.517534 0.750000
#
# Coordination Sequence:
#
# PCOD8130818 Si02
#       6
#     8   8   8   8   8   8
#     4  11  20  35  54  72 107 147 174 215 270 301
#     4  10  18  29  45  76 103 139 184 206 249 318
#     4  10  19  28  49  71 105 145 176 209 253 316
#     4  10  22  35  51  75 102 140 183 223 258 314
#     4  10  19  32  50  72 104 137 177 215 254 307
#     4   9  20  34  53  73 100 141 182 217 262 314
#
# _framework density 20.973921000000001
#
# number of rings (size 3 to 8) (size 9 to 14) (size 15 to 20)
#    0.000    2.000    3.333    1.000    0.000   10.000 
#    0.000    1.667    0.000    0.000    0.000    0.000 
#    0.000    1.333    2.000    2.667    0.667    0.000 
#
# Total GULP energy -297540.397041 kJ/mol
# GULP energy per Si atom -12397.516543 kJ/mol
# Density = 2.092618 g / cm^3
# Si number density = 20.973921 Si / 1000 Ang^3
#
#
#
# Elastic Constant Matrix: (Units=GPa)
#
#
# Indices 1 2 3 4 5 6 
#
# 1 36.4788 20.9309 22.7766 -0.0016 -22.1879 0.0012
# 2 20.9309 133.8865 49.5876 0.0026 -5.7420 -0.0021
# 3 22.7766 49.5876 87.5112 0.0109 -22.1478 -0.0020
# 4 -0.0016 0.0026 0.0109 35.1406 -0.0008 -5.5863
# 5 -22.1879 -5.7420 -22.1478 -0.0008 24.4216 -0.0014
# 6 0.0012 -0.0021 -0.0020 -5.5863 -0.0014 24.3225
#
#
#
# Elastic Compliance Matrix: (Units=1/GPa)
#
#
# Indices 1 2 3 4 5 6 
#
# 1 0.069795 -0.009435 0.003462 0.000004 0.064333 0.000001
# 2 -0.009435 0.010954 -0.006838 0.000001 -0.012198 0.000000
# 3 0.003462 -0.006838 0.019196 -0.000005 0.018946 0.000001
# 4 0.000004 0.000001 -0.000005 0.029536 0.000001 0.006784
# 5 0.064333 -0.012198 0.018946 0.000001 0.113711 0.000004
# 6 0.000001 0.000000 0.000001 0.006784 0.000004 0.042672
#
#
# Mechanical properties :
#
#
# Convention : Reuss Voigt Hill
#
# Bulk Modulus (GPa) = 13.45475 49.38519 31.41997
# Shear Modulus (GPa) = 14.86948 27.74902 21.30925
#
# Velocity S-wave (km/s) = 2.66550 3.64129 3.19091
# Velocity P-wave (km/s) = 3.98775 6.42462 5.34686
#
# Compressibility (1/GPa) = 0.07432319
#
# Stress axis : x y z
#
# Youngs Moduli (GPa) = 14.32766 91.29484 52.09433
#
# Poissons Ratio (x) = 0.86132 -0.18036
# Poissons Ratio (y) = 0.13517 0.35624
# Poissons Ratio (z) = -0.04960 0.62430
#
# Static dielectric constant tensor:
#      x y z
#    x 3.347830 0.000000 -0.311660 
#    y 0.000000 3.984910 0.000010 
#    z -0.311660 0.000010 4.019930 
# 
# 
# High freq. dielectric constant tensor:
#      x y z
#    x 1.779350 0.000000 -0.043530 
#    y 0.000000 1.826870 0.000000 
#    z -0.043530 0.000000 1.814860 
# 
# From -- ./inp_files/32530.got.cif
#   From: 2010.06.25/outbox.cif.g09.slc.cpg/sg15_17_cif.got.tgz:32530.got - 2010.06.28 07:06:18.
