data_PCOD8130739
_publ_section_title
;
Structure prediction by ZEFSAII (Michael W. Deem and Ramdas Pophale) SiO2 
 PCOD8130739
Probable space group: C 2/C
;
_chemical_formula_sum "Si O2"
_cell_formula_units_Z 44
_cell_length_a 18.828594
_cell_length_b 13.635573
_cell_length_c 9.407415
_cell_angle_alpha 90.000000
_cell_angle_beta 93.590926
_cell_angle_gamma 90.000000
_cell_volume 2410.505245
_symmetry_space_group_name_H-M "C 2/C"
_symmetry_group_IT_number 15
_symmetry_cell_setting 'monoclinic'
loop_
_space_group_symop_operation_xyz
x,y,z
-x,y,1/2-z
-x,-y,-z
x,-y,1/2+z
1/2+x,1/2+y,z
1/2-x,1/2+y,1/2-z
1/2-x,1/2-y,-z
1/2+x,1/2-y,1/2+z
loop_
_atom_site_type_symbol
_atom_site_label
_atom_site_fract_x
_atom_site_fract_y
_atom_site_fract_z
Si Si1 0.209658 0.100497 0.501254
Si Si2 0.010939 0.718905 0.095182
Si Si3 0.427902 0.734806 0.327104
Si Si4 0.634790 0.469037 0.722558
Si Si5 0.000000 0.908072 0.250000
Si Si6 0.353112 0.190874 0.555152
O O1 0.193583 0.054103 0.347519
O O2 0.295071 0.104834 0.533765
O O3 0.177862 0.208567 0.510067
O O4 0.174360 0.035163 0.615650
O O5 0.000000 0.669246 0.250000
O O6 0.018150 0.837602 0.116861
O O7 0.944469 0.707487 0.976919
O O8 0.079166 0.666819 0.035027
O O9 0.500000 0.713386 0.250000
O O10 0.391429 0.630645 0.356191
O O11 0.375766 0.800591 0.223406
O O12 0.568345 0.524375 0.787845
#
# Coordination Sequence:
#
# PCOD8130739 Si02
#       6
#     8   8   8   8   4   8
#     4  10  20  32  47  69 102 141 165 193 242 299
#     4   9  17  29  47  75  97 122 163 204 247 281
#     4   9  17  28  48  74  99 131 163 196 246 292
#     4  11  19  29  48  73 105 134 160 195 245 299
#     4  10  18  26  48  76 108 120 156 208 238 294
#     4   9  18  33  47  68 103 135 167 198 238 300
#
# _framework density 18.253435
#
# number of rings (size 3 to 8) (size 9 to 14) (size 15 to 20)
#    0.545    1.818    2.727    1.091    0.000    1.455 
#    0.000    1.818    0.000    7.636    0.000   16.545 
#    0.000    0.000    0.000    0.000    0.000    0.000 
#
# Total GULP energy -272649.507289 kJ/mol
# GULP energy per Si atom -12393.159422 kJ/mol
# Density = 1.821189 g / cm^3
# Si number density = 18.253435 Si / 1000 Ang^3
#
#
#
# Elastic Constant Matrix: (Units=GPa)
#
#
# Indices 1 2 3 4 5 6 
#
# 1 125.6509 30.4054 55.7153 0.0000 16.3456 0.0000
# 2 30.4054 16.3885 23.7269 0.0000 4.5050 0.0000
# 3 55.7153 23.7269 103.5048 0.0000 9.2432 0.0000
# 4 0.0000 0.0000 0.0000 5.7857 0.0000 2.3178
# 5 16.3456 4.5050 9.2432 0.0000 27.0222 0.0000
# 6 0.0000 0.0000 0.0000 2.3178 0.0000 29.2269
#
#
#
# Elastic Compliance Matrix: (Units=1/GPa)
#
#
# Indices 1 2 3 4 5 6 
#
# 1 0.015371 -0.023773 -0.002422 0.000000 -0.004506 0.000000
# 2 -0.023773 0.129945 -0.016856 0.000000 -0.001518 0.000000
# 3 -0.002422 -0.016856 0.014903 0.000000 -0.000822 0.000000
# 4 0.000000 0.000000 0.000000 0.178510 0.000000 -0.014156
# 5 -0.004506 -0.001518 -0.000822 0.000000 0.040267 0.000000
# 6 0.000000 0.000000 0.000000 -0.014156 0.000000 0.035338
#
#
# Mechanical properties :
#
#
# Convention : Reuss Voigt Hill
#
# Bulk Modulus (GPa) = 13.49214 51.69328 32.59271
# Shear Modulus (GPa) = 9.52126 21.45340 15.48733
#
# Velocity S-wave (km/s) = 2.28637 3.43200 2.91600
# Velocity P-wave (km/s) = 3.79178 6.63973 5.40664
#
# Compressibility (1/GPa) = 0.07411722
#
# Stress axis : x y z
#
# Youngs Moduli (GPa) = 65.05552 7.69557 67.10244
#
# Poissons Ratio (x) = 0.18295 0.16254
# Poissons Ratio (y) = 1.54656 1.13105
# Poissons Ratio (z) = 0.15758 0.12971
#
# Static dielectric constant tensor:
#      x y z
#    x 3.556850 0.000000 0.281860 
#    y 0.000000 2.948880 0.000000 
#    z 0.281860 0.000000 3.358940 
# 
# 
# High freq. dielectric constant tensor:
#      x y z
#    x 1.706700 0.000000 0.015530 
#    y 0.000000 1.660420 0.000000 
#    z 0.015530 0.000000 1.707620 
# 
# From -- ./inp_files/47068.got.cif
#   From: 2010.06.25/outbox.cif.g09.slc.cpg/sg15_24_cif.got.tgz:47068.got - 2010.06.28 07:06:18.
