data_PCOD8130372
_publ_section_title
;
Structure prediction by ZEFSAII (Michael W. Deem and Ramdas Pophale) SiO2 
 PCOD8130372
Probable space group: C 2/C
;
_chemical_formula_sum "Si O2"
_cell_formula_units_Z 56
_cell_length_a 16.058507
_cell_length_b 18.079610
_cell_length_c 12.694145
_cell_angle_alpha 90.000000
_cell_angle_beta 58.147188
_cell_angle_gamma 90.000000
_cell_volume 3130.497177
_symmetry_space_group_name_H-M "C 2/C"
_symmetry_group_IT_number 15
_symmetry_cell_setting 'monoclinic'
loop_
_space_group_symop_operation_xyz
x,y,z
-x,y,1/2-z
-x,-y,-z
x,-y,1/2+z
1/2+x,1/2+y,z
1/2-x,1/2+y,1/2-z
1/2-x,1/2-y,-z
1/2+x,1/2-y,1/2+z
loop_
_atom_site_type_symbol
_atom_site_label
_atom_site_fract_x
_atom_site_fract_y
_atom_site_fract_z
Si Si1 0.548669 0.060761 0.040071
Si Si2 0.149077 0.369927 0.817839
Si Si3 0.273523 0.921657 0.217936
Si Si4 0.211405 0.777299 0.365363
Si Si5 0.212774 0.047252 0.128713
Si Si6 0.680928 0.018615 0.128376
Si Si7 0.612122 0.695226 0.149813
O O1 0.467965 0.123290 0.114482
O O2 0.580921 0.025119 0.129350
O O3 0.646298 0.097003 0.924913
O O4 0.500000 0.000000 0.000000
O O5 0.169923 0.283644 0.813538
O O6 0.187534 0.411642 0.898281
O O7 0.201732 0.404539 0.678346
O O8 0.216427 0.849337 0.290163
O O9 0.193029 0.981533 0.226994
O O10 0.334742 0.954946 0.274610
O O11 0.318595 0.752435 0.334058
O O12 0.136284 0.794261 0.510556
O O13 0.128893 0.109694 0.175204
O O14 0.228784 0.007603 0.005306
O O15 0.500000 0.715978 0.250000
#
# Coordination Sequence:
#
# PCOD8130372 Si02
#       7
#     8   8   8   8   8   8   8
#     4  11  19  29  51  87 108 139 187 227 271 334
#     4  10  20  32  51  78 117 147 177 225 278 338
#     4  10  20  33  55  79 114 143 180 227 282 328
#     4  10  22  38  52  81 118 146 176 229 286 335
#     4   9  18  35  54  78 106 141 189 228 268 321
#     4  10  17  32  54  78 108 145 175 229 276 314
#     4  10  21  37  59  80 109 146 188 227 279 329
#
# _framework density 17.888532000000001
#
# number of rings (size 3 to 8) (size 9 to 14) (size 15 to 20)
#    0.000    2.000    5.714    0.429    2.000    0.000 
#    0.000    3.571    0.000    1.714    0.000    0.000 
#    0.000    0.000    0.000    0.000    0.000    0.000 
#
# Total GULP energy -346957.402239 kJ/mol
# GULP energy per Si atom -12391.335794 kJ/mol
# Density = 1.784782 g / cm^3
# Si number density = 17.888532 Si / 1000 Ang^3
#
#
#
# Elastic Constant Matrix: (Units=GPa)
#
#
# Indices 1 2 3 4 5 6 
#
# 1 58.9207 32.7708 30.8031 0.0000 0.8326 0.0000
# 2 32.7708 125.0670 44.8539 0.0000 7.6757 0.0000
# 3 30.8031 44.8539 85.9779 0.0000 1.6660 0.0000
# 4 0.0000 0.0000 0.0000 31.3832 0.0000 4.8221
# 5 0.8326 7.6757 1.6660 0.0000 30.9747 0.0000
# 6 0.0000 0.0000 0.0000 4.8221 0.0000 22.5771
#
#
#
# Elastic Compliance Matrix: (Units=1/GPa)
#
#
# Indices 1 2 3 4 5 6 
#
# 1 0.022165 -0.003684 -0.006032 0.000000 0.000642 0.000000
# 2 -0.003684 0.010595 -0.004163 0.000000 -0.002303 0.000000
# 3 -0.006032 -0.004163 0.015957 0.000000 0.000335 0.000000
# 4 0.000000 0.000000 0.000000 0.032945 0.000000 -0.007037
# 5 0.000642 -0.002303 0.000335 0.000000 0.032820 0.000000
# 6 0.000000 0.000000 0.000000 -0.007037 0.000000 0.045796
#
#
# Mechanical properties :
#
#
# Convention : Reuss Voigt Hill
#
# Bulk Modulus (GPa) = 47.70906 54.09125 50.90016
# Shear Modulus (GPa) = 25.63808 27.75617 26.69712
#
# Velocity S-wave (km/s) = 3.78989 3.94333 3.86737
# Velocity P-wave (km/s) = 6.77341 7.14400 6.96117
#
# Compressibility (1/GPa) = 0.02096038
#
# Stress axis : x y z
#
# Youngs Moduli (GPa) = 45.11590 94.38075 62.66799
#
# Poissons Ratio (x) = 0.34771 0.37798
# Poissons Ratio (y) = 0.16621 0.26089
# Poissons Ratio (z) = 0.27212 0.39291
#
# Static dielectric constant tensor:
#      x y z
#    x 3.254100 0.000000 0.190610 
#    y 0.000000 3.379550 0.000000 
#    z 0.190610 0.000000 3.437540 
# 
# 
# High freq. dielectric constant tensor:
#      x y z
#    x 1.667870 0.000000 0.021990 
#    y 0.000000 1.683200 0.000000 
#    z 0.021990 0.000000 1.687210 
# 
# From -- ./inp_files/98686.got.cif
#   From: 2010.06.25/outbox.cif.g09.slc.cpg/sg15_50_cif.got.tgz:98686.got - 2010.06.28 07:06:18.
