data_PCOD8130008
_publ_section_title
;
Structure prediction by ZEFSAII (Michael W. Deem and Ramdas Pophale) SiO2 
 PCOD8130008
Probable space group: C 2/C
;
_chemical_formula_sum "Si O2"
_cell_formula_units_Z 52
_cell_length_a 16.331222
_cell_length_b 13.469802
_cell_length_c 18.555265
_cell_angle_alpha 90.000000
_cell_angle_beta 139.662215
_cell_angle_gamma 90.000000
_cell_volume 2642.090540
_symmetry_space_group_name_H-M "C 2/C"
_symmetry_group_IT_number 15
_symmetry_cell_setting 'monoclinic'
loop_
_space_group_symop_operation_xyz
x,y,z
-x,y,1/2-z
-x,-y,-z
x,-y,1/2+z
1/2+x,1/2+y,z
1/2-x,1/2+y,1/2-z
1/2-x,1/2-y,-z
1/2+x,1/2-y,1/2+z
loop_
_atom_site_type_symbol
_atom_site_label
_atom_site_fract_x
_atom_site_fract_y
_atom_site_fract_z
Si Si1 0.727233 0.887848 0.613970
Si Si2 0.000000 0.918354 0.250000
Si Si3 0.916870 0.098242 0.947838
Si Si4 0.292957 0.599091 0.712322
Si Si5 0.056194 0.256027 0.219146
Si Si6 0.033965 0.692785 0.550433
Si Si7 0.361670 0.420304 0.568208
O O1 0.800736 0.785480 0.680055
O O2 0.586628 0.874184 0.551456
O O3 0.735427 0.902663 0.532182
O O4 0.789000 0.980933 0.696086
O O5 0.100958 0.854285 0.270778
O O6 0.074212 0.978086 0.362293
O O7 0.826941 0.114521 0.818780
O O8 0.829499 0.084836 0.961133
O O9 0.012619 0.191719 0.017517
O O10 0.000000 0.000000 0.000000
O O11 0.161953 0.651481 0.600528
O O12 0.048755 0.325560 0.145409
O O13 0.000000 0.317060 0.250000
O O14 0.964104 0.162435 0.152989
#
# Coordination Sequence:
#
# PCOD8130008 Si02
#       7
#     8   4   8   8   8   8   8
#     4  10  19  36  56  79 115 148 176 217 280 334
#     4  10  16  36  60  76 102 146 196 214 260 322
#     4  11  21  36  58  84 107 145 188 223 265 325
#     4  11  21  37  58  79 110 146 184 230 271 321
#     4   9  16  31  52  78 113 143 173 212 263 333
#     4  11  23  32  52  90 114 137 180 230 282 319
#     4   9  16  32  58  82 102 145 184 216 258 332
#
# _framework density 19.681384000000001
#
# number of rings (size 3 to 8) (size 9 to 14) (size 15 to 20)
#    0.000    1.846    5.385    2.308    0.000    6.769 
#    0.000    0.769    0.000    0.000    0.000    0.000 
#    0.000    0.000    0.000    0.000    0.000    0.000 
#
# Total GULP energy -322122.032011 kJ/mol
# GULP energy per Si atom -12389.308923 kJ/mol
# Density = 1.963659 g / cm^3
# Si number density = 19.681384 Si / 1000 Ang^3
#
#
#
# Elastic Constant Matrix: (Units=GPa)
#
#
# Indices 1 2 3 4 5 6 
#
# 1 113.2436 18.4333 51.7572 0.0000 4.9978 0.0000
# 2 18.4333 38.0700 10.3032 0.0000 3.2374 0.0000
# 3 51.7572 10.3032 76.9634 0.0000 2.3209 0.0000
# 4 0.0000 0.0000 0.0000 18.2413 0.0000 0.3414
# 5 4.9978 3.2374 2.3209 0.0000 43.7220 0.0000
# 6 0.0000 0.0000 0.0000 0.3414 0.0000 22.5887
#
#
#
# Elastic Compliance Matrix: (Units=1/GPa)
#
#
# Indices 1 2 3 4 5 6 
#
# 1 0.013390 -0.004136 -0.008427 0.000000 -0.000777 0.000000
# 2 -0.004136 0.028679 -0.001009 0.000000 -0.001597 0.000000
# 3 -0.008427 -0.001009 0.018794 0.000000 0.000040 0.000000
# 4 0.000000 0.000000 0.000000 0.054836 0.000000 -0.000829
# 5 -0.000777 -0.001597 0.000040 0.000000 0.023077 0.000000
# 6 0.000000 0.000000 0.000000 -0.000829 0.000000 0.044283
#
#
# Mechanical properties :
#
#
# Convention : Reuss Voigt Hill
#
# Bulk Modulus (GPa) = 29.65858 43.25156 36.45507
# Shear Modulus (GPa) = 22.57904 26.76261 24.67082
#
# Velocity S-wave (km/s) = 3.39075 3.69154 3.54434
# Velocity P-wave (km/s) = 5.51649 6.33984 5.94244
#
# Compressibility (1/GPa) = 0.03371705
#
# Stress axis : x y z
#
# Youngs Moduli (GPa) = 74.68388 34.86839 53.20730
#
# Poissons Ratio (x) = 0.14423 0.44840
# Poissons Ratio (y) = 0.30892 0.05371
# Poissons Ratio (z) = 0.62939 0.03520
#
# Static dielectric constant tensor:
#      x y z
#    x 4.430120 0.000000 -0.268750 
#    y 0.000000 3.209960 0.000000 
#    z -0.268750 0.000000 3.571440 
# 
# 
# High freq. dielectric constant tensor:
#      x y z
#    x 1.776670 0.000000 -0.000560 
#    y 0.000000 1.724980 0.000000 
#    z -0.000560 0.000000 1.756360 
# 
# From -- ./inp_files/205789.got.cif
#   From: 2010.06.25/outbox.cif.g09.slc.cpg/sg15_103_cif.got.tgz:205789.got - 2010.06.28 07:06:18.
