data_PCOD8130230
_publ_section_title
;
Structure prediction by ZEFSAII (Michael W. Deem and Ramdas Pophale) SiO2 
 PCOD8130230
Probable space group: C 2/C
;
_chemical_formula_sum "Si O2"
_cell_formula_units_Z 56
_cell_length_a 15.137146
_cell_length_b 8.745965
_cell_length_c 23.413648
_cell_angle_alpha 90.000000
_cell_angle_beta 119.288878
_cell_angle_gamma 90.000000
_cell_volume 2703.454733
_symmetry_space_group_name_H-M "C 2/C"
_symmetry_group_IT_number 15
_symmetry_cell_setting 'monoclinic'
loop_
_space_group_symop_operation_xyz
x,y,z
-x,y,1/2-z
-x,-y,-z
x,-y,1/2+z
1/2+x,1/2+y,z
1/2-x,1/2+y,1/2-z
1/2-x,1/2-y,-z
1/2+x,1/2-y,1/2+z
loop_
_atom_site_type_symbol
_atom_site_label
_atom_site_fract_x
_atom_site_fract_y
_atom_site_fract_z
Si Si1 0.922466 0.408354 0.117137
Si Si2 0.005366 0.152043 0.073512
Si Si3 0.667648 0.871684 0.990243
Si Si4 0.287588 0.174559 0.874171
Si Si5 0.865753 0.427771 0.827707
Si Si6 0.964870 0.807760 0.431996
Si Si7 0.113349 0.611602 0.293026
O O1 0.940491 0.230937 0.104936
O O2 0.894122 0.448723 0.174440
O O3 0.026986 0.489331 0.134469
O O4 0.831930 0.478156 0.049614
O O5 0.121030 0.207998 0.107798
O O6 0.946744 0.182728 0.994741
O O7 0.012678 0.972853 0.088174
O O8 0.688376 0.922601 0.061415
O O9 0.750000 0.750000 0.000000
O O10 0.560141 0.794710 0.948781
O O11 0.182504 0.267156 0.848845
O O12 0.279837 0.044065 0.823452
O O13 0.871158 0.272435 0.867979
O O14 0.834465 0.401775 0.752197
O O15 0.000000 0.679131 0.250000
#
# Coordination Sequence:
#
# PCOD8130230 Si02
#       7
#     8   8   8   8   8   8   8
#     4   9  17  33  55  80 107 144 181 226 288 332
#     4   9  18  33  57  81 113 142 177 234 290 342
#     4  10  17  30  56  81 107 135 183 233 271 343
#     4  10  19  33  56  80 103 144 192 227 281 337
#     4   9  19  33  54  77 107 148 190 225 270 343
#     4   9  18  33  54  83 112 141 179 228 286 336
#     4  10  20  34  55  79 109 145 190 239 282 331
#
# _framework density 20.714234999999999
#
# number of rings (size 3 to 8) (size 9 to 14) (size 15 to 20)
#    0.000    2.571    1.429    0.857    0.000    4.571 
#    0.000    0.714    6.286   19.714    0.000    0.000 
#    0.000    0.000    0.000    0.000    0.000    0.000 
#
# Total GULP energy -346888.634934 kJ/mol
# GULP energy per Si atom -12388.879819 kJ/mol
# Density = 2.066709 g / cm^3
# Si number density = 20.714235 Si / 1000 Ang^3
#
#
#
# Elastic Constant Matrix: (Units=GPa)
#
#
# Indices 1 2 3 4 5 6 
#
# 1 41.0853 15.2038 30.8809 0.0000 -12.2032 0.0000
# 2 15.2038 100.1044 50.9204 0.0000 -16.9387 0.0000
# 3 30.8809 50.9204 97.4208 0.0000 -8.4940 0.0000
# 4 0.0000 0.0000 0.0000 12.4350 0.0000 -8.3019
# 5 -12.2032 -16.9387 -8.4940 0.0000 19.6287 0.0000
# 6 0.0000 0.0000 0.0000 -8.3019 0.0000 33.1150
#
#
#
# Elastic Compliance Matrix: (Units=1/GPa)
#
#
# Indices 1 2 3 4 5 6 
#
# 1 0.038902 0.004313 -0.012629 0.000000 0.022442 0.000000
# 2 0.004313 0.015811 -0.008530 0.000000 0.012635 0.000000
# 3 -0.012629 -0.008530 0.018082 0.000000 -0.007388 0.000000
# 4 0.000000 0.000000 0.000000 0.096583 0.000000 0.024213
# 5 0.022442 0.012635 -0.007388 0.000000 0.072605 0.000000
# 6 0.000000 0.000000 0.000000 0.024213 0.000000 0.036268
#
#
# Mechanical properties :
#
#
# Convention : Reuss Voigt Hill
#
# Bulk Modulus (GPa) = 25.57293 48.06895 36.82094
# Shear Modulus (GPa) = 15.38568 22.47611 18.93089
#
# Velocity S-wave (km/s) = 2.72832 3.29759 3.02637
# Velocity P-wave (km/s) = 4.72200 6.14451 5.47961
#
# Compressibility (1/GPa) = 0.03910385
#
# Stress axis : x y z
#
# Youngs Moduli (GPa) = 25.70585 63.24538 55.30270
#
# Poissons Ratio (x) = -0.27279 0.69841
# Poissons Ratio (y) = -0.11087 0.47173
# Poissons Ratio (z) = 0.32464 0.53948
#
# Static dielectric constant tensor:
#      x y z
#    x 3.577150 0.000000 -0.202790 
#    y 0.000000 3.705340 0.000000 
#    z -0.202790 0.000000 3.897260 
# 
# 
# High freq. dielectric constant tensor:
#      x y z
#    x 1.783330 0.000000 -0.010610 
#    y 0.000000 1.790570 0.000000 
#    z -0.010610 0.000000 1.814120 
# 
# From -- ./inp_files/273264.got.cif
#   From: 2010.06.25/outbox.cif.g09.slc.cpg/sg15_137_cif.got.tgz:273264.got - 2010.06.28 07:06:18.
