data_PCOD8130947
_publ_section_title
;
Structure prediction by ZEFSAII (Michael W. Deem and Ramdas Pophale) SiO2 
 PCOD8130947
Probable space group: C 2/C
;
_chemical_formula_sum "Si O2"
_cell_formula_units_Z 48
_cell_length_a 7.713956
_cell_length_b 14.589870
_cell_length_c 20.391267
_cell_angle_alpha 90.000000
_cell_angle_beta 115.114132
_cell_angle_gamma 90.000000
_cell_volume 2077.992842
_symmetry_space_group_name_H-M "C 2/C"
_symmetry_group_IT_number 15
_symmetry_cell_setting 'monoclinic'
loop_
_space_group_symop_operation_xyz
x,y,z
-x,y,1/2-z
-x,-y,-z
x,-y,1/2+z
1/2+x,1/2+y,z
1/2-x,1/2+y,1/2-z
1/2-x,1/2-y,-z
1/2+x,1/2-y,1/2+z
loop_
_atom_site_type_symbol
_atom_site_label
_atom_site_fract_x
_atom_site_fract_y
_atom_site_fract_z
Si Si1 0.473501 0.232746 0.439862
Si Si2 0.703210 0.751070 0.099780
Si Si3 0.944598 0.950677 0.425971
Si Si4 0.848808 0.938177 0.168514
Si Si5 0.445684 0.276726 0.668907
Si Si6 0.471024 0.942249 0.172668
O O1 0.538246 0.206461 0.524445
O O2 0.639528 0.194357 0.417304
O O3 0.467840 0.342325 0.435412
O O4 0.268125 0.190862 0.386222
O O5 0.822808 0.829754 0.155404
O O6 0.597048 0.687969 0.137702
O O7 0.727205 0.982437 0.383290
O O8 0.072758 0.985716 0.385106
O O9 0.000000 0.000000 0.500000
O O10 0.643004 0.980677 0.154904
O O11 0.000000 0.955338 0.250000
O O12 0.500000 0.315862 0.750000
O O13 0.463672 0.167699 0.671022
O O14 0.500000 0.979244 0.250000
#
# Coordination Sequence:
#
# PCOD8130947 Si02
#       6
#     8   8   8   8   8   8
#     4   9  18  32  45  69 103 129 158 198 253 295
#     4   9  18  28  48  72  99 127 151 201 255 299
#     4  10  20  32  50  74 101 133 171 208 246 297
#     4  10  18  30  53  79  98 123 169 213 252 294
#     4   9  17  26  46  73  96 122 156 198 244 291
#     4   9  16  29  48  74  97 121 160 210 252 287
#
# _framework density 23.099214
#
# number of rings (size 3 to 8) (size 9 to 14) (size 15 to 20)
#    0.000    2.667    1.667    0.500    7.000    0.667 
#    0.000    0.000    0.000    2.000    0.000    0.000 
#    0.000    0.000    0.000    0.000    0.000    0.000 
#
# Total GULP energy -297425.779090 kJ/mol
# GULP energy per Si atom -12392.740795 kJ/mol
# Density = 2.304664 g / cm^3
# Si number density = 23.099214 Si / 1000 Ang^3
#
#
#
# Elastic Constant Matrix: (Units=GPa)
#
#
# Indices 1 2 3 4 5 6 
#
# 1 221.9998 11.9928 88.6188 0.0000 -7.8838 0.0000
# 2 11.9928 9.1281 6.1856 0.0000 0.2222 0.0000
# 3 88.6188 6.1856 152.1809 0.0000 -3.6959 0.0000
# 4 0.0000 0.0000 0.0000 12.1797 0.0000 -8.0065
# 5 -7.8838 0.2222 -3.6959 0.0000 51.8618 0.0000
# 6 0.0000 0.0000 0.0000 -8.0065 0.0000 5.9564
#
#
#
# Elastic Compliance Matrix: (Units=1/GPa)
#
#
# Indices 1 2 3 4 5 6 
#
# 1 0.006182 -0.005875 -0.003344 0.000000 0.000727 0.000000
# 2 -0.005875 0.118270 -0.001423 0.000000 -0.001501 0.000000
# 3 -0.003344 -0.001423 0.008579 0.000000 0.000109 0.000000
# 4 0.000000 0.000000 0.000000 0.705482 0.000000 0.948297
# 5 0.000727 -0.001501 0.000109 0.000000 0.019407 0.000000
# 6 0.000000 0.000000 0.000000 0.948297 0.000000 1.442572
#
#
# Mechanical properties :
#
#
# Convention : Reuss Voigt Hill
#
# Bulk Modulus (GPa) = 8.94859 66.32257 37.63558
# Shear Modulus (GPa) = 2.11952 32.43368 17.27660
#
# Velocity S-wave (km/s) = 0.95894 3.75120 2.73780
# Velocity P-wave (km/s) = 2.26019 6.89466 5.13054
#
# Compressibility (1/GPa) = 0.11174949
#
# Stress axis : x y z
#
# Youngs Moduli (GPa) = 161.74834 8.45520 116.56682
#
# Poissons Ratio (x) = 0.04967 0.38977
# Poissons Ratio (y) = 0.95019 0.16585
# Poissons Ratio (z) = 0.54085 0.01203
#
# Static dielectric constant tensor:
#      x y z
#    x 4.659140 0.000000 -0.223000 
#    y 0.000000 3.415870 0.000000 
#    z -0.223000 0.000000 4.251110 
# 
# 
# High freq. dielectric constant tensor:
#      x y z
#    x 1.939620 0.000000 -0.002970 
#    y 0.000000 1.840780 0.000000 
#    z -0.002970 0.000000 1.923700 
# 
# From -- ./inp_files/135483.got.cif
#   From: 2010.06.25/outbox.cif.g09.slc.cpg/sg15_68_cif.got.tgz:135483.got - 2010.06.28 07:06:18.
