data_PCOD8130182
_publ_section_title
;
Structure prediction by ZEFSAII (Michael W. Deem and Ramdas Pophale) SiO2 
 PCOD8130182
Probable space group: C 2/C
;
_chemical_formula_sum "Si O2"
_cell_formula_units_Z 64
_cell_length_a 9.147286
_cell_length_b 17.243179
_cell_length_c 19.959122
_cell_angle_alpha 90.000000
_cell_angle_beta 77.183633
_cell_angle_gamma 90.000000
_cell_volume 3069.686050
_symmetry_space_group_name_H-M "C 2/C"
_symmetry_group_IT_number 15
_symmetry_cell_setting 'monoclinic'
loop_
_space_group_symop_operation_xyz
x,y,z
-x,y,1/2-z
-x,-y,-z
x,-y,1/2+z
1/2+x,1/2+y,z
1/2-x,1/2+y,1/2-z
1/2-x,1/2-y,-z
1/2+x,1/2-y,1/2+z
loop_
_atom_site_type_symbol
_atom_site_label
_atom_site_fract_x
_atom_site_fract_y
_atom_site_fract_z
Si Si1 0.614875 0.162008 0.678016
Si Si2 0.807980 0.734802 0.567531
Si Si3 0.180833 0.406459 0.873810
Si Si4 0.817842 0.082992 0.214676
Si Si5 0.113415 0.577185 0.878346
Si Si6 0.444672 0.682255 0.382881
Si Si7 0.574547 0.175664 0.173628
Si Si8 0.847526 0.086380 0.735838
O O1 0.500000 0.170415 0.750000
O O2 0.552257 0.096195 0.633372
O O3 0.632787 0.243527 0.641211
O O4 0.782367 0.142463 0.685351
O O5 0.750000 0.750000 0.500000
O O6 0.844134 0.643290 0.571735
O O7 0.954888 0.789358 0.564256
O O8 0.680671 0.756241 0.634861
O O9 0.276416 0.409453 0.796315
O O10 0.121464 0.489855 0.907362
O O11 0.300107 0.371912 0.916505
O O12 0.039576 0.350388 0.873448
O O13 0.949712 0.141538 0.182568
O O14 0.671873 0.099657 0.183832
O O15 0.877522 0.996069 0.196673
O O16 0.226986 0.578154 0.805747
O O17 0.500000 0.207659 0.250000
O O18 0.000000 0.121565 0.750000
#
# Coordination Sequence:
#
# PCOD8130182 Si02
#       8
#     8   8   8   8   8   8   8   8
#     4   9  17  29  44  67 102 140 173 204 252 318
#     4  10  22  41  57  73 105 150 186 215 263 330
#     4  10  17  30  51  80 107 131 171 227 269 305
#     4   9  16  29  48  76 111 142 169 208 266 326
#     4   9  19  33  51  73 104 142 175 212 263 320
#     4  10  19  32  52  74 101 143 181 213 264 326
#     4   9  19  33  57  85 109 136 178 226 266 308
#     4  10  18  27  47  80 113 138 167 215 269 313
#
# _framework density 20.849036000000002
#
# number of rings (size 3 to 8) (size 9 to 14) (size 15 to 20)
#    0.000    2.500    0.000    3.375    0.000    7.500 
#    0.000    1.875    0.000    0.000    0.000    0.000 
#    0.000    0.000    0.000    0.000    0.000    0.000 
#
# Total GULP energy -396561.224110 kJ/mol
# GULP energy per Si atom -12392.538253 kJ/mol
# Density = 2.080158 g / cm^3
# Si number density = 20.849036 Si / 1000 Ang^3
#
#
#
# Elastic Constant Matrix: (Units=GPa)
#
#
# Indices 1 2 3 4 5 6 
#
# 1 145.2392 51.2303 28.1742 0.0000 38.7314 0.0000
# 2 51.2303 93.1158 21.8538 0.0000 22.4441 0.0000
# 3 28.1742 21.8538 45.6425 0.0000 22.5991 0.0000
# 4 0.0000 0.0000 0.0000 12.1897 0.0000 7.5082
# 5 38.7314 22.4441 22.5991 0.0000 28.2248 0.0000
# 6 0.0000 0.0000 0.0000 7.5082 0.0000 17.1786
#
#
#
# Elastic Compliance Matrix: (Units=1/GPa)
#
#
# Indices 1 2 3 4 5 6 
#
# 1 0.011629 -0.003242 0.001655 0.000000 -0.014705 0.000000
# 2 -0.003242 0.014287 -0.002348 0.000000 -0.005032 0.000000
# 3 0.001655 -0.002348 0.036802 0.000000 -0.029871 0.000000
# 4 0.000000 0.000000 0.000000 0.112257 0.000000 -0.049064
# 5 -0.014705 -0.005032 -0.029871 0.000000 0.083527 0.000000
# 6 0.000000 0.000000 0.000000 -0.049064 0.000000 0.079656
#
#
# Mechanical properties :
#
#
# Convention : Reuss Voigt Hill
#
# Bulk Modulus (GPa) = 18.23225 54.05712 36.14468
# Shear Modulus (GPa) = 13.72454 23.70123 18.71289
#
# Velocity S-wave (km/s) = 2.56848 3.37531 2.99915
# Velocity P-wave (km/s) = 4.19047 6.41673 5.41915
#
# Compressibility (1/GPa) = 0.05484786
#
# Stress axis : x y z
#
# Youngs Moduli (GPa) = 85.99028 69.99385 27.17244
#
# Poissons Ratio (x) = 0.22693 -0.04496
# Poissons Ratio (y) = 0.27879 0.06380
# Poissons Ratio (z) = -0.14230 0.16434
#
# Static dielectric constant tensor:
#      x y z
#    x 4.112080 0.000000 0.312210 
#    y 0.000000 4.078120 0.000000 
#    z 0.312210 0.000000 3.185670 
# 
# 
# High freq. dielectric constant tensor:
#      x y z
#    x 1.831270 0.000000 0.025490 
#    y 0.000000 1.823120 0.000000 
#    z 0.025490 0.000000 1.748210 
# 
# From -- ./inp_files/265267.got.cif
#   From: 2010.06.25/outbox.cif.g09.slc.cpg/sg15_133_cif.got.tgz:265267.got - 2010.06.28 07:06:18.
