data_PCOD8130109
_publ_section_title
;
Structure prediction by ZEFSAII (Michael W. Deem and Ramdas Pophale) SiO2 
 PCOD8130109
Probable space group: C 2/C
;
_chemical_formula_sum "Si O2"
_cell_formula_units_Z 56
_cell_length_a 24.089058
_cell_length_b 14.846170
_cell_length_c 27.292850
_cell_angle_alpha 90.000000
_cell_angle_beta 20.702891
_cell_angle_gamma 90.000000
_cell_volume 3450.639852
_symmetry_space_group_name_H-M "C 2/C"
_symmetry_group_IT_number 15
_symmetry_cell_setting 'monoclinic'
loop_
_space_group_symop_operation_xyz
x,y,z
-x,y,1/2-z
-x,-y,-z
x,-y,1/2+z
1/2+x,1/2+y,z
1/2-x,1/2+y,1/2-z
1/2-x,1/2-y,-z
1/2+x,1/2-y,1/2+z
loop_
_atom_site_type_symbol
_atom_site_label
_atom_site_fract_x
_atom_site_fract_y
_atom_site_fract_z
Si Si1 0.088489 0.936467 0.225649
Si Si2 0.330567 0.108887 0.265734
Si Si3 0.920634 0.876272 0.454011
Si Si4 0.028498 0.646668 0.963422
Si Si5 0.092001 0.485941 0.497578
Si Si6 0.373950 0.226051 0.315534
Si Si7 0.669148 0.260119 0.307211
O O1 0.130788 0.832554 0.184571
O O2 0.000000 0.973462 0.250000
O O3 0.981029 0.946885 0.363230
O O4 0.249224 0.991128 0.101589
O O5 0.177474 0.071539 0.421843
O O6 0.443249 0.027268 0.156586
O O7 0.424539 0.179667 0.222654
O O8 0.276775 0.167190 0.263426
O O9 0.801766 0.806691 0.524692
O O10 0.061755 0.821820 0.361582
O O11 0.173209 0.683629 0.811540
O O12 0.924632 0.580108 0.016612
O O13 0.098481 0.596807 0.953796
O O14 0.921198 0.731293 0.068691
O O15 0.500000 0.191017 0.250000
#
# Coordination Sequence:
#
# PCOD8130109 Si02
#       7
#     8   8   8   8   8   8   8
#     4  11  21  28  46  70 103 135 167 196 235 282
#     4   9  18  28  45  61  98 130 157 197 230 274
#     4  10  17  29  43  66  95 131 165 199 217 276
#     4  10  20  32  54  67  99 125 164 203 250 286
#     4  10  20  34  44  73  99 133 155 201 252 289
#     4   9  18  25  42  66  93 136 170 187 209 279
#     4  11  16  33  48  71  86 130 162 204 239 279
#
# _framework density 16.228874999999999
#
# number of rings (size 3 to 8) (size 9 to 14) (size 15 to 20)
#    0.857    1.143    4.286    1.714    2.000    1.143 
#    0.000    2.143    0.000    0.000    0.000    1.000 
#    0.000    0.000    0.000    0.000    0.000    0.000 
#
# Total GULP energy -346963.376408 kJ/mol
# GULP energy per Si atom -12391.549157 kJ/mol
# Density = 1.619194 g / cm^3
# Si number density = 16.228875 Si / 1000 Ang^3
#
#
#
# Elastic Constant Matrix: (Units=GPa)
#
#
# Indices 1 2 3 4 5 6 
#
# 1 62.2290 26.2207 32.1931 0.0320 -5.6520 0.0102
# 2 26.2207 31.7208 28.4711 0.1264 -4.2959 -0.0315
# 3 32.1931 28.4711 111.3422 0.1152 7.1984 -0.0158
# 4 0.0320 0.1264 0.1152 12.2101 -0.0448 0.5116
# 5 -5.6520 -4.2959 7.1984 -0.0448 19.8630 -0.0046
# 6 0.0102 -0.0315 -0.0158 0.5116 -0.0046 14.2133
#
#
#
# Elastic Compliance Matrix: (Units=1/GPa)
#
#
# Indices 1 2 3 4 5 6 
#
# 1 0.025575 -0.017668 -0.003175 0.000165 0.004607 -0.000065
# 2 -0.017668 0.056652 -0.010081 -0.000411 0.010878 0.000145
# 3 -0.003175 -0.010081 0.012981 -0.000038 -0.007788 -0.000007
# 4 0.000165 -0.000411 -0.000038 0.082028 0.000156 -0.002954
# 5 0.004607 0.010878 -0.007788 0.000156 0.056831 0.000025
# 6 -0.000065 0.000145 -0.000007 -0.002954 0.000025 0.070463
#
#
# Mechanical properties :
#
#
# Convention : Reuss Voigt Hill
#
# Bulk Modulus (GPa) = 29.97513 42.11796 36.04654
# Shear Modulus (GPa) = 13.24512 17.15108 15.19810
#
# Velocity S-wave (km/s) = 2.85992 3.25441 3.06352
# Velocity P-wave (km/s) = 5.42364 6.33486 5.89688
#
# Compressibility (1/GPa) = 0.03336099
#
# Stress axis : x y z
#
# Youngs Moduli (GPa) = 39.10079 17.65155 77.03790
#
# Poissons Ratio (x) = 0.31186 0.24459
# Poissons Ratio (y) = 0.69081 0.77661
# Poissons Ratio (z) = 0.12414 0.17794
#
# Static dielectric constant tensor:
#      x y z
#    x 2.974750 -0.000010 0.100400 
#    y -0.000010 2.550490 0.000040 
#    z 0.100400 0.000040 3.213930 
# 
# 
# High freq. dielectric constant tensor:
#      x y z
#    x 1.600960 0.000000 0.004790 
#    y 0.000000 1.560130 0.000000 
#    z 0.004790 0.000000 1.641510 
# 
# From -- ./inp_files/302289.got.cif
#   From: 2010.06.25/outbox.cif.g09.slc.cpg/sg15_152_cif.got.tgz:302289.got - 2010.06.28 07:06:18.
