data_PCOD8130290
_publ_section_title
;
Structure prediction by ZEFSAII (Michael W. Deem and Ramdas Pophale) SiO2 
 PCOD8130290
Probable space group: C 2/C
;
_chemical_formula_sum "Si O2"
_cell_formula_units_Z 48
_cell_length_a 7.120717
_cell_length_b 17.075363
_cell_length_c 18.812220
_cell_angle_alpha 90.000000
_cell_angle_beta 131.039060
_cell_angle_gamma 90.000000
_cell_volume 1725.265890
_symmetry_space_group_name_H-M "C 2/C"
_symmetry_group_IT_number 15
_symmetry_cell_setting 'monoclinic'
loop_
_space_group_symop_operation_xyz
x,y,z
-x,y,1/2-z
-x,-y,-z
x,-y,1/2+z
1/2+x,1/2+y,z
1/2-x,1/2+y,1/2-z
1/2-x,1/2-y,-z
1/2+x,1/2-y,1/2+z
loop_
_atom_site_type_symbol
_atom_site_label
_atom_site_fract_x
_atom_site_fract_y
_atom_site_fract_z
Si Si1 0.817774 0.268593 0.098728
Si Si2 0.833681 0.456937 0.777383
Si Si3 0.295980 0.937597 0.058650
Si Si4 0.303014 0.218276 0.277626
Si Si5 0.288527 0.211935 0.932932
Si Si6 0.069334 0.955843 0.402019
O O1 0.905671 0.351672 0.088567
O O2 0.747554 0.271769 0.164762
O O3 0.093630 0.228777 0.163747
O O4 0.586821 0.232085 0.993323
O O5 0.771173 0.371994 0.793390
O O6 0.603005 0.515072 0.705324
O O7 0.000000 0.441803 0.750000
O O8 0.990551 0.499570 0.875574
O O9 0.077198 0.932970 0.062888
O O10 0.210043 0.963606 0.958706
O O11 0.589222 0.243958 0.329414
O O12 0.241045 0.117741 0.921269
O O13 0.250000 0.250000 0.000000
#
# Coordination Sequence:
#
# PCOD8130290 Si02
#       6
#     8   8   8   8   8   8
#     4  10  20  32  60  85 111 149 194 238 290 347
#     4  10  22  34  56  82 121 152 190 247 298 332
#     4  10  18  31  55  88 112 140 192 249 283 337
#     4  10  20  35  52  85 117 148 198 237 284 353
#     4  10  17  31  55  81 114 148 186 235 294 338
#     4  10  19  31  53  85 117 143 190 238 298 334
#
# _framework density 27.821801000000001
#
# number of rings (size 3 to 8) (size 9 to 14) (size 15 to 20)
#    0.000    2.000    3.333    3.000    9.333    0.000 
#    0.000    1.667    0.000    0.000    8.667    0.000 
#    0.000    0.000    0.000    0.000    0.000    0.000 
#
# Total GULP energy -297377.152940 kJ/mol
# GULP energy per Si atom -12390.714706 kJ/mol
# Density = 2.775848 g / cm^3
# Si number density = 27.821801 Si / 1000 Ang^3
#
#
#
# Elastic Constant Matrix: (Units=GPa)
#
#
# Indices 1 2 3 4 5 6 
#
# 1 95.2765 36.2604 58.5044 0.0001 35.4219 0.0001
# 2 36.2604 188.9442 43.0327 0.0000 25.8870 0.0000
# 3 58.5044 43.0327 193.8981 0.0001 38.1822 0.0000
# 4 0.0001 0.0000 0.0001 56.8601 0.0001 14.5739
# 5 35.4219 25.8870 38.1822 0.0001 34.2250 0.0001
# 6 0.0001 0.0000 0.0000 14.5739 0.0001 9.8532
#
#
#
# Elastic Compliance Matrix: (Units=1/GPa)
#
#
# Indices 1 2 3 4 5 6 
#
# 1 0.017895 -0.000819 -0.002169 0.000000 -0.015482 0.000000
# 2 -0.000819 0.005988 -0.000457 0.000000 -0.003172 0.000000
# 3 -0.002169 -0.000457 0.006924 0.000000 -0.005134 0.000000
# 4 0.000000 0.000000 0.000000 0.028326 0.000000 -0.041897
# 5 -0.015482 -0.003172 -0.005134 0.000000 0.053368 0.000000
# 6 0.000000 0.000000 0.000000 -0.041897 0.000000 0.163460
#
#
# Mechanical properties :
#
#
# Convention : Reuss Voigt Hill
#
# Bulk Modulus (GPa) = 41.81156 83.74597 62.77876
# Shear Modulus (GPa) = 17.19245 42.87573 30.03409
#
# Velocity S-wave (km/s) = 2.48855 3.92992 3.28916
# Velocity P-wave (km/s) = 4.82889 7.12451 6.08592
#
# Compressibility (1/GPa) = 0.02391683
#
# Stress axis : x y z
#
# Youngs Moduli (GPa) = 55.88095 166.98783 144.41862
#
# Poissons Ratio (x) = 0.13679 0.31325
# Poissons Ratio (y) = 0.04578 0.06605
# Poissons Ratio (z) = 0.12121 0.07637
#
# Static dielectric constant tensor:
#      x y z
#    x 4.350860 0.000000 -0.008070 
#    y 0.000000 4.945270 0.000000 
#    z -0.008070 0.000000 5.572430 
# 
# 
# High freq. dielectric constant tensor:
#      x y z
#    x 2.160040 0.000000 0.003190 
#    y 0.000000 2.117550 0.000000 
#    z 0.003190 0.000000 2.151520 
# 
# From -- ./inp_files/238490.got.cif
#   From: 2010.06.25/outbox.cif.g09.slc.cpg/sg15_120_cif.got.tgz:238490.got - 2010.06.28 07:06:18.
