data_PCOD8130341
_publ_section_title
;
Structure prediction by ZEFSAII (Michael W. Deem and Ramdas Pophale) SiO2 
 PCOD8130341
Probable space group: C 2/C
;
_chemical_formula_sum "Si O2"
_cell_formula_units_Z 52
_cell_length_a 18.115402
_cell_length_b 18.554186
_cell_length_c 12.015514
_cell_angle_alpha 90.000000
_cell_angle_beta 46.255302
_cell_angle_gamma 90.000000
_cell_volume 2917.606888
_symmetry_space_group_name_H-M "C 2/C"
_symmetry_group_IT_number 15
_symmetry_cell_setting 'monoclinic'
loop_
_space_group_symop_operation_xyz
x,y,z
-x,y,1/2-z
-x,-y,-z
x,-y,1/2+z
1/2+x,1/2+y,z
1/2-x,1/2+y,1/2-z
1/2-x,1/2-y,-z
1/2+x,1/2-y,1/2+z
loop_
_atom_site_type_symbol
_atom_site_label
_atom_site_fract_x
_atom_site_fract_y
_atom_site_fract_z
Si Si1 0.684853 0.765993 0.676898
Si Si2 0.500000 0.708528 0.750000
Si Si3 0.231209 0.813112 0.354834
Si Si4 0.667005 0.386608 0.946926
Si Si5 0.597899 0.750281 0.191731
Si Si6 0.070132 0.901043 0.812472
Si Si7 0.353376 0.545341 0.484140
O O1 0.750000 0.750000 0.500000
O O2 0.564397 0.759268 0.769181
O O3 0.708041 0.711035 0.753134
O O4 0.723820 0.845211 0.674411
O O5 0.580801 0.657867 0.602788
O O6 0.347181 0.795505 0.268776
O O7 0.165565 0.769849 0.514272
O O8 0.217159 0.899401 0.372732
O O9 0.625197 0.405348 0.870723
O O10 0.689138 0.464504 0.975695
O O11 0.500000 0.795938 0.250000
O O12 0.545900 0.681046 0.305514
O O13 0.150403 0.931774 0.640287
O O14 0.967285 0.948668 0.917115
#
# Coordination Sequence:
#
# PCOD8130341 Si02
#       7
#     8   4   8   8   8   8   8
#     4  10  22  35  53  77 107 147 186 213 256 321
#     4  10  22  36  54  78 102 146 186 216 258 314
#     4  10  19  33  53  78 107 139 174 216 268 315
#     4  11  21  35  52  78 110 138 175 222 270 315
#     4  10  18  31  55  80 104 133 176 216 263 317
#     4  10  17  32  51  79 105 135 168 223 268 322
#     4  10  20  31  52  82 109 134 170 220 281 313
#
# _framework density 17.822825000000002
#
# number of rings (size 3 to 8) (size 9 to 14) (size 15 to 20)
#    0.000    1.846    4.615    2.308    0.000    2.462 
#    0.000    0.000    1.692    0.000    0.000    6.462 
#    0.000    0.000    0.000    0.000    0.000    0.000 
#
# Total GULP energy -322142.049734 kJ/mol
# GULP energy per Si atom -12390.078836 kJ/mol
# Density = 1.778226 g / cm^3
# Si number density = 17.822825 Si / 1000 Ang^3
#
#
#
# Elastic Constant Matrix: (Units=GPa)
#
#
# Indices 1 2 3 4 5 6 
#
# 1 103.3132 27.6282 23.0603 0.0000 -6.1008 0.0000
# 2 27.6282 107.0195 31.2212 0.0000 -13.1443 0.0000
# 3 23.0603 31.2212 35.7087 0.0000 1.8118 0.0000
# 4 0.0000 0.0000 0.0000 20.2552 0.0000 -10.4399
# 5 -6.1008 -13.1443 1.8118 0.0000 29.8098 0.0000
# 6 0.0000 0.0000 0.0000 -10.4399 0.0000 18.9862
#
#
#
# Elastic Compliance Matrix: (Units=1/GPa)
#
#
# Indices 1 2 3 4 5 6 
#
# 1 0.011569 -0.000617 -0.007060 0.000000 0.002525 0.000000
# 2 -0.000617 0.013841 -0.012043 0.000000 0.006709 0.000000
# 3 -0.007060 -0.012043 0.043571 0.000000 -0.009403 0.000000
# 4 0.000000 0.000000 0.000000 0.068896 0.000000 0.037884
# 5 0.002525 0.006709 -0.009403 0.000000 0.037592 0.000000
# 6 0.000000 0.000000 0.000000 0.037884 0.000000 0.073501
#
#
# Mechanical properties :
#
#
# Convention : Reuss Voigt Hill
#
# Bulk Modulus (GPa) = 33.85239 45.54010 39.69624
# Shear Modulus (GPa) = 16.76403 24.75235 20.75819
#
# Velocity S-wave (km/s) = 3.07024 3.73070 3.41647
# Velocity P-wave (km/s) = 5.62170 6.64564 6.15500
#
# Compressibility (1/GPa) = 0.02954002
#
# Stress axis : x y z
#
# Youngs Moduli (GPa) = 86.43614 72.25024 22.95128
#
# Poissons Ratio (x) = 0.04458 0.16203
# Poissons Ratio (y) = 0.05333 0.27641
# Poissons Ratio (z) = 0.61023 0.87013
#
# Static dielectric constant tensor:
#      x y z
#    x 3.799720 0.000000 0.128960 
#    y 0.000000 3.394680 0.000000 
#    z 0.128960 0.000000 3.397430 
# 
# 
# High freq. dielectric constant tensor:
#      x y z
#    x 1.701690 0.000000 0.016880 
#    y 0.000000 1.665870 0.000000 
#    z 0.016880 0.000000 1.673420 
# 
# From -- ./inp_files/99696.got.cif
#   From: 2010.06.25/outbox.cif.g09.slc.cpg/sg15_50_cif.got.tgz:99696.got - 2010.06.28 07:06:18.
