data_PCOD8130994
_publ_section_title
;
Structure prediction by ZEFSAII (Michael W. Deem and Ramdas Pophale) SiO2 
 PCOD8130994
Probable space group: C 2/C
;
_chemical_formula_sum "Si O2"
_cell_formula_units_Z 52
_cell_length_a 13.965794
_cell_length_b 17.597368
_cell_length_c 22.799071
_cell_angle_alpha 90.000000
_cell_angle_beta 29.372786
_cell_angle_gamma 90.000000
_cell_volume 2748.277378
_symmetry_space_group_name_H-M "C 2/C"
_symmetry_group_IT_number 15
_symmetry_cell_setting 'monoclinic'
loop_
_space_group_symop_operation_xyz
x,y,z
-x,y,1/2-z
-x,-y,-z
x,-y,1/2+z
1/2+x,1/2+y,z
1/2-x,1/2+y,1/2-z
1/2-x,1/2-y,-z
1/2+x,1/2-y,1/2+z
loop_
_atom_site_type_symbol
_atom_site_label
_atom_site_fract_x
_atom_site_fract_y
_atom_site_fract_z
Si Si1 0.226300 0.317820 0.338448
Si Si2 0.828746 0.186369 0.915256
Si Si3 0.299769 0.973334 0.031864
Si Si4 0.725322 0.012856 0.823081
Si Si5 0.351438 0.274489 0.005726
Si Si6 0.500000 0.297531 0.750000
Si Si7 0.051157 0.907750 0.614765
O O1 0.444774 0.291471 0.207653
O O2 0.210334 0.314069 0.417302
O O3 0.189887 0.399104 0.326908
O O4 0.059725 0.264891 0.401735
O O5 0.793811 0.098536 0.953648
O O6 0.750000 0.250000 0.000000
O O7 0.202199 0.985699 0.148012
O O8 0.254321 0.050625 0.021298
O O9 0.530895 0.963619 0.916702
O O10 0.888114 0.973481 0.695433
O O11 0.407126 0.363826 0.968794
O O12 0.250000 0.250000 0.000000
O O13 0.196363 0.255318 0.140372
O O14 0.479873 0.349362 0.703169
#
# Coordination Sequence:
#
# PCOD8130994 Si02
#       7
#     8   8   8   8   8   4   8
#     4  10  21  39  54  88 118 146 197 241 286 349
#     4  10  22  36  59  84 118 157 189 237 295 351
#     4  10  19  32  54  86 112 144 188 234 298 335
#     4  10  18  30  57  81 113 142 179 250 290 330
#     4  10  23  35  56  86 119 157 191 237 297 355
#     4  10  20  34  50  80 120 152 186 238 290 346
#     4  11  19  34  55  85 113 147 192 240 291 347
#
# _framework density 18.920943999999999
#
# number of rings (size 3 to 8) (size 9 to 14) (size 15 to 20)
#    0.000    1.846    3.077    1.846    6.462    1.231 
#    0.000    0.000    0.000    2.769    0.000    0.000 
#    0.000    0.000    0.000    0.000    0.000    0.000 
#
# Total GULP energy -322115.734834 kJ/mol
# GULP energy per Si atom -12389.066724 kJ/mol
# Density = 1.887788 g / cm^3
# Si number density = 18.920944 Si / 1000 Ang^3
#
#
#
# Elastic Constant Matrix: (Units=GPa)
#
#
# Indices 1 2 3 4 5 6 
#
# 1 58.6871 42.6480 34.5986 -0.0014 -21.6930 0.0018
# 2 42.6480 134.0336 56.7061 0.0063 -2.0120 0.0006
# 3 34.5986 56.7061 87.2232 -0.0002 -16.0079 0.0076
# 4 -0.0014 0.0063 -0.0002 43.3733 -0.0052 1.2199
# 5 -21.6930 -2.0120 -16.0079 -0.0052 28.1277 -0.0016
# 6 0.0018 0.0006 0.0076 1.2199 -0.0016 36.6012
#
#
#
# Elastic Compliance Matrix: (Units=1/GPa)
#
#
# Indices 1 2 3 4 5 6 
#
# 1 0.034660 -0.009280 -0.003273 0.000005 0.024204 0.000000
# 2 -0.009280 0.013082 -0.006661 -0.000003 -0.010012 0.000001
# 3 -0.003273 -0.006661 0.018472 0.000002 0.007512 -0.000003
# 4 0.000005 -0.000003 0.000002 0.023077 0.000009 -0.000769
# 5 0.024204 -0.010012 0.007512 0.000009 0.057778 0.000000
# 6 0.000000 0.000001 -0.000003 -0.000769 0.000000 0.027347
#
#
# Mechanical properties :
#
#
# Convention : Reuss Voigt Hill
#
# Bulk Modulus (GPa) = 35.99037 60.87214 48.43126
# Shear Modulus (GPa) = 22.51172 31.35319 26.93246
#
# Velocity S-wave (km/s) = 3.45306 4.07512 3.77692
# Velocity P-wave (km/s) = 5.91277 7.37454 6.68374
#
# Compressibility (1/GPa) = 0.02778521
#
# Stress axis : x y z
#
# Youngs Moduli (GPa) = 28.85179 76.44382 54.13529
#
# Poissons Ratio (x) = 0.70943 0.17718
# Poissons Ratio (y) = 0.26776 0.36059
# Poissons Ratio (z) = 0.09443 0.50919
#
# Static dielectric constant tensor:
#      x y z
#    x -0.247910 -0.000360 -3.144840 
#    y -0.000360 3.867180 -0.000360 
#    z -3.144840 -0.000360 1.004890 
# 
# 
# High freq. dielectric constant tensor:
#      x y z
#    x 1.697260 0.000000 -0.038510 
#    y 0.000000 1.739250 0.000000 
#    z -0.038510 0.000000 1.730870 
# 
# From -- ./inp_files/98214.got.cif
#   From: 2010.06.25/outbox.cif.g09.slc.cpg/sg15_50_cif.got.tgz:98214.got - 2010.06.28 07:06:18.
