data_PCOD8130181
_publ_section_title
;
Structure prediction by ZEFSAII (Michael W. Deem and Ramdas Pophale) SiO2 
 PCOD8130181
Probable space group: C 2/C
;
_chemical_formula_sum "Si O2"
_cell_formula_units_Z 60
_cell_length_a 16.546730
_cell_length_b 16.969542
_cell_length_c 14.173738
_cell_angle_alpha 90.000000
_cell_angle_beta 131.742818
_cell_angle_gamma 90.000000
_cell_volume 2969.528598
_symmetry_space_group_name_H-M "C 2/C"
_symmetry_group_IT_number 15
_symmetry_cell_setting 'monoclinic'
loop_
_space_group_symop_operation_xyz
x,y,z
-x,y,1/2-z
-x,-y,-z
x,-y,1/2+z
1/2+x,1/2+y,z
1/2-x,1/2+y,1/2-z
1/2-x,1/2-y,-z
1/2+x,1/2-y,1/2+z
loop_
_atom_site_type_symbol
_atom_site_label
_atom_site_fract_x
_atom_site_fract_y
_atom_site_fract_z
Si Si1 0.304021 0.679596 0.942632
Si Si2 0.000000 0.960156 0.250000
Si Si3 0.381570 0.291214 0.699033
Si Si4 0.126436 0.728736 0.489214
Si Si5 0.854570 0.821019 0.177403
Si Si6 0.897110 0.985210 0.483676
Si Si7 0.194058 0.866455 0.679391
Si Si8 0.902846 0.711405 0.384413
O O1 0.182778 0.710797 0.819070
O O2 0.333680 0.596427 0.917002
O O3 0.390906 0.747057 0.977424
O O4 0.310437 0.670120 0.060234
O O5 0.091771 0.906419 0.273008
O O6 0.062030 0.012285 0.376037
O O7 0.500000 0.272680 0.750000
O O8 0.382958 0.354125 0.787429
O O9 0.090391 0.767450 0.361839
O O10 0.226314 0.668522 0.553416
O O11 0.164270 0.798858 0.584312
O O12 0.024917 0.683009 0.457510
O O13 0.869233 0.781757 0.289114
O O14 0.815401 0.052994 0.385894
O O15 0.000000 0.000000 0.500000
O O16 0.319928 0.861167 0.809042
#
# Coordination Sequence:
#
# PCOD8130181 Si02
#       8
#     8   4   8   8   8   8   8   8
#     4  10  23  37  58  89 112 148 200 239 287 343
#     4  12  22  36  54  80 120 150 176 234 296 342
#     4  10  20  39  64  86 111 152 200 245 283 332
#     4  10  17  30  51  79 113 145 191 229 272 333
#     4  10  18  29  50  77 109 150 185 219 278 336
#     4  12  24  37  56  84 120 148 185 240 298 350
#     4  10  21  34  58  87 114 147 190 236 289 347
#     4  10  18  35  55  82 112 150 187 238 275 328
#
# _framework density 20.205227000000001
#
# number of rings (size 3 to 8) (size 9 to 14) (size 15 to 20)
#    0.000    1.600    2.667    3.200    2.800    0.000 
#    0.000    0.000    2.933    0.000    0.000    6.533 
#    0.000    0.000    0.000    0.000    0.000    0.000 
#
# Total GULP energy -371795.608921 kJ/mol
# GULP energy per Si atom -12393.186964 kJ/mol
# Density = 2.015924 g / cm^3
# Si number density = 20.205227 Si / 1000 Ang^3
#
#
#
# Elastic Constant Matrix: (Units=GPa)
#
#
# Indices 1 2 3 4 5 6 
#
# 1 116.5409 28.6596 14.6339 0.0000 19.3009 0.0000
# 2 28.6596 67.7894 25.8162 0.0000 11.8650 0.0000
# 3 14.6339 25.8162 61.4544 0.0000 -5.9984 0.0000
# 4 0.0000 0.0000 0.0000 16.9084 0.0000 1.2839
# 5 19.3009 11.8650 -5.9984 0.0000 41.6369 0.0000
# 6 0.0000 0.0000 0.0000 1.2839 0.0000 25.6459
#
#
#
# Elastic Compliance Matrix: (Units=1/GPa)
#
#
# Indices 1 2 3 4 5 6 
#
# 1 0.010193 -0.002994 -0.001569 0.000000 -0.004098 0.000000
# 2 -0.002994 0.020146 -0.008292 0.000000 -0.005547 0.000000
# 3 -0.001569 -0.008292 0.020722 0.000000 0.006075 0.000000
# 4 0.000000 0.000000 0.000000 0.059368 0.000000 -0.002972
# 5 -0.004098 -0.005547 0.006075 0.000000 0.028373 0.000000
# 6 0.000000 0.000000 0.000000 -0.002972 0.000000 0.039141
#
#
# Mechanical properties :
#
#
# Convention : Reuss Voigt Hill
#
# Bulk Modulus (GPa) = 39.44676 42.66711 41.05694
# Shear Modulus (GPa) = 23.57343 28.61658 26.09501
#
# Velocity S-wave (km/s) = 3.41940 3.76745 3.59764
# Velocity P-wave (km/s) = 5.92918 6.33148 6.13363
#
# Compressibility (1/GPa) = 0.02535062
#
# Stress axis : x y z
#
# Youngs Moduli (GPa) = 98.10916 49.63741 48.25776
#
# Poissons Ratio (x) = 0.14864 0.07573
# Poissons Ratio (y) = 0.29378 0.40013
# Poissons Ratio (z) = 0.15395 0.41157
#
# Static dielectric constant tensor:
#      x y z
#    x 4.120660 0.000000 -0.030200 
#    y 0.000000 3.458440 0.000000 
#    z -0.030200 0.000000 4.135700 
# 
# 
# High freq. dielectric constant tensor:
#      x y z
#    x 1.806620 0.000000 -0.011650 
#    y 0.000000 1.735850 0.000000 
#    z -0.011650 0.000000 1.798740 
# 
# From -- ./inp_files/162957.got.cif
#   From: 2010.06.25/outbox.cif.g09.slc.cpg/sg15_82_cif.got.tgz:162957.got - 2010.06.28 07:06:18.
