data_PCOD8130799
_publ_section_title
;
Structure prediction by ZEFSAII (Michael W. Deem and Ramdas Pophale) SiO2 
 PCOD8130799
Probable space group: C 2/C
;
_chemical_formula_sum "Si O2"
_cell_formula_units_Z 40
_cell_length_a 21.542837
_cell_length_b 8.907331
_cell_length_c 9.245717
_cell_angle_alpha 90.000000
_cell_angle_beta 107.075916
_cell_angle_gamma 90.000000
_cell_volume 1695.942227
_symmetry_space_group_name_H-M "C 2/C"
_symmetry_group_IT_number 15
_symmetry_cell_setting 'monoclinic'
loop_
_space_group_symop_operation_xyz
x,y,z
-x,y,1/2-z
-x,-y,-z
x,-y,1/2+z
1/2+x,1/2+y,z
1/2-x,1/2+y,1/2-z
1/2-x,1/2-y,-z
1/2+x,1/2-y,1/2+z
loop_
_atom_site_type_symbol
_atom_site_label
_atom_site_fract_x
_atom_site_fract_y
_atom_site_fract_z
Si Si1 0.203066 0.046320 0.891220
Si Si2 0.983853 0.721224 0.891909
Si Si3 0.414320 0.911532 0.829070
Si Si4 0.935109 0.850636 0.134417
Si Si5 0.229922 0.643255 0.275637
O O1 0.126359 0.044251 0.874551
O O2 0.222386 0.179137 0.793129
O O3 0.220895 0.890637 0.823341
O O4 0.244382 0.062455 0.063579
O O5 0.942508 0.575230 0.823383
O O6 0.000000 0.801980 0.750000
O O7 0.943566 0.835500 0.966554
O O8 0.050346 0.677473 0.018073
O O9 0.423236 0.818344 0.686017
O O10 0.338949 0.927950 0.815744
O O11 0.000000 0.921064 0.250000
#
# Coordination Sequence:
#
# PCOD8130799 Si02
#       5
#     8   8   8   8   8
#     4  10  23  43  63  93 125 167 207 260 310 371
#     4  10  18  28  54  90 120 157 204 258 314 358
#     4   9  18  31  52  87 126 156 197 257 317 359
#     4   9  19  38  58  84 123 163 205 259 306 365
#     4  10  23  39  64  92 128 167 206 254 312 373
#
# _framework density 23.585709000000001
#
# number of rings (size 3 to 8) (size 9 to 14) (size 15 to 20)
#    0.000    2.400    0.000    3.000   11.200    0.800 
#    0.000    7.000    0.000    0.000    0.000    0.000 
#    0.000    0.000    0.000    0.000    0.000    0.000 
#
# Total GULP energy -248038.072204 kJ/mol
# GULP energy per Si atom -12401.903610 kJ/mol
# Density = 2.353203 g / cm^3
# Si number density = 23.585709 Si / 1000 Ang^3
#
#
#
# Elastic Constant Matrix: (Units=GPa)
#
#
# Indices 1 2 3 4 5 6 
#
# 1 189.2511 34.3096 61.1339 0.0000 0.2761 0.0000
# 2 34.3096 26.7261 12.3557 0.0000 -5.6532 0.0000
# 3 61.1339 12.3557 101.0996 0.0000 -24.8514 0.0000
# 4 0.0000 0.0000 0.0000 12.5842 0.0000 -11.9199
# 5 0.2761 -5.6532 -24.8514 0.0000 47.0141 0.0000
# 6 0.0000 0.0000 0.0000 -11.9199 0.0000 28.1630
#
#
#
# Elastic Compliance Matrix: (Units=1/GPa)
#
#
# Indices 1 2 3 4 5 6 
#
# 1 0.008645 -0.009601 -0.005000 0.000000 -0.003848 0.000000
# 2 -0.009601 0.050584 0.001302 0.000000 0.006827 0.000000
# 3 -0.005000 0.001302 0.014713 0.000000 0.007963 0.000000
# 4 0.000000 0.000000 0.000000 0.132642 0.000000 0.056141
# 5 -0.003848 0.006827 0.007963 0.000000 0.026323 0.000000
# 6 0.000000 0.000000 0.000000 0.056141 0.000000 0.059269
#
#
# Mechanical properties :
#
#
# Convention : Reuss Voigt Hill
#
# Bulk Modulus (GPa) = 21.12225 59.18615 40.15420
# Shear Modulus (GPa) = 14.94511 31.50407 23.22459
#
# Velocity S-wave (km/s) = 2.51997 3.65872 3.14138
# Velocity P-wave (km/s) = 4.17636 6.55720 5.49722
#
# Compressibility (1/GPa) = 0.04734344
#
# Stress axis : x y z
#
# Youngs Moduli (GPa) = 115.66757 19.76907 67.96544
#
# Poissons Ratio (x) = 0.18980 0.33986
# Poissons Ratio (y) = 1.11051 -0.08847
# Poissons Ratio (z) = 0.57839 -0.02573
#
# Static dielectric constant tensor:
#      x y z
#    x 4.424080 0.000000 0.054510 
#    y 0.000000 3.754970 0.000000 
#    z 0.054510 0.000000 4.254530 
# 
# 
# High freq. dielectric constant tensor:
#      x y z
#    x 1.941750 0.000000 0.003680 
#    y 0.000000 1.903600 0.000000 
#    z 0.003680 0.000000 1.937430 
# 
# From -- ./inp_files/54186.got.cif
#   From: 2010.06.25/outbox.cif.g09.slc.cpg/sg15_28_cif.got.tgz:54186.got - 2010.06.28 07:06:18.
