data_PCOD8130210
_publ_section_title
;
Structure prediction by ZEFSAII (Michael W. Deem and Ramdas Pophale) SiO2 
 PCOD8130210
Probable space group: C 2/C
;
_chemical_formula_sum "Si O2"
_cell_formula_units_Z 64
_cell_length_a 23.196221
_cell_length_b 10.079806
_cell_length_c 21.048701
_cell_angle_alpha 90.000000
_cell_angle_beta 48.488828
_cell_angle_gamma 90.000000
_cell_volume 3685.326054
_symmetry_space_group_name_H-M "C 2/C"
_symmetry_group_IT_number 15
_symmetry_cell_setting 'monoclinic'
loop_
_space_group_symop_operation_xyz
x,y,z
-x,y,1/2-z
-x,-y,-z
x,-y,1/2+z
1/2+x,1/2+y,z
1/2-x,1/2+y,1/2-z
1/2-x,1/2-y,-z
1/2+x,1/2-y,1/2+z
loop_
_atom_site_type_symbol
_atom_site_label
_atom_site_fract_x
_atom_site_fract_y
_atom_site_fract_z
Si Si1 0.088915 0.659133 0.488858
Si Si2 0.421980 0.739951 0.770095
Si Si3 0.123825 0.646476 0.943593
Si Si4 0.237656 0.148904 0.566910
Si Si5 0.199186 0.634181 0.512767
Si Si6 0.462609 0.800301 0.604737
Si Si7 0.571520 0.892548 0.350158
Si Si8 0.587090 0.953440 0.203326
O O1 0.099214 0.502793 0.473932
O O2 0.160275 0.703102 0.479585
O O3 0.088306 0.733614 0.420898
O O4 0.007928 0.688496 0.583063
O O5 0.500000 0.699516 0.750000
O O6 0.350027 0.651273 0.844562
O O7 0.435855 0.714534 0.684794
O O8 0.397907 0.890314 0.802091
O O9 0.203156 0.688976 0.919559
O O10 0.130516 0.660066 0.861661
O O11 0.052718 0.731706 0.024452
O O12 0.250000 0.250000 0.500000
O O13 0.252196 0.997695 0.536417
O O14 0.250000 0.750000 0.500000
O O15 0.135720 0.601792 0.610703
O O16 0.450142 0.953590 0.629212
O O17 0.608065 0.874408 0.253330
O O18 0.500000 0.924096 0.250000
#
# Coordination Sequence:
#
# PCOD8130210 Si02
#       8
#     8   8   8   8   8   8   8   8
#     4   8  14  28  48  71 101 134 166 209 255 301
#     4  10  19  30  52  80 102 133 174 217 258 309
#     4   8  15  26  47  76 104 130 160 210 266 302
#     4  11  20  34  52  77 108 132 168 218 268 307
#     4  11  22  35  50  77 107 143 173 213 266 308
#     4   8  14  26  47  76 101 127 168 210 255 304
#     4   8  13  25  48  76 100 126 169 216 252 297
#     4  10  17  30  54  78 100 130 181 223 252 306
#
# _framework density 17.366171000000001
#
# number of rings (size 3 to 8) (size 9 to 14) (size 15 to 20)
#    0.000    2.750    2.500    2.250    3.500    0.000 
#    2.250    0.625    0.000    0.000    0.000    2.625 
#    0.000    0.000    0.000    0.000    0.000    0.000 
#
# Total GULP energy -396448.937721 kJ/mol
# GULP energy per Si atom -12389.029304 kJ/mol
# Density = 1.732664 g / cm^3
# Si number density = 17.366171 Si / 1000 Ang^3
#
#
#
# Elastic Constant Matrix: (Units=GPa)
#
#
# Indices 1 2 3 4 5 6 
#
# 1 157.1919 44.3577 66.9405 0.0001 8.2814 -0.0001
# 2 44.3577 37.1007 28.5574 0.0003 -3.4339 -0.0001
# 3 66.9405 28.5574 114.7632 0.0002 5.2070 -0.0001
# 4 0.0001 0.0003 0.0002 10.3632 0.0000 -1.8750
# 5 8.2814 -3.4339 5.2070 0.0000 29.7541 0.0000
# 6 -0.0001 -0.0001 -0.0001 -1.8750 0.0000 19.1921
#
#
#
# Elastic Compliance Matrix: (Units=1/GPa)
#
#
# Indices 1 2 3 4 5 6 
#
# 1 0.011192 -0.010925 -0.003640 0.000000 -0.003739 0.000000
# 2 -0.010925 0.044869 -0.005207 -0.000001 0.009130 0.000000
# 3 -0.003640 -0.005207 0.012211 0.000000 -0.001725 0.000000
# 4 0.000000 -0.000001 0.000000 0.098232 0.000000 0.009597
# 5 -0.003739 0.009130 -0.001725 0.000000 0.036005 0.000000
# 6 0.000000 0.000000 0.000000 0.009597 0.000000 0.053042
#
#
# Mechanical properties :
#
#
# Convention : Reuss Voigt Hill
#
# Bulk Modulus (GPa) = 34.80983 65.41858 50.11420
# Shear Modulus (GPa) = 16.41126 23.14188 19.77657
#
# Velocity S-wave (km/s) = 3.07744 3.65442 3.37827
# Velocity P-wave (km/s) = 5.71976 7.45374 6.64357
#
# Compressibility (1/GPa) = 0.02872752
#
# Stress axis : x y z
#
# Youngs Moduli (GPa) = 89.35311 22.28731 81.89672
#
# Poissons Ratio (x) = 0.24349 0.29808
# Poissons Ratio (y) = 0.97619 0.42641
# Poissons Ratio (z) = 0.32522 0.11604
#
# Static dielectric constant tensor:
#      x y z
#    x 4.115440 0.000000 0.346970 
#    y 0.000000 2.637280 0.000000 
#    z 0.346970 0.000000 3.301440 
# 
# 
# High freq. dielectric constant tensor:
#      x y z
#    x 1.690300 0.000000 0.015180 
#    y 0.000000 1.600060 0.000000 
#    z 0.015180 0.000000 1.669270 
# 
# From -- ./inp_files/281830.got.cif
#   From: 2010.06.25/outbox.cif.g09.slc.cpg/sg15_141_cif.got.tgz:281830.got - 2010.06.28 07:06:18.
