data_PCOD8130204
_publ_section_title
;
Structure prediction by ZEFSAII (Michael W. Deem and Ramdas Pophale) SiO2 
 PCOD8130204
Probable space group: C 2/C
;
_chemical_formula_sum "Si O2"
_cell_formula_units_Z 64
_cell_length_a 14.355765
_cell_length_b 12.134386
_cell_length_c 21.151479
_cell_angle_alpha 90.000000
_cell_angle_beta 109.354472
_cell_angle_gamma 90.000000
_cell_volume 3476.325908
_symmetry_space_group_name_H-M "C 2/C"
_symmetry_group_IT_number 15
_symmetry_cell_setting 'monoclinic'
loop_
_space_group_symop_operation_xyz
x,y,z
-x,y,1/2-z
-x,-y,-z
x,-y,1/2+z
1/2+x,1/2+y,z
1/2-x,1/2+y,1/2-z
1/2-x,1/2-y,-z
1/2+x,1/2-y,1/2+z
loop_
_atom_site_type_symbol
_atom_site_label
_atom_site_fract_x
_atom_site_fract_y
_atom_site_fract_z
Si Si1 0.245200 0.637893 0.638914
Si Si2 0.677575 0.355186 0.474663
Si Si3 0.347329 0.798105 0.947637
Si Si4 0.360814 0.059508 0.330955
Si Si5 0.079677 0.538208 0.399623
Si Si6 0.754274 0.084950 0.967205
Si Si7 0.110808 0.685505 0.287443
Si Si8 0.932967 0.688009 0.987227
O O1 0.319721 0.609627 0.598003
O O2 0.224758 0.529066 0.675560
O O3 0.304533 0.721857 0.696814
O O4 0.140107 0.685607 0.589708
O O5 0.750000 0.250000 0.500000
O O6 0.698260 0.463401 0.520879
O O7 0.573995 0.304996 0.476077
O O8 0.350032 0.836410 0.875539
O O9 0.322521 0.668009 0.942774
O O10 0.263379 0.865195 0.966632
O O11 0.452362 0.822455 0.005746
O O12 0.466576 0.001717 0.367137
O O13 0.356830 0.097265 0.257894
O O14 0.148755 0.430569 0.407984
O O15 0.111080 0.630147 0.356042
O O16 0.099782 0.586940 0.474547
O O17 0.000000 0.732261 0.250000
#
# Coordination Sequence:
#
# PCOD8130204 Si02
#       8
#     8   8   8   8   8   8   8   8
#     4  11  18  34  60  77 104 138 182 221 269 317
#     4  10  17  30  53  82 100 134 176 217 263 311
#     4  10  22  33  51  85 119 139 170 214 281 333
#     4  10  21  35  54  78 106 144 180 219 261 324
#     4  10  17  34  57  80 104 133 185 225 259 310
#     4  11  19  33  54  81 115 142 164 222 280 322
#     4  10  22  36  54  77 102 139 188 228 259 306
#     4  10  18  33  57  86 104 136 179 227 268 318
#
# _framework density 18.410242
#
# number of rings (size 3 to 8) (size 9 to 14) (size 15 to 20)
#    0.000    1.750    5.000    1.500    0.000    3.500 
#    0.000    0.000    2.750    0.000    0.000    0.000 
#    0.000    0.000    0.000    0.000    0.000    0.000 
#
# Total GULP energy -396607.925663 kJ/mol
# GULP energy per Si atom -12393.997677 kJ/mol
# Density = 1.836834 g / cm^3
# Si number density = 18.410242 Si / 1000 Ang^3
#
#
#
# Elastic Constant Matrix: (Units=GPa)
#
#
# Indices 1 2 3 4 5 6 
#
# 1 66.9780 33.4642 22.9053 0.0000 0.1650 0.0000
# 2 33.4642 86.6496 18.5250 0.0000 7.2953 0.0000
# 3 22.9053 18.5250 60.8676 0.0000 9.8130 0.0000
# 4 0.0000 0.0000 0.0000 17.6565 0.0000 0.1921
# 5 0.1650 7.2953 9.8130 0.0000 20.5929 0.0000
# 6 0.0000 0.0000 0.0000 0.1921 0.0000 40.0971
#
#
#
# Elastic Compliance Matrix: (Units=1/GPa)
#
#
# Indices 1 2 3 4 5 6 
#
# 1 0.020663 -0.007046 -0.006507 0.000000 0.005431 0.000000
# 2 -0.007046 0.014897 -0.001127 0.000000 -0.004684 0.000000
# 3 -0.006507 -0.001127 0.020741 0.000000 -0.009432 0.000000
# 4 0.000000 0.000000 0.000000 0.056639 0.000000 -0.000271
# 5 0.005431 -0.004684 -0.009432 0.000000 0.054671 0.000000
# 6 0.000000 0.000000 0.000000 -0.000271 0.000000 0.024941
#
#
# Mechanical properties :
#
#
# Convention : Reuss Voigt Hill
#
# Bulk Modulus (GPa) = 37.11814 40.47602 38.79708
# Shear Modulus (GPa) = 21.65505 24.97600 23.31553
#
# Velocity S-wave (km/s) = 3.43337 3.68725 3.56257
# Velocity P-wave (km/s) = 5.99357 6.33728 6.16782
#
# Compressibility (1/GPa) = 0.02694101
#
# Stress axis : x y z
#
# Youngs Moduli (GPa) = 48.39679 67.12617 48.21272
#
# Poissons Ratio (x) = 0.47298 0.31371
# Poissons Ratio (y) = 0.34101 0.05435
# Poissons Ratio (z) = 0.31490 0.07567
#
# Static dielectric constant tensor:
#      x y z
#    x 3.641660 0.000000 -0.060790 
#    y 0.000000 3.373040 0.000000 
#    z -0.060790 0.000000 3.170170 
# 
# 
# High freq. dielectric constant tensor:
#      x y z
#    x 1.712170 0.000000 -0.006620 
#    y 0.000000 1.703180 0.000000 
#    z -0.006620 0.000000 1.688150 
# 
# From -- ./inp_files/243756.got.cif
#   From: 2010.06.25/outbox.cif.g09.slc.cpg/sg15_122_cif.got.tgz:243756.got - 2010.06.28 07:06:18.
