data_PCOD8130211
_publ_section_title
;
Structure prediction by ZEFSAII (Michael W. Deem and Ramdas Pophale) SiO2 
 PCOD8130211
Probable space group: C 2/C
;
_chemical_formula_sum "Si O2"
_cell_formula_units_Z 56
_cell_length_a 16.550472
_cell_length_b 9.438718
_cell_length_c 23.067253
_cell_angle_alpha 90.000000
_cell_angle_beta 52.743458
_cell_angle_gamma 90.000000
_cell_volume 2868.109463
_symmetry_space_group_name_H-M "C 2/C"
_symmetry_group_IT_number 15
_symmetry_cell_setting 'monoclinic'
loop_
_space_group_symop_operation_xyz
x,y,z
-x,y,1/2-z
-x,-y,-z
x,-y,1/2+z
1/2+x,1/2+y,z
1/2-x,1/2+y,1/2-z
1/2-x,1/2-y,-z
1/2+x,1/2-y,1/2+z
loop_
_atom_site_type_symbol
_atom_site_label
_atom_site_fract_x
_atom_site_fract_y
_atom_site_fract_z
Si Si1 0.352580 0.671602 0.641600
Si Si2 0.428153 0.101162 0.830778
Si Si3 0.203593 0.853157 0.208761
Si Si4 0.538641 0.344101 0.989051
Si Si5 0.247800 0.083799 0.381584
Si Si6 0.159186 0.156316 0.204369
Si Si7 0.077375 0.704623 0.851908
O O1 0.366528 0.664760 0.704397
O O2 0.460826 0.724913 0.568602
O O3 0.309854 0.518131 0.639298
O O4 0.274301 0.791649 0.656985
O O5 0.500000 0.032560 0.750000
O O6 0.397457 0.260079 0.822850
O O7 0.489190 0.103305 0.864598
O O8 0.328715 0.004175 0.883973
O O9 0.193652 0.709911 0.176279
O O10 0.320455 0.882200 0.177525
O O11 0.162109 0.987929 0.190362
O O12 0.656669 0.346652 0.959889
O O13 0.530841 0.272266 0.929564
O O14 0.500000 0.500000 0.000000
O O15 0.103985 0.181854 0.290136
#
# Coordination Sequence:
#
# PCOD8130211 Si02
#       7
#     8   8   8   8   8   8   8
#     4   9  16  28  48  75  99 127 165 205 243 292
#     4   9  18  33  51  72 101 131 165 205 251 299
#     4  10  17  30  54  78  96 123 168 213 247 285
#     4   9  16  29  49  76 102 130 170 209 241 290
#     4   9  18  31  48  73 101 130 164 209 250 293
#     4   9  17  30  49  73  99 127 164 210 250 291
#     4   9  18  31  51  75 100 132 169 207 246 296
#
# _framework density 19.525058000000001
#
# number of rings (size 3 to 8) (size 9 to 14) (size 15 to 20)
#    0.000    2.857    0.000    4.286    0.000    0.000 
#    0.000   11.429    0.000   10.286    0.000   14.000 
#    0.000    0.000    0.000    0.000    0.000    0.000 
#
# Total GULP energy -346908.098953 kJ/mol
# GULP energy per Si atom -12389.574963 kJ/mol
# Density = 1.948062 g / cm^3
# Si number density = 19.525058 Si / 1000 Ang^3
#
#
#
# Elastic Constant Matrix: (Units=GPa)
#
#
# Indices 1 2 3 4 5 6 
#
# 1 96.4209 23.3485 36.3989 0.0000 -13.7618 0.0000
# 2 23.3485 70.8654 30.8070 0.0000 -4.7321 0.0001
# 3 36.3989 30.8070 128.6896 0.0000 -24.6166 0.0000
# 4 0.0000 0.0000 0.0000 17.0009 0.0000 -2.6081
# 5 -13.7618 -4.7321 -24.6166 0.0000 17.9431 0.0000
# 6 0.0000 0.0001 0.0000 -2.6081 0.0000 19.1472
#
#
#
# Elastic Compliance Matrix: (Units=1/GPa)
#
#
# Indices 1 2 3 4 5 6 
#
# 1 0.012663 -0.003043 -0.001558 0.000000 0.006772 0.000000
# 2 -0.003043 0.016507 -0.003667 0.000000 -0.003011 0.000000
# 3 -0.001558 -0.003667 0.011762 0.000000 0.013975 0.000000
# 4 0.000000 0.000000 0.000000 0.060076 0.000000 0.008183
# 5 0.006772 -0.003011 0.013975 0.000000 0.079305 0.000000
# 6 0.000000 0.000000 0.000000 0.008183 0.000000 0.053342
#
#
# Mechanical properties :
#
#
# Convention : Reuss Voigt Hill
#
# Bulk Modulus (GPa) = 40.98833 53.00941 46.99887
# Shear Modulus (GPa) = 19.35575 24.51299 21.93437
#
# Velocity S-wave (km/s) = 3.15195 3.54710 3.35535
# Velocity P-wave (km/s) = 5.85531 6.63206 6.25575
#
# Compressibility (1/GPa) = 0.02439719
#
# Stress axis : x y z
#
# Youngs Moduli (GPa) = 78.97274 60.58115 85.01704
#
# Poissons Ratio (x) = 0.18433 0.13243
# Poissons Ratio (y) = 0.24029 0.31175
# Poissons Ratio (z) = 0.12302 0.22215
#
# Static dielectric constant tensor:
#      x y z
#    x 3.492330 0.000000 -0.539990 
#    y 0.000000 3.371150 0.000000 
#    z -0.539990 0.000000 4.016050 
# 
# 
# High freq. dielectric constant tensor:
#      x y z
#    x 1.737360 0.000000 -0.028670 
#    y 0.000000 1.743700 0.000000 
#    z -0.028670 0.000000 1.747760 
# 
# From -- ./inp_files/276519.got.cif
#   From: 2010.06.25/outbox.cif.g09.slc.cpg/sg15_139_cif.got.tgz:276519.got - 2010.06.28 07:06:18.
