data_PCOD8130081
_publ_section_title
;
Structure prediction by ZEFSAII (Michael W. Deem and Ramdas Pophale) SiO2 
 PCOD8130081
Probable space group: C 2/C
;
_chemical_formula_sum "Si O2"
_cell_formula_units_Z 56
_cell_length_a 19.916463
_cell_length_b 12.641075
_cell_length_c 21.823417
_cell_angle_alpha 90.000000
_cell_angle_beta 33.699134
_cell_angle_gamma 90.000000
_cell_volume 3048.459004
_symmetry_space_group_name_H-M "C 2/C"
_symmetry_group_IT_number 15
_symmetry_cell_setting 'monoclinic'
loop_
_space_group_symop_operation_xyz
x,y,z
-x,y,1/2-z
-x,-y,-z
x,-y,1/2+z
1/2+x,1/2+y,z
1/2-x,1/2+y,1/2-z
1/2-x,1/2-y,-z
1/2+x,1/2-y,1/2+z
loop_
_atom_site_type_symbol
_atom_site_label
_atom_site_fract_x
_atom_site_fract_y
_atom_site_fract_z
Si Si1 0.191956 0.051699 0.348021
Si Si2 0.033535 0.893816 0.628823
Si Si3 0.941428 0.693906 0.966676
Si Si4 0.823343 0.820687 0.866882
Si Si5 0.831899 0.641005 0.774930
Si Si6 0.487071 0.585273 0.592215
Si Si7 0.353474 0.778235 0.660974
O O1 0.294248 0.129029 0.244665
O O2 0.091689 0.111945 0.463864
O O3 0.264279 0.969419 0.336391
O O4 0.121270 0.990561 0.348349
O O5 0.037877 0.819168 0.564975
O O6 0.138633 0.846120 0.592474
O O7 0.903751 0.890732 0.760062
O O8 0.049588 0.018682 0.600047
O O9 0.816031 0.649322 0.034884
O O10 0.944309 0.679750 0.038384
O O11 0.043202 0.623183 0.856537
O O12 0.849213 0.697338 0.828175
O O13 0.752156 0.718621 0.794246
O O14 0.426326 0.699468 0.652403
#
# Coordination Sequence:
#
# PCOD8130081 Si02
#       7
#     8   8   8   8   8   8   8
#     4  10  19  32  48  71 102 135 168 203 254 310
#     4  10  18  30  49  73  99 132 170 205 248 301
#     4  10  17  28  45  70 104 132 159 205 258 301
#     4   9  18  30  47  74 101 127 164 210 249 297
#     4   9  18  30  47  71 102 134 163 205 258 307
#     4  10  18  31  51  70  98 138 169 202 252 306
#     4  10  19  30  46  71 102 135 169 205 245 305
#
# _framework density 18.369937
#
# number of rings (size 3 to 8) (size 9 to 14) (size 15 to 20)
#    0.000    2.286    0.000    7.286    0.000    0.571 
#    0.000    1.429    0.000    0.000    0.000   17.000 
#    0.000    0.000    0.000    0.000    0.000    0.000 
#
# Total GULP energy -346936.435979 kJ/mol
# GULP energy per Si atom -12390.586999 kJ/mol
# Density = 1.832813 g / cm^3
# Si number density = 18.369937 Si / 1000 Ang^3
#
#
#
# Elastic Constant Matrix: (Units=GPa)
#
#
# Indices 1 2 3 4 5 6 
#
# 1 56.1705 40.0013 15.4706 0.0000 2.1241 0.0000
# 2 40.0013 70.5843 29.1300 0.0000 4.2718 0.0000
# 3 15.4706 29.1300 64.6570 0.0000 -5.4895 0.0000
# 4 0.0000 0.0000 0.0000 27.3788 0.0000 -3.1469
# 5 2.1241 4.2718 -5.4895 0.0000 27.4218 0.0000
# 6 0.0000 0.0000 0.0000 -3.1469 0.0000 28.8752
#
#
#
# Elastic Compliance Matrix: (Units=1/GPa)
#
#
# Indices 1 2 3 4 5 6 
#
# 1 0.029875 -0.017232 0.000658 0.000000 0.000502 0.000000
# 2 -0.017232 0.027870 -0.008839 0.000000 -0.004776 0.000000
# 3 0.000658 -0.008839 0.019739 0.000000 0.005277 0.000000
# 4 0.000000 0.000000 0.000000 0.036988 0.000000 0.004031
# 5 0.000502 -0.004776 0.005277 0.000000 0.038229 0.000000
# 6 0.000000 0.000000 0.000000 0.004031 0.000000 0.035071
#
#
# Mechanical properties :
#
#
# Convention : Reuss Voigt Hill
#
# Bulk Modulus (GPa) = 37.51236 40.06840 38.79038
# Shear Modulus (GPa) = 20.20341 23.85583 22.02962
#
# Velocity S-wave (km/s) = 3.31993 3.60757 3.46673
# Velocity P-wave (km/s) = 5.92965 6.26195 6.09807
#
# Compressibility (1/GPa) = 0.02665788
#
# Stress axis : x y z
#
# Youngs Moduli (GPa) = 33.47330 35.88077 50.66151
#
# Poissons Ratio (x) = 0.61831 -0.03335
# Poissons Ratio (y) = 0.57683 0.44778
# Poissons Ratio (z) = -0.02203 0.31714
#
# Static dielectric constant tensor:
#      x y z
#    x 3.243940 0.000000 -0.099750 
#    y 0.000000 3.182240 0.000000 
#    z -0.099750 0.000000 3.670320 
# 
# 
# High freq. dielectric constant tensor:
#      x y z
#    x 1.673010 0.000000 -0.012110 
#    y 0.000000 1.674000 0.000000 
#    z -0.012110 0.000000 1.735440 
# 
# From -- ./inp_files/281886.got.cif
#   From: 2010.06.25/outbox.cif.g09.slc.cpg/sg15_141_cif.got.tgz:281886.got - 2010.06.28 07:06:18.
