data_PCOD8130317
_publ_section_title
;
Structure prediction by ZEFSAII (Michael W. Deem and Ramdas Pophale) SiO2 
 PCOD8130317
Probable space group: C 2/C
;
_chemical_formula_sum "Si O2"
_cell_formula_units_Z 64
_cell_length_a 17.334270
_cell_length_b 24.391951
_cell_length_c 14.194745
_cell_angle_alpha 90.000000
_cell_angle_beta 149.244311
_cell_angle_gamma 90.000000
_cell_volume 3069.178054
_symmetry_space_group_name_H-M "C 2/C"
_symmetry_group_IT_number 15
_symmetry_cell_setting 'monoclinic'
loop_
_space_group_symop_operation_xyz
x,y,z
-x,y,1/2-z
-x,-y,-z
x,-y,1/2+z
1/2+x,1/2+y,z
1/2-x,1/2+y,1/2-z
1/2-x,1/2-y,-z
1/2+x,1/2-y,1/2+z
loop_
_atom_site_type_symbol
_atom_site_label
_atom_site_fract_x
_atom_site_fract_y
_atom_site_fract_z
Si Si1 0.705728 0.850615 0.654871
Si Si2 0.800640 0.264411 0.333183
Si Si3 0.650630 0.861730 0.239735
Si Si4 0.894425 0.545142 0.936189
Si Si5 0.821659 0.511143 0.048984
Si Si6 0.346794 0.891212 0.704945
Si Si7 0.326705 0.602016 0.093648
Si Si8 0.418848 0.229200 0.255778
O O1 0.763058 0.789090 0.732549
O O2 0.528765 0.851774 0.442623
O O3 0.740230 0.885136 0.786661
O O4 0.802074 0.878904 0.674609
O O5 0.759889 0.316473 0.227045
O O6 0.721599 0.265440 0.354483
O O7 0.977213 0.270030 0.542044
O O8 0.688835 0.921130 0.233201
O O9 0.722002 0.859739 0.418157
O O10 0.783659 0.518192 0.897255
O O11 0.000000 0.500000 0.000000
O O12 0.985496 0.588342 0.096180
O O13 0.768628 0.564441 0.053848
O O14 0.000000 0.497891 0.250000
O O15 0.721797 0.460372 0.976922
O O16 0.362321 0.832117 0.671112
O O17 0.500000 0.610007 0.250000
O O18 0.500000 0.256047 0.250000
#
# Coordination Sequence:
#
# PCOD8130317 Si02
#       8
#     8   8   8   8   8   8   8   8
#     4  10  22  43  64  89 125 169 214 265 315 383
#     4  11  22  39  65  93 132 167 211 264 315 372
#     4  11  22  42  64  93 121 169 219 265 314 386
#     4  10  17  31  62  93 118 155 210 263 303 361
#     4  10  19  37  66  94 123 161 213 261 313 383
#     4   9  18  35  63  92 121 160 212 257 300 373
#     4  12  27  41  63  89 124 163 215 272 335 387
#     4  11  21  38  62  97 133 172 212 257 309 379
#
# _framework density 20.852487
#
# number of rings (size 3 to 8) (size 9 to 14) (size 15 to 20)
#    0.000    1.500    3.750    5.625    1.750    0.500 
#    0.000    2.500    0.000    0.000    0.000    0.000 
#    0.000    0.000    0.000    0.000    0.000    0.000 
#
# Total GULP energy -396639.541057 kJ/mol
# GULP energy per Si atom -12394.985658 kJ/mol
# Density = 2.080503 g / cm^3
# Si number density = 20.852487 Si / 1000 Ang^3
#
#
#
# Elastic Constant Matrix: (Units=GPa)
#
#
# Indices 1 2 3 4 5 6 
#
# 1 144.0717 58.3805 27.2616 0.0000 -5.0420 0.0000
# 2 58.3805 116.2943 31.1337 0.0000 0.8667 0.0000
# 3 27.2616 31.1337 58.6951 0.0000 -2.9864 0.0000
# 4 0.0000 0.0000 0.0000 23.9364 0.0000 -1.8339
# 5 -5.0420 0.8667 -2.9864 0.0000 26.2142 0.0000
# 6 0.0000 0.0000 0.0000 -1.8339 0.0000 36.4381
#
#
#
# Elastic Compliance Matrix: (Units=1/GPa)
#
#
# Indices 1 2 3 4 5 6 
#
# 1 0.008992 -0.003998 -0.001972 0.000000 0.001637 0.000000
# 2 -0.003998 0.011823 -0.004499 0.000000 -0.001672 0.000000
# 3 -0.001972 -0.004499 0.020447 0.000000 0.002099 0.000000
# 4 0.000000 0.000000 0.000000 0.041939 0.000000 0.002111
# 5 0.001637 -0.001672 0.002099 0.000000 0.038757 0.000000
# 6 0.000000 0.000000 0.000000 0.002111 0.000000 0.027550
#
#
# Mechanical properties :
#
#
# Convention : Reuss Voigt Hill
#
# Bulk Modulus (GPa) = 49.20841 61.40141 55.30491
# Shear Modulus (GPa) = 28.21351 30.80342 29.50846
#
# Velocity S-wave (km/s) = 3.68231 3.84761 3.76587
# Velocity P-wave (km/s) = 6.45978 7.01772 6.74452
#
# Compressibility (1/GPa) = 0.02032173
#
# Stress axis : x y z
#
# Youngs Moduli (GPa) = 111.21565 84.58154 48.90777
#
# Poissons Ratio (x) = 0.33816 0.09646
# Poissons Ratio (y) = 0.44464 0.22006
# Poissons Ratio (z) = 0.21935 0.38057
#
# Static dielectric constant tensor:
#      x y z
#    x 3.997400 0.000000 -0.280180 
#    y 0.000000 3.890770 0.000000 
#    z -0.280180 0.000000 3.515950 
# 
# 
# High freq. dielectric constant tensor:
#      x y z
#    x 1.827290 0.000000 -0.023610 
#    y 0.000000 1.818020 0.000000 
#    z -0.023610 0.000000 1.778500 
# 
# From -- ./inp_files/164272.got.cif
#   From: 2010.06.25/outbox.cif.g09.slc.cpg/sg15_83_cif.got.tgz:164272.got - 2010.06.28 07:06:18.
