data_PCOD8130443
_publ_section_title
;
Structure prediction by ZEFSAII (Michael W. Deem and Ramdas Pophale) SiO2 
 PCOD8130443
Probable space group: C 2/C
;
_chemical_formula_sum "Si O2"
_cell_formula_units_Z 64
_cell_length_a 27.572098
_cell_length_b 18.417313
_cell_length_c 12.758693
_cell_angle_alpha 90.000000
_cell_angle_beta 146.916503
_cell_angle_gamma 90.000000
_cell_volume 3536.584645
_symmetry_space_group_name_H-M "C 2/C"
_symmetry_group_IT_number 15
_symmetry_cell_setting 'monoclinic'
loop_
_space_group_symop_operation_xyz
x,y,z
-x,y,1/2-z
-x,-y,-z
x,-y,1/2+z
1/2+x,1/2+y,z
1/2-x,1/2+y,1/2-z
1/2-x,1/2-y,-z
1/2+x,1/2-y,1/2+z
loop_
_atom_site_type_symbol
_atom_site_label
_atom_site_fract_x
_atom_site_fract_y
_atom_site_fract_z
Si Si1 0.993967 0.316487 0.467488
Si Si2 0.089221 0.306480 0.969481
Si Si3 0.313693 0.687454 0.484457
Si Si4 0.644891 0.715416 0.710381
Si Si5 0.629332 0.940262 0.776559
Si Si6 0.229306 0.449302 0.748136
Si Si7 0.255551 0.902815 0.322575
Si Si8 0.919927 0.425535 0.181298
O O1 0.048185 0.249700 0.512989
O O2 0.062085 0.373873 0.641447
O O3 0.929492 0.288893 0.442858
O O4 0.934309 0.350268 0.267932
O O5 0.000000 0.333468 0.750000
O O6 0.124818 0.233567 0.980816
O O7 0.162931 0.369343 0.095637
O O8 0.360068 0.683985 0.681062
O O9 0.215753 0.720044 0.324159
O O10 0.305217 0.607875 0.417456
O O11 0.670369 0.650750 0.675760
O O12 0.666467 0.966146 0.732536
O O13 0.579471 0.008671 0.735593
O O14 0.710645 0.914627 0.997250
O O15 0.274976 0.523769 0.790784
O O16 0.171221 0.417466 0.547372
O O17 0.000000 0.443236 0.250000
#
# Coordination Sequence:
#
# PCOD8130443 Si02
#       8
#     8   8   8   8   8   8   8   8
#     4  12  20  33  51  79 112 138 179 217 265 318
#     4  11  20  31  53  86 108 132 172 228 270 307
#     4  10  18  34  53  77 106 141 181 217 266 312
#     4  10  17  33  54  76 104 140 182 223 257 310
#     4  11  19  30  49  75 111 142 175 208 257 326
#     4  11  21  35  50  76 111 148 176 211 266 322
#     4  10  21  31  52  80 110 140 175 219 265 314
#     4  11  23  30  46  78 114 151 169 208 267 323
#
# _framework density 18.096556
#
# number of rings (size 3 to 8) (size 9 to 14) (size 15 to 20)
#    0.000    1.250    6.250    1.875    3.500    0.000 
#    0.000    0.625    0.000    3.750    0.000    0.000 
#    0.000    0.000    0.000    0.000    0.000    0.000 
#
# Total GULP energy -396825.355443 kJ/mol
# GULP energy per Si atom -12400.792358 kJ/mol
# Density = 1.805537 g / cm^3
# Si number density = 18.096556 Si / 1000 Ang^3
#
#
#
# Elastic Constant Matrix: (Units=GPa)
#
#
# Indices 1 2 3 4 5 6 
#
# 1 107.8698 47.6571 28.0230 0.0000 -4.4216 0.0000
# 2 47.6571 105.1551 31.1968 0.0000 4.6746 0.0000
# 3 28.0230 31.1968 30.9821 0.0000 0.0385 0.0000
# 4 0.0000 0.0000 0.0000 31.0230 0.0000 0.4646
# 5 -4.4216 4.6746 0.0385 0.0000 15.3408 0.0000
# 6 0.0000 0.0000 0.0000 0.4646 0.0000 29.5421
#
#
#
# Elastic Compliance Matrix: (Units=1/GPa)
#
#
# Indices 1 2 3 4 5 6 
#
# 1 0.013288 -0.003818 -0.008180 0.000000 0.005014 0.000000
# 2 -0.003818 0.014920 -0.011563 0.000000 -0.005618 0.000000
# 3 -0.008180 -0.011563 0.051318 0.000000 0.001037 0.000000
# 4 0.000000 0.000000 0.000000 0.032242 0.000000 -0.000507
# 5 0.005014 -0.005618 0.001037 0.000000 0.068340 0.000000
# 6 0.000000 0.000000 0.000000 -0.000507 0.000000 0.033858
#
#
# Mechanical properties :
#
#
# Convention : Reuss Voigt Hill
#
# Bulk Modulus (GPa) = 30.86183 50.86232 40.86207
# Shear Modulus (GPa) = 18.38970 24.32319 21.35644
#
# Velocity S-wave (km/s) = 3.19125 3.67014 3.43904
# Velocity P-wave (km/s) = 5.53803 6.79169 6.19664
#
# Compressibility (1/GPa) = 0.03240249
#
# Stress axis : x y z
#
# Youngs Moduli (GPa) = 75.25580 67.02191 19.48632
#
# Poissons Ratio (x) = 0.25590 0.15941
# Poissons Ratio (y) = 0.28734 0.22533
# Poissons Ratio (z) = 0.61563 0.77500
#
# Static dielectric constant tensor:
#      x y z
#    x 3.509580 0.000000 -0.121930 
#    y 0.000000 3.333530 0.000000 
#    z -0.121930 0.000000 3.026760 
# 
# 
# High freq. dielectric constant tensor:
#      x y z
#    x 1.711430 0.000000 -0.013740 
#    y 0.000000 1.691900 0.000000 
#    z -0.013740 0.000000 1.656070 
# 
# From -- ./inp_files/119730.got.cif
#   From: 2010.06.25/outbox.cif.g09.slc.cpg/sg15_60_cif.got.tgz:119730.got - 2010.06.28 07:06:18.
