data_PCOD8130036
_publ_section_title
;
Structure prediction by ZEFSAII (Michael W. Deem and Ramdas Pophale) SiO2 
 PCOD8130036
Probable space group: C 2/C
;
_chemical_formula_sum "Si O2"
_cell_formula_units_Z 44
_cell_length_a 7.545642
_cell_length_b 17.583966
_cell_length_c 14.091925
_cell_angle_alpha 90.000000
_cell_angle_beta 75.398049
_cell_angle_gamma 90.000000
_cell_volume 1809.357393
_symmetry_space_group_name_H-M "C 2/C"
_symmetry_group_IT_number 15
_symmetry_cell_setting 'monoclinic'
loop_
_space_group_symop_operation_xyz
x,y,z
-x,y,1/2-z
-x,-y,-z
x,-y,1/2+z
1/2+x,1/2+y,z
1/2-x,1/2+y,1/2-z
1/2-x,1/2-y,-z
1/2+x,1/2-y,1/2+z
loop_
_atom_site_type_symbol
_atom_site_label
_atom_site_fract_x
_atom_site_fract_y
_atom_site_fract_z
Si Si1 0.789747 0.415784 0.912282
Si Si2 0.000000 0.693260 0.250000
Si Si3 0.307099 0.770375 0.323124
Si Si4 0.918368 0.119361 0.367274
Si Si5 0.287111 0.461262 0.379397
Si Si6 0.784141 0.932711 0.170318
O O1 0.934295 0.358832 0.846319
O O2 0.581131 0.390435 0.920218
O O3 0.825145 0.501534 0.870209
O O4 0.817124 0.416636 0.022517
O O5 0.163188 0.747382 0.260885
O O6 0.500000 0.785910 0.250000
O O7 0.321637 0.701498 0.397483
O O8 0.246101 0.851086 0.376665
O O9 0.000000 0.118035 0.250000
O O10 0.763965 0.053110 0.394307
O O11 0.211333 0.430688 0.289356
O O12 0.503606 0.451093 0.358891
#
# Coordination Sequence:
#
# PCOD8130036 Si02
#       6
#     8   4   8   8   8   8
#     4  11  22  39  71  97 126 175 227 264 321 394
#     4  12  22  42  68  92 126 184 218 260 334 392
#     4  11  23  41  68  93 135 175 210 272 339 378
#     4  10  16  39  65  91 131 173 207 265 329 379
#     4  10  19  39  70  99 127 172 221 269 326 389
#     4  10  20  40  66  98 131 167 217 276 324 382
#
# _framework density 24.318026
#
# number of rings (size 3 to 8) (size 9 to 14) (size 15 to 20)
#    0.000    1.455    7.273    3.273    1.273    0.000 
#    0.000   10.909    4.000    0.000    0.000    0.000 
#    0.000    0.000    0.000    0.000    0.000    0.000 
#
# Total GULP energy -272747.254877 kJ/mol
# GULP energy per Si atom -12397.602494 kJ/mol
# Density = 2.426268 g / cm^3
# Si number density = 24.318026 Si / 1000 Ang^3
#
#
#
# Elastic Constant Matrix: (Units=GPa)
#
#
# Indices 1 2 3 4 5 6 
#
# 1 41.3682 29.7095 6.4409 0.0000 2.9886 0.0000
# 2 29.7095 167.5509 0.3155 0.0000 2.9948 0.0000
# 3 6.4409 0.3155 103.0921 0.0000 13.0055 0.0000
# 4 0.0000 0.0000 0.0000 -0.8525 0.0000 -0.5617
# 5 2.9886 2.9948 13.0055 0.0000 20.6144 0.0000
# 6 0.0000 0.0000 0.0000 -0.5617 0.0000 16.7643
#
#
#
# Elastic Compliance Matrix: (Units=1/GPa)
#
#
# Indices 1 2 3 4 5 6 
#
# 1 0.028121 -0.004940 -0.001432 0.000000 -0.002456 0.000000
# 2 -0.004940 0.006853 0.000351 0.000000 -0.000501 0.000000
# 3 -0.001432 0.000351 0.010613 0.000000 -0.006539 0.000000
# 4 0.000000 0.000000 0.000000 -1.147679 0.000000 -0.038455
# 5 -0.002456 -0.000501 -0.006539 0.000000 0.053064 0.000000
# 6 0.000000 0.000000 0.000000 -0.038455 0.000000 0.058362
#
#
# Mechanical properties :
#
#
# Convention : Reuss Voigt Hill
#
# Bulk Modulus (GPa) = 29.81051 42.77144 36.29098
# Shear Modulus (GPa) = -5.16827 25.67493 10.25333
#
# Velocity S-wave (km/s) = -1.45942 3.25283 2.05560
# Velocity P-wave (km/s) = 3.07333 5.63333 4.53761
#
# Compressibility (1/GPa) = 0.03354522
#
# Stress axis : x y z
#
# Youngs Moduli (GPa) = 35.56043 145.93175 94.22036
#
# Poissons Ratio (x) = 0.72086 0.13492
# Poissons Ratio (y) = 0.17566 -0.03305
# Poissons Ratio (z) = 0.05092 -0.05120
#
# Static dielectric constant tensor:
#      x y z
#    x 4.131020 0.000000 0.086910 
#    y 0.000000 4.971630 0.000000 
#    z 0.086910 0.000000 4.174990 
# 
# 
# High freq. dielectric constant tensor:
#      x y z
#    x 1.955580 0.000000 0.001880 
#    y 0.000000 1.976160 0.000000 
#    z 0.001880 0.000000 1.937910 
# 
# From -- ./inp_files/134274.got.cif
#   From: 2010.06.25/outbox.cif.g09.slc.cpg/sg15_68_cif.got.tgz:134274.got - 2010.06.28 07:06:18.
