data_PCOD8130751
_publ_section_title
;
Structure prediction by ZEFSAII (Michael W. Deem and Ramdas Pophale) SiO2 
 PCOD8130751
Probable space group: C 2/C
;
_chemical_formula_sum "Si O2"
_cell_formula_units_Z 60
_cell_length_a 18.638502
_cell_length_b 29.588006
_cell_length_c 5.264217
_cell_angle_alpha 90.000000
_cell_angle_beta 80.347307
_cell_angle_gamma 90.000000
_cell_volume 2861.988683
_symmetry_space_group_name_H-M "C 2/C"
_symmetry_group_IT_number 15
_symmetry_cell_setting 'monoclinic'
loop_
_space_group_symop_operation_xyz
x,y,z
-x,y,1/2-z
-x,-y,-z
x,-y,1/2+z
1/2+x,1/2+y,z
1/2-x,1/2+y,1/2-z
1/2-x,1/2-y,-z
1/2+x,1/2-y,1/2+z
loop_
_atom_site_type_symbol
_atom_site_label
_atom_site_fract_x
_atom_site_fract_y
_atom_site_fract_z
Si Si1 0.469753 0.312060 0.521664
Si Si2 0.000000 0.102225 0.250000
Si Si3 0.910162 0.515857 0.660793
Si Si4 0.607893 0.475089 0.776365
Si Si5 0.816655 0.405270 0.213953
Si Si6 0.189729 0.208080 0.266911
Si Si7 0.229032 0.450906 0.749354
Si Si8 0.224438 0.692935 0.777696
O O1 0.500000 0.288044 0.250000
O O2 0.502833 0.363409 0.506824
O O3 0.383376 0.314753 0.590919
O O4 0.500000 0.284577 0.750000
O O5 0.073432 0.073220 0.229997
O O6 0.953271 0.492773 0.400113
O O7 0.894763 0.569150 0.628808
O O8 0.832183 0.489771 0.754189
O O9 0.580062 0.508160 0.567722
O O10 0.695059 0.474390 0.730133
O O11 0.787467 0.417570 0.508813
O O12 0.826976 0.351295 0.199494
O O13 0.764161 0.421452 0.014119
O O14 0.178159 0.262182 0.242649
O O15 0.247413 0.196961 0.451518
O O16 0.213171 0.188106 0.977748
#
# Coordination Sequence:
#
# PCOD8130751 Si02
#       8
#     8   4   8   8   8   8   8   8
#     4  10  23  39  58  75  96 128 174 211 263 310
#     4  10  28  36  54  70  88 126 176 222 264 302
#     4   8  14  25  36  56  85 111 147 184 212 261
#     4  12  24  37  49  63  92 127 164 220 273 293
#     4  10  18  27  47  68  89 117 158 186 233 295
#     4  10  21  39  51  77 103 123 156 208 261 322
#     4  10  19  31  44  66  91 123 161 198 240 291
#     4  10  21  33  56  77 102 127 152 202 271 308
#
# _framework density 20.964442999999999
#
# number of rings (size 3 to 8) (size 9 to 14) (size 15 to 20)
#    0.400    1.600    0.000    5.200    5.600    0.000 
#    0.000    0.000    0.000    0.000    0.000    0.000 
#    0.000    0.000    0.000    0.000    0.000   36.000 
#
# Total GULP energy -371707.300679 kJ/mol
# GULP energy per Si atom -12390.243356 kJ/mol
# Density = 2.091673 g / cm^3
# Si number density = 20.964443 Si / 1000 Ang^3
#
#
#
# Elastic Constant Matrix: (Units=GPa)
#
#
# Indices 1 2 3 4 5 6 
#
# 1 40.9274 5.4049 16.6689 0.0000 6.5029 0.0000
# 2 5.4049 109.5264 29.9933 0.0000 9.7957 0.0000
# 3 16.6689 29.9933 141.6834 0.0000 11.2285 0.0000
# 4 0.0000 0.0000 0.0000 21.4808 0.0000 1.3521
# 5 6.5029 9.7957 11.2285 0.0000 28.2258 0.0000
# 6 0.0000 0.0000 0.0000 1.3521 0.0000 10.9620
#
#
#
# Elastic Compliance Matrix: (Units=1/GPa)
#
#
# Indices 1 2 3 4 5 6 
#
# 1 0.026328 -0.000122 -0.002679 0.000000 -0.004958 0.000000
# 2 -0.000122 0.009886 -0.001868 0.000000 -0.002660 0.000000
# 3 -0.002679 -0.001868 0.007918 0.000000 -0.001885 0.000000
# 4 0.000000 0.000000 0.000000 0.046918 0.000000 -0.005787
# 5 -0.004958 -0.002660 -0.001885 0.000000 0.038243 0.000000
# 6 0.000000 0.000000 0.000000 -0.005787 0.000000 0.091938
#
#
# Mechanical properties :
#
#
# Convention : Reuss Voigt Hill
#
# Bulk Modulus (GPa) = 28.74004 44.03013 36.38509
# Shear Modulus (GPa) = 20.64697 28.13839 24.39268
#
# Velocity S-wave (km/s) = 3.14165 3.66757 3.41475
# Velocity P-wave (km/s) = 5.18639 6.24361 5.73940
#
# Compressibility (1/GPa) = 0.03479466
#
# Stress axis : x y z
#
# Youngs Moduli (GPa) = 37.98187 101.15786 126.29728
#
# Poissons Ratio (x) = 0.01237 0.33831
# Poissons Ratio (y) = 0.00465 0.23586
# Poissons Ratio (z) = 0.10174 0.18891
#
# Static dielectric constant tensor:
#      x y z
#    x 3.494610 0.000000 0.334130 
#    y 0.000000 3.724240 0.000000 
#    z 0.334130 0.000000 4.389530 
# 
# 
# High freq. dielectric constant tensor:
#      x y z
#    x 1.796420 0.000000 0.019390 
#    y 0.000000 1.799170 0.000000 
#    z 0.019390 0.000000 1.854870 
# 
# From -- ./inp_files/14274.got.cif
#   From: 2010.06.25/outbox.cif.g09.slc.cpg/sg15_8_cif.got.tgz:14274.got - 2010.06.28 07:06:18.
