data_PCOD8130815
_publ_section_title
;
Structure prediction by ZEFSAII (Michael W. Deem and Ramdas Pophale) SiO2 
 PCOD8130815
Probable space group: C 2/C
;
_chemical_formula_sum "Si O2"
_cell_formula_units_Z 56
_cell_length_a 20.646233
_cell_length_b 13.387324
_cell_length_c 17.677625
_cell_angle_alpha 90.000000
_cell_angle_beta 38.191988
_cell_angle_gamma 90.000000
_cell_volume 3021.041611
_symmetry_space_group_name_H-M "C 2/C"
_symmetry_group_IT_number 15
_symmetry_cell_setting 'monoclinic'
loop_
_space_group_symop_operation_xyz
x,y,z
-x,y,1/2-z
-x,-y,-z
x,-y,1/2+z
1/2+x,1/2+y,z
1/2-x,1/2+y,1/2-z
1/2-x,1/2-y,-z
1/2+x,1/2-y,1/2+z
loop_
_atom_site_type_symbol
_atom_site_label
_atom_site_fract_x
_atom_site_fract_y
_atom_site_fract_z
Si Si1 0.423639 0.845778 0.444626
Si Si2 0.236624 0.133095 0.025355
Si Si3 0.090314 0.537635 0.863066
Si Si4 0.709672 0.142532 0.280190
Si Si5 0.214413 0.136947 0.754783
Si Si6 0.400751 0.620855 0.481918
Si Si7 0.874430 0.948982 0.729286
O O1 0.353947 0.900322 0.443297
O O2 0.536015 0.901996 0.343920
O O3 0.361795 0.853432 0.579953
O O4 0.441875 0.728221 0.413452
O O5 0.191527 0.082389 0.990290
O O6 0.155757 0.106925 0.166140
O O7 0.250000 0.250000 0.000000
O O8 0.160390 0.443055 0.770630
O O9 0.164237 0.612730 0.841810
O O10 0.000000 0.500000 0.000000
O O11 0.710703 0.246709 0.233514
O O12 0.825871 0.109861 0.201167
O O13 0.167774 0.063920 0.733033
O O14 0.146466 0.123102 0.892098
O O15 0.499902 0.547153 0.391646
#
# Coordination Sequence:
#
# PCOD8130815 Si02
#       7
#     8   8   8   8   8   8   8
#     4   8  15  27  45  68  97 129 161 201 254 305
#     4   9  18  31  47  72 102 130 165 211 262 316
#     4   9  16  29  48  69  98 136 174 214 259 304
#     4   8  16  28  44  70  99 126 165 211 252 297
#     4  10  19  30  46  73 102 130 170 216 257 309
#     4  10  18  29  45  70 104 135 163 203 259 317
#     4  10  18  30  48  70 100 136 168 206 259 316
#
# _framework density 18.536653000000001
#
# number of rings (size 3 to 8) (size 9 to 14) (size 15 to 20)
#    0.000    2.857    0.000    3.429    0.000    0.000 
#    0.000    2.143    0.000    0.000    0.000   13.000 
#    0.000    0.000    0.000    0.000    0.000    0.000 
#
# Total GULP energy -346879.687534 kJ/mol
# GULP energy per Si atom -12388.560269 kJ/mol
# Density = 1.849446 g / cm^3
# Si number density = 18.536653 Si / 1000 Ang^3
#
#
#
# Elastic Constant Matrix: (Units=GPa)
#
#
# Indices 1 2 3 4 5 6 
#
# 1 100.2508 35.9000 16.0597 0.0000 -27.2990 0.0000
# 2 35.9000 102.1278 12.4665 0.0000 -10.3284 0.0000
# 3 16.0597 12.4665 27.0349 0.0000 -8.6236 0.0000
# 4 0.0000 0.0000 0.0000 21.8789 0.0000 -3.6385
# 5 -27.2990 -10.3284 -8.6236 0.0000 29.6878 0.0000
# 6 0.0000 0.0000 0.0000 -3.6385 0.0000 27.8646
#
#
#
# Elastic Compliance Matrix: (Units=1/GPa)
#
#
# Indices 1 2 3 4 5 6 
#
# 1 0.014981 -0.003673 -0.003548 0.000000 0.011467 0.000000
# 2 -0.003673 0.011440 -0.003197 0.000000 -0.000327 0.000000
# 3 -0.003548 -0.003197 0.043176 0.000000 0.008167 0.000000
# 4 0.000000 0.000000 0.000000 0.046721 0.000000 0.006101
# 5 0.011467 -0.000327 0.008167 0.000000 0.046487 0.000000
# 6 0.000000 0.000000 0.000000 0.006101 0.000000 0.036684
#
#
# Mechanical properties :
#
#
# Convention : Reuss Voigt Hill
#
# Bulk Modulus (GPa) = 20.50834 39.80731 30.15782
# Shear Modulus (GPa) = 21.13440 26.88540 24.00990
#
# Velocity S-wave (km/s) = 3.38026 3.81253 3.60289
# Velocity P-wave (km/s) = 5.13055 6.39547 5.79761
#
# Compressibility (1/GPa) = 0.04876065
#
# Stress axis : x y z
#
# Youngs Moduli (GPa) = 66.74910 87.41084 23.16097
#
# Poissons Ratio (x) = 0.32110 0.08217
# Poissons Ratio (y) = 0.24520 0.07405
# Poissons Ratio (z) = 0.23681 0.27949
#
# Static dielectric constant tensor:
#      x y z
#    x 3.866530 0.000000 -0.357940 
#    y 0.000000 3.720250 0.000000 
#    z -0.357940 0.000000 3.112750 
# 
# 
# High freq. dielectric constant tensor:
#      x y z
#    x 1.711780 0.000000 -0.037270 
#    y 0.000000 1.703470 0.000000 
#    z -0.037270 0.000000 1.692820 
# 
# From -- ./inp_files/255263.got.cif
#   From: 2010.06.25/outbox.cif.g09.slc.cpg/sg15_128_cif.got.tgz:255263.got - 2010.06.28 07:06:18.
