data_PCOD8130463
_publ_section_title
;
Structure prediction by ZEFSAII (Michael W. Deem and Ramdas Pophale) SiO2 
 PCOD8130463
Probable space group: C 2/C
;
_chemical_formula_sum "Si O2"
_cell_formula_units_Z 56
_cell_length_a 14.017669
_cell_length_b 12.630192
_cell_length_c 16.844068
_cell_angle_alpha 90.000000
_cell_angle_beta 93.708092
_cell_angle_gamma 90.000000
_cell_volume 2975.929156
_symmetry_space_group_name_H-M "C 2/C"
_symmetry_group_IT_number 15
_symmetry_cell_setting 'monoclinic'
loop_
_space_group_symop_operation_xyz
x,y,z
-x,y,1/2-z
-x,-y,-z
x,-y,1/2+z
1/2+x,1/2+y,z
1/2-x,1/2+y,1/2-z
1/2-x,1/2-y,-z
1/2+x,1/2-y,1/2+z
loop_
_atom_site_type_symbol
_atom_site_label
_atom_site_fract_x
_atom_site_fract_y
_atom_site_fract_z
Si Si1 0.182331 0.118314 0.419266
Si Si2 0.499043 0.520032 0.341835
Si Si3 0.073583 0.240417 0.181449
Si Si4 0.899299 0.604021 0.427636
Si Si5 0.877445 0.155610 0.906769
Si Si6 0.969740 0.575163 0.606087
Si Si7 0.188716 0.321490 0.317218
O O1 0.288381 0.077794 0.403236
O O2 0.171136 0.126603 0.512798
O O3 0.164537 0.234558 0.383176
O O4 0.106989 0.039017 0.376176
O O5 0.500000 0.488029 0.250000
O O6 0.429775 0.621898 0.354821
O O7 0.462960 0.423433 0.392820
O O8 0.175134 0.273020 0.227424
O O9 0.000000 0.241486 0.250000
O O10 0.043351 0.325407 0.113646
O O11 0.920683 0.726519 0.410098
O O12 0.918234 0.573977 0.519203
O O13 0.968760 0.531939 0.376834
O O14 0.797691 0.141185 0.833273
O O15 0.887839 0.583769 0.670084
#
# Coordination Sequence:
#
# PCOD8130463 Si02
#       7
#     8   8   8   8   8   8   8
#     4  11  18  36  57  81 104 142 192 222 256 325
#     4  11  21  36  57  77 114 143 182 226 274 320
#     4   9  17  33  55  78  99 144 182 226 258 314
#     4  10  20  32  57  82 111 139 182 225 273 317
#     4  11  21  34  57  86 107 144 181 226 270 328
#     4  10  17  33  57  81 107 139 179 229 268 313
#     4  10  17  35  59  80 104 135 195 224 256 318
#
# _framework density 18.817653
#
# number of rings (size 3 to 8) (size 9 to 14) (size 15 to 20)
#    0.000    1.714    7.143    1.286    0.000    1.143 
#    0.000    2.143    3.143    2.571    0.000    0.000 
#    0.000    0.000    0.000    0.000    0.000    0.000 
#
# Total GULP energy -347118.440544 kJ/mol
# GULP energy per Si atom -12397.087162 kJ/mol
# Density = 1.877482 g / cm^3
# Si number density = 18.817653 Si / 1000 Ang^3
#
#
#
# Elastic Constant Matrix: (Units=GPa)
#
#
# Indices 1 2 3 4 5 6 
#
# 1 83.0917 56.9558 24.0669 0.0000 21.4560 0.0000
# 2 56.9558 107.9068 16.6464 0.0000 2.6908 0.0000
# 3 24.0669 16.6464 47.2725 0.0000 27.0229 0.0000
# 4 0.0000 0.0000 0.0000 19.8229 0.0000 -1.8585
# 5 21.4560 2.6908 27.0229 0.0000 28.0488 0.0000
# 6 0.0000 0.0000 0.0000 -1.8585 0.0000 35.9333
#
#
#
# Elastic Compliance Matrix: (Units=1/GPa)
#
#
# Indices 1 2 3 4 5 6 
#
# 1 0.026351 -0.014107 0.005122 0.000000 -0.023738 0.000000
# 2 -0.014107 0.017720 -0.009470 0.000000 0.018215 0.000000
# 3 0.005122 -0.009470 0.052533 0.000000 -0.053621 0.000000
# 4 0.000000 0.000000 0.000000 0.050693 0.000000 0.002622
# 5 -0.023738 0.018215 -0.053621 0.000000 0.103724 0.000000
# 6 0.000000 0.000000 0.000000 0.002622 0.000000 0.027965
#
#
# Mechanical properties :
#
#
# Convention : Reuss Voigt Hill
#
# Bulk Modulus (GPa) = 16.75228 48.17880 32.46554
# Shear Modulus (GPa) = 14.89011 26.13446 20.51229
#
# Velocity S-wave (km/s) = 2.81603 3.73074 3.30518
# Velocity P-wave (km/s) = 4.41533 6.64955 5.64409
#
# Compressibility (1/GPa) = 0.05969338
#
# Stress axis : x y z
#
# Youngs Moduli (GPa) = 37.94974 56.43386 19.03550
#
# Poissons Ratio (x) = 0.79610 -0.09750
# Poissons Ratio (y) = 0.53535 0.18027
# Poissons Ratio (z) = -0.19437 0.53445
#
# Static dielectric constant tensor:
#      x y z
#    x 3.385670 0.000000 0.488050 
#    y 0.000000 3.529480 0.000000 
#    z 0.488050 0.000000 3.601670 
# 
# 
# High freq. dielectric constant tensor:
#      x y z
#    x 1.704140 0.000000 0.038600 
#    y 0.000000 1.718040 0.000000 
#    z 0.038600 0.000000 1.730310 
# 
# From -- ./inp_files/237034.got.cif
#   From: 2010.06.25/outbox.cif.g09.slc.cpg/sg15_119_cif.got.tgz:237034.got - 2010.06.28 07:06:18.
