data_PCOD8130647
_publ_section_title
;
Structure prediction by ZEFSAII (Michael W. Deem and Ramdas Pophale) SiO2 
 PCOD8130647
Probable space group: C 2/C
;
_chemical_formula_sum "Si O2"
_cell_formula_units_Z 40
_cell_length_a 25.065709
_cell_length_b 12.566128
_cell_length_c 15.609052
_cell_angle_alpha 90.000000
_cell_angle_beta 155.996301
_cell_angle_gamma 90.000000
_cell_volume 2000.019678
_symmetry_space_group_name_H-M "C 2/C"
_symmetry_group_IT_number 15
_symmetry_cell_setting 'monoclinic'
loop_
_space_group_symop_operation_xyz
x,y,z
-x,y,1/2-z
-x,-y,-z
x,-y,1/2+z
1/2+x,1/2+y,z
1/2-x,1/2+y,1/2-z
1/2-x,1/2-y,-z
1/2+x,1/2-y,1/2+z
loop_
_atom_site_type_symbol
_atom_site_label
_atom_site_fract_x
_atom_site_fract_y
_atom_site_fract_z
Si Si1 0.241970 0.733875 0.195059
Si Si2 0.355613 0.532270 0.260530
Si Si3 0.370124 0.112400 0.005212
Si Si4 0.255427 0.360588 0.461080
Si Si5 0.519471 0.911057 0.381827
O O1 0.313256 0.636427 0.252044
O O2 0.330781 0.777750 0.402075
O O3 0.207032 0.834802 0.081900
O O4 0.106097 0.690951 0.035872
O O5 0.500000 0.500000 0.500000
O O6 0.253038 0.434818 0.121368
O O7 0.356753 0.562516 0.160478
O O8 0.500000 0.139419 0.250000
O O9 0.407239 0.021949 0.989487
O O10 0.250000 0.250000 0.500000
O O11 0.112061 0.412617 0.256833
O O12 0.500000 0.907086 0.250000
#
# Coordination Sequence:
#
# PCOD8130647 Si02
#       5
#     8   8   8   8   8
#     4  10  22  33  60  88 104 149 199 228 277 337
#     4  10  21  38  58  84 115 147 185 239 287 326
#     4  10  20  39  56  77 121 153 178 229 296 342
#     4  10  18  34  58  85 109 140 198 234 271 328
#     4  10  17  36  56  79 112 149 181 233 281 325
#
# _framework density 19.999804000000001
#
# number of rings (size 3 to 8) (size 9 to 14) (size 15 to 20)
#    0.000    2.000    8.000    0.000    5.600    0.800 
#    0.000    5.000    0.000    0.000    0.000    0.000 
#    0.000    0.000    0.000    0.000    0.000    0.000 
#
# Total GULP energy -247775.675589 kJ/mol
# GULP energy per Si atom -12388.783779 kJ/mol
# Density = 1.995428 g / cm^3
# Si number density = 19.999804 Si / 1000 Ang^3
#
#
#
# Elastic Constant Matrix: (Units=GPa)
#
#
# Indices 1 2 3 4 5 6 
#
# 1 25.3002 16.5226 27.4962 0.0000 -7.0476 0.0000
# 2 16.5226 69.9910 49.0382 0.0000 -10.8214 0.0000
# 3 27.4962 49.0382 156.4228 0.0000 -1.3941 0.0000
# 4 0.0000 0.0000 0.0000 52.2081 0.0000 -6.1662
# 5 -7.0476 -10.8214 -1.3941 0.0000 25.1642 0.0000
# 6 0.0000 0.0000 0.0000 -6.1662 0.0000 15.1293
#
#
#
# Elastic Compliance Matrix: (Units=1/GPa)
#
#
# Indices 1 2 3 4 5 6 
#
# 1 0.055214 -0.005588 -0.007841 0.000000 0.012626 0.000000
# 2 -0.005588 0.020434 -0.005362 0.000000 0.006925 0.000000
# 3 -0.007841 -0.005362 0.009417 0.000000 -0.003980 0.000000
# 4 0.000000 0.000000 0.000000 0.020123 0.000000 0.008201
# 5 0.012626 0.006925 -0.003980 0.000000 0.046033 0.000000
# 6 0.000000 0.000000 0.000000 0.008201 0.000000 0.069439
#
#
# Mechanical properties :
#
#
# Convention : Reuss Voigt Hill
#
# Bulk Modulus (GPa) = 21.06071 48.64755 34.85413
# Shear Modulus (GPa) = 18.24354 29.07747 23.66050
#
# Velocity S-wave (km/s) = 3.02352 3.81712 3.44326
# Velocity P-wave (km/s) = 4.76888 6.61846 5.76829
#
# Compressibility (1/GPa) = 0.04748178
#
# Stress axis : x y z
#
# Youngs Moduli (GPa) = 18.11149 48.93722 106.19345
#
# Poissons Ratio (x) = 0.27348 0.83267
# Poissons Ratio (y) = 0.10121 0.56942
# Poissons Ratio (z) = 0.14201 0.26241
#
# Static dielectric constant tensor:
#      x y z
#    x 3.268100 0.000000 0.067340 
#    y 0.000000 3.709610 0.000000 
#    z 0.067340 0.000000 3.890400 
# 
# 
# High freq. dielectric constant tensor:
#      x y z
#    x 1.739860 0.000000 0.007160 
#    y 0.000000 1.772030 0.000000 
#    z 0.007160 0.000000 1.788460 
# 
# From -- ./inp_files/141714.got.cif
#   From: 2010.06.25/outbox.cif.g09.slc.cpg/sg15_71_cif.got.tgz:141714.got - 2010.06.28 07:06:18.
