data_PCOD8130846
_publ_section_title
;
Structure prediction by ZEFSAII (Michael W. Deem and Ramdas Pophale) SiO2 
 PCOD8130846
Probable space group: C 2/C
;
_chemical_formula_sum "Si O2"
_cell_formula_units_Z 64
_cell_length_a 9.583459
_cell_length_b 23.561292
_cell_length_c 19.860042
_cell_angle_alpha 90.000000
_cell_angle_beta 48.637898
_cell_angle_gamma 90.000000
_cell_volume 3365.737291
_symmetry_space_group_name_H-M "C 2/C"
_symmetry_group_IT_number 15
_symmetry_cell_setting 'monoclinic'
loop_
_space_group_symop_operation_xyz
x,y,z
-x,y,1/2-z
-x,-y,-z
x,-y,1/2+z
1/2+x,1/2+y,z
1/2-x,1/2+y,1/2-z
1/2-x,1/2-y,-z
1/2+x,1/2-y,1/2+z
loop_
_atom_site_type_symbol
_atom_site_label
_atom_site_fract_x
_atom_site_fract_y
_atom_site_fract_z
Si Si1 0.450846 0.103863 0.607937
Si Si2 0.724410 0.436839 0.415101
Si Si3 0.435074 0.531158 0.111345
Si Si4 0.178502 0.140861 0.810696
Si Si5 0.286664 0.804093 0.534510
Si Si6 0.390847 0.442138 0.351802
Si Si7 0.935802 0.864950 0.694561
Si Si8 0.283996 0.262285 0.802062
O O1 0.609274 0.061264 0.584338
O O2 0.329608 0.119439 0.710503
O O3 0.537103 0.160670 0.548205
O O4 0.326299 0.070259 0.593006
O O5 0.732180 0.490259 0.360611
O O6 0.529394 0.439606 0.516736
O O7 0.733721 0.378793 0.368692
O O8 0.589103 0.493609 0.101959
O O9 0.348329 0.579261 0.187927
O O10 0.173608 0.208859 0.808116
O O11 0.978181 0.115844 0.854368
O O12 0.250000 0.750000 0.500000
O O13 0.327349 0.782175 0.596566
O O14 0.109013 0.845940 0.592694
O O15 0.500000 0.460517 0.250000
O O16 0.785366 0.813631 0.746829
O O17 0.000000 0.879520 0.750000
O O18 0.500000 0.247070 0.750000
#
# Coordination Sequence:
#
# PCOD8130846 Si02
#       8
#     8   8   8   8   8   8   8   8
#     4  11  19  34  55  81 106 139 186 228 273 321
#     4  10  20  31  55  80 108 142 176 233 265 326
#     4  10  19  35  52  81 111 142 182 218 284 320
#     4  10  19  36  53  80 111 137 186 228 277 318
#     4  10  18  29  50  82 107 136 184 228 268 323
#     4   9  21  35  55  78 106 149 181 228 276 328
#     4   9  18  32  50  78 111 146 179 219 274 333
#     4   9  18  30  52  81 107 145 181 226 274 323
#
# _framework density 19.015150999999999
#
# number of rings (size 3 to 8) (size 9 to 14) (size 15 to 20)
#    0.000    2.500    1.250    3.750    0.000    0.500 
#    0.000    0.625    2.750    0.000    0.000    5.250 
#    0.000    0.000    0.000    0.000    0.000    0.000 
#
# Total GULP energy -396665.485260 kJ/mol
# GULP energy per Si atom -12395.796414 kJ/mol
# Density = 1.897187 g / cm^3
# Si number density = 19.015151 Si / 1000 Ang^3
#
#
#
# Elastic Constant Matrix: (Units=GPa)
#
#
# Indices 1 2 3 4 5 6 
#
# 1 78.5368 40.4710 22.5514 0.0000 -2.6419 0.0000
# 2 40.4710 131.7739 32.1611 0.0000 8.5761 0.0000
# 3 22.5514 32.1611 67.2677 0.0000 6.9580 0.0000
# 4 0.0000 0.0000 0.0000 31.0689 0.0000 4.0432
# 5 -2.6419 8.5761 6.9580 0.0000 19.4428 0.0000
# 6 0.0000 0.0000 0.0000 4.0432 0.0000 22.0171
#
#
#
# Elastic Compliance Matrix: (Units=1/GPa)
#
#
# Indices 1 2 3 4 5 6 
#
# 1 0.016327 -0.004416 -0.003939 0.000000 0.005576 0.000000
# 2 -0.004416 0.009896 -0.002842 0.000000 -0.003948 0.000000
# 3 -0.003939 -0.002842 0.018143 0.000000 -0.005774 0.000000
# 4 0.000000 0.000000 0.000000 0.032975 0.000000 -0.006055
# 5 0.005576 -0.003948 -0.005774 0.000000 0.055999 0.000000
# 6 0.000000 0.000000 0.000000 -0.006055 0.000000 0.046531
#
#
# Mechanical properties :
#
#
# Convention : Reuss Voigt Hill
#
# Bulk Modulus (GPa) = 45.51528 51.99393 48.75461
# Shear Modulus (GPa) = 23.85627 26.66541 25.26084
#
# Velocity S-wave (km/s) = 3.54587 3.74883 3.64876
# Velocity P-wave (km/s) = 6.38377 6.79272 6.59142
#
# Compressibility (1/GPa) = 0.02197064
#
# Stress axis : x y z
#
# Youngs Moduli (GPa) = 61.24754 101.05439 55.11830
#
# Poissons Ratio (x) = 0.44626 0.21712
# Poissons Ratio (y) = 0.27047 0.15667
# Poissons Ratio (z) = 0.24126 0.28723
#
# Static dielectric constant tensor:
#      x y z
#    x 3.335310 0.000000 0.225700 
#    y 0.000000 3.607620 0.000000 
#    z 0.225700 0.000000 3.485410 
# 
# 
# High freq. dielectric constant tensor:
#      x y z
#    x 1.704540 0.000000 0.028060 
#    y 0.000000 1.744070 0.000000 
#    z 0.028060 0.000000 1.738830 
# 
# From -- ./inp_files/234416.got.cif
#   From: 2010.06.25/outbox.cif.g09.slc.cpg/sg15_118_cif.got.tgz:234416.got - 2010.06.28 07:06:18.
