data_PCOD8130407
_publ_section_title
;
Structure prediction by ZEFSAII (Michael W. Deem and Ramdas Pophale) SiO2 
 PCOD8130407
Probable space group: C 2/C
;
_chemical_formula_sum "Si O2"
_cell_formula_units_Z 44
_cell_length_a 23.140764
_cell_length_b 15.240737
_cell_length_c 12.642021
_cell_angle_alpha 90.000000
_cell_angle_beta 146.385413
_cell_angle_gamma 90.000000
_cell_volume 2468.306369
_symmetry_space_group_name_H-M "C 2/C"
_symmetry_group_IT_number 15
_symmetry_cell_setting 'monoclinic'
loop_
_space_group_symop_operation_xyz
x,y,z
-x,y,1/2-z
-x,-y,-z
x,-y,1/2+z
1/2+x,1/2+y,z
1/2-x,1/2+y,1/2-z
1/2-x,1/2-y,-z
1/2+x,1/2-y,1/2+z
loop_
_atom_site_type_symbol
_atom_site_label
_atom_site_fract_x
_atom_site_fract_y
_atom_site_fract_z
Si Si1 0.229583 0.117093 0.815944
Si Si2 0.000000 0.509987 0.750000
Si Si3 0.305533 0.947567 0.833953
Si Si4 0.343727 0.290595 0.938802
Si Si5 0.931880 0.789567 0.304869
Si Si6 0.882361 0.406902 0.733451
O O1 0.293659 0.194024 0.854441
O O2 0.112170 0.146819 0.669397
O O3 0.230976 0.031321 0.743702
O O4 0.282784 0.090779 0.006547
O O5 0.019294 0.447584 0.678318
O O6 0.896999 0.565642 0.562175
O O7 0.237630 0.860168 0.730061
O O8 0.358152 0.963593 0.800318
O O9 0.373411 0.310040 0.105439
O O10 0.444492 0.299419 0.017717
O O11 0.907124 0.691877 0.306075
#
# Coordination Sequence:
#
# PCOD8130407 Si02
#       6
#     8   4   8   8   8   8
#     4  10  19  33  54  85 106 131 179 217 257 320
#     4  10  22  30  52  82 104 138 182 210 260 318
#     4  11  20  33  54  76 111 138 172 218 264 304
#     4  10  19  33  55  83 104 136 170 219 272 304
#     4  10  17  32  58  80 106 128 175 226 264 305
#     4  10  17  35  55  81 103 131 173 235 265 287
#
# _framework density 17.825989
#
# number of rings (size 3 to 8) (size 9 to 14) (size 15 to 20)
#    0.000    1.818    3.636    4.909    0.000    0.727 
#    0.000    0.000    0.000   12.000    0.000    0.000 
#    0.000    0.000    0.000    0.000    0.000    0.000 
#
# Total GULP energy -272719.378476 kJ/mol
# GULP energy per Si atom -12396.335385 kJ/mol
# Density = 1.778542 g / cm^3
# Si number density = 17.825989 Si / 1000 Ang^3
#
#
#
# Elastic Constant Matrix: (Units=GPa)
#
#
# Indices 1 2 3 4 5 6 
#
# 1 123.9932 45.6858 31.6531 0.0000 10.4510 0.0000
# 2 45.6858 84.5746 40.2815 0.0000 -7.1354 0.0000
# 3 31.6531 40.2815 56.0897 0.0000 7.8461 0.0000
# 4 0.0000 0.0000 0.0000 21.7000 0.0000 -2.4735
# 5 10.4510 -7.1354 7.8461 0.0000 20.0293 0.0000
# 6 0.0000 0.0000 0.0000 -2.4735 0.0000 30.5370
#
#
#
# Elastic Compliance Matrix: (Units=1/GPa)
#
#
# Indices 1 2 3 4 5 6 
#
# 1 0.011275 -0.006476 -0.000599 0.000000 -0.007956 0.000000
# 2 -0.006476 0.024982 -0.016932 0.000000 0.018912 0.000000
# 3 -0.000599 -0.016932 0.032931 0.000000 -0.018620 0.000000
# 4 0.000000 0.000000 0.000000 0.046512 0.000000 0.003767
# 5 -0.007956 0.018912 -0.018620 0.000000 0.068109 0.000000
# 6 0.000000 0.000000 0.000000 0.003767 0.000000 0.033052
#
#
# Mechanical properties :
#
#
# Convention : Reuss Voigt Hill
#
# Bulk Modulus (GPa) = 47.22823 55.54426 51.38625
# Shear Modulus (GPa) = 18.38678 24.25574 21.32126
#
# Velocity S-wave (km/s) = 3.21512 3.69276 3.46219
# Velocity P-wave (km/s) = 6.35092 7.02914 6.69862
#
# Compressibility (1/GPa) = 0.02117378
#
# Stress axis : x y z
#
# Youngs Moduli (GPa) = 88.69498 40.02807 30.36649
#
# Poissons Ratio (x) = 0.25924 0.01818
# Poissons Ratio (y) = 0.57443 0.51417
# Poissons Ratio (z) = 0.05309 0.67776
#
# Static dielectric constant tensor:
#      x y z
#    x 3.543480 0.000000 0.219270 
#    y 0.000000 3.277860 0.000000 
#    z 0.219270 0.000000 3.053770 
# 
# 
# High freq. dielectric constant tensor:
#      x y z
#    x 1.702630 0.000000 0.022540 
#    y 0.000000 1.677940 0.000000 
#    z 0.022540 0.000000 1.655450 
# 
# From -- ./inp_files/96104.got.cif
#   From: 2010.06.25/outbox.cif.g09.slc.cpg/sg15_49_cif.got.tgz:96104.got - 2010.06.28 07:06:18.
