data_PCOD8130306
_publ_section_title
;
Structure prediction by ZEFSAII (Michael W. Deem and Ramdas Pophale) SiO2 
 PCOD8130306
Probable space group: C 2/C
;
_chemical_formula_sum "Si O2"
_cell_formula_units_Z 56
_cell_length_a 22.336406
_cell_length_b 8.529219
_cell_length_c 18.486114
_cell_angle_alpha 90.000000
_cell_angle_beta 55.620090
_cell_angle_gamma 90.000000
_cell_volume 2906.605616
_symmetry_space_group_name_H-M "C 2/C"
_symmetry_group_IT_number 15
_symmetry_cell_setting 'monoclinic'
loop_
_space_group_symop_operation_xyz
x,y,z
-x,y,1/2-z
-x,-y,-z
x,-y,1/2+z
1/2+x,1/2+y,z
1/2-x,1/2+y,1/2-z
1/2-x,1/2-y,-z
1/2+x,1/2-y,1/2+z
loop_
_atom_site_type_symbol
_atom_site_label
_atom_site_fract_x
_atom_site_fract_y
_atom_site_fract_z
Si Si1 0.452730 0.076811 0.426605
Si Si2 0.898598 0.040528 0.190014
Si Si3 0.947556 0.923614 0.394521
Si Si4 0.175808 0.074020 0.114310
Si Si5 0.331613 0.856313 0.480113
Si Si6 0.451765 0.831495 0.079147
Si Si7 0.096287 0.857688 0.455326
O O1 0.465098 0.239892 0.377490
O O2 0.415489 0.101634 0.531072
O O3 0.396620 0.974041 0.419711
O O4 0.527617 0.977708 0.382554
O O5 0.835799 0.048001 0.292445
O O6 0.898303 0.213619 0.155587
O O7 0.880375 0.907003 0.142100
O O8 0.976887 0.012084 0.175246
O O9 0.882566 0.962814 0.384550
O O10 0.922765 0.978530 0.491378
O O11 0.259797 0.036310 0.038986
O O12 0.168121 0.253778 0.093339
O O13 0.342687 0.740330 0.542334
O O14 0.524821 0.747367 0.000478
#
# Coordination Sequence:
#
# PCOD8130306 Si02
#       7
#     8   8   8   8   8   8   8
#     4  10  17  31  57  79 104 138 174 225 262 330
#     4  11  18  34  55  84 105 139 181 232 270 316
#     4  10  18  32  56  82 106 137 178 220 277 326
#     4  10  22  38  53  72 110 153 182 219 261 339
#     4   9  21  39  55  72 105 155 188 204 273 336
#     4   9  17  30  55  83 106 132 172 222 284 314
#     4   9  16  33  57  77 102 138 178 221 264 332
#
# _framework density 19.266459000000001
#
# number of rings (size 3 to 8) (size 9 to 14) (size 15 to 20)
#    0.000    2.286    2.857    2.143    0.000    0.571 
#    2.571    2.857    0.000    0.000    0.000    0.000 
#    0.000    0.000    0.000    0.000    0.000    0.000 
#
# Total GULP energy -346989.014444 kJ/mol
# GULP energy per Si atom -12392.464802 kJ/mol
# Density = 1.922261 g / cm^3
# Si number density = 19.266459 Si / 1000 Ang^3
#
#
#
# Elastic Constant Matrix: (Units=GPa)
#
#
# Indices 1 2 3 4 5 6 
#
# 1 33.8579 -7.5620 -0.8585 -0.0002 3.5056 0.0005
# 2 -7.5620 74.9862 9.7221 -0.0002 2.4920 0.0024
# 3 -0.8585 9.7221 74.1227 0.0001 9.6632 -0.0001
# 4 -0.0002 -0.0002 0.0001 17.2939 -0.0001 5.1454
# 5 3.5056 2.4920 9.6632 -0.0001 15.3473 0.0001
# 6 0.0005 0.0024 -0.0001 5.1454 0.0001 25.9895
#
#
#
# Elastic Compliance Matrix: (Units=1/GPa)
#
#
# Indices 1 2 3 4 5 6 
#
# 1 0.031153 0.003286 0.001010 0.000001 -0.008285 -0.000001
# 2 0.003286 0.013933 -0.001521 0.000001 -0.002055 -0.000001
# 3 0.001010 -0.001521 0.014925 0.000000 -0.009381 0.000000
# 4 0.000001 0.000001 0.000000 0.061443 0.000000 -0.012165
# 5 -0.008285 -0.002055 -0.009381 0.000000 0.073291 0.000000
# 6 -0.000001 -0.000001 0.000000 -0.012165 0.000000 0.040885
#
#
# Mechanical properties :
#
#
# Convention : Reuss Voigt Hill
#
# Bulk Modulus (GPa) = 15.25328 20.61887 17.93608
# Shear Modulus (GPa) = 19.84642 23.83715 21.84179
#
# Velocity S-wave (km/s) = 3.21300 3.52125 3.37065
# Velocity P-wave (km/s) = 4.65819 5.22087 4.94753
#
# Compressibility (1/GPa) = 0.06555966
#
# Stress axis : x y z
#
# Youngs Moduli (GPa) = 32.10006 71.77348 66.99982
#
# Poissons Ratio (x) = -0.23585 -0.06767
# Poissons Ratio (y) = -0.10548 0.10194
# Poissons Ratio (z) = -0.03242 0.10920
#
# Static dielectric constant tensor:
#      x y z
#    x 3.551610 0.000000 0.213730 
#    y 0.000000 3.579840 0.000000 
#    z 0.213730 0.000000 3.114080 
# 
# 
# High freq. dielectric constant tensor:
#      x y z
#    x 1.741140 0.000000 0.022650 
#    y 0.000000 1.753930 0.000000 
#    z 0.022650 0.000000 1.705160 
# 
# From -- ./inp_files/218178.got.cif
#   From: 2010.06.25/outbox.cif.g09.slc.cpg/sg15_110_cif.got.tgz:218178.got - 2010.06.28 07:06:18.
