data_PCOD8130023
_publ_section_title
;
Structure prediction by ZEFSAII (Michael W. Deem and Ramdas Pophale) SiO2 
 PCOD8130023
Probable space group: C 2/C
;
_chemical_formula_sum "Si O2"
_cell_formula_units_Z 48
_cell_length_a 13.442062
_cell_length_b 10.811896
_cell_length_c 15.403130
_cell_angle_alpha 90.000000
_cell_angle_beta 63.418020
_cell_angle_gamma 90.000000
_cell_volume 2001.969908
_symmetry_space_group_name_H-M "C 2/C"
_symmetry_group_IT_number 15
_symmetry_cell_setting 'monoclinic'
loop_
_space_group_symop_operation_xyz
x,y,z
-x,y,1/2-z
-x,-y,-z
x,-y,1/2+z
1/2+x,1/2+y,z
1/2-x,1/2+y,1/2-z
1/2-x,1/2-y,-z
1/2+x,1/2-y,1/2+z
loop_
_atom_site_type_symbol
_atom_site_label
_atom_site_fract_x
_atom_site_fract_y
_atom_site_fract_z
Si Si1 0.630989 0.997888 0.710521
Si Si2 0.593972 0.257367 0.286305
Si Si3 0.174400 0.502642 0.997581
Si Si4 0.409064 0.749225 0.210303
Si Si5 0.866359 0.995717 0.795307
Si Si6 0.001961 0.307784 0.501858
O O1 0.500000 0.990337 0.750000
O O2 0.664397 0.871151 0.748708
O O3 0.690695 0.007863 0.594473
O O4 0.658745 0.119891 0.758199
O O5 0.500000 0.257926 0.250000
O O6 0.669892 0.379474 0.241812
O O7 0.543757 0.275087 0.401947
O O8 0.299834 0.495612 0.912007
O O9 0.113094 0.628740 0.995841
O O10 0.096690 0.396560 0.989716
O O11 0.500000 0.757022 0.250000
O O12 0.330925 0.629682 0.257869
O O13 0.464224 0.727447 0.094767
O O14 0.000000 0.993293 0.750000
#
# Coordination Sequence:
#
# PCOD8130023 Si02
#       6
#     8   8   8   8   8   8
#     4  10  16  36  64  96 115 151 219 250 297 364
#     4  10  20  40  63  92 126 159 206 255 309 367
#     4  11  21  37  68  96 119 167 208 254 316 357
#     4  10  20  40  63  92 126 159 206 255 309 367
#     4  10  25  43  59  90 137 166 198 254 316 376
#     4  11  20  37  70  92 120 158 216 264 294 366
#
# _framework density 23.976383999999999
#
# number of rings (size 3 to 8) (size 9 to 14) (size 15 to 20)
#    0.000    1.667    6.667    1.000    0.000    3.333 
#    0.000    0.000    0.000    0.000    0.000    0.000 
#    0.000    0.000    0.000    0.000    0.000    0.000 
#
# Total GULP energy -297323.242767 kJ/mol
# GULP energy per Si atom -12388.468449 kJ/mol
# Density = 2.392181 g / cm^3
# Si number density = 23.976384 Si / 1000 Ang^3
#
#
#
# Elastic Constant Matrix: (Units=GPa)
#
#
# Indices 1 2 3 4 5 6 
#
# 1 69.9157 -19.6681 27.0875 0.0000 -8.8922 0.0000
# 2 -19.6681 214.2613 60.0586 0.0000 -4.0322 0.0000
# 3 27.0875 60.0586 250.2222 0.0000 -1.1036 0.0000
# 4 0.0000 0.0000 0.0000 28.1585 0.0000 -6.4404
# 5 -8.8922 -4.0322 -1.1036 0.0000 43.0247 0.0000
# 6 0.0000 0.0000 0.0000 -6.4404 0.0000 -61.1976
#
#
#
# Elastic Compliance Matrix: (Units=1/GPa)
#
#
# Indices 1 2 3 4 5 6 
#
# 1 0.016245 0.002193 -0.002270 0.000000 0.003505 0.000000
# 2 0.002193 0.005308 -0.001508 0.000000 0.000912 0.000000
# 3 -0.002270 -0.001508 0.004602 0.000000 -0.000492 0.000000
# 4 0.000000 0.000000 0.000000 0.034679 0.000000 -0.003650
# 5 0.003505 0.000912 -0.000492 0.000000 0.024040 0.000000
# 6 0.000000 0.000000 0.000000 -0.003650 0.000000 -0.015956
#
#
# Mechanical properties :
#
#
# Convention : Reuss Voigt Hill
#
# Bulk Modulus (GPa) = 43.50171 74.37279 58.93725
# Shear Modulus (GPa) = 62.69839 33.12522 47.91180
#
# Velocity S-wave (km/s) = 5.11926 3.72099 4.47507
# Velocity P-wave (km/s) = 7.28872 7.03900 7.16495
#
# Compressibility (1/GPa) = 0.02298760
#
# Stress axis : x y z
#
# Youngs Moduli (GPa) = 61.55734 188.38552 217.30631
#
# Poissons Ratio (x) = -0.41319 0.49319
# Poissons Ratio (y) = -0.13502 0.32759
# Poissons Ratio (z) = 0.13971 0.28399
#
# Static dielectric constant tensor:
#      x y z
#    x 3.770890 0.000000 0.037970 
#    y 0.000000 8.182840 0.000000 
#    z 0.037970 0.000000 4.376740 
# 
# 
# High freq. dielectric constant tensor:
#      x y z
#    x 1.934690 0.000000 0.003030 
#    y 0.000000 1.955800 0.000000 
#    z 0.003030 0.000000 1.956390 
# 
# From -- ./inp_files/152474.got.cif
#   From: 2010.06.25/outbox.cif.g09.slc.cpg/sg15_77_cif.got.tgz:152474.got - 2010.06.28 07:06:18.
