data_PCOD8130374
_publ_section_title
;
Structure prediction by ZEFSAII (Michael W. Deem and Ramdas Pophale) SiO2 
 PCOD8130374
Probable space group: C 2/C
;
_chemical_formula_sum "Si O2"
_cell_formula_units_Z 60
_cell_length_a 22.110231
_cell_length_b 8.883479
_cell_length_c 16.630165
_cell_angle_alpha 90.000000
_cell_angle_beta 105.867987
_cell_angle_gamma 90.000000
_cell_volume 3141.957003
_symmetry_space_group_name_H-M "C 2/C"
_symmetry_group_IT_number 15
_symmetry_cell_setting 'monoclinic'
loop_
_space_group_symop_operation_xyz
x,y,z
-x,y,1/2-z
-x,-y,-z
x,-y,1/2+z
1/2+x,1/2+y,z
1/2-x,1/2+y,1/2-z
1/2-x,1/2-y,-z
1/2+x,1/2-y,1/2+z
loop_
_atom_site_type_symbol
_atom_site_label
_atom_site_fract_x
_atom_site_fract_y
_atom_site_fract_z
Si Si1 0.506579 0.792821 0.924386
Si Si2 0.830529 0.319811 0.966093
Si Si3 0.916301 0.941264 0.103602
Si Si4 0.579503 0.044856 0.582815
Si Si5 0.811075 0.857516 0.615724
Si Si6 0.380827 0.710078 0.294399
Si Si7 0.098286 0.058453 0.578175
Si Si8 0.000000 0.868596 0.750000
O O1 0.563433 0.737518 0.885033
O O2 0.463573 0.645220 0.916245
O O3 0.464178 0.933212 0.878458
O O4 0.534056 0.838089 0.021365
O O5 0.881715 0.449482 0.969128
O O6 0.762439 0.387617 0.921424
O O7 0.844477 0.176387 0.914353
O O8 0.835311 0.267524 0.060697
O O9 0.847916 0.982985 0.115462
O O10 0.968794 0.032789 0.169625
O O11 0.917819 0.974985 0.009786
O O12 0.627537 0.139325 0.655512
O O13 0.824185 0.796623 0.709920
O O14 0.379296 0.558458 0.346268
O O15 0.446972 0.732658 0.272449
#
# Coordination Sequence:
#
# PCOD8130374 Si02
#       8
#     8   8   8   8   8   8   8   4
#     4  10  18  32  52  83 109 141 174 225 271 337
#     4   9  20  41  57  78 109 152 186 235 279 335
#     4  10  17  32  54  80 105 148 183 225 262 339
#     4  10  21  33  58  84 114 143 187 226 286 335
#     4   9  21  37  61  77 109 148 195 230 284 325
#     4  11  20  34  57  88 106 148 188 232 275 338
#     4  10  18  32  61  78 105 144 193 217 271 335
#     4  10  20  30  52  82 118 136 186 230 270 330
#
# _framework density 19.096378000000001
#
# number of rings (size 3 to 8) (size 9 to 14) (size 15 to 20)
#    0.000    2.133    2.667    1.200    0.000    4.267 
#    0.000    2.667    0.000    0.000    0.000    0.000 
#    0.000    0.000    0.000    0.000    0.000    0.000 
#
# Total GULP energy -371756.478094 kJ/mol
# GULP energy per Si atom -12391.882603 kJ/mol
# Density = 1.905291 g / cm^3
# Si number density = 19.096378 Si / 1000 Ang^3
#
#
#
# Elastic Constant Matrix: (Units=GPa)
#
#
# Indices 1 2 3 4 5 6 
#
# 1 76.1141 37.4592 23.2533 0.0000 10.4439 0.0000
# 2 37.4592 98.1345 34.5414 0.0000 0.9953 0.0000
# 3 23.2533 34.5414 99.3825 0.0000 8.5794 0.0000
# 4 0.0000 0.0000 0.0000 22.9615 0.0000 -7.7709
# 5 10.4439 0.9953 8.5794 0.0000 22.6567 0.0000
# 6 0.0000 0.0000 0.0000 -7.7709 0.0000 14.8859
#
#
#
# Elastic Compliance Matrix: (Units=1/GPa)
#
#
# Indices 1 2 3 4 5 6 
#
# 1 0.017589 -0.006168 -0.001339 0.000000 -0.007330 0.000000
# 2 -0.006168 0.013798 -0.003665 0.000000 0.003625 0.000000
# 3 -0.001339 -0.003665 0.011974 0.000000 -0.003756 0.000000
# 4 0.000000 0.000000 0.000000 0.052896 0.000000 0.027613
# 5 -0.007330 0.003625 -0.003756 0.000000 0.048779 0.000000
# 6 0.000000 0.000000 0.000000 0.027613 0.000000 0.081592
#
#
# Mechanical properties :
#
#
# Convention : Reuss Voigt Hill
#
# Bulk Modulus (GPa) = 47.58409 51.57100 49.57755
# Shear Modulus (GPa) = 19.53296 23.99263 21.76279
#
# Velocity S-wave (km/s) = 3.20169 3.54841 3.37950
# Velocity P-wave (km/s) = 6.21609 6.62213 6.42232
#
# Compressibility (1/GPa) = 0.02101543
#
# Stress axis : x y z
#
# Youngs Moduli (GPa) = 56.85499 72.47452 83.51750
#
# Poissons Ratio (x) = 0.44704 0.11181
# Poissons Ratio (y) = 0.35070 0.30612
# Poissons Ratio (z) = 0.07611 0.26564
#
# Static dielectric constant tensor:
#      x y z
#    x 3.744080 0.000000 -0.180240 
#    y 0.000000 3.540480 0.000000 
#    z -0.180240 0.000000 3.501360 
# 
# 
# High freq. dielectric constant tensor:
#      x y z
#    x 1.731950 0.000000 0.004970 
#    y 0.000000 1.731800 0.000000 
#    z 0.004970 0.000000 1.734060 
# 
# From -- ./inp_files/172423.got.cif
#   From: 2010.06.25/outbox.cif.g09.slc.cpg/sg15_87_cif.got.tgz:172423.got - 2010.06.28 07:06:18.
