data_PCOD8130055
_publ_section_title
;
Structure prediction by ZEFSAII (Michael W. Deem and Ramdas Pophale) SiO2 
 PCOD8130055
Probable space group: C 2/C
;
_chemical_formula_sum "Si O2"
_cell_formula_units_Z 48
_cell_length_a 21.775635
_cell_length_b 23.609787
_cell_length_c 16.113817
_cell_angle_alpha 90.000000
_cell_angle_beta 19.608234
_cell_angle_gamma 90.000000
_cell_volume 2780.138220
_symmetry_space_group_name_H-M "C 2/C"
_symmetry_group_IT_number 15
_symmetry_cell_setting 'monoclinic'
loop_
_space_group_symop_operation_xyz
x,y,z
-x,y,1/2-z
-x,-y,-z
x,-y,1/2+z
1/2+x,1/2+y,z
1/2-x,1/2+y,1/2-z
1/2-x,1/2-y,-z
1/2+x,1/2-y,1/2+z
loop_
_atom_site_type_symbol
_atom_site_label
_atom_site_fract_x
_atom_site_fract_y
_atom_site_fract_z
Si Si1 0.792348 0.971032 0.508647
Si Si2 0.831628 0.680269 0.519879
Si Si3 0.021007 0.791605 0.125099
Si Si4 0.301091 0.562764 0.813033
Si Si5 0.955503 0.539364 0.899483
Si Si6 0.690324 0.595588 0.349601
O O1 0.759316 0.936432 0.465344
O O2 0.752806 0.928953 0.633947
O O3 0.646535 0.022122 0.699631
O O4 0.000000 0.995373 0.250000
O O5 0.890077 0.730089 0.509199
O O6 0.680294 0.708574 0.654730
O O7 0.762773 0.621739 0.648946
O O8 0.000000 0.661606 0.250000
O O9 0.000000 0.802542 0.250000
O O10 0.141939 0.839010 0.925129
O O11 0.521368 0.559993 0.523762
O O12 0.192068 0.511909 0.909057
O O13 0.000000 0.559762 0.750000
O O14 0.863736 0.590758 0.067038
#
# Coordination Sequence:
#
# PCOD8130055 Si02
#       6
#     8   8   8   8   8   8
#     4   9  17  29  44  64  91 117 142 175 218 265
#     4  10  17  27  42  63  90 118 141 169 212 264
#     4  10  19  28  43  65  91 118 142 173 214 262
#     4   9  18  30  46  66  90 118 145 177 218 265
#     4  10  19  30  46  65  88 120 151 181 215 254
#     4  10  18  30  44  65  92 119 147 179 216 258
#
# _framework density 17.265329999999999
#
# number of rings (size 3 to 8) (size 9 to 14) (size 15 to 20)
#    0.000    2.333    0.000    7.000    0.000    1.333 
#    0.000    0.000    0.000    0.000    0.000    4.667 
#    0.000    5.333    0.000    0.000    0.000    0.000 
#
# Total GULP energy -297422.722368 kJ/mol
# GULP energy per Si atom -12392.613432 kJ/mol
# Density = 1.722603 g / cm^3
# Si number density = 17.265330 Si / 1000 Ang^3
#
#
#
# Elastic Constant Matrix: (Units=GPa)
#
#
# Indices 1 2 3 4 5 6 
#
# 1 30.0016 12.7683 18.7526 -0.0850 -11.4190 -0.0306
# 2 12.7683 56.0895 32.6255 -0.0267 2.1033 0.0376
# 3 18.7526 32.6255 88.2395 -0.0269 -0.9288 -0.0061
# 4 -0.0850 -0.0267 -0.0269 27.0803 0.0494 -0.6391
# 5 -11.4190 2.1033 -0.9288 0.0494 22.6197 0.0312
# 6 -0.0306 0.0376 -0.0061 -0.6391 0.0312 17.2693
#
#
#
# Elastic Compliance Matrix: (Units=1/GPa)
#
#
# Indices 1 2 3 4 5 6 
#
# 1 0.051783 -0.008341 -0.007641 0.000100 0.026603 0.000063
# 2 -0.008341 0.024195 -0.007244 0.000001 -0.006758 -0.000058
# 3 -0.007641 -0.007244 0.015608 -0.000011 -0.002543 0.000012
# 4 0.000100 0.000001 -0.000011 0.036960 -0.000033 0.001368
# 5 0.026603 -0.006758 -0.002543 -0.000033 0.058163 -0.000045
# 6 0.000063 -0.000058 0.000012 0.001368 -0.000045 0.057957
#
#
# Mechanical properties :
#
#
# Convention : Reuss Voigt Hill
#
# Bulk Modulus (GPa) = 22.15638 33.62482 27.89060
# Shear Modulus (GPa) = 16.33119 20.73947 18.53533
#
# Velocity S-wave (km/s) = 3.07888 3.46962 3.28007
# Velocity P-wave (km/s) = 5.04976 5.96395 5.52579
#
# Compressibility (1/GPa) = 0.04513372
#
# Stress axis : x y z
#
# Youngs Moduli (GPa) = 19.31137 41.33159 64.06858
#
# Poissons Ratio (x) = 0.34475 0.48954
# Poissons Ratio (y) = 0.16108 0.46412
# Poissons Ratio (z) = 0.14755 0.29941
#
# Static dielectric constant tensor:
#      x y z
#    x 3.124600 -0.000330 -0.343360 
#    y -0.000330 3.069020 0.000420 
#    z -0.343360 0.000420 3.280480 
# 
# 
# High freq. dielectric constant tensor:
#      x y z
#    x 1.648500 -0.000020 -0.036660 
#    y -0.000020 1.643730 0.000030 
#    z -0.036660 0.000030 1.660980 
# 
# From -- ./inp_files/33066.got.cif
#   From: 2010.06.25/outbox.cif.g09.slc.cpg/sg15_17_cif.got.tgz:33066.got - 2010.06.28 07:06:18.
