data_PCOD8130531
_publ_section_title
;
Structure prediction by ZEFSAII (Michael W. Deem and Ramdas Pophale) SiO2 
 PCOD8130531
Probable space group: C 2/C
;
_chemical_formula_sum "Si O2"
_cell_formula_units_Z 52
_cell_length_a 8.663202
_cell_length_b 15.097713
_cell_length_c 27.553101
_cell_angle_alpha 90.000000
_cell_angle_beta 47.699577
_cell_angle_gamma 90.000000
_cell_volume 2665.461010
_symmetry_space_group_name_H-M "C 2/C"
_symmetry_group_IT_number 15
_symmetry_cell_setting 'monoclinic'
loop_
_space_group_symop_operation_xyz
x,y,z
-x,y,1/2-z
-x,-y,-z
x,-y,1/2+z
1/2+x,1/2+y,z
1/2-x,1/2+y,1/2-z
1/2-x,1/2-y,-z
1/2+x,1/2-y,1/2+z
loop_
_atom_site_type_symbol
_atom_site_label
_atom_site_fract_x
_atom_site_fract_y
_atom_site_fract_z
Si Si1 0.547444 0.546453 0.637381
Si Si2 0.048549 0.687903 0.855809
Si Si3 0.177539 0.860602 0.582000
Si Si4 0.075554 0.121819 0.461567
Si Si5 0.000000 0.869119 0.250000
Si Si6 0.607471 0.182311 0.952948
Si Si7 0.722517 0.446619 0.395080
O O1 0.651788 0.450040 0.617875
O O2 0.495229 0.570316 0.703472
O O3 0.703076 0.615766 0.578652
O O4 0.340334 0.545902 0.648184
O O5 0.294913 0.692595 0.791904
O O6 0.011270 0.668539 0.920097
O O7 0.946471 0.782223 0.863908
O O8 0.939581 0.606669 0.850481
O O9 0.422359 0.836903 0.529958
O O10 0.095963 0.874545 0.544700
O O11 0.190344 0.216690 0.441892
O O12 0.958412 0.103047 0.536665
O O13 0.245785 0.045667 0.413017
#
# Coordination Sequence:
#
# PCOD8130531 Si02
#       7
#     8   8   8   8   4   8   8
#     4  10  23  35  54  80 117 143 191 221 276 322
#     4  10  19  37  62  78 111 147 188 221 277 325
#     4  10  17  35  59  87 107 151 174 226 279 342
#     4   9  17  30  55  86 121 136 173 209 290 346
#     4  10  24  44  52  72 104 158 196 234 258 326
#     4  10  17  34  56  87 117 147 169 220 280 346
#     4  10  18  33  54  87 111 145 173 230 270 331
#
# _framework density 19.508818999999999
#
# number of rings (size 3 to 8) (size 9 to 14) (size 15 to 20)
#    0.000    2.154    3.077    1.385    0.000    1.231 
#    0.000    7.692    0.000    0.000    0.000    0.000 
#    0.000    0.000    0.000    0.000    0.000    0.000 
#
# Total GULP energy -322370.805972 kJ/mol
# GULP energy per Si atom -12398.877153 kJ/mol
# Density = 1.946442 g / cm^3
# Si number density = 19.508819 Si / 1000 Ang^3
#
#
#
# Elastic Constant Matrix: (Units=GPa)
#
#
# Indices 1 2 3 4 5 6 
#
# 1 49.2831 35.4729 33.5025 -0.0009 -1.1969 0.0006
# 2 35.4729 155.6427 53.8767 -0.0016 -17.7731 0.0012
# 3 33.5025 53.8767 106.7424 -0.0010 -10.7771 0.0021
# 4 -0.0009 -0.0016 -0.0010 15.3171 0.0018 1.7334
# 5 -1.1969 -17.7731 -10.7771 0.0018 29.0106 -0.0011
# 6 0.0006 0.0012 0.0021 1.7334 -0.0011 23.7971
#
#
#
# Elastic Compliance Matrix: (Units=1/GPa)
#
#
# Indices 1 2 3 4 5 6 
#
# 1 0.028172 -0.004473 -0.007007 0.000001 -0.004181 0.000000
# 2 -0.004473 0.008840 -0.002629 0.000000 0.004255 0.000000
# 3 -0.007007 -0.002629 0.013197 0.000000 0.003003 -0.000001
# 4 0.000001 0.000000 0.000000 0.065829 -0.000004 -0.004795
# 5 -0.004181 0.004255 0.003003 -0.000004 0.038020 0.000002
# 6 0.000000 0.000000 -0.000001 -0.004795 0.000002 0.042371
#
#
# Mechanical properties :
#
#
# Convention : Reuss Voigt Hill
#
# Bulk Modulus (GPa) = 45.46786 61.93027 53.69907
# Shear Modulus (GPa) = 21.55389 26.21270 23.88330
#
# Velocity S-wave (km/s) = 3.32750 3.66954 3.50270
# Velocity P-wave (km/s) = 6.17413 7.05462 6.62901
#
# Compressibility (1/GPa) = 0.02199356
#
# Stress axis : x y z
#
# Youngs Moduli (GPa) = 35.49642 113.12078 75.77247
#
# Poissons Ratio (x) = 0.50596 0.53091
# Poissons Ratio (y) = 0.15877 0.19917
# Poissons Ratio (z) = 0.24871 0.29734
#
# Static dielectric constant tensor:
#      x y z
#    x 3.315300 0.000000 -0.009490 
#    y 0.000000 3.834760 0.000000 
#    z -0.009490 0.000000 3.279490 
# 
# 
# High freq. dielectric constant tensor:
#      x y z
#    x 1.741110 0.000000 0.000900 
#    y 0.000000 1.771680 0.000000 
#    z 0.000900 0.000000 1.730120 
# 
# From -- ./inp_files/231144.got.cif
#   From: 2010.06.25/outbox.cif.g09.slc.cpg/sg15_116_cif.got.tgz:231144.got - 2010.06.28 07:06:18.
