data_PCOD8130001
_publ_section_title
;
Structure prediction by ZEFSAII (Michael W. Deem and Ramdas Pophale) SiO2 
 PCOD8130001
Probable space group: C 2/C
;
_chemical_formula_sum "Si O2"
_cell_formula_units_Z 52
_cell_length_a 20.492997
_cell_length_b 8.407241
_cell_length_c 28.864409
_cell_angle_alpha 90.000000
_cell_angle_beta 145.901409
_cell_angle_gamma 90.000000
_cell_volume 2787.976891
_symmetry_space_group_name_H-M "C 2/C"
_symmetry_group_IT_number 15
_symmetry_cell_setting 'monoclinic'
loop_
_space_group_symop_operation_xyz
x,y,z
-x,y,1/2-z
-x,-y,-z
x,-y,1/2+z
1/2+x,1/2+y,z
1/2-x,1/2+y,1/2-z
1/2-x,1/2-y,-z
1/2+x,1/2-y,1/2+z
loop_
_atom_site_type_symbol
_atom_site_label
_atom_site_fract_x
_atom_site_fract_y
_atom_site_fract_z
Si Si1 0.200235 0.080676 0.259860
Si Si2 0.500000 0.343604 0.750000
Si Si3 0.720795 0.385452 0.019645
Si Si4 0.154724 0.569464 0.733663
Si Si5 0.467922 0.562692 0.646342
Si Si6 0.047898 0.584376 0.330334
Si Si7 0.740285 0.224227 0.863130
O O1 0.136758 0.246009 0.207014
O O2 0.265000 0.112532 0.348143
O O3 0.297121 0.033880 0.280029
O O4 0.101955 0.944380 0.207307
O O5 0.449667 0.450379 0.679509
O O6 0.602357 0.227229 0.794587
O O7 0.830753 0.493114 0.096596
O O8 0.682270 0.298134 0.045493
O O9 0.750000 0.250000 0.000000
O O10 0.616935 0.500052 0.943680
O O11 0.248424 0.574481 0.831845
O O12 0.034293 0.497341 0.679989
O O13 0.431619 0.737954 0.639434
O O14 0.000000 0.589859 0.250000
#
# Coordination Sequence:
#
# PCOD8130001 Si02
#       7
#     8   4   8   8   8   8   8
#     4   9  20  37  59  86 110 158 197 239 283 347
#     4  10  16  36  56  94 106 160 186 248 282 356
#     4  12  22  37  59  89 122 155 189 245 299 346
#     4  10  19  36  62  82 113 150 208 234 284 348
#     4  11  22  35  59  88 123 147 195 239 300 343
#     4  12  22  37  61  88 118 151 195 244 292 347
#     4   9  19  33  59  85 115 146 200 233 291 340
#
# _framework density 18.651517999999999
#
# number of rings (size 3 to 8) (size 9 to 14) (size 15 to 20)
#    0.923    0.615    3.846    3.231    0.000    0.000 
#    0.000    0.769    0.000    1.846    0.000    0.000 
#    0.000    0.000    0.000    0.000    0.000    0.000 
#
# Total GULP energy -322095.580834 kJ/mol
# GULP energy per Si atom -12388.291571 kJ/mol
# Density = 1.860907 g / cm^3
# Si number density = 18.651518 Si / 1000 Ang^3
#
#
#
# Elastic Constant Matrix: (Units=GPa)
#
#
# Indices 1 2 3 4 5 6 
#
# 1 95.3311 15.0612 18.7194 0.0000 -11.0406 0.0000
# 2 15.0612 85.4938 22.4727 -0.0001 -8.8528 -0.0003
# 3 18.7194 22.4727 76.7302 0.0000 -21.6631 -0.0001
# 4 0.0000 -0.0001 0.0000 25.9826 0.0000 -2.5975
# 5 -11.0406 -8.8528 -21.6631 0.0000 26.2564 0.0000
# 6 0.0000 -0.0003 -0.0001 -2.5975 0.0000 22.2629
#
#
#
# Elastic Compliance Matrix: (Units=1/GPa)
#
#
# Indices 1 2 3 4 5 6 
#
# 1 0.011348 -0.001279 -0.001523 0.000000 0.003084 0.000000
# 2 -0.001279 0.012867 -0.003107 0.000000 0.001237 0.000000
# 3 -0.001523 -0.003107 0.018040 0.000000 0.013196 0.000000
# 4 0.000000 0.000000 0.000000 0.038942 0.000000 0.004543
# 5 0.003084 0.001237 0.013196 0.000000 0.050687 0.000000
# 6 0.000000 0.000000 0.000000 0.004543 0.000000 0.045448
#
#
# Mechanical properties :
#
#
# Convention : Reuss Voigt Hill
#
# Bulk Modulus (GPa) = 32.85660 41.11797 36.98729
# Shear Modulus (GPa) = 25.08832 28.32050 26.70441
#
# Velocity S-wave (km/s) = 3.67155 3.90090 3.78796
# Velocity P-wave (km/s) = 5.96892 6.51019 6.24542
#
# Compressibility (1/GPa) = 0.03043528
#
# Stress axis : x y z
#
# Youngs Moduli (GPa) = 88.12028 77.71844 55.43279
#
# Poissons Ratio (x) = 0.09944 0.08444
# Poissons Ratio (y) = 0.11275 0.17224
# Poissons Ratio (z) = 0.13423 0.24148
#
# Static dielectric constant tensor:
#      x y z
#    x 3.574890 0.000000 -0.320330 
#    y 0.000000 3.487100 0.000000 
#    z -0.320330 0.000000 3.227610 
# 
# 
# High freq. dielectric constant tensor:
#      x y z
#    x 1.729330 0.000000 -0.018910 
#    y 0.000000 1.726760 0.000000 
#    z -0.018910 0.000000 1.690750 
# 
# From -- ./inp_files/317404.got.cif
#   From: 2010.06.25/outbox.cif.g09.slc.cpg/sg15_159_cif.got.tgz:317404.got - 2010.06.28 07:06:18.
