data_PCOD8130355
_publ_section_title
;
Structure prediction by ZEFSAII (Michael W. Deem and Ramdas Pophale) SiO2 
 PCOD8130355
Probable space group: C 2/C
;
_chemical_formula_sum "Si O2"
_cell_formula_units_Z 60
_cell_length_a 29.124601
_cell_length_b 11.229898
_cell_length_c 13.107481
_cell_angle_alpha 90.000000
_cell_angle_beta 50.607437
_cell_angle_gamma 90.000000
_cell_volume 3313.073819
_symmetry_space_group_name_H-M "C 2/C"
_symmetry_group_IT_number 15
_symmetry_cell_setting 'monoclinic'
loop_
_space_group_symop_operation_xyz
x,y,z
-x,y,1/2-z
-x,-y,-z
x,-y,1/2+z
1/2+x,1/2+y,z
1/2-x,1/2+y,1/2-z
1/2-x,1/2-y,-z
1/2+x,1/2-y,1/2+z
loop_
_atom_site_type_symbol
_atom_site_label
_atom_site_fract_x
_atom_site_fract_y
_atom_site_fract_z
Si Si1 0.712726 0.216975 0.815789
Si Si2 0.156433 0.181855 0.903032
Si Si3 0.302637 0.979985 0.020259
Si Si4 0.388844 0.699824 0.313394
Si Si5 0.596865 0.910233 0.981055
Si Si6 0.672010 0.442315 0.768383
Si Si7 0.848722 0.565927 0.756528
Si Si8 0.000000 0.309441 0.250000
O O1 0.781919 0.243694 0.713862
O O2 0.675287 0.335333 0.846474
O O3 0.701442 0.111491 0.749909
O O4 0.694826 0.158843 0.949464
O O5 0.107956 0.274461 0.928293
O O6 0.146286 0.055824 0.862918
O O7 0.151737 0.169530 0.031835
O O8 0.352130 0.057595 0.008834
O O9 0.237267 0.035887 0.129717
O O10 0.316966 0.976109 0.879772
O O11 0.375714 0.594125 0.251404
O O12 0.373518 0.825016 0.284721
O O13 0.457132 0.716669 0.250850
O O14 0.598647 0.999767 0.881945
O O15 0.533353 0.902686 0.127118
#
# Coordination Sequence:
#
# PCOD8130355 Si02
#       8
#     8   8   8   8   8   8   8   4
#     4   9  18  29  51  78 109 140 173 211 261 319
#     4  10  18  34  52  76 113 142 175 214 258 316
#     4  10  17  32  52  79 110 135 169 218 265 316
#     4  10  20  36  55  77 103 144 181 214 265 318
#     4  10  20  34  53  80 103 138 176 219 264 308
#     4  10  19  33  54  81 107 146 177 210 259 320
#     4  10  18  32  55  77 106 138 174 217 269 321
#     4  10  20  38  56  76 106 134 184 226 260 312
#
# _framework density 18.110071000000001
#
# number of rings (size 3 to 8) (size 9 to 14) (size 15 to 20)
#    0.000    2.133    4.000    0.800    0.000    2.667 
#    2.400    4.000    0.000    0.000    0.000    0.933 
#    0.000    0.000    0.000    0.000    0.000    0.000 
#
# Total GULP energy -371755.603511 kJ/mol
# GULP energy per Si atom -12391.853450 kJ/mol
# Density = 1.806885 g / cm^3
# Si number density = 18.110071 Si / 1000 Ang^3
#
#
#
# Elastic Constant Matrix: (Units=GPa)
#
#
# Indices 1 2 3 4 5 6 
#
# 1 52.4375 10.3079 28.6436 0.0000 -1.9332 0.0000
# 2 10.3079 79.3773 55.1751 0.0000 8.3161 0.0000
# 3 28.6436 55.1751 115.8591 0.0000 0.9349 0.0000
# 4 0.0000 0.0000 0.0000 30.4922 0.0000 7.7573
# 5 -1.9332 8.3161 0.9349 0.0000 25.7676 0.0000
# 6 0.0000 0.0000 0.0000 7.7573 0.0000 22.4147
#
#
#
# Elastic Compliance Matrix: (Units=1/GPa)
#
#
# Indices 1 2 3 4 5 6 
#
# 1 0.022206 0.001170 -0.006059 0.000000 0.001508 0.000000
# 2 0.001170 0.019787 -0.009664 0.000000 -0.005948 0.000000
# 3 -0.006059 -0.009664 0.014714 0.000000 0.002131 0.000000
# 4 0.000000 0.000000 0.000000 0.035961 0.000000 -0.012445
# 5 0.001508 -0.005948 0.002131 0.000000 0.040764 0.000000
# 6 0.000000 0.000000 0.000000 -0.012445 0.000000 0.048921
#
#
# Mechanical properties :
#
#
# Convention : Reuss Voigt Hill
#
# Bulk Modulus (GPa) = 36.23174 48.43634 42.33404
# Shear Modulus (GPa) = 22.65932 25.97140 24.31536
#
# Velocity S-wave (km/s) = 3.54107 3.79104 3.66818
# Velocity P-wave (km/s) = 6.06372 6.77984 6.43176
#
# Compressibility (1/GPa) = 0.02760011
#
# Stress axis : x y z
#
# Youngs Moduli (GPa) = 45.03343 50.53853 67.96057
#
# Poissons Ratio (x) = -0.05914 0.41179
# Poissons Ratio (y) = -0.05270 0.65679
# Poissons Ratio (z) = 0.27287 0.48842
#
# Static dielectric constant tensor:
#      x y z
#    x 3.358890 0.000000 0.230950 
#    y 0.000000 3.337510 0.000000 
#    z 0.230950 0.000000 3.446910 
# 
# 
# High freq. dielectric constant tensor:
#      x y z
#    x 1.683640 0.000000 0.011750 
#    y 0.000000 1.696580 0.000000 
#    z 0.011750 0.000000 1.694050 
# 
# From -- ./inp_files/126432.got.cif
#   From: 2010.06.25/outbox.cif.g09.slc.cpg/sg15_64_cif.got.tgz:126432.got - 2010.06.28 07:06:18.
