data_PCOD8130988
_publ_section_title
;
Structure prediction by ZEFSAII (Michael W. Deem and Ramdas Pophale) SiO2 
 PCOD8130988
Probable space group: C 2/C
;
_chemical_formula_sum "Si O2"
_cell_formula_units_Z 52
_cell_length_a 14.854661
_cell_length_b 17.775081
_cell_length_c 12.808836
_cell_angle_alpha 90.000000
_cell_angle_beta 129.201891
_cell_angle_gamma 90.000000
_cell_volume 2620.854446
_symmetry_space_group_name_H-M "C 2/C"
_symmetry_group_IT_number 15
_symmetry_cell_setting 'monoclinic'
loop_
_space_group_symop_operation_xyz
x,y,z
-x,y,1/2-z
-x,-y,-z
x,-y,1/2+z
1/2+x,1/2+y,z
1/2-x,1/2+y,1/2-z
1/2-x,1/2-y,-z
1/2+x,1/2-y,1/2+z
loop_
_atom_site_type_symbol
_atom_site_label
_atom_site_fract_x
_atom_site_fract_y
_atom_site_fract_z
Si Si1 0.719945 0.370069 0.692527
Si Si2 0.707128 0.896838 0.982179
Si Si3 0.639193 0.992218 0.602097
Si Si4 0.482628 0.452689 0.855895
Si Si5 0.500000 0.807639 0.750000
Si Si6 0.182668 0.785496 0.272406
Si Si7 0.334493 0.429183 0.350270
O O1 0.732247 0.406667 0.585837
O O2 0.818349 0.406633 0.842689
O O3 0.592419 0.388621 0.641157
O O4 0.726862 0.279847 0.692898
O O5 0.580804 0.861669 0.876090
O O6 0.690932 0.976716 0.029794
O O7 0.777869 0.836328 0.101761
O O8 0.701024 0.042380 0.738992
O O9 0.500000 0.000000 0.500000
O O10 0.500000 0.431557 0.750000
O O11 0.415657 0.532186 0.819545
O O12 0.611677 0.454073 0.999939
O O13 0.435757 0.755721 0.785965
O O14 0.161887 0.839123 0.157974
#
# Coordination Sequence:
#
# PCOD8130988 Si02
#       7
#     8   8   8   8   4   8   8
#     4  10  21  37  58  88 118 158 197 251 303 354
#     4  10  21  36  53  89 121 151 200 243 305 352
#     4  10  20  36  56  83 124 158 191 237 293 368
#     4  10  22  40  61  85 119 159 203 252 304 359
#     4  10  18  30  56  84 122 152 182 246 310 346
#     4  10  21  33  56  92 118 149 192 253 305 361
#     4   9  22  36  59  89 114 154 202 249 301 364
#
# _framework density 19.840858000000001
#
# number of rings (size 3 to 8) (size 9 to 14) (size 15 to 20)
#    0.000    2.154    0.000    3.692    5.385    9.846 
#    0.000    0.769    0.000    0.000    2.000    0.000 
#    0.000    0.000    0.000    0.000    0.000    0.000 
#
# Total GULP energy -322167.015660 kJ/mol
# GULP energy per Si atom -12391.039064 kJ/mol
# Density = 1.979570 g / cm^3
# Si number density = 19.840858 Si / 1000 Ang^3
#
#
#
# Elastic Constant Matrix: (Units=GPa)
#
#
# Indices 1 2 3 4 5 6 
#
# 1 92.3466 30.4844 54.4533 0.0000 -7.5371 0.0000
# 2 30.4844 104.8086 28.5837 0.0000 -14.6933 0.0000
# 3 54.4533 28.5837 122.2372 0.0000 7.9442 0.0000
# 4 0.0000 0.0000 0.0000 29.1895 0.0000 -3.5541
# 5 -7.5371 -14.6933 7.9442 0.0000 34.5602 0.0000
# 6 0.0000 0.0000 0.0000 -3.5541 0.0000 26.8069
#
#
#
# Elastic Compliance Matrix: (Units=1/GPa)
#
#
# Indices 1 2 3 4 5 6 
#
# 1 0.015927 -0.002186 -0.006851 0.000000 0.004119 0.000000
# 2 -0.002186 0.011402 -0.002006 0.000000 0.004832 0.000000
# 3 -0.006851 -0.002006 0.012034 0.000000 -0.005113 0.000000
# 4 0.000000 0.000000 0.000000 0.034821 0.000000 0.004617
# 5 0.004119 0.004832 -0.005113 0.000000 0.033063 0.000000
# 6 0.000000 0.000000 0.000000 0.004617 0.000000 0.037916
#
#
# Mechanical properties :
#
#
# Convention : Reuss Voigt Hill
#
# Bulk Modulus (GPa) = 57.88777 60.71502 59.30139
# Shear Modulus (GPa) = 28.90036 31.83607 30.36822
#
# Velocity S-wave (km/s) = 3.82069 4.01006 3.91652
# Velocity P-wave (km/s) = 6.97875 7.21860 7.09969
#
# Compressibility (1/GPa) = 0.01727481
#
# Stress axis : x y z
#
# Youngs Moduli (GPa) = 62.78797 87.70663 83.09599
#
# Poissons Ratio (x) = 0.19177 0.56931
# Poissons Ratio (y) = 0.13729 0.16670
# Poissons Ratio (z) = 0.43018 0.17595
#
# Static dielectric constant tensor:
#      x y z
#    x 3.388250 0.000000 0.128430 
#    y 0.000000 3.735570 0.000000 
#    z 0.128430 0.000000 3.839360 
# 
# 
# High freq. dielectric constant tensor:
#      x y z
#    x 1.750170 0.000000 0.017940 
#    y 0.000000 1.769850 0.000000 
#    z 0.017940 0.000000 1.782060 
# 
# From -- ./inp_files/99873.got.cif
#   From: 2010.06.25/outbox.cif.g09.slc.cpg/sg15_50_cif.got.tgz:99873.got - 2010.06.28 07:06:18.
