data_PCOD8130522
_publ_section_title
;
Structure prediction by ZEFSAII (Michael W. Deem and Ramdas Pophale) SiO2 
 PCOD8130522
Probable space group: C 2/C
;
_chemical_formula_sum "Si O2"
_cell_formula_units_Z 44
_cell_length_a 10.367715
_cell_length_b 20.971361
_cell_length_c 11.091751
_cell_angle_alpha 90.000000
_cell_angle_beta 82.005341
_cell_angle_gamma 90.000000
_cell_volume 2388.186512
_symmetry_space_group_name_H-M "C 2/C"
_symmetry_group_IT_number 15
_symmetry_cell_setting 'monoclinic'
loop_
_space_group_symop_operation_xyz
x,y,z
-x,y,1/2-z
-x,-y,-z
x,-y,1/2+z
1/2+x,1/2+y,z
1/2-x,1/2+y,1/2-z
1/2-x,1/2-y,-z
1/2+x,1/2-y,1/2+z
loop_
_atom_site_type_symbol
_atom_site_label
_atom_site_fract_x
_atom_site_fract_y
_atom_site_fract_z
Si Si1 0.108506 0.533112 0.141635
Si Si2 0.500000 0.680756 0.250000
Si Si3 0.551854 0.091745 0.535836
Si Si4 0.129870 0.253870 0.678200
Si Si5 0.268213 0.122151 0.207741
Si Si6 0.403002 0.213439 0.592120
O O1 0.233974 0.566069 0.188153
O O2 0.000000 0.555736 0.250000
O O3 0.074847 0.561165 0.013965
O O4 0.112439 0.456287 0.128565
O O5 0.618683 0.635706 0.197891
O O6 0.532982 0.723645 0.361200
O O7 0.667283 0.103557 0.427053
O O8 0.496990 0.154002 0.611939
O O9 0.158448 0.315412 0.754947
O O10 0.254379 0.205887 0.662400
O O11 0.100398 0.279068 0.549684
O O12 0.000000 0.219965 0.750000
#
# Coordination Sequence:
#
# PCOD8130522 Si02
#       6
#     8   4   8   8   8   8
#     4   9  18  32  55  79 100 135 182 234 272 312
#     4  10  24  34  50  82 114 154 178 218 282 332
#     4  10  18  32  55  81 101 135 186 234 266 315
#     4  10  17  34  56  77 111 150 180 214 280 334
#     4  10  18  37  53  75 112 148 182 220 279 335
#     4  10  20  32  53  82 111 144 181 227 267 326
#
# _framework density 18.424022000000001
#
# number of rings (size 3 to 8) (size 9 to 14) (size 15 to 20)
#    0.000    2.182    3.636    0.545    1.273    0.727 
#    0.000    0.909    0.000    0.000   21.273    0.000 
#    0.000    0.000    0.000    0.000    0.000    0.000 
#
# Total GULP energy -272654.421202 kJ/mol
# GULP energy per Si atom -12393.382782 kJ/mol
# Density = 1.838209 g / cm^3
# Si number density = 18.424022 Si / 1000 Ang^3
#
#
#
# Elastic Constant Matrix: (Units=GPa)
#
#
# Indices 1 2 3 4 5 6 
#
# 1 121.8005 46.2030 30.0151 0.0000 -19.2632 0.0000
# 2 46.2030 83.3484 13.8919 0.0000 -15.1886 0.0000
# 3 30.0151 13.8919 37.2751 0.0000 -17.7971 0.0000
# 4 0.0000 0.0000 0.0000 32.3908 0.0000 2.5813
# 5 -19.2632 -15.1886 -17.7971 0.0000 21.5469 0.0000
# 6 0.0000 0.0000 0.0000 2.5813 0.0000 22.4785
#
#
#
# Elastic Compliance Matrix: (Units=1/GPa)
#
#
# Indices 1 2 3 4 5 6 
#
# 1 0.012218 -0.005352 -0.007314 0.000000 0.001109 0.000000
# 2 -0.005352 0.016126 0.002382 0.000000 0.008550 0.000000
# 3 -0.007314 0.002382 0.048724 0.000000 0.035385 0.000000
# 4 0.000000 0.000000 0.000000 0.031158 0.000000 -0.003578
# 5 0.001109 0.008550 0.035385 0.000000 0.082656 0.000000
# 6 0.000000 0.000000 0.000000 -0.003578 0.000000 0.044898
#
#
# Mechanical properties :
#
#
# Convention : Reuss Voigt Hill
#
# Bulk Modulus (GPa) = 17.69935 46.96046 32.32990
# Shear Modulus (GPa) = 18.16986 25.43751 21.80369
#
# Velocity S-wave (km/s) = 3.14380 3.71977 3.44385
# Velocity P-wave (km/s) = 4.77551 6.63272 5.77921
#
# Compressibility (1/GPa) = 0.05649925
#
# Stress axis : x y z
#
# Youngs Moduli (GPa) = 81.84576 62.01350 20.52371
#
# Poissons Ratio (x) = 0.33188 0.15012
# Poissons Ratio (y) = 0.43801 -0.04888
# Poissons Ratio (z) = 0.59864 -0.14770
#
# Static dielectric constant tensor:
#      x y z
#    x 3.496720 0.000000 0.021790 
#    y 0.000000 3.346230 0.000000 
#    z 0.021790 0.000000 3.351180 
# 
# 
# High freq. dielectric constant tensor:
#      x y z
#    x 1.694880 0.000000 0.003490 
#    y 0.000000 1.696410 0.000000 
#    z 0.003490 0.000000 1.716740 
# 
# From -- ./inp_files/78184.got.cif
#   From: 2010.06.25/outbox.cif.g09.slc.cpg/sg15_40_cif.got.tgz:78184.got - 2010.06.28 07:06:18.
