data_PCOD8130895
_publ_section_title
;
Structure prediction by ZEFSAII (Michael W. Deem and Ramdas Pophale) SiO2 
 PCOD8130895
Probable space group: C 2/C
;
_chemical_formula_sum "Si O2"
_cell_formula_units_Z 64
_cell_length_a 26.452152
_cell_length_b 15.159390
_cell_length_c 8.890191
_cell_angle_alpha 90.000000
_cell_angle_beta 111.834186
_cell_angle_gamma 90.000000
_cell_volume 3309.217966
_symmetry_space_group_name_H-M "C 2/C"
_symmetry_group_IT_number 15
_symmetry_cell_setting 'monoclinic'
loop_
_space_group_symop_operation_xyz
x,y,z
-x,y,1/2-z
-x,-y,-z
x,-y,1/2+z
1/2+x,1/2+y,z
1/2-x,1/2+y,1/2-z
1/2-x,1/2-y,-z
1/2+x,1/2-y,1/2+z
loop_
_atom_site_type_symbol
_atom_site_label
_atom_site_fract_x
_atom_site_fract_y
_atom_site_fract_z
Si Si1 0.973752 0.083550 0.884451
Si Si2 0.759368 0.587720 0.819877
Si Si3 0.367349 0.878969 0.937786
Si Si4 0.542388 0.734371 0.412153
Si Si5 0.641050 0.516457 0.676354
Si Si6 0.782650 0.760210 0.385973
Si Si7 0.329301 0.997550 0.646794
Si Si8 0.127294 0.114170 0.385872
O O1 0.908462 0.069920 0.798440
O O2 0.000000 0.091494 0.750000
O O3 0.983368 0.178463 0.978393
O O4 0.000000 0.000000 0.000000
O O5 0.699952 0.550772 0.793626
O O6 0.754095 0.693295 0.783490
O O7 0.782613 0.544463 0.692766
O O8 0.800249 0.570820 0.001688
O O9 0.308416 0.830712 0.855461
O O10 0.371344 0.944963 0.800630
O O11 0.417725 0.811825 0.986376
O O12 0.365474 0.931816 0.093831
O O13 0.500000 0.779837 0.250000
O O14 0.569742 0.661469 0.333161
O O15 0.630496 0.522564 0.485850
O O16 0.638876 0.413358 0.726528
O O17 0.750000 0.750000 0.500000
O O18 0.831331 0.823677 0.484011
#
# Coordination Sequence:
#
# PCOD8130895 Si02
#       8
#     8   8   8   8   8   8   8   8
#     4  11  21  35  58  86 124 160 193 235 289 348
#     4  10  19  33  56  84 115 160 194 232 283 348
#     4  10  22  40  61  83 117 151 194 256 295 358
#     4  10  21  40  61  84 113 151 194 241 306 355
#     4  10  18  30  48  81 113 147 193 227 260 332
#     4  10  18  32  51  78 115 149 188 231 281 332
#     4  10  21  37  59  83 114 156 200 239 298 346
#     4   9  19  30  51  75 112 146 184 226 273 328
#
# _framework density 19.339917
#
# number of rings (size 3 to 8) (size 9 to 14) (size 15 to 20)
#    0.000    2.000    1.250    4.875    1.750    0.500 
#    0.000    3.125    2.750    0.000    0.000    0.000 
#    0.000    0.000    0.000    0.000    0.000    0.000 
#
# Total GULP energy -396461.120433 kJ/mol
# GULP energy per Si atom -12389.410014 kJ/mol
# Density = 1.929590 g / cm^3
# Si number density = 19.339917 Si / 1000 Ang^3
#
#
#
# Elastic Constant Matrix: (Units=GPa)
#
#
# Indices 1 2 3 4 5 6 
#
# 1 77.3673 27.2960 41.8946 0.0000 -10.1491 0.0000
# 2 27.2960 91.9304 46.4380 0.0000 -10.1893 0.0000
# 3 41.8946 46.4380 87.8429 0.0000 -9.2852 0.0000
# 4 0.0000 0.0000 0.0000 35.8847 0.0000 -1.3632
# 5 -10.1491 -10.1893 -9.2852 0.0000 26.4209 0.0000
# 6 0.0000 0.0000 0.0000 -1.3632 0.0000 27.5741
#
#
#
# Elastic Compliance Matrix: (Units=1/GPa)
#
#
# Indices 1 2 3 4 5 6 
#
# 1 0.017901 -0.001070 -0.007570 0.000000 0.003803 0.000000
# 2 -0.001070 0.015150 -0.007192 0.000000 0.002904 0.000000
# 3 -0.007570 -0.007192 0.018898 0.000000 0.000960 0.000000
# 4 0.000000 0.000000 0.000000 0.027919 0.000000 0.001380
# 5 0.003803 0.002904 0.000960 0.000000 0.040767 0.000000
# 6 0.000000 0.000000 0.000000 0.001380 0.000000 0.036334
#
#
# Mechanical properties :
#
#
# Convention : Reuss Voigt Hill
#
# Bulk Modulus (GPa) = 49.29581 54.26645 51.78113
# Shear Modulus (GPa) = 25.58922 27.41007 26.49964
#
# Velocity S-wave (km/s) = 3.64143 3.76876 3.70564
# Velocity P-wave (km/s) = 6.57454 6.85990 6.71874
#
# Compressibility (1/GPa) = 0.02028570
#
# Stress axis : x y z
#
# Youngs Moduli (GPa) = 55.86350 66.00522 52.91642
#
# Poissons Ratio (x) = 0.07061 0.40057
# Poissons Ratio (y) = 0.05976 0.38058
# Poissons Ratio (z) = 0.42288 0.47471
#
# Static dielectric constant tensor:
#      x y z
#    x 3.450310 0.000000 -0.102550 
#    y 0.000000 3.611190 0.000000 
#    z -0.102550 0.000000 3.497850 
# 
# 
# High freq. dielectric constant tensor:
#      x y z
#    x 1.746700 0.000000 -0.004670 
#    y 0.000000 1.738680 0.000000 
#    z -0.004670 0.000000 1.747770 
# 
# From -- ./inp_files/66262.got.cif
#   From: 2010.06.25/outbox.cif.g09.slc.cpg/sg15_34_cif.got.tgz:66262.got - 2010.06.28 07:06:18.
