data_PCOD8130987
_publ_section_title
;
Structure prediction by ZEFSAII (Michael W. Deem and Ramdas Pophale) SiO2 
 PCOD8130987
Probable space group: C 2/C
;
_chemical_formula_sum "Si O2"
_cell_formula_units_Z 64
_cell_length_a 19.141121
_cell_length_b 13.869406
_cell_length_c 15.123899
_cell_angle_alpha 90.000000
_cell_angle_beta 64.394475
_cell_angle_gamma 90.000000
_cell_volume 3620.719042
_symmetry_space_group_name_H-M "C 2/C"
_symmetry_group_IT_number 15
_symmetry_cell_setting 'monoclinic'
loop_
_space_group_symop_operation_xyz
x,y,z
-x,y,1/2-z
-x,-y,-z
x,-y,1/2+z
1/2+x,1/2+y,z
1/2-x,1/2+y,1/2-z
1/2-x,1/2-y,-z
1/2+x,1/2-y,1/2+z
loop_
_atom_site_type_symbol
_atom_site_label
_atom_site_fract_x
_atom_site_fract_y
_atom_site_fract_z
Si Si1 0.175782 0.184765 0.813837
Si Si2 0.755153 0.977170 0.118470
Si Si3 0.152272 0.497201 0.514337
Si Si4 0.505221 0.924466 0.849123
Si Si5 0.738861 0.818832 0.402280
Si Si6 0.825730 0.586506 0.180242
Si Si7 0.345912 0.352429 0.496751
Si Si8 0.994970 0.801231 0.150316
O O1 0.205450 0.127026 0.883839
O O2 0.231132 0.141656 0.707276
O O3 0.186957 0.299328 0.809468
O O4 0.085990 0.161902 0.845216
O O5 0.682577 0.961439 0.091949
O O6 0.732394 0.032841 0.221165
O O7 0.819102 0.039144 0.030779
O O8 0.181903 0.389141 0.485541
O O9 0.186334 0.560387 0.415772
O O10 0.058819 0.490243 0.566093
O O11 0.500000 0.951895 0.750000
O O12 0.589126 0.950406 0.840208
O O13 0.490374 0.811675 0.871129
O O14 0.692058 0.719291 0.409872
O O15 0.815655 0.806577 0.420413
O O16 0.438793 0.354391 0.442874
O O17 0.000000 0.830741 0.250000
#
# Coordination Sequence:
#
# PCOD8130987 Si02
#       8
#     8   8   8   8   8   8   8   8
#     4  11  22  37  53  82 115 145 189 231 276 342
#     4  11  23  36  56  82 111 149 193 232 271 338
#     4  11  21  36  57  82 114 150 181 227 285 338
#     4  10  19  32  55  88 116 137 177 235 289 335
#     4  10  18  30  56  83 108 134 180 232 279 327
#     4  11  22  36  57  83 113 150 185 229 283 336
#     4  10  19  32  53  83 109 140 176 229 291 321
#     4  10  19  31  55  84 112 141 178 237 292 326
#
# _framework density 17.676048000000002
#
# number of rings (size 3 to 8) (size 9 to 14) (size 15 to 20)
#    0.000    1.500    6.250    0.375    0.000    1.000 
#    0.000    0.000    0.000    0.000    0.000    0.875 
#    0.000    0.000    0.000    0.000    0.000    0.000 
#
# Total GULP energy -396666.066628 kJ/mol
# GULP energy per Si atom -12395.814582 kJ/mol
# Density = 1.763582 g / cm^3
# Si number density = 17.676048 Si / 1000 Ang^3
#
#
#
# Elastic Constant Matrix: (Units=GPa)
#
#
# Indices 1 2 3 4 5 6 
#
# 1 74.2286 34.1827 27.6248 0.0000 -2.0903 0.0000
# 2 34.1827 49.2283 17.9767 0.0000 5.7340 0.0000
# 3 27.6248 17.9767 76.3853 0.0000 -1.7419 0.0000
# 4 0.0000 0.0000 0.0000 22.5377 0.0000 5.8514
# 5 -2.0903 5.7340 -1.7419 0.0000 28.4401 0.0000
# 6 0.0000 0.0000 0.0000 5.8514 0.0000 24.1751
#
#
#
# Elastic Compliance Matrix: (Units=1/GPa)
#
#
# Indices 1 2 3 4 5 6 
#
# 1 0.021639 -0.013873 -0.004467 0.000000 0.004114 0.000000
# 2 -0.013873 0.031795 -0.002638 0.000000 -0.007592 0.000000
# 3 -0.004467 -0.002638 0.015354 0.000000 0.001144 0.000000
# 4 0.000000 0.000000 0.000000 0.047345 0.000000 -0.011460
# 5 0.004114 -0.007592 0.001144 0.000000 0.037065 0.000000
# 6 0.000000 0.000000 0.000000 -0.011460 0.000000 0.044139
#
#
# Mechanical properties :
#
#
# Convention : Reuss Voigt Hill
#
# Bulk Modulus (GPa) = 37.27174 39.93453 38.60313
# Shear Modulus (GPa) = 20.14205 23.03445 21.58825
#
# Velocity S-wave (km/s) = 3.37933 3.61383 3.49854
# Velocity P-wave (km/s) = 6.02978 6.32886 6.18113
#
# Compressibility (1/GPa) = 0.02682998
#
# Stress axis : x y z
#
# Youngs Moduli (GPa) = 46.21293 31.45196 65.12957
#
# Poissons Ratio (x) = 0.43635 0.29093
# Poissons Ratio (y) = 0.64113 0.17184
# Poissons Ratio (z) = 0.20643 0.08298
#
# Static dielectric constant tensor:
#      x y z
#    x 3.264310 0.000000 -0.053080 
#    y 0.000000 2.988010 0.000000 
#    z -0.053080 0.000000 3.246080 
# 
# 
# High freq. dielectric constant tensor:
#      x y z
#    x 1.673860 0.000000 -0.011760 
#    y 0.000000 1.659020 0.000000 
#    z -0.011760 0.000000 1.688030 
# 
# From -- ./inp_files/162260.got.cif
#   From: 2010.06.25/outbox.cif.g09.slc.cpg/sg15_82_cif.got.tgz:162260.got - 2010.06.28 07:06:18.
