data_PCOD8130457
_publ_section_title
;
Structure prediction by ZEFSAII (Michael W. Deem and Ramdas Pophale) SiO2 
 PCOD8130457
Probable space group: C 2/C
;
_chemical_formula_sum "Si O2"
_cell_formula_units_Z 60
_cell_length_a 11.936753
_cell_length_b 18.252676
_cell_length_c 14.710114
_cell_angle_alpha 90.000000
_cell_angle_beta 76.396466
_cell_angle_gamma 90.000000
_cell_volume 3115.093945
_symmetry_space_group_name_H-M "C 2/C"
_symmetry_group_IT_number 15
_symmetry_cell_setting 'monoclinic'
loop_
_space_group_symop_operation_xyz
x,y,z
-x,y,1/2-z
-x,-y,-z
x,-y,1/2+z
1/2+x,1/2+y,z
1/2-x,1/2+y,1/2-z
1/2-x,1/2-y,-z
1/2+x,1/2-y,1/2+z
loop_
_atom_site_type_symbol
_atom_site_label
_atom_site_fract_x
_atom_site_fract_y
_atom_site_fract_z
Si Si1 0.147451 0.958987 0.052661
Si Si2 0.586536 0.103452 0.517843
Si Si3 0.633128 0.474112 0.742225
Si Si4 0.227021 0.294669 0.094462
Si Si5 0.897245 0.924566 0.084340
Si Si6 0.713333 0.840866 0.819376
Si Si7 0.000000 0.629077 0.250000
Si Si8 0.117029 0.435688 0.556190
O O1 0.033189 0.908642 0.072922
O O2 0.183247 0.978698 0.148848
O O3 0.249736 0.912794 0.984390
O O4 0.121624 0.036288 0.008511
O O5 0.610106 0.157687 0.599521
O O6 0.675863 0.123937 0.421808
O O7 0.456174 0.108408 0.506039
O O8 0.613694 0.022134 0.543685
O O9 0.500000 0.454363 0.750000
O O10 0.651565 0.522263 0.828299
O O11 0.702502 0.398715 0.745319
O O12 0.333848 0.347291 0.097265
O O13 0.218228 0.235853 0.178357
O O14 0.250000 0.250000 0.000000
O O15 0.598981 0.823286 0.780690
O O16 0.932570 0.578518 0.334681
#
# Coordination Sequence:
#
# PCOD8130457 Si02
#       8
#     8   8   8   8   8   8   4   8
#     4  10  18  34  56  87 115 145 188 250 294 329
#     4   9  18  31  56  83 106 147 189 234 284 348
#     4  10  20  35  58  86 115 144 200 250 285 340
#     4  10  19  36  58  81 115 154 198 232 295 363
#     4  10  20  33  58  92 110 150 203 241 290 347
#     4  10  19  35  56  78 115 153 189 232 298 352
#     4  10  22  32  52  88 110 154 192 242 286 350
#     4  10  17  33  56  85 115 142 193 240 295 336
#
# _framework density 19.261056
#
# number of rings (size 3 to 8) (size 9 to 14) (size 15 to 20)
#    0.000    2.133    2.667    1.600    0.000    0.000 
#    3.600    0.000    4.400    7.200    0.000    0.000 
#    0.000    0.000    0.000    0.000    0.000    0.000 
#
# Total GULP energy -371817.380093 kJ/mol
# GULP energy per Si atom -12393.912670 kJ/mol
# Density = 1.921722 g / cm^3
# Si number density = 19.261056 Si / 1000 Ang^3
#
#
#
# Elastic Constant Matrix: (Units=GPa)
#
#
# Indices 1 2 3 4 5 6 
#
# 1 118.0888 58.6530 40.8146 0.0000 1.0605 0.0000
# 2 58.6530 105.1017 37.0492 0.0000 8.7372 0.0000
# 3 40.8146 37.0492 83.8764 0.0000 3.7226 0.0000
# 4 0.0000 0.0000 0.0000 24.4184 0.0000 7.9984
# 5 1.0605 8.7372 3.7226 0.0000 30.1504 0.0000
# 6 0.0000 0.0000 0.0000 7.9984 0.0000 32.8304
#
#
#
# Elastic Compliance Matrix: (Units=1/GPa)
#
#
# Indices 1 2 3 4 5 6 
#
# 1 0.012644 -0.005926 -0.003611 0.000000 0.001718 0.000000
# 2 -0.005926 0.014264 -0.003261 0.000000 -0.003523 0.000000
# 3 -0.003611 -0.003261 0.015155 0.000000 -0.000799 0.000000
# 4 0.000000 0.000000 0.000000 0.044504 0.000000 -0.010843
# 5 0.001718 -0.003523 -0.000799 0.000000 0.034226 0.000000
# 6 0.000000 0.000000 0.000000 -0.010843 0.000000 0.033101
#
#
# Mechanical properties :
#
#
# Convention : Reuss Voigt Hill
#
# Bulk Modulus (GPa) = 60.72585 64.45562 62.59074
# Shear Modulus (GPa) = 27.02985 28.84983 27.93984
#
# Velocity S-wave (km/s) = 3.75018 3.87438 3.81279
# Velocity P-wave (km/s) = 7.09564 7.31788 7.20761
#
# Compressibility (1/GPa) = 0.01646745
#
# Stress axis : x y z
#
# Youngs Moduli (GPa) = 79.08633 70.10696 65.98337
#
# Poissons Ratio (x) = 0.41546 0.23830
# Poissons Ratio (y) = 0.46868 0.21514
# Poissons Ratio (z) = 0.28562 0.22859
#
# Static dielectric constant tensor:
#      x y z
#    x 3.905050 0.000000 0.160180 
#    y 0.000000 3.429280 0.000000 
#    z 0.160180 0.000000 3.588310 
# 
# 
# High freq. dielectric constant tensor:
#      x y z
#    x 1.761520 0.000000 0.019430 
#    y 0.000000 1.716140 0.000000 
#    z 0.019430 0.000000 1.740260 
# 
# From -- ./inp_files/145641.got.cif
#   From: 2010.06.25/outbox.cif.g09.slc.cpg/sg15_73_cif.got.tgz:145641.got - 2010.06.28 07:06:18.
