data_PCOD8130436
_publ_section_title
;
Structure prediction by ZEFSAII (Michael W. Deem and Ramdas Pophale) SiO2 
 PCOD8130436
Probable space group: C 2/C
;
_chemical_formula_sum "Si O2"
_cell_formula_units_Z 52
_cell_length_a 13.149640
_cell_length_b 25.365431
_cell_length_c 8.711190
_cell_angle_alpha 90.000000
_cell_angle_beta 92.444189
_cell_angle_gamma 90.000000
_cell_volume 2902.941677
_symmetry_space_group_name_H-M "C 2/C"
_symmetry_group_IT_number 15
_symmetry_cell_setting 'monoclinic'
loop_
_space_group_symop_operation_xyz
x,y,z
-x,y,1/2-z
-x,-y,-z
x,-y,1/2+z
1/2+x,1/2+y,z
1/2-x,1/2+y,1/2-z
1/2-x,1/2-y,-z
1/2+x,1/2-y,1/2+z
loop_
_atom_site_type_symbol
_atom_site_label
_atom_site_fract_x
_atom_site_fract_y
_atom_site_fract_z
Si Si1 0.000000 0.799166 0.750000
Si Si2 0.310497 0.330857 0.563896
Si Si3 0.441502 0.230587 0.018343
Si Si4 0.170790 0.427073 0.520688
Si Si5 0.466687 0.880529 0.421821
Si Si6 0.154809 0.749247 0.178387
Si Si7 0.384697 0.021818 0.788536
O O1 0.077224 0.835023 0.853713
O O2 0.067106 0.763069 0.639500
O O3 0.267656 0.389629 0.549368
O O4 0.243215 0.293551 0.668136
O O5 0.313367 0.305488 0.392757
O O6 0.557888 0.228169 0.079601
O O7 0.369235 0.256668 0.142630
O O8 0.408270 0.169849 0.987449
O O9 0.173713 0.471130 0.652856
O O10 0.178943 0.456511 0.358700
O O11 0.067433 0.393135 0.527531
O O12 0.500000 0.867845 0.250000
O O13 0.392202 0.931562 0.417865
O O14 0.500000 0.006481 0.750000
#
# Coordination Sequence:
#
# PCOD8130436 Si02
#       7
#     4   8   8   8   8   8   8
#     4  10  22  34  54  76 110 140 190 228 250 312
#     4  10  20  36  51  72 107 148 183 224 266 303
#     4  10  17  33  51  81 110 140 172 215 267 323
#     4  10  19  34  51  73 107 141 175 218 267 318
#     4   9  16  28  51  78 111 144 159 202 271 334
#     4   9  20  31  52  77 104 144 183 211 260 333
#     4   9  19  31  50  79 108 134 170 218 268 334
#
# _framework density 17.912863000000002
#
# number of rings (size 3 to 8) (size 9 to 14) (size 15 to 20)
#    0.000    2.769    2.308    1.846    0.000    3.077 
#    0.000    1.538    0.000    0.923    0.000    0.000 
#    0.000    0.000    0.000    0.000    0.000    0.000 
#
# Total GULP energy -322330.103021 kJ/mol
# GULP energy per Si atom -12397.311655 kJ/mol
# Density = 1.787209 g / cm^3
# Si number density = 17.912863 Si / 1000 Ang^3
#
#
#
# Elastic Constant Matrix: (Units=GPa)
#
#
# Indices 1 2 3 4 5 6 
#
# 1 59.8806 48.5570 33.1621 0.0000 -0.1123 0.0000
# 2 48.5570 136.2892 55.6508 0.0000 -2.8331 0.0000
# 3 33.1621 55.6508 91.7085 0.0000 -8.2475 0.0000
# 4 0.0000 0.0000 0.0000 19.4055 0.0000 -6.7014
# 5 -0.1123 -2.8331 -8.2475 0.0000 24.6482 0.0000
# 6 0.0000 0.0000 0.0000 -6.7014 0.0000 29.0495
#
#
#
# Elastic Compliance Matrix: (Units=1/GPa)
#
#
# Indices 1 2 3 4 5 6 
#
# 1 0.025134 -0.006920 -0.005104 0.000000 -0.002389 0.000000
# 2 -0.006920 0.011678 -0.004605 0.000000 -0.000230 0.000000
# 3 -0.005104 -0.004605 0.015975 0.000000 0.004793 0.000000
# 4 0.000000 0.000000 0.000000 0.055992 0.000000 0.012917
# 5 -0.002389 -0.000230 0.004793 0.000000 0.042137 0.000000
# 6 0.000000 0.000000 0.000000 0.012917 0.000000 0.037404
#
#
# Mechanical properties :
#
#
# Convention : Reuss Voigt Hill
#
# Bulk Modulus (GPa) = 51.20610 62.51312 56.85961
# Shear Modulus (GPa) = 21.92131 24.65453 23.28792
#
# Velocity S-wave (km/s) = 3.50204 3.71396 3.60956
# Velocity P-wave (km/s) = 6.70826 7.30517 7.01307
#
# Compressibility (1/GPa) = 0.01952892
#
# Stress axis : x y z
#
# Youngs Moduli (GPa) = 39.78751 85.62782 62.59696
#
# Poissons Ratio (x) = 0.59256 0.31949
# Poissons Ratio (y) = 0.27534 0.28826
# Poissons Ratio (z) = 0.20307 0.39432
#
# Static dielectric constant tensor:
#      x y z
#    x 3.004920 0.000000 0.012560 
#    y 0.000000 3.249180 0.000000 
#    z 0.012560 0.000000 3.345720 
# 
# 
# High freq. dielectric constant tensor:
#      x y z
#    x 1.651160 0.000000 0.007220 
#    y 0.000000 1.680160 0.000000 
#    z 0.007220 0.000000 1.696960 
# 
# From -- ./inp_files/41747.got.cif
#   From: 2010.06.25/outbox.cif.g09.slc.cpg/sg15_21_cif.got.tgz:41747.got - 2010.06.28 07:06:18.
