data_PCOD8130365
_publ_section_title
;
Structure prediction by ZEFSAII (Michael W. Deem and Ramdas Pophale) SiO2 
 PCOD8130365
Probable space group: C 2/C
;
_chemical_formula_sum "Si O2"
_cell_formula_units_Z 56
_cell_length_a 13.861041
_cell_length_b 18.678958
_cell_length_c 14.502518
_cell_angle_alpha 90.000000
_cell_angle_beta 120.992644
_cell_angle_gamma 90.000000
_cell_volume 3218.777818
_symmetry_space_group_name_H-M "C 2/C"
_symmetry_group_IT_number 15
_symmetry_cell_setting 'monoclinic'
loop_
_space_group_symop_operation_xyz
x,y,z
-x,y,1/2-z
-x,-y,-z
x,-y,1/2+z
1/2+x,1/2+y,z
1/2-x,1/2+y,1/2-z
1/2-x,1/2-y,-z
1/2+x,1/2-y,1/2+z
loop_
_atom_site_type_symbol
_atom_site_label
_atom_site_fract_x
_atom_site_fract_y
_atom_site_fract_z
Si Si1 0.289258 0.604388 0.578560
Si Si2 0.964674 0.171908 0.549329
Si Si3 0.422561 0.072257 0.296265
Si Si4 0.072254 0.592648 0.698406
Si Si5 0.952780 0.663817 0.002049
Si Si6 0.180993 0.941067 0.599697
Si Si7 0.174764 0.082624 0.696251
O O1 0.385310 0.663584 0.601366
O O2 0.169755 0.643418 0.520888
O O3 0.289015 0.545538 0.494930
O O4 0.315760 0.566953 0.689202
O O5 0.090293 0.147154 0.635703
O O6 0.971241 0.252231 0.518909
O O7 0.911575 0.122571 0.441109
O O8 0.500000 0.096927 0.250000
O O9 0.449852 0.123018 0.395060
O O10 0.292284 0.083484 0.208233
O O11 0.448841 0.990410 0.336952
O O12 0.032011 0.642588 0.596205
O O13 0.204165 0.604533 0.785000
O O14 0.000000 0.616757 0.750000
O O15 0.129804 0.011703 0.622235
#
# Coordination Sequence:
#
# PCOD8130365 Si02
#       7
#     8   8   8   8   8   8   8
#     4   9  20  34  54  85 111 141 181 223 286 316
#     4  10  21  34  54  81 115 144 179 227 273 341
#     4  10  17  32  53  81 105 139 180 227 274 321
#     4   9  21  37  56  76 107 143 186 233 272 322
#     4  11  20  34  57  82 115 142 178 226 285 332
#     4   9  20  34  52  79 116 137 186 225 261 329
#     4  10  19  37  57  77 108 151 181 227 279 322
#
# _framework density 17.397908000000001
#
# number of rings (size 3 to 8) (size 9 to 14) (size 15 to 20)
#    0.857    1.429    1.429    1.714    0.000    3.429 
#    0.000    0.714    3.143    0.000    0.000    0.000 
#    0.000    0.000    0.000    0.000    0.000    0.000 
#
# Total GULP energy -347080.570187 kJ/mol
# GULP energy per Si atom -12395.734650 kJ/mol
# Density = 1.735831 g / cm^3
# Si number density = 17.397908 Si / 1000 Ang^3
#
#
#
# Elastic Constant Matrix: (Units=GPa)
#
#
# Indices 1 2 3 4 5 6 
#
# 1 73.0063 36.0545 53.4471 0.0000 -6.9490 0.0000
# 2 36.0545 98.1691 68.5011 0.0000 -11.8089 0.0000
# 3 53.4471 68.5011 103.7263 0.0000 -4.0314 0.0000
# 4 0.0000 0.0000 0.0000 10.7256 0.0000 3.6489
# 5 -6.9490 -11.8089 -4.0314 0.0000 24.2267 0.0000
# 6 0.0000 0.0000 0.0000 3.6489 0.0000 16.0368
#
#
#
# Elastic Compliance Matrix: (Units=1/GPa)
#
#
# Indices 1 2 3 4 5 6 
#
# 1 0.022494 0.000497 -0.011735 0.000000 0.004742 0.000000
# 2 0.000497 0.020231 -0.013314 0.000000 0.007788 0.000000
# 3 -0.011735 -0.013314 0.024254 0.000000 -0.005820 0.000000
# 4 0.000000 0.000000 0.000000 0.101058 0.000000 -0.022994
# 5 0.004742 0.007788 -0.005820 0.000000 0.045465 0.000000
# 6 0.000000 0.000000 0.000000 -0.022994 0.000000 0.067588
#
#
# Mechanical properties :
#
#
# Convention : Reuss Voigt Hill
#
# Bulk Modulus (GPa) = 55.94135 65.65636 60.79885
# Shear Modulus (GPa) = 14.87421 17.99110 16.43266
#
# Velocity S-wave (km/s) = 2.92711 3.21922 3.07664
# Velocity P-wave (km/s) = 6.60665 7.18595 6.90238
#
# Compressibility (1/GPa) = 0.01787586
#
# Stress axis : x y z
#
# Youngs Moduli (GPa) = 44.45638 49.42831 41.23050
#
# Poissons Ratio (x) = -0.02458 0.48382
# Poissons Ratio (y) = -0.02211 0.54896
# Poissons Ratio (z) = 0.52168 0.65811
#
# Static dielectric constant tensor:
#      x y z
#    x 3.237150 0.000000 0.068140 
#    y 0.000000 2.970810 0.000000 
#    z 0.068140 0.000000 3.277140 
# 
# 
# High freq. dielectric constant tensor:
#      x y z
#    x 1.667140 0.000000 0.012420 
#    y 0.000000 1.646500 0.000000 
#    z 0.012420 0.000000 1.678360 
# 
# From -- ./inp_files/154918.got.cif
#   From: 2010.06.25/outbox.cif.g09.slc.cpg/sg15_78_cif.got.tgz:154918.got - 2010.06.28 07:06:18.
