data_PCOD8130429
_publ_section_title
;
Structure prediction by ZEFSAII (Michael W. Deem and Ramdas Pophale) SiO2 
 PCOD8130429
Probable space group: C 2/C
;
_chemical_formula_sum "Si O2"
_cell_formula_units_Z 52
_cell_length_a 14.575047
_cell_length_b 23.891081
_cell_length_c 8.854240
_cell_angle_alpha 90.000000
_cell_angle_beta 96.581547
_cell_angle_gamma 90.000000
_cell_volume 3062.848139
_symmetry_space_group_name_H-M "C 2/C"
_symmetry_group_IT_number 15
_symmetry_cell_setting 'monoclinic'
loop_
_space_group_symop_operation_xyz
x,y,z
-x,y,1/2-z
-x,-y,-z
x,-y,1/2+z
1/2+x,1/2+y,z
1/2-x,1/2+y,1/2-z
1/2-x,1/2-y,-z
1/2+x,1/2-y,1/2+z
loop_
_atom_site_type_symbol
_atom_site_label
_atom_site_fract_x
_atom_site_fract_y
_atom_site_fract_z
Si Si1 0.137923 0.709334 0.611069
Si Si2 0.000000 0.996973 0.750000
Si Si3 0.396644 0.665931 0.889314
Si Si4 0.054821 0.921376 0.496421
Si Si5 0.827621 0.174833 0.541189
Si Si6 0.705274 0.807546 0.450137
Si Si7 0.962031 0.711277 0.411043
O O1 0.147339 0.773651 0.561502
O O2 0.218942 0.673155 0.549868
O O3 0.143062 0.701845 0.790386
O O4 0.040058 0.686474 0.536165
O O5 0.930602 0.036755 0.642139
O O6 0.944365 0.957499 0.852176
O O7 0.387765 0.675483 0.707085
O O8 0.293967 0.652063 0.939511
O O9 0.441628 0.724143 0.953724
O O10 0.460873 0.614428 0.951001
O O11 0.143508 0.882093 0.536413
O O12 0.750000 0.750000 0.500000
O O13 0.633195 0.823941 0.571974
O O14 0.000000 0.703027 0.250000
#
# Coordination Sequence:
#
# PCOD8130429 Si02
#       7
#     8   4   8   8   8   8   8
#     4  10  19  30  48  72  96 137 178 195 242 315
#     4  10  24  32  52  76  96 134 182 214 252 304
#     4  10  17  33  49  66  98 142 162 198 261 291
#     4  11  19  37  51  72 104 133 170 215 255 299
#     4  10  18  30  51  70  98 134 171 204 249 304
#     4   9  21  30  43  68  99 130 173 207 235 294
#     4  11  18  31  47  69 100 135 166 203 240 292
#
# _framework density 16.977661000000001
#
# number of rings (size 3 to 8) (size 9 to 14) (size 15 to 20)
#    0.000    1.846    4.615    0.462    2.154    2.462 
#    0.000    0.000    0.000    0.000    0.000    0.000 
#    0.000    7.385    0.000    0.000    0.000    0.000 
#
# Total GULP energy -322108.295146 kJ/mol
# GULP energy per Si atom -12388.780583 kJ/mol
# Density = 1.693902 g / cm^3
# Si number density = 16.977661 Si / 1000 Ang^3
#
#
#
# Elastic Constant Matrix: (Units=GPa)
#
#
# Indices 1 2 3 4 5 6 
#
# 1 110.6956 32.5932 45.6834 0.0000 -8.1130 0.0000
# 2 32.5932 70.0677 25.9630 0.0000 -6.5754 0.0000
# 3 45.6834 25.9630 78.4458 0.0000 -13.0277 0.0000
# 4 0.0000 0.0000 0.0000 -3.1497 0.0000 3.9460
# 5 -8.1130 -6.5754 -13.0277 0.0000 30.8823 0.0000
# 6 0.0000 0.0000 0.0000 3.9460 0.0000 17.6277
#
#
#
# Elastic Compliance Matrix: (Units=1/GPa)
#
#
# Indices 1 2 3 4 5 6 
#
# 1 0.012638 -0.003594 -0.006179 0.000000 -0.000052 0.000000
# 2 -0.003594 0.017336 -0.003429 0.000000 0.001301 0.000000
# 3 -0.006179 -0.003429 0.018377 0.000000 0.005399 0.000000
# 4 0.000000 0.000000 0.000000 -0.247952 0.000000 0.055504
# 5 -0.000052 0.001301 0.005399 0.000000 0.034922 0.000000
# 6 0.000000 0.000000 0.000000 0.055504 0.000000 0.044304
#
#
# Mechanical properties :
#
#
# Convention : Reuss Voigt Hill
#
# Bulk Modulus (GPa) = 45.56148 51.96537 48.76342
# Shear Modulus (GPa) = -57.70097 19.40336 -19.14881
#
# Velocity S-wave (km/s) = -5.83611 3.38431 -3.36204
# Velocity P-wave (km/s) = 4.30339 6.77834 3.70316
#
# Compressibility (1/GPa) = 0.02194836
#
# Stress axis : x y z
#
# Youngs Moduli (GPa) = 79.12446 57.68233 54.41440
#
# Poissons Ratio (x) = 0.20732 0.33623
# Poissons Ratio (y) = 0.28439 0.18657
# Poissons Ratio (z) = 0.48891 0.19777
#
# Static dielectric constant tensor:
#      x y z
#    x 3.783860 0.000000 -0.185140 
#    y 0.000000 2.931830 0.000000 
#    z -0.185140 0.000000 3.265610 
# 
# 
# High freq. dielectric constant tensor:
#      x y z
#    x 1.660950 0.000000 -0.007310 
#    y 0.000000 1.596260 0.000000 
#    z -0.007310 0.000000 1.664830 
# 
# From -- ./inp_files/41746.got.cif
#   From: 2010.06.25/outbox.cif.g09.slc.cpg/sg15_21_cif.got.tgz:41746.got - 2010.06.28 07:06:18.
