data_PCOD8130274
_publ_section_title
;
Structure prediction by ZEFSAII (Michael W. Deem and Ramdas Pophale) SiO2 
 PCOD8130274
Probable space group: C 2/C
;
_chemical_formula_sum "Si O2"
_cell_formula_units_Z 64
_cell_length_a 11.997346
_cell_length_b 21.014091
_cell_length_c 22.663737
_cell_angle_alpha 90.000000
_cell_angle_beta 142.814529
_cell_angle_gamma 90.000000
_cell_volume 3453.422347
_symmetry_space_group_name_H-M "C 2/C"
_symmetry_group_IT_number 15
_symmetry_cell_setting 'monoclinic'
loop_
_space_group_symop_operation_xyz
x,y,z
-x,y,1/2-z
-x,-y,-z
x,-y,1/2+z
1/2+x,1/2+y,z
1/2-x,1/2+y,1/2-z
1/2-x,1/2-y,-z
1/2+x,1/2-y,1/2+z
loop_
_atom_site_type_symbol
_atom_site_label
_atom_site_fract_x
_atom_site_fract_y
_atom_site_fract_z
Si Si1 0.506357 0.028704 0.567237
Si Si2 0.548677 0.833233 0.419914
Si Si3 0.054021 0.197010 0.447859
Si Si4 0.359236 0.502290 0.024141
Si Si5 0.127617 0.033605 0.246257
Si Si6 0.635980 0.326511 0.754218
Si Si7 0.321914 0.190745 0.715150
Si Si8 0.956603 0.101727 0.967773
O O1 0.464375 0.104095 0.545364
O O2 0.346295 0.996437 0.538014
O O3 0.500000 0.000000 0.500000
O O4 0.704755 0.016461 0.680936
O O5 0.736444 0.829770 0.460641
O O6 0.544316 0.771574 0.461286
O O7 0.375980 0.833138 0.302929
O O8 0.941128 0.154868 0.448031
O O9 0.986861 0.189093 0.353882
O O10 0.505586 0.522667 0.136181
O O11 0.402494 0.432502 0.016702
O O12 0.357935 0.551139 0.969089
O O13 0.227410 0.103697 0.284782
O O14 0.000000 0.024738 0.250000
O O15 0.500000 0.337584 0.750000
O O16 0.764700 0.263615 0.818362
O O17 0.500000 0.196961 0.750000
O O18 0.185554 0.138621 0.633290
#
# Coordination Sequence:
#
# PCOD8130274 Si02
#       8
#     8   8   8   8   8   8   8   8
#     4  12  23  37  59  88 122 152 201 247 288 356
#     4  10  20  32  53  87 114 145 197 244 302 339
#     4  10  18  34  58  80 118 151 187 255 295 342
#     4  11  23  40  56  90 119 161 198 235 302 360
#     4  11  21  38  61  84 121 159 194 248 294 348
#     4   9  19  30  52  83 113 147 197 243 294 340
#     4  10  17  31  52  84 113 146 191 249 297 344
#     4  11  21  35  59  80 125 152 189 240 300 362
#
# _framework density 18.532340000000001
#
# number of rings (size 3 to 8) (size 9 to 14) (size 15 to 20)
#    0.000    1.500    5.000    0.750    3.500    0.000 
#    0.000    1.875    0.000    3.000    0.000    0.000 
#    0.000    0.000    0.000    0.000    0.000    0.000 
#
# Total GULP energy -396483.240896 kJ/mol
# GULP energy per Si atom -12390.101278 kJ/mol
# Density = 1.849016 g / cm^3
# Si number density = 18.532340 Si / 1000 Ang^3
#
#
#
# Elastic Constant Matrix: (Units=GPa)
#
#
# Indices 1 2 3 4 5 6 
#
# 1 84.4433 59.5554 27.2213 -0.0002 -1.7378 0.0000
# 2 59.5554 167.4371 40.0552 0.0000 -2.8653 0.0000
# 3 27.2213 40.0552 73.0943 -0.0010 -1.5318 0.0002
# 4 -0.0002 0.0000 -0.0010 33.4506 -0.0004 -5.4145
# 5 -1.7378 -2.8653 -1.5318 -0.0004 25.5656 -0.0001
# 6 0.0000 0.0000 0.0002 -5.4145 -0.0001 37.0206
#
#
#
# Elastic Compliance Matrix: (Units=1/GPa)
#
#
# Indices 1 2 3 4 5 6 
#
# 1 0.016502 -0.005058 -0.003366 0.000000 0.000353 0.000000
# 2 -0.005058 0.008432 -0.002727 0.000000 0.000438 0.000000
# 3 -0.003366 -0.002727 0.016439 0.000000 0.000450 0.000000
# 4 0.000000 0.000000 0.000000 0.030620 0.000000 0.004478
# 5 0.000353 0.000438 0.000450 0.000000 0.039215 0.000000
# 6 0.000000 0.000000 0.000000 0.004478 0.000000 0.027667
#
#
# Mechanical properties :
#
#
# Convention : Reuss Voigt Hill
#
# Bulk Modulus (GPa) = 52.44327 64.29317 58.36822
# Shear Modulus (GPa) = 29.84462 32.41689 31.13075
#
# Velocity S-wave (km/s) = 4.01734 4.18689 4.10299
# Velocity P-wave (km/s) = 7.06246 7.62503 7.34913
#
# Compressibility (1/GPa) = 0.01906823
#
# Stress axis : x y z
#
# Youngs Moduli (GPa) = 60.59818 118.60244 60.83207
#
# Poissons Ratio (x) = 0.59992 0.20478
# Poissons Ratio (y) = 0.30652 0.16592
# Poissons Ratio (z) = 0.20399 0.32349
#
# Static dielectric constant tensor:
#      x y z
#    x 3.127860 0.000000 -0.273330 
#    y 0.000000 4.000670 0.000000 
#    z -0.273330 0.000000 3.395410 
# 
# 
# High freq. dielectric constant tensor:
#      x y z
#    x 1.672280 0.000000 -0.035160 
#    y 0.000000 1.743910 0.000000 
#    z -0.035160 0.000000 1.716910 
# 
# From -- ./inp_files/240446.got.cif
#   From: 2010.06.25/outbox.cif.g09.slc.cpg/sg15_121_cif.got.tgz:240446.got - 2010.06.28 07:06:18.
