data_PCOD8130388
_publ_section_title
;
Structure prediction by ZEFSAII (Michael W. Deem and Ramdas Pophale) SiO2 
 PCOD8130388
Probable space group: C 2/C
;
_chemical_formula_sum "Si O2"
_cell_formula_units_Z 60
_cell_length_a 11.328741
_cell_length_b 25.929715
_cell_length_c 12.175575
_cell_angle_alpha 90.000000
_cell_angle_beta 111.228808
_cell_angle_gamma 90.000000
_cell_volume 3333.887059
_symmetry_space_group_name_H-M "C 2/C"
_symmetry_group_IT_number 15
_symmetry_cell_setting 'monoclinic'
loop_
_space_group_symop_operation_xyz
x,y,z
-x,y,1/2-z
-x,-y,-z
x,-y,1/2+z
1/2+x,1/2+y,z
1/2-x,1/2+y,1/2-z
1/2-x,1/2-y,-z
1/2+x,1/2-y,1/2+z
loop_
_atom_site_type_symbol
_atom_site_label
_atom_site_fract_x
_atom_site_fract_y
_atom_site_fract_z
Si Si1 0.642213 0.189148 0.259233
Si Si2 0.500000 0.531437 0.750000
Si Si3 0.203647 0.855635 0.489209
Si Si4 0.689509 0.462279 0.945853
Si Si5 0.856911 0.197337 0.743183
Si Si6 0.079915 0.892855 0.099969
Si Si7 0.635291 0.917450 0.670387
Si Si8 0.359341 0.948785 0.577063
O O1 0.500000 0.195060 0.250000
O O2 0.737561 0.173820 0.387817
O O3 0.683961 0.245600 0.228697
O O4 0.637317 0.145013 0.164323
O O5 0.576374 0.497671 0.863971
O O6 0.410794 0.567693 0.794163
O O7 0.222667 0.818412 0.391203
O O8 0.278114 0.907581 0.481856
O O9 0.061744 0.873256 0.471695
O O10 0.745892 0.434332 0.859717
O O11 0.636930 0.419647 0.011672
O O12 0.803000 0.494480 0.039996
O O13 0.836577 0.157138 0.836838
O O14 0.000000 0.194116 0.750000
O O15 0.504259 0.943153 0.584654
O O16 0.655779 0.935404 0.800945
#
# Coordination Sequence:
#
# PCOD8130388 Si02
#       8
#     8   4   8   8   8   8   8   8
#     4  10  18  33  57  81 106 139 183 228 267 313
#     4  12  22  36  54  80 114 146 182 220 264 326
#     4  10  17  32  55  83 110 134 180 226 266 318
#     4  12  24  33  56  80 112 153 174 216 282 319
#     4   9  18  33  55  81 108 138 179 229 273 311
#     4  11  21  37  53  85 113 139 181 225 269 334
#     4  10  21  37  54  81 106 138 188 227 257 324
#     4  10  19  37  55  75 110 142 184 222 258 317
#
# _framework density 17.997011000000001
#
# number of rings (size 3 to 8) (size 9 to 14) (size 15 to 20)
#    0.000    1.600    6.000    2.000    3.733    0.000 
#    0.000    0.667    0.000    0.000    3.467    0.000 
#    0.000    0.000    0.000    0.000    0.000    0.000 
#
# Total GULP energy -371828.521618 kJ/mol
# GULP energy per Si atom -12394.284054 kJ/mol
# Density = 1.795605 g / cm^3
# Si number density = 17.997011 Si / 1000 Ang^3
#
#
#
# Elastic Constant Matrix: (Units=GPa)
#
#
# Indices 1 2 3 4 5 6 
#
# 1 47.1453 26.3423 24.3849 0.0000 1.6273 0.0000
# 2 26.3423 127.5692 34.4883 0.0000 5.6903 0.0000
# 3 24.3849 34.4883 56.1612 0.0000 11.7290 0.0000
# 4 0.0000 0.0000 0.0000 37.3328 0.0000 12.3492
# 5 1.6273 5.6903 11.7290 0.0000 28.2914 0.0000
# 6 0.0000 0.0000 0.0000 12.3492 0.0000 12.7103
#
#
#
# Elastic Compliance Matrix: (Units=1/GPa)
#
#
# Indices 1 2 3 4 5 6 
#
# 1 0.028637 -0.003008 -0.011352 0.000000 0.003664 0.000000
# 2 -0.003008 0.009723 -0.004700 0.000000 0.000166 0.000000
# 3 -0.011352 -0.004700 0.027684 0.000000 -0.009879 0.000000
# 4 0.000000 0.000000 0.000000 0.039472 0.000000 -0.038350
# 5 0.003664 0.000166 -0.009879 0.000000 0.039198 0.000000
# 6 0.000000 0.000000 0.000000 -0.038350 0.000000 0.115937
#
#
# Mechanical properties :
#
#
# Convention : Reuss Voigt Hill
#
# Bulk Modulus (GPa) = 35.81008 44.58963 40.19985
# Shear Modulus (GPa) = 16.22964 25.37757 20.80360
#
# Velocity S-wave (km/s) = 3.00625 3.75920 3.40361
# Velocity P-wave (km/s) = 5.65606 6.60848 6.15074
#
# Compressibility (1/GPa) = 0.02792510
#
# Stress axis : x y z
#
# Youngs Moduli (GPa) = 34.92015 102.84787 36.12181
#
# Poissons Ratio (x) = 0.30934 0.41006
# Poissons Ratio (y) = 0.10503 0.16976
# Poissons Ratio (z) = 0.39642 0.48334
#
# Static dielectric constant tensor:
#      x y z
#    x 3.086500 0.000000 0.217560 
#    y 0.000000 3.928140 0.000000 
#    z 0.217560 0.000000 3.442890 
# 
# 
# High freq. dielectric constant tensor:
#      x y z
#    x 1.662830 0.000000 0.025690 
#    y 0.000000 1.712320 0.000000 
#    z 0.025690 0.000000 1.693150 
# 
# From -- ./inp_files/91845.got.cif
#   From: 2010.06.25/outbox.cif.g09.slc.cpg/sg15_46_cif.got.tgz:91845.got - 2010.06.28 07:06:18.
