data_PCOD8130089
_publ_section_title
;
Structure prediction by ZEFSAII (Michael W. Deem and Ramdas Pophale) SiO2 
 PCOD8130089
Probable space group: C 2/C
;
_chemical_formula_sum "Si O2"
_cell_formula_units_Z 56
_cell_length_a 5.335820
_cell_length_b 30.696951
_cell_length_c 19.016969
_cell_angle_alpha 90.000000
_cell_angle_beta 124.134793
_cell_angle_gamma 90.000000
_cell_volume 2578.226208
_symmetry_space_group_name_H-M "C 2/C"
_symmetry_group_IT_number 15
_symmetry_cell_setting 'monoclinic'
loop_
_space_group_symop_operation_xyz
x,y,z
-x,y,1/2-z
-x,-y,-z
x,-y,1/2+z
1/2+x,1/2+y,z
1/2-x,1/2+y,1/2-z
1/2-x,1/2-y,-z
1/2+x,1/2-y,1/2+z
loop_
_atom_site_type_symbol
_atom_site_label
_atom_site_fract_x
_atom_site_fract_y
_atom_site_fract_z
Si Si1 0.828507 0.116118 0.414252
Si Si2 0.290021 0.345940 0.395004
Si Si3 0.390274 0.749634 0.945135
Si Si4 0.184471 0.519650 0.592243
Si Si5 0.192057 0.523088 0.346019
Si Si6 0.803882 0.621725 0.901935
Si Si7 0.683609 0.155732 0.091806
O O1 0.822622 0.063654 0.411307
O O2 0.484246 0.133808 0.367697
O O3 0.020277 0.133594 0.510143
O O4 0.986550 0.133809 0.367697
O O5 0.277740 0.293792 0.388866
O O6 0.450384 0.364032 0.349507
O O7 0.947683 0.364033 0.349508
O O8 0.273545 0.792827 0.886767
O O9 0.250000 0.750000 0.000000
O O10 0.750000 0.750000 0.000000
O O11 0.533405 0.505580 0.641162
O O12 0.161135 0.570995 0.580566
O O13 0.000000 0.500000 0.500000
O O14 0.031157 0.505587 0.641152
O O15 0.000000 0.541002 0.250000
O O16 0.980101 0.648840 0.990046
#
# Coordination Sequence:
#
# PCOD8130089 Si02
#       7
#     8   8   8   8   8   8   8
#     4  10  18  32  49  69 103 147 194 225 277 353
#     4  10  17  28  46  75 115 149 181 225 293 342
#     4  12  16  27  43  74 118 156 174 222 294 351
#     4  12  23  40  64  89 116 156 205 255 309 364
#     4  12  26  43  61  86 122 162 204 257 318 379
#     4  10  18  29  46  73 105 138 183 238 277 340
#     4  10  18  29  47  78 113 152 179 226 288 345
#
# _framework density 21.720358999999998
#
# number of rings (size 3 to 8) (size 9 to 14) (size 15 to 20)
#    0.000    1.143    5.714    6.000    0.000    0.000 
#    0.000    0.000    0.000    0.000    0.000    0.000 
#    0.000   38.857    0.000    0.000    0.000    0.000 
#
# Total GULP energy -347039.716472 kJ/mol
# GULP energy per Si atom -12394.275588 kJ/mol
# Density = 2.167092 g / cm^3
# Si number density = 21.720359 Si / 1000 Ang^3
#
#
#
# Elastic Constant Matrix: (Units=GPa)
#
#
# Indices 1 2 3 4 5 6 
#
# 1 247.9680 50.8608 3.2972 0.0000 -21.3680 0.0000
# 2 50.8608 155.5625 -1.8210 0.0000 -4.7818 0.0000
# 3 3.2972 -1.8210 32.1147 0.0000 1.7797 0.0000
# 4 0.0000 0.0000 0.0000 4.2379 0.0000 -3.3585
# 5 -21.3680 -4.7818 1.7797 0.0000 6.7698 0.0000
# 6 0.0000 0.0000 0.0000 -3.3585 0.0000 41.1955
#
#
#
# Elastic Compliance Matrix: (Units=1/GPa)
#
#
# Indices 1 2 3 4 5 6 
#
# 1 0.005899 -0.001393 -0.001686 0.000000 0.018078 0.000000
# 2 -0.001393 0.006900 0.000515 0.000000 0.000343 0.000000
# 3 -0.001686 0.000515 0.032083 0.000000 -0.013393 0.000000
# 4 0.000000 0.000000 0.000000 0.252264 0.000000 0.020566
# 5 0.018078 0.000343 -0.013393 0.000000 0.208538 0.000000
# 6 0.000000 0.000000 0.000000 0.020566 0.000000 0.025951
#
#
# Mechanical properties :
#
#
# Convention : Reuss Voigt Hill
#
# Bulk Modulus (GPa) = 25.15457 60.03546 42.59501
# Shear Modulus (GPa) = 9.09067 35.99453 22.54260
#
# Velocity S-wave (km/s) = 2.04803 4.07526 3.22507
# Velocity P-wave (km/s) = 4.14714 7.06002 5.78976
#
# Compressibility (1/GPa) = 0.03975421
#
# Stress axis : x y z
#
# Youngs Moduli (GPa) = 169.53006 144.92407 31.16922
#
# Poissons Ratio (x) = 0.20182 0.05256
# Poissons Ratio (y) = 0.23609 -0.01606
# Poissons Ratio (z) = 0.28590 -0.07467
#
# Static dielectric constant tensor:
#      x y z
#    x 6.123310 0.000000 -0.276850 
#    y 0.000000 4.300150 0.000000 
#    z -0.276850 0.000000 3.075390 
# 
# 
# High freq. dielectric constant tensor:
#      x y z
#    x 1.901460 0.000000 -0.012430 
#    y 0.000000 1.869620 0.000000 
#    z -0.012430 0.000000 1.764610 
# 
# From -- ./inp_files/186807.got.cif
#   From: 2010.06.25/outbox.cif.g09.slc.cpg/sg15_94_cif.got.tgz:186807.got - 2010.06.28 07:06:18.
