data_PCOD8130595
_publ_section_title
;
Structure prediction by ZEFSAII (Michael W. Deem and Ramdas Pophale) SiO2 
 PCOD8130595
Probable space group: C 2/C
;
_chemical_formula_sum "Si O2"
_cell_formula_units_Z 56
_cell_length_a 18.795849
_cell_length_b 14.471013
_cell_length_c 12.428601
_cell_angle_alpha 90.000000
_cell_angle_beta 59.748055
_cell_angle_gamma 90.000000
_cell_volume 2920.152815
_symmetry_space_group_name_H-M "C 2/C"
_symmetry_group_IT_number 15
_symmetry_cell_setting 'monoclinic'
loop_
_space_group_symop_operation_xyz
x,y,z
-x,y,1/2-z
-x,-y,-z
x,-y,1/2+z
1/2+x,1/2+y,z
1/2-x,1/2+y,1/2-z
1/2-x,1/2-y,-z
1/2+x,1/2-y,1/2+z
loop_
_atom_site_type_symbol
_atom_site_label
_atom_site_fract_x
_atom_site_fract_y
_atom_site_fract_z
Si Si1 0.747849 0.389089 0.479451
Si Si2 0.418623 0.287235 0.353514
Si Si3 0.865172 0.368460 0.752075
Si Si4 0.240905 0.906682 0.022785
Si Si5 0.081317 0.429686 0.258293
Si Si6 0.860997 0.685420 0.593820
Si Si7 0.726786 0.236495 0.344168
O O1 0.709244 0.487858 0.539676
O O2 0.843545 0.403010 0.376738
O O3 0.702392 0.337507 0.413248
O O4 0.734214 0.324959 0.592148
O O5 0.500000 0.343296 0.250000
O O6 0.423816 0.196464 0.275908
O O7 0.337240 0.344732 0.388064
O O8 0.417857 0.253178 0.477952
O O9 0.910741 0.466030 0.703585
O O10 0.849778 0.318935 0.648734
O O11 0.777283 0.379845 0.879138
O O12 0.311537 0.890192 0.059012
O O13 0.080088 0.365741 0.365553
O O14 0.000000 0.415030 0.250000
O O15 0.795894 0.750605 0.701759
#
# Coordination Sequence:
#
# PCOD8130595 Si02
#       7
#     8   8   8   8   8   8   8
#     4   9  21  32  57  82 112 149 196 231 283 339
#     4  11  21  34  55  85 113 148 193 244 291 328
#     4  10  18  34  57  80 112 150 192 227 285 352
#     4  10  18  37  55  83 110 151 199 238 274 345
#     4  10  21  35  53  89 124 148 178 236 307 357
#     4  10  19  36  58  79 114 158 190 235 287 347
#     4  10  17  35  56  85 102 149 200 234 267 343
#
# _framework density 19.17708
#
# number of rings (size 3 to 8) (size 9 to 14) (size 15 to 20)
#    0.000    2.000    2.857    2.143    0.000    1.143 
#    0.000    7.857    0.000   11.143    0.000    0.000 
#    0.000    0.000    0.000    0.000    0.000    0.000 
#
# Total GULP energy -347024.602083 kJ/mol
# GULP energy per Si atom -12393.735789 kJ/mol
# Density = 1.913343 g / cm^3
# Si number density = 19.177080 Si / 1000 Ang^3
#
#
#
# Elastic Constant Matrix: (Units=GPa)
#
#
# Indices 1 2 3 4 5 6 
#
# 1 90.4552 37.9533 27.5107 0.0000 18.5375 0.0000
# 2 37.9533 94.2844 30.4626 0.0000 12.6130 0.0000
# 3 27.5107 30.4626 79.3288 0.0000 16.8079 0.0000
# 4 0.0000 0.0000 0.0000 28.0290 0.0000 12.2324
# 5 18.5375 12.6130 16.8079 0.0000 28.4403 0.0000
# 6 0.0000 0.0000 0.0000 12.2324 0.0000 26.4635
#
#
#
# Elastic Compliance Matrix: (Units=1/GPa)
#
#
# Indices 1 2 3 4 5 6 
#
# 1 0.014887 -0.004452 -0.002075 0.000000 -0.006502 0.000000
# 2 -0.004452 0.013668 -0.003469 0.000000 -0.001109 0.000000
# 3 -0.002075 -0.003469 0.016056 0.000000 -0.006597 0.000000
# 4 0.000000 0.000000 0.000000 0.044693 0.000000 -0.020659
# 5 -0.006502 -0.001109 -0.006597 0.000000 0.043791 0.000000
# 6 0.000000 0.000000 0.000000 -0.020659 0.000000 0.047337
#
#
# Mechanical properties :
#
#
# Convention : Reuss Voigt Hill
#
# Bulk Modulus (GPa) = 40.62354 50.65795 45.64075
# Shear Modulus (GPa) = 23.96579 27.79601 25.88090
#
# Velocity S-wave (km/s) = 3.53896 3.81128 3.67764
# Velocity P-wave (km/s) = 6.15860 6.77060 6.47184
#
# Compressibility (1/GPa) = 0.02461627
#
# Stress axis : x y z
#
# Youngs Moduli (GPa) = 67.17253 73.16491 62.28366
#
# Poissons Ratio (x) = 0.32575 0.12926
# Poissons Ratio (y) = 0.29907 0.21609
# Poissons Ratio (z) = 0.13941 0.25384
#
# Static dielectric constant tensor:
#      x y z
#    x 3.223910 0.000000 0.147190 
#    y 0.000000 3.694220 0.000000 
#    z 0.147190 0.000000 3.652260 
# 
# 
# High freq. dielectric constant tensor:
#      x y z
#    x 1.714860 0.000000 0.016220 
#    y 0.000000 1.745000 0.000000 
#    z 0.016220 0.000000 1.753290 
# 
# From -- ./inp_files/105274.got.cif
#   From: 2010.06.25/outbox.cif.g09.slc.cpg/sg15_53_cif.got.tgz:105274.got - 2010.06.28 07:06:18.
