data_PCOD8130841
_publ_section_title
;
Structure prediction by ZEFSAII (Michael W. Deem and Ramdas Pophale) SiO2 
 PCOD8130841
Probable space group: C 2/C
;
_chemical_formula_sum "Si O2"
_cell_formula_units_Z 60
_cell_length_a 6.220766
_cell_length_b 22.529532
_cell_length_c 26.588857
_cell_angle_alpha 90.000000
_cell_angle_beta 124.158829
_cell_angle_gamma 90.000000
_cell_volume 3083.581587
_symmetry_space_group_name_H-M "C 2/C"
_symmetry_group_IT_number 15
_symmetry_cell_setting 'monoclinic'
loop_
_space_group_symop_operation_xyz
x,y,z
-x,y,1/2-z
-x,-y,-z
x,-y,1/2+z
1/2+x,1/2+y,z
1/2-x,1/2+y,1/2-z
1/2-x,1/2-y,-z
1/2+x,1/2-y,1/2+z
loop_
_atom_site_type_symbol
_atom_site_label
_atom_site_fract_x
_atom_site_fract_y
_atom_site_fract_z
Si Si1 0.116638 0.601631 0.568815
Si Si2 0.447146 0.501635 0.647095
Si Si3 0.266763 0.095685 0.311245
Si Si4 0.398997 0.577205 0.049957
Si Si5 0.674034 0.213198 0.940759
Si Si6 0.500000 0.037164 0.250000
Si Si7 0.828194 0.861562 0.996836
Si Si8 0.703064 0.178088 0.097520
O O1 0.299598 0.565103 0.631678
O O2 0.274592 0.598674 0.537976
O O3 0.841362 0.569296 0.520706
O O4 0.073861 0.669595 0.583499
O O5 0.260009 0.458275 0.653439
O O6 0.457721 0.481729 0.589791
O O7 0.739394 0.503180 0.709358
O O8 0.480953 0.079393 0.296892
O O9 0.320173 0.157082 0.347779
O O10 0.000000 0.108872 0.250000
O O11 0.346340 0.630051 0.081956
O O12 0.650234 0.595280 0.049445
O O13 0.640763 0.259802 0.890076
O O14 0.908115 0.171274 0.957170
O O15 0.750000 0.250000 0.000000
O O16 0.594427 0.814404 0.959613
#
# Coordination Sequence:
#
# PCOD8130841 Si02
#       8
#     8   8   8   8   8   4   8   8
#     4  10  21  31  48  80 110 148 180 215 270 331
#     4  10  20  35  52  77 112 139 181 228 278 332
#     4   9  20  37  57  81 104 134 179 233 290 329
#     4   9  18  31  49  76 113 145 171 215 275 333
#     4  11  19  33  49  77 114 147 186 213 264 337
#     4  10  20  36  56  80 102 136 190 232 286 350
#     4  10  18  29  49  78 108 144 181 210 264 329
#     4  10  18  31  53  79 108 144 173 225 272 323
#
# _framework density 19.457894
#
# number of rings (size 3 to 8) (size 9 to 14) (size 15 to 20)
#    0.000    2.133    4.000    1.600    0.000    2.667 
#    0.000    0.000    0.000    0.000   13.867    0.000 
#    0.000    0.000    0.000    0.000    0.000    0.000 
#
# Total GULP energy -371697.418140 kJ/mol
# GULP energy per Si atom -12389.913938 kJ/mol
# Density = 1.941361 g / cm^3
# Si number density = 19.457894 Si / 1000 Ang^3
#
#
#
# Elastic Constant Matrix: (Units=GPa)
#
#
# Indices 1 2 3 4 5 6 
#
# 1 97.3470 38.2802 21.9500 0.0000 -17.1797 0.0000
# 2 38.2802 106.5243 47.5886 0.0000 -4.3816 0.0000
# 3 21.9500 47.5886 67.4618 0.0000 -10.6103 0.0000
# 4 0.0000 0.0000 0.0000 18.3764 0.0000 2.0082
# 5 -17.1797 -4.3816 -10.6103 0.0000 24.3699 0.0000
# 6 0.0000 0.0000 0.0000 2.0082 0.0000 18.3245
#
#
#
# Elastic Compliance Matrix: (Units=1/GPa)
#
#
# Indices 1 2 3 4 5 6 
#
# 1 0.013603 -0.004627 0.000231 0.000000 0.008859 0.000000
# 2 -0.004627 0.015361 -0.010101 0.000000 -0.004898 0.000000
# 3 0.000231 -0.010101 0.023202 0.000000 0.008449 0.000000
# 4 0.000000 0.000000 0.000000 0.055077 0.000000 -0.006036
# 5 0.008859 -0.004898 0.008449 0.000000 0.050077 0.000000
# 6 0.000000 0.000000 0.000000 -0.006036 0.000000 0.055233
#
#
# Mechanical properties :
#
#
# Convention : Reuss Voigt Hill
#
# Bulk Modulus (GPa) = 43.15375 54.10787 48.63081
# Shear Modulus (GPa) = 20.05836 23.11511 21.58674
#
# Velocity S-wave (km/s) = 3.21418 3.45041 3.33439
# Velocity P-wave (km/s) = 6.00007 6.61376 6.31437
#
# Compressibility (1/GPa) = 0.02317296
#
# Stress axis : x y z
#
# Youngs Moduli (GPa) = 73.51125 65.09809 43.09961
#
# Poissons Ratio (x) = 0.30124 -0.00997
# Poissons Ratio (y) = 0.34017 0.43535
# Poissons Ratio (z) = -0.01701 0.65755
#
# Static dielectric constant tensor:
#      x y z
#    x 4.208050 0.000000 -0.158220 
#    y 0.000000 3.495910 0.000000 
#    z -0.158220 0.000000 3.521750 
# 
# 
# High freq. dielectric constant tensor:
#      x y z
#    x 1.774390 0.000000 -0.007720 
#    y 0.000000 1.730560 0.000000 
#    z -0.007720 0.000000 1.723600 
# 
# From -- ./inp_files/286673.got.cif
#   From: 2010.06.25/outbox.cif.g09.slc.cpg/sg15_144_cif.got.tgz:286673.got - 2010.06.28 07:06:18.
