data_PCOD8130232
_publ_section_title
;
Structure prediction by ZEFSAII (Michael W. Deem and Ramdas Pophale) SiO2 
 PCOD8130232
Probable space group: C 2/C
;
_chemical_formula_sum "Si O2"
_cell_formula_units_Z 56
_cell_length_a 9.546377
_cell_length_b 19.606559
_cell_length_c 19.527727
_cell_angle_alpha 90.000000
_cell_angle_beta 52.576971
_cell_angle_gamma 90.000000
_cell_volume 2902.721508
_symmetry_space_group_name_H-M "C 2/C"
_symmetry_group_IT_number 15
_symmetry_cell_setting 'monoclinic'
loop_
_space_group_symop_operation_xyz
x,y,z
-x,y,1/2-z
-x,-y,-z
x,-y,1/2+z
1/2+x,1/2+y,z
1/2-x,1/2+y,1/2-z
1/2-x,1/2-y,-z
1/2+x,1/2-y,1/2+z
loop_
_atom_site_type_symbol
_atom_site_label
_atom_site_fract_x
_atom_site_fract_y
_atom_site_fract_z
Si Si1 0.446317 0.800907 0.122903
Si Si2 0.126137 0.628042 0.276934
Si Si3 0.581918 0.941421 0.551180
Si Si4 0.400846 0.279537 0.209314
Si Si5 0.733544 0.316658 0.047311
Si Si6 0.490948 0.343804 0.835001
Si Si7 0.660579 0.914422 0.001377
O O1 0.288652 0.816387 0.224292
O O2 0.361164 0.802053 0.073280
O O3 0.530829 0.728517 0.119292
O O4 0.600090 0.858258 0.076177
O O5 0.121189 0.703001 0.315280
O O6 0.330060 0.617901 0.193874
O O7 0.000000 0.621442 0.250000
O O8 0.069796 0.569452 0.347030
O O9 0.723183 0.880457 0.513982
O O10 0.501803 0.932327 0.499666
O O11 0.687365 0.012617 0.531299
O O12 0.500000 0.265129 0.250000
O O13 0.526711 0.327505 0.127117
O O14 0.750000 0.250000 0.000000
O O15 0.500000 0.334786 0.750000
O O16 0.328901 0.390783 0.907497
#
# Coordination Sequence:
#
# PCOD8130232 Si02
#       7
#     8   8   8   8   8   8   8
#     4   9  20  33  55  79 112 147 185 244 281 336
#     4  10  19  35  59  82 113 145 188 238 285 334
#     4  10  20  35  57  80 117 156 184 232 286 344
#     4   8  15  29  48  80 106 135 182 235 283 320
#     4  10  17  30  56  84 110 143 192 242 285 329
#     4  11  21  37  61  87 109 151 198 233 286 349
#     4  10  21  39  52  83 118 154 191 226 287 346
#
# _framework density 19.292242000000002
#
# number of rings (size 3 to 8) (size 9 to 14) (size 15 to 20)
#    0.000    2.286    2.857    1.286    0.000    0.000 
#    2.571    2.143    0.000    0.000    0.000    0.000 
#    0.000    0.000    0.000    0.000    0.000    0.000 
#
# Total GULP energy -346866.227743 kJ/mol
# GULP energy per Si atom -12388.079562 kJ/mol
# Density = 1.924833 g / cm^3
# Si number density = 19.292242 Si / 1000 Ang^3
#
#
#
# Elastic Constant Matrix: (Units=GPa)
#
#
# Indices 1 2 3 4 5 6 
#
# 1 49.6246 27.6182 21.3545 0.0001 -13.2130 0.0000
# 2 27.6182 144.6877 79.1516 0.0000 -18.3942 0.0000
# 3 21.3545 79.1516 100.1601 0.0001 -22.8335 -0.0001
# 4 0.0001 0.0000 0.0001 29.3713 0.0000 -4.3668
# 5 -13.2130 -18.3942 -22.8335 0.0000 29.2083 0.0000
# 6 0.0000 0.0000 -0.0001 -4.3668 0.0000 18.8060
#
#
#
# Elastic Compliance Matrix: (Units=1/GPa)
#
#
# Indices 1 2 3 4 5 6 
#
# 1 0.024512 -0.003170 -0.000789 0.000000 0.008475 0.000000
# 2 -0.003170 0.012585 -0.009479 0.000000 -0.000918 0.000000
# 3 -0.000789 -0.009479 0.019714 0.000000 0.009085 0.000000
# 4 0.000000 0.000000 0.000000 0.035264 0.000000 0.008188
# 5 0.008475 -0.000918 0.009085 0.000000 0.044595 0.000000
# 6 0.000000 0.000000 0.000000 0.008188 0.000000 0.055076
#
#
# Mechanical properties :
#
#
# Convention : Reuss Voigt Hill
#
# Bulk Modulus (GPa) = 33.40514 61.19120 47.29817
# Shear Modulus (GPa) = 21.87228 26.56700 24.21964
#
# Velocity S-wave (km/s) = 3.37075 3.71493 3.54702
# Velocity P-wave (km/s) = 5.70107 7.08434 6.43001
#
# Compressibility (1/GPa) = 0.02993552
#
# Stress axis : x y z
#
# Youngs Moduli (GPa) = 40.79708 79.45801 50.72488
#
# Poissons Ratio (x) = 0.25186 0.04002
# Poissons Ratio (y) = 0.12932 0.48083
# Poissons Ratio (z) = 0.03219 0.75319
#
# Static dielectric constant tensor:
#      x y z
#    x 3.392400 0.000000 -0.145580 
#    y 0.000000 3.586020 0.000000 
#    z -0.145580 0.000000 3.520940 
# 
# 
# High freq. dielectric constant tensor:
#      x y z
#    x 1.726850 0.000000 -0.018280 
#    y 0.000000 1.731070 0.000000 
#    z -0.018280 0.000000 1.755920 
# 
# From -- ./inp_files/146791.got.cif
#   From: 2010.06.25/outbox.cif.g09.slc.cpg/sg15_74_cif.got.tgz:146791.got - 2010.06.28 07:06:18.
