data_PCOD8130149
_publ_section_title
;
Structure prediction by ZEFSAII (Michael W. Deem and Ramdas Pophale) SiO2 
 PCOD8130149
Probable space group: C 2/C
;
_chemical_formula_sum "Si O2"
_cell_formula_units_Z 64
_cell_length_a 20.250890
_cell_length_b 8.922170
_cell_length_c 24.353905
_cell_angle_alpha 90.000000
_cell_angle_beta 54.022205
_cell_angle_gamma 90.000000
_cell_volume 3560.927208
_symmetry_space_group_name_H-M "C 2/C"
_symmetry_group_IT_number 15
_symmetry_cell_setting 'monoclinic'
loop_
_space_group_symop_operation_xyz
x,y,z
-x,y,1/2-z
-x,-y,-z
x,-y,1/2+z
1/2+x,1/2+y,z
1/2-x,1/2+y,1/2-z
1/2-x,1/2-y,-z
1/2+x,1/2-y,1/2+z
loop_
_atom_site_type_symbol
_atom_site_label
_atom_site_fract_x
_atom_site_fract_y
_atom_site_fract_z
Si Si1 0.556181 0.714829 0.139105
Si Si2 0.983533 0.223673 0.602144
Si Si3 0.126520 0.688001 0.436188
Si Si4 0.240339 0.923329 0.006600
Si Si5 0.191331 0.919336 0.638291
Si Si6 0.916090 0.512586 0.936991
Si Si7 0.400804 0.530835 0.486680
Si Si8 0.443326 0.460529 0.228077
O O1 0.626184 0.709297 0.152164
O O2 0.534292 0.884584 0.131098
O O3 0.475725 0.626104 0.196304
O O4 0.592546 0.641318 0.067406
O O5 0.053332 0.343270 0.582279
O O6 0.915436 0.322160 0.603181
O O7 0.945954 0.154845 0.676112
O O8 0.025838 0.090530 0.545585
O O9 0.222823 0.652199 0.384922
O O10 0.081980 0.576937 0.501272
O O11 0.107539 0.863588 0.456554
O O12 0.198240 0.965590 0.084669
O O13 0.250000 0.750000 0.000000
O O14 0.323309 0.016798 0.961195
O O15 0.186038 0.952701 0.979462
O O16 0.150734 0.015926 0.707677
O O17 0.500000 0.396984 0.250000
#
# Coordination Sequence:
#
# PCOD8130149 Si02
#       8
#     8   8   8   8   8   8   8   8
#     4   8  16  32  54  76  95 132 170 215 254 299
#     4  11  20  33  53  78 109 140 169 212 259 314
#     4  10  20  33  52  77 108 144 170 204 261 318
#     4  10  17  29  54  82 104 125 164 224 269 292
#     4   9  18  34  55  71 100 140 176 207 254 313
#     4  10  19  31  52  81 110 127 168 222 267 305
#     4   9  17  31  52  79 104 130 170 209 256 307
#     4   9  19  36  58  70  95 139 184 213 256 303
#
# _framework density 17.972847000000002
#
# number of rings (size 3 to 8) (size 9 to 14) (size 15 to 20)
#    0.000    2.500    1.250    2.250    0.000    3.000 
#    0.000    3.125    5.500    0.000    0.000    0.000 
#    0.000    0.000    0.000    0.000    0.000    0.000 
#
# Total GULP energy -396465.062871 kJ/mol
# GULP energy per Si atom -12389.533215 kJ/mol
# Density = 1.793194 g / cm^3
# Si number density = 17.972847 Si / 1000 Ang^3
#
#
#
# Elastic Constant Matrix: (Units=GPa)
#
#
# Indices 1 2 3 4 5 6 
#
# 1 75.2275 11.5476 29.9234 -0.0001 -2.8818 -0.0008
# 2 11.5476 81.7227 34.7737 -0.0003 -3.3917 -0.0025
# 3 29.9234 34.7737 85.4710 0.0000 -5.4301 -0.0002
# 4 -0.0001 -0.0003 0.0000 24.5347 0.0001 2.0736
# 5 -2.8818 -3.3917 -5.4301 0.0001 18.5019 0.0000
# 6 -0.0008 -0.0025 -0.0002 2.0736 0.0000 23.4847
#
#
#
# Elastic Compliance Matrix: (Units=1/GPa)
#
#
# Indices 1 2 3 4 5 6 
#
# 1 0.015458 0.000158 -0.005422 0.000000 0.000845 0.000001
# 2 0.000158 0.014817 -0.006022 0.000000 0.000973 0.000002
# 3 -0.005422 -0.006022 0.016227 0.000000 0.002814 -0.000001
# 4 0.000000 0.000000 0.000000 0.041065 0.000000 -0.003626
# 5 0.000845 0.000973 0.002814 0.000000 0.055184 0.000000
# 6 0.000001 0.000002 -0.000001 -0.003626 0.000000 0.042901
#
#
# Mechanical properties :
#
#
# Convention : Reuss Voigt Hill
#
# Bulk Modulus (GPa) = 41.78904 43.87895 42.83399
# Shear Modulus (GPa) = 23.12663 24.38271 23.75467
#
# Velocity S-wave (km/s) = 3.59103 3.68726 3.63946
# Velocity P-wave (km/s) = 6.36362 6.52647 6.44556
#
# Compressibility (1/GPa) = 0.02392972
#
# Stress axis : x y z
#
# Youngs Moduli (GPa) = 64.69133 67.49078 61.62575
#
# Poissons Ratio (x) = -0.01067 0.33416
# Poissons Ratio (y) = -0.01023 0.37109
# Poissons Ratio (z) = 0.35079 0.40641
#
# Static dielectric constant tensor:
#      x y z
#    x 3.564310 0.000000 -0.088460 
#    y 0.000000 3.361380 0.000000 
#    z -0.088460 0.000000 3.323470 
# 
# 
# High freq. dielectric constant tensor:
#      x y z
#    x 1.688870 0.000000 -0.003440 
#    y 0.000000 1.691210 0.000000 
#    z -0.003440 0.000000 1.674080 
# 
# From -- ./inp_files/281505.got.cif
#   From: 2010.06.25/outbox.cif.g09.slc.cpg/sg15_141_cif.got.tgz:281505.got - 2010.06.28 07:06:18.
