data_PCOD8130840
_publ_section_title
;
Structure prediction by ZEFSAII (Michael W. Deem and Ramdas Pophale) SiO2 
 PCOD8130840
Probable space group: C 2/C
;
_chemical_formula_sum "Si O2"
_cell_formula_units_Z 64
_cell_length_a 12.355049
_cell_length_b 17.138378
_cell_length_c 21.167601
_cell_angle_alpha 90.000000
_cell_angle_beta 129.793269
_cell_angle_gamma 90.000000
_cell_volume 3443.894611
_symmetry_space_group_name_H-M "C 2/C"
_symmetry_group_IT_number 15
_symmetry_cell_setting 'monoclinic'
loop_
_space_group_symop_operation_xyz
x,y,z
-x,y,1/2-z
-x,-y,-z
x,-y,1/2+z
1/2+x,1/2+y,z
1/2-x,1/2+y,1/2-z
1/2-x,1/2-y,-z
1/2+x,1/2-y,1/2+z
loop_
_atom_site_type_symbol
_atom_site_label
_atom_site_fract_x
_atom_site_fract_y
_atom_site_fract_z
Si Si1 0.136977 0.005275 0.337415
Si Si2 0.410519 0.618217 0.472952
Si Si3 0.695945 0.149126 0.613523
Si Si4 0.645679 0.543774 0.481290
Si Si5 0.551935 0.228267 0.441777
Si Si6 0.614389 0.085821 0.105677
Si Si7 0.354256 0.206846 0.163471
Si Si8 0.548644 0.060514 0.935268
O O1 0.230717 0.929113 0.381585
O O2 0.000000 0.978650 0.250000
O O3 0.101143 0.041661 0.391699
O O4 0.220186 0.066742 0.323151
O O5 0.540657 0.604479 0.474596
O O6 0.369861 0.541686 0.495614
O O7 0.469677 0.683074 0.544019
O O8 0.272341 0.643871 0.380745
O O9 0.638893 0.183084 0.526966
O O10 0.803361 0.214329 0.681640
O O11 0.572456 0.127875 0.618776
O O12 0.808165 0.573206 0.551613
O O13 0.409858 0.175561 0.382134
O O14 0.630053 0.228175 0.404310
O O15 0.513834 0.025116 0.106400
O O16 0.590198 0.066381 0.023512
O O17 0.500000 0.176746 0.250000
#
# Coordination Sequence:
#
# PCOD8130840 Si02
#       8
#     8   8   8   8   8   8   8   8
#     4  10  18  29  49  76 104 131 160 204 251 287
#     4  10  21  34  52  74  98 132 169 200 245 297
#     4   9  17  31  51  75  95 126 171 199 237 292
#     4  10  19  34  51  73 101 129 168 208 239 290
#     4  10  18  33  52  68  96 130 165 207 244 284
#     4   8  15  27  47  71  92 123 163 194 238 289
#     4  11  21  32  50  76 102 126 158 207 257 295
#     4   8  14  28  49  70  93 120 157 204 236 269
#
# _framework density 18.583611999999999
#
# number of rings (size 3 to 8) (size 9 to 14) (size 15 to 20)
#    0.000    2.500    0.000    6.375    0.000    1.000 
#    0.000   10.000    0.000    0.000    0.000    0.875 
#    0.000    0.000    0.000    0.000    0.000    0.000 
#
# Total GULP energy -396418.272674 kJ/mol
# GULP energy per Si atom -12388.071021 kJ/mol
# Density = 1.854131 g / cm^3
# Si number density = 18.583612 Si / 1000 Ang^3
#
#
#
# Elastic Constant Matrix: (Units=GPa)
#
#
# Indices 1 2 3 4 5 6 
#
# 1 144.2202 57.1892 33.8908 0.0000 20.8039 0.0000
# 2 57.1892 97.2426 19.2267 0.0000 13.0470 0.0000
# 3 33.8908 19.2267 34.9669 0.0000 11.7998 0.0000
# 4 0.0000 0.0000 0.0000 12.3778 0.0000 4.7537
# 5 20.8039 13.0470 11.7998 0.0000 17.9374 0.0000
# 6 0.0000 0.0000 0.0000 4.7537 0.0000 27.4235
#
#
#
# Elastic Compliance Matrix: (Units=1/GPa)
#
#
# Indices 1 2 3 4 5 6 
#
# 1 0.010973 -0.004483 -0.006396 0.000000 -0.005258 0.000000
# 2 -0.004483 0.013795 -0.002068 0.000000 -0.003474 0.000000
# 3 -0.006396 -0.002068 0.042318 0.000000 -0.018916 0.000000
# 4 0.000000 0.000000 0.000000 0.086552 0.000000 -0.015003
# 5 -0.005258 -0.003474 -0.018916 0.000000 0.076819 0.000000
# 6 0.000000 0.000000 0.000000 -0.015003 0.000000 0.039066
#
#
# Mechanical properties :
#
#
# Convention : Reuss Voigt Hill
#
# Bulk Modulus (GPa) = 24.27615 55.22700 39.75158
# Shear Modulus (GPa) = 16.17353 22.62260 19.39806
#
# Velocity S-wave (km/s) = 2.95330 3.49283 3.23434
# Velocity P-wave (km/s) = 4.97201 6.78595 5.94853
#
# Compressibility (1/GPa) = 0.04119269
#
# Stress axis : x y z
#
# Youngs Moduli (GPa) = 91.13147 72.48912 23.63069
#
# Poissons Ratio (x) = 0.32499 0.15114
# Poissons Ratio (y) = 0.40857 0.04886
# Poissons Ratio (z) = 0.58286 0.14988
#
# Static dielectric constant tensor:
#      x y z
#    x 3.912820 0.000000 0.585150 
#    y 0.000000 3.814070 0.000000 
#    z 0.585150 0.000000 3.315970 
# 
# 
# High freq. dielectric constant tensor:
#      x y z
#    x 1.723820 0.000000 0.025650 
#    y 0.000000 1.717980 0.000000 
#    z 0.025650 0.000000 1.682080 
# 
# From -- ./inp_files/199226.got.cif
#   From: 2010.06.25/outbox.cif.g09.slc.cpg/sg15_100_cif.got.tgz:199226.got - 2010.06.28 07:06:18.
