data_PCOD8130837
_publ_section_title
;
Structure prediction by ZEFSAII (Michael W. Deem and Ramdas Pophale) SiO2 
 PCOD8130837
Probable space group: C 2/C
;
_chemical_formula_sum "Si O2"
_cell_formula_units_Z 52
_cell_length_a 6.517039
_cell_length_b 20.974632
_cell_length_c 23.449844
_cell_angle_alpha 90.000000
_cell_angle_beta 115.641400
_cell_angle_gamma 90.000000
_cell_volume 2889.748403
_symmetry_space_group_name_H-M "C 2/C"
_symmetry_group_IT_number 15
_symmetry_cell_setting 'monoclinic'
loop_
_space_group_symop_operation_xyz
x,y,z
-x,y,1/2-z
-x,-y,-z
x,-y,1/2+z
1/2+x,1/2+y,z
1/2-x,1/2+y,1/2-z
1/2-x,1/2-y,-z
1/2+x,1/2-y,1/2+z
loop_
_atom_site_type_symbol
_atom_site_label
_atom_site_fract_x
_atom_site_fract_y
_atom_site_fract_z
Si Si1 0.791451 0.779661 0.920248
Si Si2 0.828913 0.872361 0.541498
Si Si3 0.472886 0.139575 0.310932
Si Si4 0.357931 0.538223 0.353190
Si Si5 0.320203 0.155158 0.979462
Si Si6 0.500000 0.421669 0.750000
Si Si7 0.542310 0.442742 0.048457
O O1 0.563643 0.802371 0.860407
O O2 0.807326 0.702418 0.922753
O O3 0.022372 0.810276 0.922201
O O4 0.799196 0.807242 0.984394
O O5 0.574182 0.859750 0.529796
O O6 0.824293 0.889491 0.472820
O O7 0.924615 0.930973 0.589719
O O8 0.500000 0.164109 0.250000
O O9 0.627940 0.076890 0.338432
O O10 0.210778 0.123376 0.294732
O O11 0.412732 0.534311 0.292068
O O12 0.323766 0.468811 0.379150
O O13 0.189328 0.088601 0.954262
O O14 0.500000 0.500000 0.000000
#
# Coordination Sequence:
#
# PCOD8130837 Si02
#       7
#     8   8   8   8   8   4   8
#     4   9  18  31  47  72 103 122 155 208 238 289
#     4   9  17  30  48  72 100 129 157 190 248 293
#     4   9  18  32  48  70  93 119 158 206 248 279
#     4   9  18  30  46  69  99 122 156 205 241 282
#     4  10  18  29  49  73  98 133 160 188 243 300
#     4  10  18  30  52  74  84 122 166 198 246 284
#     4   9  19  31  44  69 101 128 157 196 235 285
#
# _framework density 17.994647000000001
#
# number of rings (size 3 to 8) (size 9 to 14) (size 15 to 20)
#    0.000    2.769    0.000    2.308    0.000    3.692 
#    0.000    0.000    1.692    0.000    6.000    0.000 
#    0.000    0.000    0.000    0.000    0.000    0.000 
#
# Total GULP energy -322129.607620 kJ/mol
# GULP energy per Si atom -12389.600293 kJ/mol
# Density = 1.795369 g / cm^3
# Si number density = 17.994647 Si / 1000 Ang^3
#
#
#
# Elastic Constant Matrix: (Units=GPa)
#
#
# Indices 1 2 3 4 5 6 
#
# 1 63.3509 20.8918 9.9037 0.0000 17.6664 0.0000
# 2 20.8918 79.8130 31.9089 0.0000 6.6509 0.0000
# 3 9.9037 31.9089 73.1306 0.0000 6.3849 0.0000
# 4 0.0000 0.0000 0.0000 21.4452 0.0000 -1.1750
# 5 17.6664 6.6509 6.3849 0.0000 29.6636 0.0000
# 6 0.0000 0.0000 0.0000 -1.1750 0.0000 16.6452
#
#
#
# Elastic Compliance Matrix: (Units=1/GPa)
#
#
# Indices 1 2 3 4 5 6 
#
# 1 0.020339 -0.004461 0.000165 0.000000 -0.011149 0.000000
# 2 -0.004461 0.016274 -0.006533 0.000000 0.000414 0.000000
# 3 0.000165 -0.006533 0.016697 0.000000 -0.002228 0.000000
# 4 0.000000 0.000000 0.000000 0.046812 0.000000 0.003304
# 5 -0.011149 0.000414 -0.002228 0.000000 0.040738 0.000000
# 6 0.000000 0.000000 0.000000 0.003304 0.000000 0.060311
#
#
# Mechanical properties :
#
#
# Convention : Reuss Voigt Hill
#
# Bulk Modulus (GPa) = 31.59238 37.96704 34.77971
# Shear Modulus (GPa) = 21.42439 23.79013 22.60726
#
# Velocity S-wave (km/s) = 3.45425 3.63997 3.54832
# Velocity P-wave (km/s) = 5.78824 6.22982 6.01309
#
# Compressibility (1/GPa) = 0.03165320
#
# Stress axis : x y z
#
# Youngs Moduli (GPa) = 49.16562 61.44634 59.89188
#
# Poissons Ratio (x) = 0.27412 -0.00991
# Poissons Ratio (y) = 0.21933 0.39127
# Poissons Ratio (z) = -0.00813 0.40143
#
# Static dielectric constant tensor:
#      x y z
#    x 3.346280 0.000000 -0.111920 
#    y 0.000000 3.471290 0.000000 
#    z -0.111920 0.000000 3.409050 
# 
# 
# High freq. dielectric constant tensor:
#      x y z
#    x 1.697090 0.000000 -0.000230 
#    y 0.000000 1.669380 0.000000 
#    z -0.000230 0.000000 1.679650 
# 
# From -- ./inp_files/227500.got.cif
#   From: 2010.06.25/outbox.cif.g09.slc.cpg/sg15_114_cif.got.tgz:227500.got - 2010.06.28 07:06:18.
