data_PCOD8130759
_publ_section_title
;
Structure prediction by ZEFSAII (Michael W. Deem and Ramdas Pophale) SiO2 
 PCOD8130759
Probable space group: C 2/C
;
_chemical_formula_sum "Si O2"
_cell_formula_units_Z 64
_cell_length_a 20.560955
_cell_length_b 26.509798
_cell_length_c 8.696024
_cell_angle_alpha 90.000000
_cell_angle_beta 115.020253
_cell_angle_gamma 90.000000
_cell_volume 4295.112306
_symmetry_space_group_name_H-M "C 2/C"
_symmetry_group_IT_number 15
_symmetry_cell_setting 'monoclinic'
loop_
_space_group_symop_operation_xyz
x,y,z
-x,y,1/2-z
-x,-y,-z
x,-y,1/2+z
1/2+x,1/2+y,z
1/2-x,1/2+y,1/2-z
1/2-x,1/2-y,-z
1/2+x,1/2-y,1/2+z
loop_
_atom_site_type_symbol
_atom_site_label
_atom_site_fract_x
_atom_site_fract_y
_atom_site_fract_z
Si Si1 0.293657 0.704293 0.113133
Si Si2 0.921564 0.552181 0.604997
Si Si3 0.422168 0.749875 0.104023
Si Si4 0.293657 0.704293 0.474181
Si Si5 0.842682 0.349616 0.662454
Si Si6 0.421564 0.052181 0.238132
Si Si7 0.657318 0.849616 0.477090
Si Si8 0.422168 0.250125 0.240312
O O1 0.371453 0.703227 0.109401
O O2 0.304610 0.711636 0.304610
O O3 0.242925 0.655574 0.026908
O O4 0.250000 0.750000 0.000000
O O5 0.925074 0.549203 0.425074
O O6 0.889939 0.500000 0.639939
O O7 0.870885 0.597261 0.616672
O O8 0.000000 0.562337 0.750000
O O9 0.500000 0.741111 0.250000
O O10 0.389018 0.802529 0.135913
O O11 0.426358 0.749101 0.926358
O O12 0.250000 0.750000 0.500000
O O13 0.242925 0.655574 0.458943
O O14 0.371453 0.703227 0.633504
O O15 0.870885 0.402739 0.625097
O O16 0.856050 0.348646 0.856050
O O17 0.889018 0.302529 0.642123
O O18 0.500000 0.062337 0.250000
O O19 0.500000 0.258889 0.250000
#
# Coordination Sequence:
#
# PCOD8130759 Si02
#       8
#     8   8   8   8   8   8   8   8
#     4   9  16  28  42  58  79 105 133 166 201 238
#     4  10  18  29  41  57  79 105 135 169 201 233
#     4  10  18  28  41  60  82 108 137 167 199 237
#     4   9  16  28  42  58  79 105 133 166 201 238
#     4   8  16  28  42  57  78 106 137 166 199 236
#     4  10  18  29  41  57  79 105 135 169 201 233
#     4   8  16  28  42  57  78 106 137 166 199 236
#     4  10  18  28  41  60  82 108 137 167 199 237
#
# _framework density 14.900658999999999
#
# number of rings (size 3 to 8) (size 9 to 14) (size 15 to 20)
#    0.000    2.750    0.000    5.250    0.000    0.000 
#    0.000   13.750    0.000    0.000    0.000    0.000 
#    0.000    1.000    0.000   11.500    0.000    3.500 
#
# Total GULP energy -396472.045129 kJ/mol
# GULP energy per Si atom -12389.751410 kJ/mol
# Density = 1.486674 g / cm^3
# Si number density = 14.900659 Si / 1000 Ang^3
#
#
#
# Elastic Constant Matrix: (Units=GPa)
#
#
# Indices 1 2 3 4 5 6 
#
# 1 113.1755 53.4402 40.7576 0.0000 16.1150 0.0000
# 2 53.4402 84.6439 34.2191 0.0000 13.9391 0.0000
# 3 40.7576 34.2191 74.9488 0.0000 11.6070 0.0000
# 4 0.0000 0.0000 0.0000 18.0252 0.0000 5.2501
# 5 16.1150 13.9391 11.6070 0.0000 28.3674 0.0000
# 6 0.0000 0.0000 0.0000 5.2501 0.0000 25.2647
#
#
#
# Elastic Compliance Matrix: (Units=1/GPa)
#
#
# Indices 1 2 3 4 5 6 
#
# 1 0.013837 -0.006613 -0.004048 0.000000 -0.002955 0.000000
# 2 -0.006613 0.018264 -0.004201 0.000000 -0.003499 0.000000
# 3 -0.004048 -0.004201 0.017921 0.000000 -0.002969 0.000000
# 4 0.000000 0.000000 0.000000 0.059052 0.000000 -0.012271
# 5 -0.002955 -0.003499 -0.002969 0.000000 0.039865 0.000000
# 6 0.000000 0.000000 0.000000 -0.012271 0.000000 0.042131
#
#
# Mechanical properties :
#
#
# Convention : Reuss Voigt Hill
#
# Bulk Modulus (GPa) = 49.26259 58.84466 54.05362
# Shear Modulus (GPa) = 21.97241 23.95488 22.96364
#
# Velocity S-wave (km/s) = 3.84421 4.01389 3.92996
# Velocity P-wave (km/s) = 7.26886 7.81401 7.54636
#
# Compressibility (1/GPa) = 0.02029938
#
# Stress axis : x y z
#
# Youngs Moduli (GPa) = 72.27097 54.75344 55.79958
#
# Poissons Ratio (x) = 0.36208 0.22586
# Poissons Ratio (y) = 0.47793 0.23439
# Poissons Ratio (z) = 0.29253 0.22999
#
# Static dielectric constant tensor:
#      x y z
#    x 3.173370 0.000000 0.099730 
#    y 0.000000 3.065490 0.000000 
#    z 0.099730 0.000000 3.035850 
# 
# 
# High freq. dielectric constant tensor:
#      x y z
#    x 1.567130 0.000000 -0.003110 
#    y 0.000000 1.534670 0.000000 
#    z -0.003110 0.000000 1.571420 
# 
# From -- ./inp_files/58926.got.cif
#   From: 2010.06.25/outbox.cif.g09.slc.cpg/sg15_30_cif.got.tgz:58926.got - 2010.06.28 07:06:18.
