data_PCOD8130694
_publ_section_title
;
Structure prediction by ZEFSAII (Michael W. Deem and Ramdas Pophale) SiO2 
 PCOD8130694
Probable space group: C 2/C
;
_chemical_formula_sum "Si O2"
_cell_formula_units_Z 60
_cell_length_a 10.111863
_cell_length_b 14.837951
_cell_length_c 20.870726
_cell_angle_alpha 90.000000
_cell_angle_beta 86.989227
_cell_angle_gamma 90.000000
_cell_volume 3127.107312
_symmetry_space_group_name_H-M "C 2/C"
_symmetry_group_IT_number 15
_symmetry_cell_setting 'monoclinic'
loop_
_space_group_symop_operation_xyz
x,y,z
-x,y,1/2-z
-x,-y,-z
x,-y,1/2+z
1/2+x,1/2+y,z
1/2-x,1/2+y,1/2-z
1/2-x,1/2-y,-z
1/2+x,1/2-y,1/2+z
loop_
_atom_site_type_symbol
_atom_site_label
_atom_site_fract_x
_atom_site_fract_y
_atom_site_fract_z
Si Si1 0.274550 0.050825 0.171173
Si Si2 0.439098 0.778254 0.856208
Si Si3 0.000000 0.591468 0.250000
Si Si4 0.152684 0.312157 0.042749
Si Si5 0.260185 0.744853 0.670808
Si Si6 0.651216 0.012986 0.475808
Si Si7 0.352658 0.628735 0.780871
Si Si8 0.637187 0.822553 0.506051
O O1 0.405570 0.030213 0.209411
O O2 0.216379 0.151135 0.188029
O O3 0.318533 0.046792 0.096362
O O4 0.175349 0.973302 0.196897
O O5 0.412040 0.842988 0.796605
O O6 0.591757 0.750591 0.859963
O O7 0.349601 0.689356 0.845825
O O8 0.400869 0.833938 0.919241
O O9 0.165359 0.294987 0.118187
O O10 0.250000 0.250000 0.000000
O O11 0.204822 0.412718 0.024217
O O12 0.996683 0.298105 0.029867
O O13 0.253379 0.675120 0.731273
O O14 0.500000 0.000000 0.500000
O O15 0.712251 0.913719 0.481888
O O16 0.500000 0.632185 0.750000
O O17 0.750000 0.750000 0.500000
#
# Coordination Sequence:
#
# PCOD8130694 Si02
#       8
#     8   8   4   8   8   8   8   8
#     4  11  20  35  60  86 118 147 197 247 291 345
#     4  10  17  37  60  79 113 153 206 232 280 358
#     4  10  18  34  62  80 100 158 206 230 278 352
#     4  11  19  38  64  84 113 159 204 240 283 358
#     4  10  19  37  61  85 108 152 204 245 271 360
#     4  10  21  37  60  88 118 153 194 246 300 349
#     4  10  21  37  59  83 113 160 195 238 295 345
#     4  11  23  37  57  90 128 153 186 251 314 341
#
# _framework density 19.187061
#
# number of rings (size 3 to 8) (size 9 to 14) (size 15 to 20)
#    0.000    1.600    6.000    3.200    0.000    3.200 
#    0.000    4.667    4.400    0.000    0.000    0.000 
#    0.000    0.000    0.000    0.000    0.000    0.000 
#
# Total GULP energy -371652.733677 kJ/mol
# GULP energy per Si atom -12388.424456 kJ/mol
# Density = 1.914339 g / cm^3
# Si number density = 19.187061 Si / 1000 Ang^3
#
#
#
# Elastic Constant Matrix: (Units=GPa)
#
#
# Indices 1 2 3 4 5 6 
#
# 1 47.8319 36.3180 21.0600 0.0000 13.5737 0.0000
# 2 36.3180 129.1169 36.3301 0.0000 17.1701 0.0000
# 3 21.0600 36.3301 104.0015 0.0000 19.3373 0.0000
# 4 0.0000 0.0000 0.0000 34.0116 0.0000 -1.2664
# 5 13.5737 17.1701 19.3373 0.0000 25.6910 0.0000
# 6 0.0000 0.0000 0.0000 -1.2664 0.0000 35.6589
#
#
#
# Elastic Compliance Matrix: (Units=1/GPa)
#
#
# Indices 1 2 3 4 5 6 
#
# 1 0.029409 -0.006437 -0.001881 0.000000 -0.009820 0.000000
# 2 -0.006437 0.010376 -0.001935 0.000000 -0.002077 0.000000
# 3 -0.001881 -0.001935 0.011914 0.000000 -0.006681 0.000000
# 4 0.000000 0.000000 0.000000 0.029441 0.000000 0.001046
# 5 -0.009820 -0.002077 -0.006681 0.000000 0.050530 0.000000
# 6 0.000000 0.000000 0.000000 0.001046 0.000000 0.028081
#
#
# Mechanical properties :
#
#
# Convention : Reuss Voigt Hill
#
# Bulk Modulus (GPa) = 32.05737 52.04073 42.04905
# Shear Modulus (GPa) = 26.22556 31.55510 28.89033
#
# Velocity S-wave (km/s) = 3.70109 4.05977 3.88457
# Velocity P-wave (km/s) = 5.91677 7.01123 6.48712
#
# Compressibility (1/GPa) = 0.03119408
#
# Stress axis : x y z
#
# Youngs Moduli (GPa) = 34.00326 96.37419 83.93363
#
# Poissons Ratio (x) = 0.62036 0.15785
# Poissons Ratio (y) = 0.21888 0.16240
# Poissons Ratio (z) = 0.06395 0.18648
#
# Static dielectric constant tensor:
#      x y z
#    x 2.675350 0.000000 0.194630 
#    y 0.000000 4.620730 0.000000 
#    z 0.194630 0.000000 3.863480 
# 
# 
# High freq. dielectric constant tensor:
#      x y z
#    x 1.706070 0.000000 0.007040 
#    y 0.000000 1.759960 0.000000 
#    z 0.007040 0.000000 1.758040 
# 
# From -- ./inp_files/238400.got.cif
#   From: 2010.06.25/outbox.cif.g09.slc.cpg/sg15_120_cif.got.tgz:238400.got - 2010.06.28 07:06:18.
