data_PCOD8130358
_publ_section_title
;
Structure prediction by ZEFSAII (Michael W. Deem and Ramdas Pophale) SiO2 
 PCOD8130358
Probable space group: C 2/C
;
_chemical_formula_sum "Si O2"
_cell_formula_units_Z 56
_cell_length_a 18.613549
_cell_length_b 9.184970
_cell_length_c 17.437107
_cell_angle_alpha 90.000000
_cell_angle_beta 63.535018
_cell_angle_gamma 90.000000
_cell_volume 2668.730894
_symmetry_space_group_name_H-M "C 2/C"
_symmetry_group_IT_number 15
_symmetry_cell_setting 'monoclinic'
loop_
_space_group_symop_operation_xyz
x,y,z
-x,y,1/2-z
-x,-y,-z
x,-y,1/2+z
1/2+x,1/2+y,z
1/2-x,1/2+y,1/2-z
1/2-x,1/2-y,-z
1/2+x,1/2-y,1/2+z
loop_
_atom_site_type_symbol
_atom_site_label
_atom_site_fract_x
_atom_site_fract_y
_atom_site_fract_z
Si Si1 0.591944 0.238267 0.679581
Si Si2 0.602651 0.863908 0.469475
Si Si3 0.311454 0.820886 0.223050
Si Si4 0.324840 0.052561 0.412653
Si Si5 0.427061 0.808616 0.562633
Si Si6 0.164393 0.350259 0.753053
Si Si7 0.319742 0.356932 0.995035
O O1 0.500000 0.241404 0.750000
O O2 0.641185 0.265292 0.733606
O O3 0.614472 0.084288 0.628474
O O4 0.615610 0.364976 0.606408
O O5 0.650551 0.791322 0.377619
O O6 0.520523 0.770580 0.509199
O O7 0.652998 0.851851 0.523756
O O8 0.589136 0.034719 0.465790
O O9 0.222542 0.763365 0.264862
O O10 0.304372 0.988189 0.247182
O O11 0.229957 0.004988 0.462188
O O12 0.341686 0.166592 0.335406
O O13 0.416196 0.818815 0.660370
O O14 0.368061 0.694635 0.547912
O O15 0.250000 0.250000 0.000000
#
# Coordination Sequence:
#
# PCOD8130358 Si02
#       7
#     8   8   8   8   8   8   8
#     4  10  19  31  55  84 112 143 196 242 276 335
#     4  10  20  31  51  82 112 144 183 241 298 332
#     4  10  22  35  56  85 112 150 189 235 284 348
#     4  10  21  32  55  82 113 149 186 244 294 345
#     4  10  18  31  53  79 115 141 183 244 291 331
#     4  10  21  36  56  84 113 148 195 233 287 342
#     4  10  17  32  53  78 111 149 190 226 290 344
#
# _framework density 20.983757000000001
#
# number of rings (size 3 to 8) (size 9 to 14) (size 15 to 20)
#    0.000    2.000    2.857    3.429    8.000    0.571 
#    0.000    0.000    0.000    7.714    0.000    0.000 
#    0.000    0.000    0.000    0.000    0.000    0.000 
#
# Total GULP energy -346929.175585 kJ/mol
# GULP energy per Si atom -12390.327699 kJ/mol
# Density = 2.093600 g / cm^3
# Si number density = 20.983757 Si / 1000 Ang^3
#
#
#
# Elastic Constant Matrix: (Units=GPa)
#
#
# Indices 1 2 3 4 5 6 
#
# 1 67.4361 11.3820 38.8975 0.0000 3.3194 0.0000
# 2 11.3820 6.4955 15.1280 0.0000 1.7774 0.0001
# 3 38.8975 15.1280 171.8950 0.0000 15.8826 0.0000
# 4 0.0000 0.0000 0.0000 15.8474 0.0000 -2.1973
# 5 3.3194 1.7774 15.8826 0.0000 46.2263 0.0000
# 6 0.0000 0.0001 0.0000 -2.1973 0.0000 29.9437
#
#
#
# Elastic Compliance Matrix: (Units=1/GPa)
#
#
# Indices 1 2 3 4 5 6 
#
# 1 0.021574 -0.033280 -0.001991 0.000000 0.000415 0.000000
# 2 -0.033280 0.245101 -0.013829 0.000000 -0.002283 0.000000
# 3 -0.001991 -0.013829 0.007666 0.000000 -0.001959 0.000000
# 4 0.000000 0.000000 0.000000 0.063751 0.000000 0.004678
# 5 0.000415 -0.002283 -0.001959 0.000000 0.022364 0.000000
# 6 0.000000 0.000000 0.000000 0.004678 0.000000 0.033739
#
#
# Mechanical properties :
#
#
# Convention : Reuss Voigt Hill
#
# Bulk Modulus (GPa) = 5.67726 41.84906 23.76316
# Shear Modulus (GPa) = 9.07261 30.43140 19.75201
#
# Velocity S-wave (km/s) = 2.08159 3.81233 3.07139
# Velocity P-wave (km/s) = 2.91355 6.27418 4.89153
#
# Compressibility (1/GPa) = 0.17614144
#
# Stress axis : x y z
#
# Youngs Moduli (GPa) = 46.35191 4.07995 130.44255
#
# Poissons Ratio (x) = 0.13578 0.25976
# Poissons Ratio (y) = 1.54258 1.80389
# Poissons Ratio (z) = 0.09230 0.05642
#
# Static dielectric constant tensor:
#      x y z
#    x 3.767810 0.000000 -0.062660 
#    y 0.000000 3.245910 0.000000 
#    z -0.062660 0.000000 4.410980 
# 
# 
# High freq. dielectric constant tensor:
#      x y z
#    x 1.812860 0.000000 -0.000520 
#    y 0.000000 1.757980 0.000000 
#    z -0.000520 0.000000 1.855870 
# 
# From -- ./inp_files/160817.got.cif
#   From: 2010.06.25/outbox.cif.g09.slc.cpg/sg15_81_cif.got.tgz:160817.got - 2010.06.28 07:06:18.
