data_PCOD8130190
_publ_section_title
;
Structure prediction by ZEFSAII (Michael W. Deem and Ramdas Pophale) SiO2 
 PCOD8130190
Probable space group: C 2/C
;
_chemical_formula_sum "Si O2"
_cell_formula_units_Z 64
_cell_length_a 13.445273
_cell_length_b 17.946514
_cell_length_c 24.691443
_cell_angle_alpha 90.000000
_cell_angle_beta 37.187257
_cell_angle_gamma 90.000000
_cell_volume 3601.110293
_symmetry_space_group_name_H-M "C 2/C"
_symmetry_group_IT_number 15
_symmetry_cell_setting 'monoclinic'
loop_
_space_group_symop_operation_xyz
x,y,z
-x,y,1/2-z
-x,-y,-z
x,-y,1/2+z
1/2+x,1/2+y,z
1/2-x,1/2+y,1/2-z
1/2-x,1/2-y,-z
1/2+x,1/2-y,1/2+z
loop_
_atom_site_type_symbol
_atom_site_label
_atom_site_fract_x
_atom_site_fract_y
_atom_site_fract_z
Si Si1 0.819964 0.584741 0.307426
Si Si2 0.923142 0.135963 0.730292
Si Si3 0.672776 0.737254 0.332286
Si Si4 0.748826 0.825384 0.468924
Si Si5 0.836459 0.282000 0.287413
Si Si6 0.126065 0.095208 0.494254
Si Si7 0.008357 0.746984 0.485199
Si Si8 0.204338 0.939427 0.314111
O O1 0.743194 0.654379 0.309389
O O2 0.713278 0.558151 0.405400
O O3 0.818031 0.512636 0.269173
O O4 0.000000 0.606006 0.250000
O O5 0.804054 0.203723 0.798140
O O6 0.826711 0.075379 0.736140
O O7 0.000000 0.096274 0.750000
O O8 0.070811 0.173158 0.634379
O O9 0.637598 0.748422 0.283983
O O10 0.509810 0.749628 0.440981
O O11 0.750000 0.750000 0.500000
O O12 0.740000 0.895537 0.514666
O O13 0.597534 0.823877 0.491861
O O14 0.694748 0.239025 0.382960
O O15 0.797365 0.369505 0.300498
O O16 0.000000 0.268998 0.250000
O O17 0.066565 0.177857 0.505958
O O18 0.970735 0.045841 0.580354
#
# Coordination Sequence:
#
# PCOD8130190 Si02
#       8
#     8   8   8   8   8   8   8   8
#     4  11  21  29  49  77 106 129 163 212 266 300
#     4  10  17  30  52  76 102 131 167 209 252 300
#     4  10  20  32  51  82 104 128 173 220 259 305
#     4   9  15  25  46  75 106 127 155 203 265 303
#     4  10  21  36  53  70 103 140 178 212 251 306
#     4   8  17  29  47  71 101 133 159 204 256 304
#     4   9  17  29  49  75 105 131 165 213 256 308
#     4   9  19  35  49  71 100 137 172 202 249 315
#
# _framework density 17.772296999999998
#
# number of rings (size 3 to 8) (size 9 to 14) (size 15 to 20)
#    0.000    2.500    1.250    3.375    5.250    0.500 
#    0.000    0.625    0.000    0.000    0.000    5.250 
#    0.000    0.000    0.000    0.000    0.000    0.000 
#
# Total GULP energy -396486.930417 kJ/mol
# GULP energy per Si atom -12390.216576 kJ/mol
# Density = 1.773185 g / cm^3
# Si number density = 17.772297 Si / 1000 Ang^3
#
#
#
# Elastic Constant Matrix: (Units=GPa)
#
#
# Indices 1 2 3 4 5 6 
#
# 1 117.1342 39.7093 51.8629 -0.0012 4.3524 0.0001
# 2 39.7093 55.3387 20.9344 0.0005 4.7657 -0.0003
# 3 51.8629 20.9344 86.3532 0.0033 12.1532 -0.0013
# 4 -0.0012 0.0005 0.0033 12.9494 0.0001 0.7050
# 5 4.3524 4.7657 12.1532 0.0001 27.6253 0.0003
# 6 0.0001 -0.0003 -0.0013 0.7050 0.0003 12.6256
#
#
#
# Elastic Compliance Matrix: (Units=1/GPa)
#
#
# Indices 1 2 3 4 5 6 
#
# 1 0.014137 -0.007710 -0.006924 0.000003 0.002149 -0.000001
# 2 -0.007710 0.024151 -0.000862 -0.000001 -0.002572 0.000001
# 3 -0.006924 -0.000862 0.016814 -0.000005 -0.006158 0.000002
# 4 0.000003 -0.000001 -0.000005 0.077459 0.000002 -0.004325
# 5 0.002149 -0.002572 -0.006158 0.000002 0.039013 -0.000002
# 6 -0.000001 0.000001 0.000002 -0.004325 -0.000002 0.079446
#
#
# Mechanical properties :
#
#
# Convention : Reuss Voigt Hill
#
# Bulk Modulus (GPa) = 41.47675 53.75993 47.61834
# Shear Modulus (GPa) = 17.23858 20.39469 18.81664
#
# Velocity S-wave (km/s) = 3.11781 3.39123 3.25739
# Velocity P-wave (km/s) = 6.02906 6.75640 6.40306
#
# Compressibility (1/GPa) = 0.02410989
#
# Stress axis : x y z
#
# Youngs Moduli (GPa) = 70.73826 41.40688 59.47322
#
# Poissons Ratio (x) = 0.31924 0.41177
# Poissons Ratio (y) = 0.54538 0.05128
# Poissons Ratio (z) = 0.48977 0.03570
#
# Static dielectric constant tensor:
#      x y z
#    x 3.456130 0.000000 0.200010 
#    y 0.000000 2.908510 -0.000020 
#    z 0.200010 -0.000020 3.525970 
# 
# 
# High freq. dielectric constant tensor:
#      x y z
#    x 1.681590 0.000000 0.013630 
#    y 0.000000 1.645880 0.000000 
#    z 0.013630 0.000000 1.693240 
# 
# From -- ./inp_files/270835.got.cif
#   From: 2010.06.25/outbox.cif.g09.slc.cpg/sg15_136_cif.got.tgz:270835.got - 2010.06.28 07:06:18.
