data_PCOD8130516
_publ_section_title
;
Structure prediction by ZEFSAII (Michael W. Deem and Ramdas Pophale) SiO2 
 PCOD8130516
Probable space group: C 2/C
;
_chemical_formula_sum "Si O2"
_cell_formula_units_Z 52
_cell_length_a 21.213063
_cell_length_b 19.202761
_cell_length_c 9.146110
_cell_angle_alpha 90.000000
_cell_angle_beta 135.933284
_cell_angle_gamma 90.000000
_cell_volume 2591.181346
_symmetry_space_group_name_H-M "C 2/C"
_symmetry_group_IT_number 15
_symmetry_cell_setting 'monoclinic'
loop_
_space_group_symop_operation_xyz
x,y,z
-x,y,1/2-z
-x,-y,-z
x,-y,1/2+z
1/2+x,1/2+y,z
1/2-x,1/2+y,1/2-z
1/2-x,1/2-y,-z
1/2+x,1/2-y,1/2+z
loop_
_atom_site_type_symbol
_atom_site_label
_atom_site_fract_x
_atom_site_fract_y
_atom_site_fract_z
Si Si1 0.879122 0.113939 0.939465
Si Si2 0.063891 0.406827 0.625874
Si Si3 0.282787 0.177811 0.987937
Si Si4 0.419611 0.656701 0.311091
Si Si5 0.063045 0.032673 0.983689
Si Si6 0.567959 0.208088 0.488098
Si Si7 0.500000 0.987898 0.250000
O O1 0.804998 0.132515 0.695453
O O2 0.872955 0.030871 0.962614
O O3 0.862816 0.153381 0.066152
O O4 0.975613 0.137779 0.038511
O O5 0.060752 0.440239 0.459155
O O6 0.975775 0.358192 0.503257
O O7 0.064962 0.465103 0.755808
O O8 0.156132 0.362286 0.790388
O O9 0.338280 0.186804 0.930701
O O10 0.250000 0.250000 0.000000
O O11 0.380639 0.598800 0.360083
O O12 0.410032 0.733772 0.356387
O O13 0.000000 0.061550 0.750000
O O14 0.000000 0.000000 0.000000
O O15 0.500000 0.236960 0.250000
#
# Coordination Sequence:
#
# PCOD8130516 Si02
#       7
#     8   8   8   8   8   8   4
#     4  10  20  36  55  84 123 156 199 254 284 365
#     4  10  21  42  67  95 120 163 208 264 312 375
#     4  11  23  40  57  88 129 156 201 261 317 365
#     4  10  20  36  61  84 115 166 203 235 296 366
#     4  10  17  34  55  80 112 150 195 234 280 347
#     4  10  20  38  60  85 116 160 206 252 306 371
#     4  10  20  42  74  90 116 160 222 256 310 374
#
# _framework density 20.068066999999999
#
# number of rings (size 3 to 8) (size 9 to 14) (size 15 to 20)
#    0.000    1.846    5.385    2.308    0.000    4.308 
#    2.769    0.000    0.000    0.000    0.000    0.000 
#    0.000    0.000    0.000    0.000    0.000    0.000 
#
# Total GULP energy -322328.884414 kJ/mol
# GULP energy per Si atom -12397.264785 kJ/mol
# Density = 2.002239 g / cm^3
# Si number density = 20.068067 Si / 1000 Ang^3
#
#
#
# Elastic Constant Matrix: (Units=GPa)
#
#
# Indices 1 2 3 4 5 6 
#
# 1 40.9691 27.5562 32.2720 0.0000 -6.6123 0.0000
# 2 27.5562 130.6580 54.6608 0.0000 -11.2971 0.0000
# 3 32.2720 54.6608 102.4113 0.0000 -11.0892 0.0000
# 4 0.0000 0.0000 0.0000 33.8088 0.0000 -12.0588
# 5 -6.6123 -11.2971 -11.0892 0.0000 35.5880 0.0000
# 6 0.0000 0.0000 0.0000 -12.0588 0.0000 33.7139
#
#
#
# Elastic Compliance Matrix: (Units=1/GPa)
#
#
# Indices 1 2 3 4 5 6 
#
# 1 0.033836 -0.003310 -0.008620 0.000000 0.002550 0.000000
# 2 -0.003310 0.010260 -0.004292 0.000000 0.001305 0.000000
# 3 -0.008620 -0.004292 0.014955 0.000000 0.001696 0.000000
# 4 0.000000 0.000000 0.000000 0.033903 0.000000 0.012127
# 5 0.002550 0.001305 0.001696 0.000000 0.029516 0.000000
# 6 0.000000 0.000000 0.000000 0.012127 0.000000 0.033999
#
#
# Mechanical properties :
#
#
# Convention : Reuss Voigt Hill
#
# Bulk Modulus (GPa) = 37.58172 55.89071 46.73621
# Shear Modulus (GPa) = 25.28037 31.25879 28.26958
#
# Velocity S-wave (km/s) = 3.55312 3.95097 3.75732
# Velocity P-wave (km/s) = 5.96663 6.98030 6.49328
#
# Compressibility (1/GPa) = 0.02660868
#
# Stress axis : x y z
#
# Youngs Moduli (GPa) = 29.55398 97.46697 66.86599
#
# Poissons Ratio (x) = 0.32257 0.57638
# Poissons Ratio (y) = 0.09781 0.28698
# Poissons Ratio (z) = 0.25475 0.41832
#
# Static dielectric constant tensor:
#      x y z
#    x 3.505900 0.000000 -0.244250 
#    y 0.000000 4.141900 0.000000 
#    z -0.244250 0.000000 3.599370 
# 
# 
# High freq. dielectric constant tensor:
#      x y z
#    x 1.756220 0.000000 -0.024400 
#    y 0.000000 1.795740 0.000000 
#    z -0.024400 0.000000 1.774050 
# 
# From -- ./inp_files/63449.got.cif
#   From: 2010.06.25/outbox.cif.g09.slc.cpg/sg15_32_cif.got.tgz:63449.got - 2010.06.28 07:06:18.
