data_PCOD8130902
_publ_section_title
;
Structure prediction by ZEFSAII (Michael W. Deem and Ramdas Pophale) SiO2 
 PCOD8130902
Probable space group: C 2/C
;
_chemical_formula_sum "Si O2"
_cell_formula_units_Z 48
_cell_length_a 15.726543
_cell_length_b 23.626484
_cell_length_c 9.403084
_cell_angle_alpha 90.000000
_cell_angle_beta 53.279550
_cell_angle_gamma 90.000000
_cell_volume 2800.528236
_symmetry_space_group_name_H-M "C 2/C"
_symmetry_group_IT_number 15
_symmetry_cell_setting 'monoclinic'
loop_
_space_group_symop_operation_xyz
x,y,z
-x,y,1/2-z
-x,-y,-z
x,-y,1/2+z
1/2+x,1/2+y,z
1/2-x,1/2+y,1/2-z
1/2-x,1/2-y,-z
1/2+x,1/2-y,1/2+z
loop_
_atom_site_type_symbol
_atom_site_label
_atom_site_fract_x
_atom_site_fract_y
_atom_site_fract_z
Si Si1 0.204058 0.375122 0.845530
Si Si2 0.295942 0.124878 0.753646
Si Si3 0.121427 0.716777 0.628572
Si Si4 0.125137 0.843886 0.624863
Si Si5 0.376639 0.967128 0.373361
Si Si6 0.371165 0.095036 0.378835
O O1 0.326405 0.372529 0.779852
O O2 0.185420 0.373883 0.696587
O O3 0.144083 0.320233 0.966278
O O4 0.155833 0.433696 0.952346
O O5 0.355917 0.179767 0.754445
O O6 0.344166 0.066303 0.764013
O O7 0.314581 0.126117 0.567426
O O8 0.173595 0.127471 0.932661
O O9 0.174129 0.779711 0.575871
O O10 0.000000 0.734250 0.750000
O O11 0.000000 0.851662 0.750000
O O12 0.500000 0.974488 0.250000
O O13 0.330318 0.030405 0.419683
O O14 0.500000 0.101889 0.250000
#
# Coordination Sequence:
#
# PCOD8130902 Si02
#       6
#     8   8   8   8   8   8
#     4  10  18  30  49  72  99 126 157 193 235 282
#     4  10  18  30  49  72  99 126 157 193 235 282
#     4   9  16  31  52  71  90 122 164 200 237 283
#     4   9  19  36  54  66  86 127 175 207 227 266
#     4   9  17  30  48  70  98 131 159 183 227 294
#     4  11  20  29  46  77 108 126 144 186 247 297
#
# _framework density 17.139623
#
# number of rings (size 3 to 8) (size 9 to 14) (size 15 to 20)
#    0.000    2.667    0.000    7.000    0.000    2.667 
#    0.000    4.167    0.000   20.000    0.000    0.000 
#    0.000    0.000    0.000    0.000    0.000    0.000 
#
# Total GULP energy -297362.082803 kJ/mol
# GULP energy per Si atom -12390.086783 kJ/mol
# Density = 1.710061 g / cm^3
# Si number density = 17.139623 Si / 1000 Ang^3
#
#
#
# Elastic Constant Matrix: (Units=GPa)
#
#
# Indices 1 2 3 4 5 6 
#
# 1 83.3945 29.9153 60.4765 0.0000 13.1265 0.0000
# 2 29.9153 91.9665 38.5654 0.0000 11.0619 0.0000
# 3 60.4765 38.5654 115.2654 0.0000 27.6295 0.0000
# 4 0.0000 0.0000 0.0000 14.5267 0.0000 -7.3868
# 5 13.1265 11.0619 27.6295 0.0000 35.1386 0.0000
# 6 0.0000 0.0000 0.0000 -7.3868 0.0000 20.3028
#
#
#
# Elastic Compliance Matrix: (Units=1/GPa)
#
#
# Indices 1 2 3 4 5 6 
#
# 1 0.019845 -0.002456 -0.009857 0.000000 0.001110 0.000000
# 2 -0.002456 0.012970 -0.002825 0.000000 -0.000945 0.000000
# 3 -0.009857 -0.002825 0.016878 0.000000 -0.008699 0.000000
# 4 0.000000 0.000000 0.000000 0.084465 0.000000 0.030731
# 5 0.001110 -0.000945 -0.008699 0.000000 0.035182 0.000000
# 6 0.000000 0.000000 0.000000 0.030731 0.000000 0.060435
#
#
# Mechanical properties :
#
#
# Convention : Reuss Voigt Hill
#
# Bulk Modulus (GPa) = 51.49555 60.94897 56.22226
# Shear Modulus (GPa) = 18.76009 24.77157 21.76583
#
# Velocity S-wave (km/s) = 3.31198 3.80581 3.56745
# Velocity P-wave (km/s) = 6.68847 7.41281 7.05993
#
# Compressibility (1/GPa) = 0.01941915
#
# Stress axis : x y z
#
# Youngs Moduli (GPa) = 50.38971 77.09816 59.25015
#
# Poissons Ratio (x) = 0.18932 0.58401
# Poissons Ratio (y) = 0.12373 0.16737
# Poissons Ratio (z) = 0.49668 0.21779
#
# Static dielectric constant tensor:
#      x y z
#    x 3.103760 0.000000 -0.047240 
#    y 0.000000 3.300570 0.000000 
#    z -0.047240 0.000000 3.066820 
# 
# 
# High freq. dielectric constant tensor:
#      x y z
#    x 1.650920 0.000000 -0.005220 
#    y 0.000000 1.667780 0.000000 
#    z -0.005220 0.000000 1.646840 
# 
# From -- ./inp_files/50409.got.cif
#   From: 2010.06.25/outbox.cif.g09.slc.cpg/sg15_26_cif.got.tgz:50409.got - 2010.06.28 07:06:18.
