data_PCOD8130842
_publ_section_title
;
Structure prediction by ZEFSAII (Michael W. Deem and Ramdas Pophale) SiO2 
 PCOD8130842
Probable space group: C 2/C
;
_chemical_formula_sum "Si O2"
_cell_formula_units_Z 48
_cell_length_a 22.180792
_cell_length_b 13.999902
_cell_length_c 9.545403
_cell_angle_alpha 90.000000
_cell_angle_beta 120.800858
_cell_angle_gamma 90.000000
_cell_volume 2546.040599
_symmetry_space_group_name_H-M "C 2/C"
_symmetry_group_IT_number 15
_symmetry_cell_setting 'monoclinic'
loop_
_space_group_symop_operation_xyz
x,y,z
-x,y,1/2-z
-x,-y,-z
x,-y,1/2+z
1/2+x,1/2+y,z
1/2-x,1/2+y,1/2-z
1/2-x,1/2-y,-z
1/2+x,1/2-y,1/2+z
loop_
_atom_site_type_symbol
_atom_site_label
_atom_site_fract_x
_atom_site_fract_y
_atom_site_fract_z
Si Si1 0.688940 0.235531 0.036691
Si Si2 0.137158 0.993018 0.153466
Si Si3 0.918671 0.891168 0.672125
Si Si4 0.302749 0.032283 0.346971
Si Si5 0.322140 0.690113 0.678491
Si Si6 0.320274 0.883449 0.582593
O O1 0.674695 0.122722 0.032385
O O2 0.712982 0.275584 0.216328
O O3 0.750000 0.250000 0.000000
O O4 0.619872 0.291042 0.902587
O O5 0.123231 0.894215 0.223059
O O6 0.095764 0.076520 0.184734
O O7 0.219209 0.018103 0.246541
O O8 0.108078 0.976500 0.962277
O O9 0.000000 0.871463 0.750000
O O10 0.332922 0.043714 0.226534
O O11 0.338691 0.938655 0.461004
O O12 0.361382 0.781957 0.652040
O O13 0.261463 0.648535 0.506407
#
# Coordination Sequence:
#
# PCOD8130842 Si02
#       6
#     8   8   8   8   8   8
#     4  10  19  32  49  75 101 133 178 219 252 304
#     4  10  18  32  51  72 103 137 173 205 256 309
#     4  11  22  35  51  75 109 144 171 206 257 316
#     4  10  18  29  50  74 102 132 168 220 258 300
#     4   8  17  29  45  67 103 134 156 209 261 302
#     4   9  17  28  43  71 104 129 160 206 272 299
#
# _framework density 18.852802000000001
#
# number of rings (size 3 to 8) (size 9 to 14) (size 15 to 20)
#    0.000    2.333    1.667    2.500    4.667    0.000 
#    0.000    0.000    0.000    0.000    0.000   11.667 
#    0.000    0.000    0.000    0.000    0.000    0.000 
#
# Total GULP energy -297383.068256 kJ/mol
# GULP energy per Si atom -12390.961177 kJ/mol
# Density = 1.880989 g / cm^3
# Si number density = 18.852802 Si / 1000 Ang^3
#
#
#
# Elastic Constant Matrix: (Units=GPa)
#
#
# Indices 1 2 3 4 5 6 
#
# 1 34.2562 5.0703 10.5471 0.0000 11.6422 0.0000
# 2 5.0703 90.6983 32.3638 0.0000 0.7572 0.0000
# 3 10.5471 32.3638 65.2390 0.0000 -7.1401 0.0000
# 4 0.0000 0.0000 0.0000 35.8734 0.0000 -5.5431
# 5 11.6422 0.7572 -7.1401 0.0000 15.8440 0.0000
# 6 0.0000 0.0000 0.0000 -5.5431 0.0000 17.7194
#
#
#
# Elastic Compliance Matrix: (Units=1/GPa)
#
#
# Indices 1 2 3 4 5 6 
#
# 1 0.046551 0.002419 -0.013130 0.000000 -0.040238 0.000000
# 2 0.002419 0.013747 -0.007865 0.000000 -0.005978 0.000000
# 3 -0.013130 -0.007865 0.023614 0.000000 0.020665 0.000000
# 4 0.000000 0.000000 0.000000 0.029292 0.000000 0.009163
# 5 -0.040238 -0.005978 0.020665 0.000000 0.102281 0.000000
# 6 0.000000 0.000000 0.000000 0.009163 0.000000 0.059302
#
#
# Mechanical properties :
#
#
# Convention : Reuss Voigt Hill
#
# Bulk Modulus (GPa) = 21.38546 31.79510 26.59028
# Shear Modulus (GPa) = 15.26601 23.36818 19.31709
#
# Velocity S-wave (km/s) = 2.84869 3.52448 3.20445
# Velocity P-wave (km/s) = 4.71042 5.78482 5.27505
#
# Compressibility (1/GPa) = 0.04676075
#
# Stress axis : x y z
#
# Youngs Moduli (GPa) = 21.48160 72.74502 42.34749
#
# Poissons Ratio (x) = -0.17594 0.55601
# Poissons Ratio (y) = -0.05196 0.33305
# Poissons Ratio (z) = 0.28204 0.57212
#
# Static dielectric constant tensor:
#      x y z
#    x 2.788460 0.000000 -0.196520 
#    y 0.000000 3.973540 0.000000 
#    z -0.196520 0.000000 3.664010 
# 
# 
# High freq. dielectric constant tensor:
#      x y z
#    x 1.650730 0.000000 -0.027530 
#    y 0.000000 1.751060 0.000000 
#    z -0.027530 0.000000 1.741860 
# 
# From -- ./inp_files/55229.got.cif
#   From: 2010.06.25/outbox.cif.g09.slc.cpg/sg15_28_cif.got.tgz:55229.got - 2010.06.28 07:06:18.
