data_PCOD8130536
_publ_section_title
;
Structure prediction by ZEFSAII (Michael W. Deem and Ramdas Pophale) SiO2 
 PCOD8130536
Probable space group: C 2/C
;
_chemical_formula_sum "Si O2"
_cell_formula_units_Z 48
_cell_length_a 20.893160
_cell_length_b 26.879785
_cell_length_c 9.820019
_cell_angle_alpha 90.000000
_cell_angle_beta 28.577588
_cell_angle_gamma 90.000000
_cell_volume 2638.071502
_symmetry_space_group_name_H-M "C 2/C"
_symmetry_group_IT_number 15
_symmetry_cell_setting 'monoclinic'
loop_
_space_group_symop_operation_xyz
x,y,z
-x,y,1/2-z
-x,-y,-z
x,-y,1/2+z
1/2+x,1/2+y,z
1/2-x,1/2+y,1/2-z
1/2-x,1/2-y,-z
1/2+x,1/2-y,1/2+z
loop_
_atom_site_type_symbol
_atom_site_label
_atom_site_fract_x
_atom_site_fract_y
_atom_site_fract_z
Si Si1 0.900579 0.955505 0.316444
Si Si2 0.780689 0.152276 0.390141
Si Si3 0.241745 0.635441 0.151690
Si Si4 0.996948 0.698209 0.596814
Si Si5 0.582932 0.434491 0.722147
Si Si6 0.033151 0.211865 0.842648
O O1 0.770335 0.920439 0.549196
O O2 0.000000 0.936944 0.250000
O O3 0.850016 0.011910 0.438806
O O4 0.976794 0.947506 0.034842
O O5 0.759421 0.132923 0.279432
O O6 0.651441 0.184182 0.678520
O O7 0.804107 0.105157 0.445869
O O8 0.910127 0.186920 0.151901
O O9 0.089669 0.649701 0.402480
O O10 0.342420 0.674285 0.891586
O O11 0.000000 0.715293 0.750000
O O12 0.064198 0.740133 0.376294
O O13 0.500000 0.412701 0.750000
O O14 0.000000 0.228097 0.750000
#
# Coordination Sequence:
#
# PCOD8130536 Si02
#       6
#     8   8   8   8   8   8
#     4  10  17  34  57  78 105 133 173 216 253 308
#     4  10  19  36  54  77 108 137 170 214 261 306
#     4  10  18  35  57  76 101 143 177 202 257 320
#     4  10  22  35  53  77 106 139 174 213 258 309
#     4  10  20  31  54  86 104 128 172 222 259 293
#     4  10  19  35  55  74 101 141 178 214 256 301
#
# _framework density 18.195108999999999
#
# number of rings (size 3 to 8) (size 9 to 14) (size 15 to 20)
#    0.000    2.000    3.333    1.500    0.000    0.667 
#    3.000    0.833    0.000    0.000    0.000    0.000 
#    0.000    0.000    0.000    0.000    0.000    0.000 
#
# Total GULP energy -297516.230423 kJ/mol
# GULP energy per Si atom -12396.509601 kJ/mol
# Density = 1.815370 g / cm^3
# Si number density = 18.195109 Si / 1000 Ang^3
#
#
#
# Elastic Constant Matrix: (Units=GPa)
#
#
# Indices 1 2 3 4 5 6 
#
# 1 67.2460 37.0286 27.9355 -0.0024 1.7096 0.0013
# 2 37.0286 97.7475 31.4866 0.0013 1.6122 0.0002
# 3 27.9355 31.4866 75.1455 -0.0071 -6.8486 0.0035
# 4 -0.0024 0.0013 -0.0071 21.4072 0.0035 6.2889
# 5 1.7096 1.6122 -6.8486 0.0035 19.3439 -0.0022
# 6 0.0013 0.0002 0.0035 6.2889 -0.0022 28.5861
#
#
#
# Elastic Compliance Matrix: (Units=1/GPa)
#
#
# Indices 1 2 3 4 5 6 
#
# 1 0.020484 -0.005964 -0.005411 0.000002 -0.003229 -0.000001
# 2 -0.005964 0.013715 -0.003705 -0.000003 -0.001928 0.000001
# 3 -0.005411 -0.003705 0.017508 0.000005 0.006986 -0.000002
# 4 0.000002 -0.000003 0.000005 0.049941 -0.000008 -0.010987
# 5 -0.003229 -0.001928 0.006986 -0.000008 0.054615 0.000005
# 6 -0.000001 0.000001 -0.000002 -0.010987 0.000005 0.037399
#
#
# Mechanical properties :
#
#
# Convention : Reuss Voigt Hill
#
# Bulk Modulus (GPa) = 46.40753 48.11561 47.26157
# Shear Modulus (GPa) = 21.64458 23.44667 22.54563
#
# Velocity S-wave (km/s) = 3.45277 3.59364 3.52391
# Velocity P-wave (km/s) = 6.43866 6.61216 6.52599
#
# Compressibility (1/GPa) = 0.02154823
#
# Stress axis : x y z
#
# Youngs Moduli (GPa) = 48.81760 72.91277 57.11633
#
# Poissons Ratio (x) = 0.43484 0.30903
# Poissons Ratio (y) = 0.29114 0.21164
# Poissons Ratio (z) = 0.26413 0.27017
#
# Static dielectric constant tensor:
#      x y z
#    x 2.850170 0.000000 -0.326250 
#    y 0.000000 3.537700 0.000000 
#    z -0.326250 0.000000 3.038750 
# 
# 
# High freq. dielectric constant tensor:
#      x y z
#    x 1.693550 0.000000 0.010550 
#    y 0.000000 1.706530 0.000000 
#    z 0.010550 0.000000 1.689330 
# 
# From -- ./inp_files/52730.got.cif
#   From: 2010.06.25/outbox.cif.g09.slc.cpg/sg15_27_cif.got.tgz:52730.got - 2010.06.28 07:06:18.
