data_PCOD8130010
_publ_section_title
;
Structure prediction by ZEFSAII (Michael W. Deem and Ramdas Pophale) SiO2 
 PCOD8130010
Probable space group: C 2/C
;
_chemical_formula_sum "Si O2"
_cell_formula_units_Z 52
_cell_length_a 11.871612
_cell_length_b 22.434606
_cell_length_c 13.605505
_cell_angle_alpha 90.000000
_cell_angle_beta 133.816057
_cell_angle_gamma 90.000000
_cell_volume 2614.682775
_symmetry_space_group_name_H-M "C 2/C"
_symmetry_group_IT_number 15
_symmetry_cell_setting 'monoclinic'
loop_
_space_group_symop_operation_xyz
x,y,z
-x,y,1/2-z
-x,-y,-z
x,-y,1/2+z
1/2+x,1/2+y,z
1/2-x,1/2+y,1/2-z
1/2-x,1/2-y,-z
1/2+x,1/2-y,1/2+z
loop_
_atom_site_type_symbol
_atom_site_label
_atom_site_fract_x
_atom_site_fract_y
_atom_site_fract_z
Si Si1 0.446447 0.297058 0.106558
Si Si2 0.500000 0.867089 0.250000
Si Si3 0.245011 0.862845 0.228008
Si Si4 0.909030 0.436767 0.837502
Si Si5 0.145541 0.542451 0.983127
Si Si6 0.177381 0.985782 0.090219
Si Si7 0.629026 0.833242 0.984546
O O1 0.500000 0.284436 0.250000
O O2 0.574303 0.333813 0.123178
O O3 0.283412 0.333931 0.008138
O O4 0.427794 0.234661 0.039389
O O5 0.352261 0.830839 0.206488
O O6 0.457528 0.907690 0.131444
O O7 0.326642 0.858137 0.382149
O O8 0.229273 0.932560 0.193304
O O9 0.787643 0.457185 0.680381
O O10 0.053661 0.480949 0.934511
O O11 0.813397 0.434234 0.882959
O O12 0.986468 0.372958 0.855916
O O13 0.300728 0.531374 0.011344
O O14 0.000000 0.000000 0.000000
#
# Coordination Sequence:
#
# PCOD8130010 Si02
#       7
#     8   4   8   8   8   8   8
#     4   9  21  38  57  89 119 149 198 254 300 347
#     4  10  16  36  60  80 114 154 182 236 286 362
#     4  10  19  39  59  80 118 154 188 243 301 353
#     4  11  19  35  61  85 112 157 195 241 297 369
#     4  10  19  35  56  85 113 148 197 231 296 363
#     4  11  24  38  54  89 122 156 197 251 307 357
#     4  10  20  37  61  85 114 154 199 246 298 353
#
# _framework density 19.887689999999999
#
# number of rings (size 3 to 8) (size 9 to 14) (size 15 to 20)
#    0.000    1.846    4.615    0.923    2.154    1.846 
#    8.308    0.769    0.000    0.000    0.000    0.000 
#    0.000    0.000    0.000    0.000    0.000    0.000 
#
# Total GULP energy -322256.714946 kJ/mol
# GULP energy per Si atom -12394.489036 kJ/mol
# Density = 1.984243 g / cm^3
# Si number density = 19.887690 Si / 1000 Ang^3
#
#
#
# Elastic Constant Matrix: (Units=GPa)
#
#
# Indices 1 2 3 4 5 6 
#
# 1 173.6209 62.6083 39.6533 0.0000 17.2247 0.0000
# 2 62.6083 76.0839 29.6223 0.0000 9.9343 0.0000
# 3 39.6533 29.6223 50.4886 0.0000 11.2007 0.0000
# 4 0.0000 0.0000 0.0000 27.6535 0.0000 10.2851
# 5 17.2247 9.9343 11.2007 0.0000 36.3684 0.0000
# 6 0.0000 0.0000 0.0000 10.2851 0.0000 24.0488
#
#
#
# Elastic Compliance Matrix: (Units=1/GPa)
#
#
# Indices 1 2 3 4 5 6 
#
# 1 0.008697 -0.005738 -0.003111 0.000000 -0.001594 0.000000
# 2 -0.005738 0.020917 -0.007622 0.000000 -0.000649 0.000000
# 3 -0.003111 -0.007622 0.027835 0.000000 -0.005017 0.000000
# 4 0.000000 0.000000 0.000000 0.043002 0.000000 -0.018391
# 5 -0.001594 -0.000649 -0.005017 0.000000 0.029974 0.000000
# 6 0.000000 0.000000 0.000000 -0.018391 0.000000 0.049447
#
#
# Mechanical properties :
#
#
# Convention : Reuss Voigt Hill
#
# Bulk Modulus (GPa) = 40.80313 62.66235 51.73274
# Shear Modulus (GPa) = 22.62625 28.83477 25.73051
#
# Velocity S-wave (km/s) = 3.37664 3.81186 3.60083
# Velocity P-wave (km/s) = 5.98027 7.13794 6.58460
#
# Compressibility (1/GPa) = 0.02450792
#
# Stress axis : x y z
#
# Youngs Moduli (GPa) = 114.97836 47.80786 35.92631
#
# Poissons Ratio (x) = 0.27430 0.11176
# Poissons Ratio (y) = 0.65970 0.27383
# Poissons Ratio (z) = 0.35768 0.36440
#
# Static dielectric constant tensor:
#      x y z
#    x 4.106460 0.000000 0.027800 
#    y 0.000000 3.431950 0.000000 
#    z 0.027800 0.000000 3.443490 
# 
# 
# High freq. dielectric constant tensor:
#      x y z
#    x 1.796250 0.000000 0.000210 
#    y 0.000000 1.749530 0.000000 
#    z 0.000210 0.000000 1.753670 
# 
# From -- ./inp_files/147229.got.cif
#   From: 2010.06.25/outbox.cif.g09.slc.cpg/sg15_74_cif.got.tgz:147229.got - 2010.06.28 07:06:18.
