data_PCOD8130782
_publ_section_title
;
Structure prediction by ZEFSAII (Michael W. Deem and Ramdas Pophale) SiO2 
 PCOD8130782
Probable space group: C 2/C
;
_chemical_formula_sum "Si O2"
_cell_formula_units_Z 64
_cell_length_a 21.541234
_cell_length_b 9.010484
_cell_length_c 22.252682
_cell_angle_alpha 90.000000
_cell_angle_beta 54.629344
_cell_angle_gamma 90.000000
_cell_volume 3521.962644
_symmetry_space_group_name_H-M "C 2/C"
_symmetry_group_IT_number 15
_symmetry_cell_setting 'monoclinic'
loop_
_space_group_symop_operation_xyz
x,y,z
-x,y,1/2-z
-x,-y,-z
x,-y,1/2+z
1/2+x,1/2+y,z
1/2-x,1/2+y,1/2-z
1/2-x,1/2-y,-z
1/2+x,1/2-y,1/2+z
loop_
_atom_site_type_symbol
_atom_site_label
_atom_site_fract_x
_atom_site_fract_y
_atom_site_fract_z
Si Si1 0.132349 0.518971 0.931167
Si Si2 0.486470 0.592380 0.946979
Si Si3 0.493687 0.067089 0.084102
Si Si4 0.953428 0.590788 0.716272
Si Si5 0.250160 0.849808 0.700439
Si Si6 0.587473 0.622755 0.329038
Si Si7 0.713709 0.980719 0.203363
Si Si8 0.840064 0.156815 0.081021
O O1 0.199155 0.396511 0.885942
O O2 0.179264 0.670370 0.915324
O O3 0.077286 0.525129 0.903486
O O4 0.074325 0.493325 0.018976
O O5 0.516109 0.762517 0.932268
O O6 0.526293 0.512707 0.867391
O O7 0.500000 0.500000 0.000000
O O8 0.394165 0.602230 0.995557
O O9 0.489991 0.045517 0.158039
O O10 0.957309 0.738190 0.673243
O O11 0.867226 0.549170 0.781731
O O12 0.000000 0.619131 0.750000
O O13 0.162821 0.911450 0.746100
O O14 0.251639 0.672424 0.704116
O O15 0.292896 0.912645 0.735301
O O16 0.616942 0.647987 0.379506
O O17 0.764639 0.057110 0.123196
#
# Coordination Sequence:
#
# PCOD8130782 Si02
#       8
#     8   8   8   8   8   8   8   8
#     4  10  18  30  51  80 114 129 165 230 286 322
#     4   9  19  30  52  83 112 139 165 224 294 329
#     4  10  20  32  51  81 110 141 182 217 271 336
#     4  11  22  38  54  73 112 157 191 215 249 331
#     4  10  18  28  48  77 107 133 165 231 284 320
#     4   9  18  32  49  77 107 141 182 219 273 323
#     4  10  20  31  51  79 107 138 182 219 282 327
#     4   9  17  31  50  80 111 129 164 232 284 326
#
# _framework density 18.171686000000001
#
# number of rings (size 3 to 8) (size 9 to 14) (size 15 to 20)
#    0.000    2.250    2.500    1.500    7.000    1.000 
#    0.000    0.625    0.000    9.750    0.000    0.000 
#    0.000    0.000    0.000    0.000    0.000    0.000 
#
# Total GULP energy -396422.838276 kJ/mol
# GULP energy per Si atom -12388.213696 kJ/mol
# Density = 1.813033 g / cm^3
# Si number density = 18.171686 Si / 1000 Ang^3
#
#
#
# Elastic Constant Matrix: (Units=GPa)
#
#
# Indices 1 2 3 4 5 6 
#
# 1 63.3092 34.2562 34.1971 0.0003 -9.5246 0.0008
# 2 34.2562 76.1756 42.7121 0.0010 -18.3157 0.0026
# 3 34.1971 42.7121 91.5044 -0.0001 -28.0624 0.0003
# 4 0.0003 0.0010 -0.0001 32.7671 -0.0001 -7.9547
# 5 -9.5246 -18.3157 -28.0624 -0.0001 25.6528 0.0001
# 6 0.0008 0.0026 0.0003 -7.9547 0.0001 13.6624
#
#
#
# Elastic Compliance Matrix: (Units=1/GPa)
#
#
# Indices 1 2 3 4 5 6 
#
# 1 0.022650 -0.007705 -0.005984 0.000000 -0.003637 0.000000
# 2 -0.007705 0.020922 -0.004789 -0.000002 0.006838 -0.000004
# 3 -0.005984 -0.004789 0.020572 0.000001 0.016863 0.000001
# 4 0.000000 -0.000002 0.000001 0.035542 0.000000 0.020694
# 5 -0.003637 0.006838 0.016863 0.000000 0.060961 -0.000002
# 6 0.000000 -0.000004 0.000001 0.020694 -0.000002 0.085242
#
#
# Mechanical properties :
#
#
# Convention : Reuss Voigt Hill
#
# Bulk Modulus (GPa) = 36.78176 50.36886 43.57531
# Shear Modulus (GPa) = 17.12880 22.40471 19.76675
#
# Velocity S-wave (km/s) = 3.07352 3.51514 3.30173
# Velocity P-wave (km/s) = 5.73416 6.65233 6.21024
#
# Compressibility (1/GPa) = 0.02718739
#
# Stress axis : x y z
#
# Youngs Moduli (GPa) = 44.15108 47.79646 48.61069
#
# Poissons Ratio (x) = 0.36827 0.29086
# Poissons Ratio (y) = 0.34019 0.23281
# Poissons Ratio (z) = 0.26418 0.22891
#
# Static dielectric constant tensor:
#      x y z
#    x 2.854010 0.000000 -0.543990 
#    y 0.000000 3.489760 0.000000 
#    z -0.543990 0.000000 3.740840 
# 
# 
# High freq. dielectric constant tensor:
#      x y z
#    x 1.635010 0.000000 -0.050060 
#    y 0.000000 1.711430 0.000000 
#    z -0.050060 0.000000 1.709330 
# 
# From -- ./inp_files/279383.got.cif
#   From: 2010.06.25/outbox.cif.g09.slc.cpg/sg15_140_cif.got.tgz:279383.got - 2010.06.28 07:06:18.
