data_PCOD8130470
_publ_section_title
;
Structure prediction by ZEFSAII (Michael W. Deem and Ramdas Pophale) SiO2 
 PCOD8130470
Probable space group: C 2/C
;
_chemical_formula_sum "Si O2"
_cell_formula_units_Z 56
_cell_length_a 18.895022
_cell_length_b 19.135477
_cell_length_c 8.889698
_cell_angle_alpha 90.000000
_cell_angle_beta 65.364461
_cell_angle_gamma 90.000000
_cell_volume 2921.641625
_symmetry_space_group_name_H-M "C 2/C"
_symmetry_group_IT_number 15
_symmetry_cell_setting 'monoclinic'
loop_
_space_group_symop_operation_xyz
x,y,z
-x,y,1/2-z
-x,-y,-z
x,-y,1/2+z
1/2+x,1/2+y,z
1/2-x,1/2+y,1/2-z
1/2-x,1/2-y,-z
1/2+x,1/2-y,1/2+z
loop_
_atom_site_type_symbol
_atom_site_label
_atom_site_fract_x
_atom_site_fract_y
_atom_site_fract_z
Si Si1 0.622835 0.864748 0.588506
Si Si2 0.557211 0.014196 0.581605
Si Si3 0.333088 0.319605 0.749260
Si Si4 0.247345 0.206428 0.657850
Si Si5 0.172108 0.370294 0.880635
Si Si6 0.464421 0.273686 0.434427
Si Si7 0.884322 0.773652 0.016627
O O1 0.702657 0.863806 0.418464
O O2 0.643070 0.847551 0.741962
O O3 0.565538 0.804818 0.576032
O O4 0.585591 0.940457 0.619627
O O5 0.500000 0.052908 0.750000
O O6 0.632520 0.059549 0.475694
O O7 0.500000 0.000000 0.500000
O O8 0.287205 0.247589 0.760571
O O9 0.266495 0.380531 0.800414
O O10 0.396458 0.325013 0.557621
O O11 0.373947 0.320730 0.876459
O O12 0.250000 0.250000 0.500000
O O13 0.161228 0.191439 0.798808
O O14 0.145902 0.303789 0.002814
O O15 0.500000 0.306598 0.250000
O O16 0.526009 0.269172 0.515243
#
# Coordination Sequence:
#
# PCOD8130470 Si02
#       7
#     8   8   8   8   8   8   8
#     4  11  21  38  56  79 114 157 195 227 270 339
#     4  12  25  38  56  81 113 156 199 228 265 324
#     4  10  22  34  54  84 114 147 185 240 296 337
#     4  10  17  33  58  77 104 149 192 229 282 342
#     4  11  21  39  55  76 119 154 194 236 274 333
#     4  11  20  34  59  83 114 150 188 228 288 349
#     4  11  20  34  54  87 115 144 187 240 297 335
#
# _framework density 19.167306
#
# number of rings (size 3 to 8) (size 9 to 14) (size 15 to 20)
#    0.000    1.143    5.714    4.286    0.000    4.571 
#    0.000    0.000    0.000    0.000    0.000    1.000 
#    0.000    0.000    0.000    0.000    0.000    0.000 
#
# Total GULP energy -346911.333153 kJ/mol
# GULP energy per Si atom -12389.690470 kJ/mol
# Density = 1.912368 g / cm^3
# Si number density = 19.167306 Si / 1000 Ang^3
#
#
#
# Elastic Constant Matrix: (Units=GPa)
#
#
# Indices 1 2 3 4 5 6 
#
# 1 131.0717 31.6006 56.4215 0.0000 -3.8229 0.0000
# 2 31.6006 43.4419 39.4075 0.0000 -13.5298 0.0000
# 3 56.4215 39.4075 124.1562 0.0000 -14.4895 0.0000
# 4 0.0000 0.0000 0.0000 24.3521 0.0000 -10.4787
# 5 -3.8229 -13.5298 -14.4895 0.0000 43.3011 0.0000
# 6 0.0000 0.0000 0.0000 -10.4787 0.0000 26.5999
#
#
#
# Elastic Compliance Matrix: (Units=1/GPa)
#
#
# Indices 1 2 3 4 5 6 
#
# 1 0.010182 -0.005012 -0.003240 0.000000 -0.001752 0.000000
# 2 -0.005012 0.036930 -0.008480 0.000000 0.008259 0.000000
# 3 -0.003240 -0.008480 0.012359 0.000000 0.001200 0.000000
# 4 0.000000 0.000000 0.000000 0.049446 0.000000 0.019478
# 5 -0.001752 0.008259 0.001200 0.000000 0.025921 0.000000
# 6 0.000000 0.000000 0.000000 0.019478 0.000000 0.045267
#
#
# Mechanical properties :
#
#
# Convention : Reuss Voigt Hill
#
# Bulk Modulus (GPa) = 38.45474 61.50323 49.97899
# Shear Modulus (GPa) = 22.49832 30.26665 26.38249
#
# Velocity S-wave (km/s) = 3.42977 3.97807 3.71405
# Velocity P-wave (km/s) = 5.98253 7.29776 6.67263
#
# Compressibility (1/GPa) = 0.02600460
#
# Stress axis : x y z
#
# Youngs Moduli (GPa) = 98.21573 27.07816 80.91571
#
# Poissons Ratio (x) = 0.13573 0.26220
# Poissons Ratio (y) = 0.49230 0.68617
# Poissons Ratio (z) = 0.31826 0.22962
#
# Static dielectric constant tensor:
#      x y z
#    x 3.844690 0.000000 -0.310790 
#    y 0.000000 2.819250 0.000000 
#    z -0.310790 0.000000 3.788400 
# 
# 
# High freq. dielectric constant tensor:
#      x y z
#    x 1.764790 0.000000 -0.003640 
#    y 0.000000 1.666140 0.000000 
#    z -0.003640 0.000000 1.766140 
# 
# From -- ./inp_files/57460.got.cif
#   From: 2010.06.25/outbox.cif.g09.slc.cpg/sg15_29_cif.got.tgz:57460.got - 2010.06.28 07:06:18.
