data_PCOD8131846
_publ_section_title
;
Structure prediction by ZEFSAII (Michael W. Deem and Ramdas Pophale) SiO2 
 PCOD8131846
Probable space group: C 2/C
;
_chemical_formula_sum "Si O2"
_cell_formula_units_Z 60
_cell_length_a 18.043501
_cell_length_b 19.572887
_cell_length_c 8.400372
_cell_angle_alpha 90.000000
_cell_angle_beta 82.589025
_cell_angle_gamma 90.000000
_cell_volume 2941.921548
_symmetry_space_group_name_H-M "C 2/C"
_symmetry_group_IT_number 15
_symmetry_cell_setting 'monoclinic'
loop_
_space_group_symop_operation_xyz
x,y,z
-x,y,1/2-z
-x,-y,-z
x,-y,1/2+z
1/2+x,1/2+y,z
1/2-x,1/2+y,1/2-z
1/2-x,1/2-y,-z
1/2+x,1/2-y,1/2+z
loop_
_atom_site_type_symbol
_atom_site_label
_atom_site_fract_x
_atom_site_fract_y
_atom_site_fract_z
Si Si1 0.500000 0.409613 0.750000
Si Si2 0.947940 0.196469 0.016841
Si Si3 0.649475 0.423486 0.590343
Si Si4 0.799568 0.588043 0.633862
Si Si5 0.761038 0.028305 0.150815
Si Si6 0.805274 0.208392 0.864722
Si Si7 0.583047 0.181186 0.758754
Si Si8 0.616476 0.724721 0.961802
O O1 0.547758 0.362352 0.854459
O O2 0.563971 0.452077 0.640536
O O3 0.914400 0.263357 0.105399
O O4 0.883041 0.177575 0.910888
O O5 0.030921 0.211939 0.924896
O O6 0.684491 0.478719 0.463011
O O7 0.692110 0.421648 0.747974
O O8 0.648148 0.346471 0.523738
O O9 0.792734 0.574125 0.446246
O O10 0.791592 0.517003 0.725361
O O11 0.736641 0.643088 0.694744
O O12 0.877458 0.615784 0.676883
O O13 0.831797 0.250570 0.700245
O O14 0.750000 0.250000 0.000000
O O15 0.500000 0.155710 0.750000
O O16 0.620125 0.214159 0.589969
#
# Coordination Sequence:
#
# PCOD8131846 Si02
#       8
#     4   8   8   8   8   8   8   8
#     4  10  18  34  62  80 120 166 198 244 300 360
#     4  10  18  36  59  91 127 158 187 244 315 365
#     4  10  19  38  58  83 119 168 202 244 297 355
#     4  11  23  41  61  88 120 161 204 255 300 354
#     4  10  23  40  58  81 126 161 210 251 291 346
#     4  12  23  36  60  98 121 155 203 254 308 372
#     4  10  20  41  67  92 118 155 197 254 320 374
#     4  10  21  39  60  88 129 161 193 251 321 366
#
# _framework density 20.394832000000001
#
# number of rings (size 3 to 8) (size 9 to 14) (size 15 to 20)
#    0.000    1.600    6.000    1.200    0.000    1.067 
#    7.200    2.000    0.000    0.000    0.000    0.000 
#    0.000    0.000    0.000    0.000    0.000    0.000 
#
# Total GULP energy -371688.726838 kJ/mol
# GULP energy per Si atom -12389.624228 kJ/mol
# Density = 2.034841 g / cm^3
# Si number density = 20.394832 Si / 1000 Ang^3
#
#
#
# Elastic Constant Matrix: (Units=GPa)
#
#
# Indices 1 2 3 4 5 6 
#
# 1 102.8345 39.6417 49.5523 0.0000 16.9525 0.0000
# 2 39.6417 51.8922 27.9690 0.0000 4.7638 0.0000
# 3 49.5523 27.9690 112.5399 0.0000 -7.4934 0.0000
# 4 0.0000 0.0000 0.0000 26.7689 0.0000 9.9375
# 5 16.9525 4.7638 -7.4934 0.0000 29.3021 0.0000
# 6 0.0000 0.0000 0.0000 9.9375 0.0000 37.9685
#
#
#
# Elastic Compliance Matrix: (Units=1/GPa)
#
#
# Indices 1 2 3 4 5 6 
#
# 1 0.018201 -0.009503 -0.006359 0.000000 -0.010611 0.000000
# 2 -0.009503 0.027994 -0.002757 0.000000 0.000242 0.000000
# 3 -0.006359 -0.002757 0.012865 0.000000 0.007417 0.000000
# 4 0.000000 0.000000 0.000000 0.041377 0.000000 -0.010830
# 5 -0.010611 0.000242 0.007417 0.000000 0.042124 0.000000
# 6 0.000000 0.000000 0.000000 -0.010830 0.000000 0.029172
#
#
# Mechanical properties :
#
#
# Convention : Reuss Voigt Hill
#
# Bulk Modulus (GPa) = 45.82470 55.73250 50.77860
# Shear Modulus (GPa) = 23.12204 28.81480 25.96842
#
# Velocity S-wave (km/s) = 3.37073 3.76287 3.57218
# Velocity P-wave (km/s) = 6.13732 6.80184 6.47810
#
# Compressibility (1/GPa) = 0.02182229
#
# Stress axis : x y z
#
# Youngs Moduli (GPa) = 54.94200 35.72219 77.73225
#
# Poissons Ratio (x) = 0.33946 0.49430
# Poissons Ratio (y) = 0.52210 0.21430
# Poissons Ratio (z) = 0.34937 0.09848
#
# Static dielectric constant tensor:
#      x y z
#    x 3.776460 0.000000 0.078050 
#    y 0.000000 3.431710 0.000000 
#    z 0.078050 0.000000 3.797840 
# 
# 
# High freq. dielectric constant tensor:
#      x y z
#    x 1.798600 0.000000 0.007650 
#    y 0.000000 1.767490 0.000000 
#    z 0.007650 0.000000 1.805560 
# 
# From -- ./inp_files/50218.got.cif
#   From: 2010.06.25/outbox.cif.g09.slc.cpg/sg15_26_cif.got.tgz:50218.got - 2010.06.28 07:06:18.
