data_PCOD8131320
_publ_section_title
;
Structure prediction by ZEFSAII (Michael W. Deem and Ramdas Pophale) SiO2 
 PCOD8131320
Probable space group: C 2/C
;
_chemical_formula_sum "Si O2"
_cell_formula_units_Z 52
_cell_length_a 18.326607
_cell_length_b 22.135897
_cell_length_c 11.379812
_cell_angle_alpha 90.000000
_cell_angle_beta 32.000781
_cell_angle_gamma 90.000000
_cell_volume 2446.433758
_symmetry_space_group_name_H-M "C 2/C"
_symmetry_group_IT_number 15
_symmetry_cell_setting 'monoclinic'
loop_
_space_group_symop_operation_xyz
x,y,z
-x,y,1/2-z
-x,-y,-z
x,-y,1/2+z
1/2+x,1/2+y,z
1/2-x,1/2+y,1/2-z
1/2-x,1/2-y,-z
1/2+x,1/2-y,1/2+z
loop_
_atom_site_type_symbol
_atom_site_label
_atom_site_fract_x
_atom_site_fract_y
_atom_site_fract_z
Si Si1 0.297964 0.833482 0.177778
Si Si2 0.640533 0.895753 0.917780
Si Si3 0.000000 0.589550 0.250000
Si Si4 0.594212 0.641752 0.761324
Si Si5 0.182573 0.802365 0.915072
Si Si6 0.178738 0.595162 0.629112
Si Si7 0.257508 0.036662 0.433214
O O1 0.156366 0.849048 0.304998
O O2 0.333326 0.763242 0.117986
O O3 0.274518 0.851702 0.345887
O O4 0.425389 0.869547 0.948803
O O5 0.667190 0.830316 0.820209
O O6 0.720640 0.945896 0.732517
O O7 0.483196 0.915194 0.131991
O O8 0.705880 0.887949 0.957555
O O9 0.107303 0.547819 0.171892
O O10 0.661502 0.693901 0.584876
O O11 0.630269 0.574852 0.661527
O O12 0.431139 0.652441 0.988172
O O13 0.267804 0.534958 0.533583
#
# Coordination Sequence:
#
# PCOD8131320 Si02
#       7
#     8   8   4   8   8   8   8
#     4  11  22  33  62  91 120 153 204 250 297 352
#     4  10  22  38  59  83 124 163 192 245 307 350
#     4  10  18  32  56  94 114 150 194 258 306 334
#     4   9  21  38  62  90 118 159 197 250 305 343
#     4  10  21  40  61  84 126 157 200 245 300 364
#     4  11  23  36  59  93 117 159 203 244 300 360
#     4  10  20  36  61  87 121 148 199 258 300 350
#
# _framework density 21.255428999999999
#
# number of rings (size 3 to 8) (size 9 to 14) (size 15 to 20)
#    0.000    1.846    1.538    2.769    6.462    0.615 
#    0.000    1.538    6.769    0.000    0.000    0.000 
#    0.000    0.000    0.000    0.000    0.000    0.000 
#
# Total GULP energy -322298.497985 kJ/mol
# GULP energy per Si atom -12396.096076 kJ/mol
# Density = 2.120705 g / cm^3
# Si number density = 21.255429 Si / 1000 Ang^3
#
#
#
# Elastic Constant Matrix: (Units=GPa)
#
#
# Indices 1 2 3 4 5 6 
#
# 1 101.1423 13.6199 10.8391 -0.0034 24.9827 0.0039
# 2 13.6199 113.9582 15.7255 -0.0012 7.1525 0.0033
# 3 10.8391 15.7255 44.5952 -0.0051 9.4121 0.0090
# 4 -0.0034 -0.0012 -0.0051 12.1690 0.0051 0.4790
# 5 24.9827 7.1525 9.4121 0.0051 35.2716 -0.0063
# 6 0.0039 0.0033 0.0090 0.4790 -0.0063 27.3350
#
#
#
# Elastic Compliance Matrix: (Units=1/GPa)
#
#
# Indices 1 2 3 4 5 6 
#
# 1 0.012113 -0.000806 -0.000936 0.000006 -0.008166 -0.000003
# 2 -0.000806 0.009315 -0.002978 0.000000 -0.000523 0.000000
# 3 -0.000936 -0.002978 0.024833 0.000012 -0.005359 -0.000009
# 4 0.000006 0.000000 0.000012 0.082233 -0.000020 -0.001441
# 5 -0.008166 -0.000523 -0.005359 -0.000020 0.035672 0.000012
# 6 -0.000003 0.000000 -0.000009 -0.001441 0.000012 0.036608
#
#
# Mechanical properties :
#
#
# Convention : Reuss Voigt Hill
#
# Bulk Modulus (GPa) = 27.15939 37.78497 32.47218
# Shear Modulus (GPa) = 22.47300 29.58920 26.03110
#
# Velocity S-wave (km/s) = 3.25512 3.73510 3.50334
# Velocity P-wave (km/s) = 5.18971 6.03461 5.62804
#
# Compressibility (1/GPa) = 0.03681968
#
# Stress axis : x y z
#
# Youngs Moduli (GPa) = 82.55552 107.34993 40.26909
#
# Poissons Ratio (x) = 0.08652 0.03771
# Poissons Ratio (y) = 0.06653 0.11994
# Poissons Ratio (z) = 0.07730 0.31974
#
# Static dielectric constant tensor:
#      x y z
#    x 4.000580 0.000000 0.147240 
#    y 0.000000 3.702740 0.000000 
#    z 0.147240 0.000000 3.639010 
# 
# 
# High freq. dielectric constant tensor:
#      x y z
#    x 1.839760 0.000000 0.009110 
#    y 0.000000 1.820050 0.000000 
#    z 0.009110 0.000000 1.808860 
# 
# From -- ./inp_files/107469.got.cif
#   From: 2010.06.25/outbox.cif.g09.slc.cpg/sg15_54_cif.got.tgz:107469.got - 2010.06.28 07:06:18.
