data_PCOD8131476
_publ_section_title
;
Structure prediction by ZEFSAII (Michael W. Deem and Ramdas Pophale) SiO2 
 PCOD8131476
Probable space group: C 2/C
;
_chemical_formula_sum "Si O2"
_cell_formula_units_Z 52
_cell_length_a 20.360186
_cell_length_b 11.900727
_cell_length_c 20.984639
_cell_angle_alpha 90.000000
_cell_angle_beta 32.843848
_cell_angle_gamma 90.000000
_cell_volume 2757.639214
_symmetry_space_group_name_H-M "C 2/C"
_symmetry_group_IT_number 15
_symmetry_cell_setting 'monoclinic'
loop_
_space_group_symop_operation_xyz
x,y,z
-x,y,1/2-z
-x,-y,-z
x,-y,1/2+z
1/2+x,1/2+y,z
1/2-x,1/2+y,1/2-z
1/2-x,1/2-y,-z
1/2+x,1/2-y,1/2+z
loop_
_atom_site_type_symbol
_atom_site_label
_atom_site_fract_x
_atom_site_fract_y
_atom_site_fract_z
Si Si1 0.711409 0.620057 0.192273
Si Si2 0.122652 0.452533 0.774159
Si Si3 0.367670 0.524154 0.634031
Si Si4 0.674465 0.838793 0.023199
Si Si5 0.454568 0.194235 0.625502
Si Si6 0.582779 0.223214 0.403632
Si Si7 0.500000 0.987988 0.250000
O O1 0.637640 0.523650 0.289380
O O2 0.647710 0.741129 0.252063
O O3 0.840659 0.629516 0.120875
O O4 0.732970 0.592838 0.099593
O O5 0.267941 0.467201 0.667928
O O6 0.060947 0.560722 0.856528
O O7 0.066800 0.336403 0.848213
O O8 0.082446 0.442049 0.732740
O O9 0.500000 0.500000 0.500000
O O10 0.348540 0.657767 0.657621
O O11 0.582406 0.769838 0.053092
O O12 0.599781 0.916287 0.131502
O O13 0.750000 0.750000 0.000000
O O14 0.458917 0.233260 0.547030
#
# Coordination Sequence:
#
# PCOD8131476 Si02
#       7
#     8   8   8   8   8   8   4
#     4  10  20  33  52  85 111 142 180 239 294 342
#     4  10  21  37  56  83 114 152 202 232 286 349
#     4  11  21  35  58  88 116 147 188 247 301 336
#     4  10  20  32  53  80 111 148 186 235 288 343
#     4  10  18  33  54  82 113 142 184 237 294 342
#     4  10  20  34  56  82 114 146 187 244 285 341
#     4  10  22  38  56  78 114 166 196 234 272 352
#
# _framework density 18.856708000000001
#
# number of rings (size 3 to 8) (size 9 to 14) (size 15 to 20)
#    0.000    1.846    3.077    2.308    2.154    1.231 
#    0.000    0.000    0.000    5.538    0.000    0.000 
#    0.000    0.000    0.000    0.000    0.000    0.000 
#
# Total GULP energy -322110.848394 kJ/mol
# GULP energy per Si atom -12388.878784 kJ/mol
# Density = 1.881379 g / cm^3
# Si number density = 18.856708 Si / 1000 Ang^3
#
#
#
# Elastic Constant Matrix: (Units=GPa)
#
#
# Indices 1 2 3 4 5 6 
#
# 1 113.0897 28.7233 53.7947 0.0001 11.7188 0.0000
# 2 28.7233 65.6089 27.3672 0.0001 13.7890 0.0000
# 3 53.7947 27.3672 131.7607 0.0002 23.3604 -0.0001
# 4 0.0001 0.0001 0.0002 24.4721 -0.0001 3.5972
# 5 11.7188 13.7890 23.3604 -0.0001 37.3686 0.0000
# 6 0.0000 0.0000 -0.0001 3.5972 0.0000 27.5606
#
#
#
# Elastic Compliance Matrix: (Units=1/GPa)
#
#
# Indices 1 2 3 4 5 6 
#
# 1 0.011630 -0.003430 -0.004064 0.000000 0.000159 0.000000
# 2 -0.003430 0.018396 -0.001583 0.000000 -0.004723 0.000000
# 3 -0.004064 -0.001583 0.010401 0.000000 -0.004643 0.000000
# 4 0.000000 0.000000 0.000000 0.041662 0.000000 -0.005438
# 5 0.000159 -0.004723 -0.004643 0.000000 0.031356 0.000000
# 6 0.000000 0.000000 0.000000 -0.005438 0.000000 0.036993
#
#
# Mechanical properties :
#
#
# Convention : Reuss Voigt Hill
#
# Bulk Modulus (GPa) = 44.89751 58.91440 51.90596
# Shear Modulus (GPa) = 28.40608 31.25187 29.82897
#
# Velocity S-wave (km/s) = 3.88547 4.07545 3.98160
# Velocity P-wave (km/s) = 6.63255 7.31142 6.98024
#
# Compressibility (1/GPa) = 0.02227295
#
# Stress axis : x y z
#
# Youngs Moduli (GPa) = 85.98088 54.35824 96.14528
#
# Poissons Ratio (x) = 0.18644 0.39076
# Poissons Ratio (y) = 0.29491 0.15223
# Poissons Ratio (z) = 0.34945 0.08607
#
# Static dielectric constant tensor:
#      x y z
#    x 3.695600 0.000000 0.137240 
#    y 0.000000 3.309570 0.000000 
#    z 0.137240 0.000000 3.826630 
# 
# 
# High freq. dielectric constant tensor:
#      x y z
#    x 1.714050 0.000000 0.004780 
#    y 0.000000 1.704650 0.000000 
#    z 0.004780 0.000000 1.751150 
# 
# From -- ./inp_files/111176.got.cif
#   From: 2010.06.25/outbox.cif.g09.slc.cpg/sg15_56_cif.got.tgz:111176.got - 2010.06.28 07:06:18.
