data_PCOD8131945
_publ_section_title
;
Structure prediction by ZEFSAII (Michael W. Deem and Ramdas Pophale) SiO2 
 PCOD8131945
Probable space group: C 2/C
;
_chemical_formula_sum "Si O2"
_cell_formula_units_Z 56
_cell_length_a 23.939355
_cell_length_b 14.680738
_cell_length_c 22.915412
_cell_angle_alpha 90.000000
_cell_angle_beta 161.986242
_cell_angle_gamma 90.000000
_cell_volume 2490.526624
_symmetry_space_group_name_H-M "C 2/C"
_symmetry_group_IT_number 15
_symmetry_cell_setting 'monoclinic'
loop_
_space_group_symop_operation_xyz
x,y,z
-x,y,1/2-z
-x,-y,-z
x,-y,1/2+z
1/2+x,1/2+y,z
1/2-x,1/2+y,1/2-z
1/2-x,1/2-y,-z
1/2+x,1/2-y,1/2+z
loop_
_atom_site_type_symbol
_atom_site_label
_atom_site_fract_x
_atom_site_fract_y
_atom_site_fract_z
Si Si1 0.872990 0.326419 0.547692
Si Si2 0.948952 0.672290 0.998257
Si Si3 0.857821 0.126933 0.394269
Si Si4 0.614468 0.850835 0.194967
Si Si5 0.227070 0.869037 0.518749
Si Si6 0.798767 0.857975 0.705389
Si Si7 0.910000 0.018124 0.038160
O O1 0.830232 0.354136 0.437779
O O2 0.880872 0.216753 0.561849
O O3 0.722194 0.366326 0.442632
O O4 0.067352 0.365995 0.756388
O O5 0.969938 0.780848 0.015283
O O6 0.859947 0.635237 0.849835
O O7 0.149759 0.635104 0.207557
O O8 0.866185 0.103720 0.334491
O O9 0.950139 0.049072 0.524124
O O10 0.660861 0.748683 0.260075
O O11 0.741385 0.918220 0.355471
O O12 0.412098 0.875442 0.013266
O O13 0.133873 0.961980 0.446963
O O14 0.915026 0.918049 0.775252
#
# Coordination Sequence:
#
# PCOD8131945 Si02
#       7
#     8   8   8   8   8   8   8
#     4  10  18  40  58  82 128 160 211 246 317 368
#     4  10  18  35  56  79 125 165 208 244 324 369
#     4  10  21  34  52  88 117 169 211 253 299 384
#     4  10  22  37  60  86 124 175 205 256 323 383
#     4  10  22  35  61  90 117 174 208 256 305 374
#     4  10  21  39  56  83 127 172 206 260 322 368
#     4  12  21  39  57  90 128 159 225 258 308 376
#
# _framework density 22.485204
#
# number of rings (size 3 to 8) (size 9 to 14) (size 15 to 20)
#    0.000    1.714    4.286    0.429    2.000    2.286 
#    5.143    0.000    0.000    0.000    0.000    4.000 
#    0.000    0.000    0.000    0.000    0.000    0.000 
#
# Total GULP energy -347141.659936 kJ/mol
# GULP energy per Si atom -12397.916426 kJ/mol
# Density = 2.243403 g / cm^3
# Si number density = 22.485204 Si / 1000 Ang^3
#
#
#
# Elastic Constant Matrix: (Units=GPa)
#
#
# Indices 1 2 3 4 5 6 
#
# 1 123.1786 60.9186 34.8275 -0.0638 21.0785 -0.0124
# 2 60.9186 101.3918 33.2642 -0.0286 9.6891 -0.0383
# 3 34.8275 33.2642 54.4303 0.0279 5.3396 -0.0070
# 4 -0.0638 -0.0286 0.0279 37.7287 0.0020 8.7299
# 5 21.0785 9.6891 5.3396 0.0020 11.5198 -0.0298
# 6 -0.0124 -0.0383 -0.0070 8.7299 -0.0298 37.4696
#
#
#
# Elastic Compliance Matrix: (Units=1/GPa)
#
#
# Indices 1 2 3 4 5 6 
#
# 1 0.016284 -0.006174 -0.004434 0.000034 -0.022547 -0.000028
# 2 -0.006174 0.015276 -0.005482 0.000002 0.000990 0.000013
# 3 -0.004434 -0.005482 0.024422 -0.000031 0.001404 0.000006
# 4 0.000034 0.000002 -0.000031 0.028015 -0.000071 -0.006527
# 5 -0.022547 0.000990 0.001404 -0.000071 0.126580 0.000111
# 6 -0.000028 0.000013 0.000006 -0.006527 0.000111 0.028209
#
#
# Mechanical properties :
#
#
# Convention : Reuss Voigt Hill
#
# Bulk Modulus (GPa) = 42.01565 59.66903 50.84234
# Shear Modulus (GPa) = 17.92745 27.34299 22.63522
#
# Velocity S-wave (km/s) = 2.82671 3.49096 3.17625
# Velocity P-wave (km/s) = 5.42035 6.54551 6.00932
#
# Compressibility (1/GPa) = 0.02380065
#
# Stress axis : x y z
#
# Youngs Moduli (GPa) = 61.41035 65.46009 40.94668
#
# Poissons Ratio (x) = 0.40418 0.18156
# Poissons Ratio (y) = 0.37917 0.22449
# Poissons Ratio (z) = 0.27230 0.35888
#
# Static dielectric constant tensor:
#      x y z
#    x 4.196840 -0.000090 0.191620 
#    y -0.000090 3.933890 -0.000180 
#    z 0.191620 -0.000180 3.892560 
# 
# 
# High freq. dielectric constant tensor:
#      x y z
#    x 1.865570 -0.000010 0.020080 
#    y -0.000010 1.872420 -0.000020 
#    z 0.020080 -0.000020 1.885980 
# 
# From -- ./inp_files/282116.got.cif
#   From: 2010.06.25/outbox.cif.g09.slc.cpg/sg15_142_cif.got.tgz:282116.got - 2010.06.28 07:06:18.
