data_PCOD8131215
_publ_section_title
;
Structure prediction by ZEFSAII (Michael W. Deem and Ramdas Pophale) SiO2 
 PCOD8131215
Probable space group: C 2/C
;
_chemical_formula_sum "Si O2"
_cell_formula_units_Z 64
_cell_length_a 22.461869
_cell_length_b 22.676523
_cell_length_c 5.359580
_cell_angle_alpha 90.000000
_cell_angle_beta 71.937200
_cell_angle_gamma 90.000000
_cell_volume 2595.401091
_symmetry_space_group_name_H-M "C 2/C"
_symmetry_group_IT_number 15
_symmetry_cell_setting 'monoclinic'
loop_
_space_group_symop_operation_xyz
x,y,z
-x,y,1/2-z
-x,-y,-z
x,-y,1/2+z
1/2+x,1/2+y,z
1/2-x,1/2+y,1/2-z
1/2-x,1/2-y,-z
1/2+x,1/2-y,1/2+z
loop_
_atom_site_type_symbol
_atom_site_label
_atom_site_fract_x
_atom_site_fract_y
_atom_site_fract_z
Si Si1 0.123930 0.475856 0.112365
Si Si2 0.169354 0.360139 0.161015
Si Si3 0.239239 0.551556 0.907373
Si Si4 0.234784 0.836715 0.861202
Si Si5 0.370578 0.530300 0.580769
Si Si6 0.466022 0.239835 0.043070
Si Si7 0.843929 0.269325 0.963452
Si Si8 0.966570 0.120775 0.540424
O O1 0.089728 0.493046 0.419574
O O2 0.126159 0.404887 0.049535
O O3 0.195900 0.500044 0.088145
O O4 0.188593 0.405585 0.351179
O O5 0.129996 0.304604 0.325239
O O6 0.231105 0.333901 0.949382
O O7 0.275630 0.594195 0.061168
O O8 0.294636 0.527386 0.657075
O O9 0.279043 0.802946 0.000441
O O10 0.169134 0.799574 0.947676
O O11 0.395332 0.509908 0.278257
O O12 0.395809 0.595855 0.611073
O O13 0.500000 0.217240 0.250000
O O14 0.392322 0.222304 0.169212
O O15 0.466737 0.309551 0.033570
O O16 0.500000 0.213971 0.750000
O O17 0.000000 0.097990 0.750000
O O18 0.000000 0.095513 0.250000
#
# Coordination Sequence:
#
# PCOD8131215 Si02
#       8
#     8   8   8   8   8   8   8   8
#     4  10  18  32  52  74 115 156 191 229 268 342
#     4  10  20  34  55  84 121 162 194 241 299 355
#     4  10  21  35  51  82 118 159 202 232 288 356
#     4  10  20  37  58  86 128 164 195 247 310 365
#     4  12  25  36  56  84 111 154 202 253 304 351
#     4  10  23  44  66  87 114 159 206 260 306 363
#     4  10  22  37  58  92 121 159 205 246 311 377
#     4  10  22  43  60  78 106 144 200 257 315 360
#
# _framework density 24.659002000000001
#
# number of rings (size 3 to 8) (size 9 to 14) (size 15 to 20)
#    0.000    1.750    1.250    3.375    3.500    1.500 
#    6.750    0.000    0.000    0.000    0.000    0.000 
#    0.000   27.000    0.000    0.000    0.000    0.000 
#
# Total GULP energy -396429.530401 kJ/mol
# GULP energy per Si atom -12388.422825 kJ/mol
# Density = 2.460288 g / cm^3
# Si number density = 24.659002 Si / 1000 Ang^3
#
#
#
# Elastic Constant Matrix: (Units=GPa)
#
#
# Indices 1 2 3 4 5 6 
#
# 1 19.8668 -14.5476 2.3379 0.0000 -3.8826 0.0000
# 2 -14.5476 56.9916 15.5342 0.0000 -2.1817 0.0000
# 3 2.3379 15.5342 154.3152 0.0000 4.4156 0.0000
# 4 0.0000 0.0000 0.0000 31.7920 0.0000 -3.4661
# 5 -3.8826 -2.1817 4.4156 0.0000 30.2554 0.0000
# 6 0.0000 0.0000 0.0000 -3.4661 0.0000 6.5086
#
#
#
# Elastic Compliance Matrix: (Units=1/GPa)
#
#
# Indices 1 2 3 4 5 6 
#
# 1 0.065928 0.018068 -0.003110 0.000000 0.010217 0.000000
# 2 0.018068 0.023068 -0.002721 0.000000 0.004379 0.000000
# 3 -0.003110 -0.002721 0.006847 0.000000 -0.001595 0.000000
# 4 0.000000 0.000000 0.000000 0.033393 0.000000 0.017783
# 5 0.010217 0.004379 -0.001595 0.000000 0.034912 0.000000
# 6 0.000000 0.000000 0.000000 0.017783 0.000000 0.163112
#
#
# Mechanical properties :
#
#
# Convention : Reuss Voigt Hill
#
# Bulk Modulus (GPa) = 8.31147 26.42473 17.36810
# Shear Modulus (GPa) = 14.58186 28.90116 21.74151
#
# Velocity S-wave (km/s) = 2.43439 3.42721 2.97254
# Velocity P-wave (km/s) = 3.35850 5.13813 4.34050
#
# Compressibility (1/GPa) = 0.12031573
#
# Stress axis : x y z
#
# Youngs Moduli (GPa) = 15.16803 43.35064 146.05125
#
# Poissons Ratio (x) = -0.78324 0.45421
# Poissons Ratio (y) = -0.27405 0.39743
# Poissons Ratio (z) = 0.04717 0.11796
#
# Static dielectric constant tensor:
#      x y z
#    x 3.869260 0.000000 0.141330 
#    y 0.000000 4.869950 0.000000 
#    z 0.141330 0.000000 4.684890 
# 
# 
# High freq. dielectric constant tensor:
#      x y z
#    x 1.923220 0.000000 0.015100 
#    y 0.000000 1.985830 0.000000 
#    z 0.015100 0.000000 1.996580 
# 
# From -- ./inp_files/16226.got.cif
#   From: 2010.06.25/outbox.cif.g09.slc.cpg/sg15_9_cif.got.tgz:16226.got - 2010.06.28 07:06:18.
