data_PCOD8131321
_publ_section_title
;
Structure prediction by ZEFSAII (Michael W. Deem and Ramdas Pophale) SiO2 
 PCOD8131321
Probable space group: C 2/C
;
_chemical_formula_sum "Si O2"
_cell_formula_units_Z 52
_cell_length_a 14.219491
_cell_length_b 24.023150
_cell_length_c 11.994043
_cell_angle_alpha 90.000000
_cell_angle_beta 40.168054
_cell_angle_gamma 90.000000
_cell_volume 2642.777978
_symmetry_space_group_name_H-M "C 2/C"
_symmetry_group_IT_number 15
_symmetry_cell_setting 'monoclinic'
loop_
_space_group_symop_operation_xyz
x,y,z
-x,y,1/2-z
-x,-y,-z
x,-y,1/2+z
1/2+x,1/2+y,z
1/2-x,1/2+y,1/2-z
1/2-x,1/2-y,-z
1/2+x,1/2-y,1/2+z
loop_
_atom_site_type_symbol
_atom_site_label
_atom_site_fract_x
_atom_site_fract_y
_atom_site_fract_z
Si Si1 0.453193 0.554835 0.478310
Si Si2 0.806599 0.088620 0.403773
Si Si3 0.759427 0.144638 0.755333
Si Si4 0.970439 0.355378 0.396798
Si Si5 0.500000 0.687412 0.250000
Si Si6 0.949828 0.755991 0.015556
Si Si7 0.871623 0.713892 0.449386
O O1 0.500000 0.500000 0.500000
O O2 0.339934 0.545391 0.476148
O O3 0.602408 0.577594 0.290591
O O4 0.386473 0.598218 0.630089
O O5 0.637948 0.091614 0.520488
O O6 0.858753 0.148706 0.405091
O O7 0.623011 0.122288 0.807175
O O8 0.812261 0.205258 0.665599
O O9 0.702108 0.157347 0.933000
O O10 0.898782 0.307934 0.540152
O O11 0.000000 0.328351 0.250000
O O12 0.533656 0.723574 0.328776
O O13 0.062234 0.754678 0.016097
O O14 0.750000 0.750000 0.500000
O O15 0.000000 0.694816 0.250000
#
# Coordination Sequence:
#
# PCOD8131321 Si02
#       7
#     8   8   8   8   4   8   8
#     4  10  21  42  66  84 116 159 217 271 327 380
#     4  10  21  37  62  92 126 155 196 266 328 378
#     4  11  22  38  62  92 123 171 220 258 313 377
#     4  11  21  32  59  96 136 160 187 252 330 387
#     4  10  18  32  56  94 130 150 202 254 310 372
#     4  11  21  33  61  94 132 171 206 238 317 390
#     4  11  24  41  57  85 135 189 222 251 297 383
#
# _framework density 19.676264
#
# number of rings (size 3 to 8) (size 9 to 14) (size 15 to 20)
#    0.000    1.538    6.923    0.000    4.308    1.231 
#    0.000    3.846    0.000    0.000    0.000    0.000 
#    0.000    0.000    0.000    0.000    0.000    0.000 
#
# Total GULP energy -322143.968188 kJ/mol
# GULP energy per Si atom -12390.152623 kJ/mol
# Density = 1.963148 g / cm^3
# Si number density = 19.676264 Si / 1000 Ang^3
#
#
#
# Elastic Constant Matrix: (Units=GPa)
#
#
# Indices 1 2 3 4 5 6 
#
# 1 133.9256 48.9296 54.8919 0.0000 0.0467 0.0000
# 2 48.9296 85.6083 51.6005 0.0000 -0.0717 0.0000
# 3 54.8919 51.6005 128.2476 0.0000 6.1674 0.0000
# 4 0.0000 0.0000 0.0000 13.7158 0.0000 0.2614
# 5 0.0467 -0.0717 6.1674 0.0000 34.9408 0.0000
# 6 0.0000 0.0000 0.0000 0.2614 0.0000 31.0026
#
#
#
# Elastic Compliance Matrix: (Units=1/GPa)
#
#
# Indices 1 2 3 4 5 6 
#
# 1 0.010076 -0.004153 -0.002663 0.000000 0.000448 0.000000
# 2 -0.004153 0.017178 -0.005180 0.000000 0.000955 0.000000
# 3 -0.002663 -0.005180 0.011116 0.000000 -0.001969 0.000000
# 4 0.000000 0.000000 0.000000 0.072920 0.000000 -0.000615
# 5 0.000448 0.000955 -0.001969 0.000000 0.028969 0.000000
# 6 0.000000 0.000000 0.000000 -0.000615 0.000000 0.032261
#
#
# Mechanical properties :
#
#
# Convention : Reuss Voigt Hill
#
# Bulk Modulus (GPa) = 69.55370 73.18061 71.36716
# Shear Modulus (GPa) = 24.83814 28.75581 26.79697
#
# Velocity S-wave (km/s) = 3.55680 3.82703 3.69439
# Velocity P-wave (km/s) = 7.23143 7.53667 7.38562
#
# Compressibility (1/GPa) = 0.01437738
#
# Stress axis : x y z
#
# Youngs Moduli (GPa) = 99.25048 58.21460 89.96033
#
# Poissons Ratio (x) = 0.24178 0.23956
# Poissons Ratio (y) = 0.41221 0.46598
# Poissons Ratio (z) = 0.26430 0.30154
#
# Static dielectric constant tensor:
#      x y z
#    x 3.732100 0.000000 0.125000 
#    y 0.000000 3.181860 0.000000 
#    z 0.125000 0.000000 3.827470 
# 
# 
# High freq. dielectric constant tensor:
#      x y z
#    x 1.763530 0.000000 0.001940 
#    y 0.000000 1.710110 0.000000 
#    z 0.001940 0.000000 1.781880 
# 
# From -- ./inp_files/100938.got.cif
#   From: 2010.06.25/outbox.cif.g09.slc.cpg/sg15_51_cif.got.tgz:100938.got - 2010.06.28 07:06:18.
