data_PCOD8131699
_publ_section_title
;
Structure prediction by ZEFSAII (Michael W. Deem and Ramdas Pophale) SiO2 
 PCOD8131699
Probable space group: C 2/C
;
_chemical_formula_sum "Si O2"
_cell_formula_units_Z 60
_cell_length_a 9.165045
_cell_length_b 16.921781
_cell_length_c 23.055699
_cell_angle_alpha 90.000000
_cell_angle_beta 112.451928
_cell_angle_gamma 90.000000
_cell_volume 3304.646909
_symmetry_space_group_name_H-M "C 2/C"
_symmetry_group_IT_number 15
_symmetry_cell_setting 'monoclinic'
loop_
_space_group_symop_operation_xyz
x,y,z
-x,y,1/2-z
-x,-y,-z
x,-y,1/2+z
1/2+x,1/2+y,z
1/2-x,1/2+y,1/2-z
1/2-x,1/2-y,-z
1/2+x,1/2-y,1/2+z
loop_
_atom_site_type_symbol
_atom_site_label
_atom_site_fract_x
_atom_site_fract_y
_atom_site_fract_z
Si Si1 0.500000 0.501539 0.250000
Si Si2 0.186833 0.599632 0.709984
Si Si3 0.270587 0.113278 0.535528
Si Si4 0.177868 0.951344 0.465134
Si Si5 0.618582 0.163707 0.580790
Si Si6 0.418834 0.545727 0.358335
Si Si7 0.839919 0.428701 0.170183
Si Si8 0.559355 0.334018 0.544768
O O1 0.656105 0.448588 0.280361
O O2 0.490806 0.556834 0.305091
O O3 0.166848 0.666010 0.656687
O O4 0.189144 0.629473 0.777811
O O5 0.022305 0.549635 0.683198
O O6 0.434652 0.150409 0.541427
O O7 0.257338 0.112053 0.603058
O O8 0.129712 0.169788 0.492379
O O9 0.265252 0.025270 0.507749
O O10 0.286624 0.906556 0.435431
O O11 0.134907 0.890176 0.508553
O O12 0.020756 0.982385 0.410363
O O13 0.648164 0.249719 0.557138
O O14 0.242099 0.511855 0.326918
O O15 0.412385 0.630632 0.386994
#
# Coordination Sequence:
#
# PCOD8131699 Si02
#       8
#     4   8   8   8   8   8   8   8
#     4  10  18  34  58  80 100 136 188 230 258 300
#     4   9  19  31  54  81  99 136 180 227 256 314
#     4  10  19  35  57  78 105 145 183 217 256 323
#     4  11  19  35  53  83 102 147 183 215 254 320
#     4  11  22  34  51  84 114 138 174 228 271 309
#     4  10  18  34  56  79 102 140 185 220 255 320
#     4   9  16  33  55  78  98 135 189 216 255 312
#     4  11  21  35  53  80 115 144 170 216 280 318
#
# _framework density 18.156251000000001
#
# number of rings (size 3 to 8) (size 9 to 14) (size 15 to 20)
#    0.000    1.867    4.000    2.000    0.000    0.000 
#    0.000    2.667    0.000    3.200    0.000    0.000 
#    0.000    0.000    0.000    0.000    0.000    0.000 
#
# Total GULP energy -371702.471075 kJ/mol
# GULP energy per Si atom -12390.082369 kJ/mol
# Density = 1.811493 g / cm^3
# Si number density = 18.156251 Si / 1000 Ang^3
#
#
#
# Elastic Constant Matrix: (Units=GPa)
#
#
# Indices 1 2 3 4 5 6 
#
# 1 63.2547 6.5066 21.6978 0.0000 -4.8997 0.0000
# 2 6.5066 61.0110 39.0478 0.0000 -4.1951 0.0000
# 3 21.6978 39.0478 109.6913 0.0000 -12.5043 0.0000
# 4 0.0000 0.0000 0.0000 18.5074 0.0000 1.4688
# 5 -4.8997 -4.1951 -12.5043 0.0000 27.8202 0.0000
# 6 0.0000 0.0000 0.0000 1.4688 0.0000 11.6251
#
#
#
# Elastic Compliance Matrix: (Units=1/GPa)
#
#
# Indices 1 2 3 4 5 6 
#
# 1 0.017033 0.000432 -0.003345 0.000000 0.001561 0.000000
# 2 0.000432 0.021239 -0.007665 0.000000 -0.000166 0.000000
# 3 -0.003345 -0.007665 0.012972 0.000000 0.004086 0.000000
# 4 0.000000 0.000000 0.000000 0.054580 0.000000 -0.006896
# 5 0.001561 -0.000166 0.004086 0.000000 0.038031 0.000000
# 6 0.000000 0.000000 0.000000 -0.006896 0.000000 0.086892
#
#
# Mechanical properties :
#
#
# Convention : Reuss Voigt Hill
#
# Bulk Modulus (GPa) = 33.23603 40.94015 37.08809
# Shear Modulus (GPa) = 19.08887 22.70420 20.89654
#
# Velocity S-wave (km/s) = 3.24600 3.54006 3.39621
# Velocity P-wave (km/s) = 5.69157 6.26954 5.98753
#
# Compressibility (1/GPa) = 0.03008783
#
# Stress axis : x y z
#
# Youngs Moduli (GPa) = 58.70941 47.08404 77.08661
#
# Poissons Ratio (x) = -0.02032 0.25785
# Poissons Ratio (y) = -0.02534 0.59086
# Poissons Ratio (z) = 0.19638 0.36089
#
# Static dielectric constant tensor:
#      x y z
#    x 3.527910 0.000000 -0.043430 
#    y 0.000000 2.966380 0.000000 
#    z -0.043430 0.000000 3.768160 
# 
# 
# High freq. dielectric constant tensor:
#      x y z
#    x 1.716830 0.000000 -0.003740 
#    y 0.000000 1.653140 0.000000 
#    z -0.003740 0.000000 1.724370 
# 
# From -- ./inp_files/264320.got.cif
#   From: 2010.06.25/outbox.cif.g09.slc.cpg/sg15_133_cif.got.tgz:264320.got - 2010.06.28 07:06:18.
