data_PCOD8131487
_publ_section_title
;
Structure prediction by ZEFSAII (Michael W. Deem and Ramdas Pophale) SiO2 
 PCOD8131487
Probable space group: C 2/C
;
_chemical_formula_sum "Si O2"
_cell_formula_units_Z 48
_cell_length_a 10.234996
_cell_length_b 18.422370
_cell_length_c 13.837764
_cell_angle_alpha 90.000000
_cell_angle_beta 97.763558
_cell_angle_gamma 90.000000
_cell_volume 2585.234723
_symmetry_space_group_name_H-M "C 2/C"
_symmetry_group_IT_number 15
_symmetry_cell_setting 'monoclinic'
loop_
_space_group_symop_operation_xyz
x,y,z
-x,y,1/2-z
-x,-y,-z
x,-y,1/2+z
1/2+x,1/2+y,z
1/2-x,1/2+y,1/2-z
1/2-x,1/2-y,-z
1/2+x,1/2-y,1/2+z
loop_
_atom_site_type_symbol
_atom_site_label
_atom_site_fract_x
_atom_site_fract_y
_atom_site_fract_z
Si Si1 0.259296 0.077211 0.345601
Si Si2 0.522009 0.467649 0.606614
Si Si3 0.763718 0.454946 0.212192
Si Si4 0.932456 0.568929 0.539856
Si Si5 0.106399 0.331649 0.176481
Si Si6 0.375440 0.672611 0.305523
O O1 0.335232 0.102170 0.448945
O O2 0.245356 0.147604 0.275327
O O3 0.115977 0.042846 0.353947
O O4 0.331901 0.013772 0.291585
O O5 0.500000 0.500000 0.500000
O O6 0.612594 0.524494 0.674676
O O7 0.596839 0.389102 0.610171
O O8 0.847795 0.455127 0.122974
O O9 0.770656 0.377699 0.268461
O O10 0.000000 0.500000 0.500000
O O11 0.041223 0.629557 0.576915
O O12 0.156263 0.251189 0.150352
O O13 0.000000 0.326649 0.250000
O O14 0.500000 0.682022 0.250000
#
# Coordination Sequence:
#
# PCOD8131487 Si02
#       6
#     8   8   8   8   8   8
#     4  10  19  34  55  79 105 139 174 218 264 309
#     4  10  18  33  55  80 101 134 181 218 260 307
#     4  10  19  33  54  76 104 139 173 219 258 307
#     4  11  20  32  54  82 106 138 177 213 261 319
#     4   9  18  33  49  77 110 137 170 216 266 309
#     4   8  17  33  50  74 110 136 167 222 265 300
#
# _framework density 18.566977999999999
#
# number of rings (size 3 to 8) (size 9 to 14) (size 15 to 20)
#    0.000    2.333    3.333    1.500    0.000    0.000 
#    3.000    3.333    0.000    9.000    8.667    0.000 
#    0.000    0.000    0.000    0.000    0.000    0.000 
#
# Total GULP energy -297398.201475 kJ/mol
# GULP energy per Si atom -12391.591728 kJ/mol
# Density = 1.852472 g / cm^3
# Si number density = 18.566978 Si / 1000 Ang^3
#
#
#
# Elastic Constant Matrix: (Units=GPa)
#
#
# Indices 1 2 3 4 5 6 
#
# 1 40.8045 34.4837 33.4878 0.0000 19.5066 0.0000
# 2 34.4837 168.6741 77.8277 0.0000 23.1083 0.0000
# 3 33.4878 77.8277 139.0093 0.0000 22.0443 0.0000
# 4 0.0000 0.0000 0.0000 29.2721 0.0000 2.4013
# 5 19.5066 23.1083 22.0443 0.0000 25.3552 0.0000
# 6 0.0000 0.0000 0.0000 2.4013 0.0000 16.9856
#
#
#
# Elastic Compliance Matrix: (Units=1/GPa)
#
#
# Indices 1 2 3 4 5 6 
#
# 1 0.043707 -0.003190 -0.004491 0.000000 -0.026813 0.000000
# 2 -0.003190 0.008580 -0.003694 0.000000 -0.002154 0.000000
# 3 -0.004491 -0.003694 0.010743 0.000000 -0.002519 0.000000
# 4 0.000000 0.000000 0.000000 0.034563 0.000000 -0.004886
# 5 -0.026813 -0.002154 -0.002519 0.000000 0.064221 0.000000
# 6 0.000000 0.000000 0.000000 -0.004886 0.000000 0.059564
#
#
# Mechanical properties :
#
#
# Convention : Reuss Voigt Hill
#
# Bulk Modulus (GPa) = 24.82575 71.12070 47.97322
# Shear Modulus (GPa) = 19.41334 27.83517 23.62426
#
# Velocity S-wave (km/s) = 3.23706 3.87612 3.57091
# Velocity P-wave (km/s) = 5.23176 7.64333 6.54950
#
# Compressibility (1/GPa) = 0.04028075
#
# Stress axis : x y z
#
# Youngs Moduli (GPa) = 22.87981 116.54766 93.08262
#
# Poissons Ratio (x) = 0.37175 0.41805
# Poissons Ratio (y) = 0.07298 0.34382
# Poissons Ratio (z) = 0.10276 0.43050
#
# Static dielectric constant tensor:
#      x y z
#    x 3.238070 0.000000 0.210020 
#    y 0.000000 3.939390 0.000000 
#    z 0.210020 0.000000 3.790750 
# 
# 
# High freq. dielectric constant tensor:
#      x y z
#    x 1.689100 0.000000 0.017940 
#    y 0.000000 1.712710 0.000000 
#    z 0.017940 0.000000 1.729300 
# 
# From -- ./inp_files/144985.got.cif
#   From: 2010.06.25/outbox.cif.g09.slc.cpg/sg15_73_cif.got.tgz:144985.got - 2010.06.28 07:06:18.
