data_PCOD8131169
_publ_section_title
;
Structure prediction by ZEFSAII (Michael W. Deem and Ramdas Pophale) SiO2 
 PCOD8131169
Probable space group: C 2/C
;
_chemical_formula_sum "Si O2"
_cell_formula_units_Z 64
_cell_length_a 8.620089
_cell_length_b 25.985034
_cell_length_c 14.851759
_cell_angle_alpha 90.000000
_cell_angle_beta 79.042114
_cell_angle_gamma 90.000000
_cell_volume 3266.039532
_symmetry_space_group_name_H-M "C 2/C"
_symmetry_group_IT_number 15
_symmetry_cell_setting 'monoclinic'
loop_
_space_group_symop_operation_xyz
x,y,z
-x,y,1/2-z
-x,-y,-z
x,-y,1/2+z
1/2+x,1/2+y,z
1/2-x,1/2+y,1/2-z
1/2-x,1/2-y,-z
1/2+x,1/2-y,1/2+z
loop_
_atom_site_type_symbol
_atom_site_label
_atom_site_fract_x
_atom_site_fract_y
_atom_site_fract_z
Si Si1 0.101214 0.145946 0.551795
Si Si2 0.777567 0.804379 0.110315
Si Si3 0.129368 0.309269 0.945703
Si Si4 0.179766 0.209774 0.703073
Si Si5 0.919472 0.050654 0.046461
Si Si6 0.687402 0.821393 0.620782
Si Si7 0.874038 0.887592 0.837037
Si Si8 0.824818 0.428397 0.784973
O O1 0.210570 0.168778 0.620013
O O2 0.133651 0.084894 0.534196
O O3 0.152092 0.174356 0.453902
O O4 0.915121 0.153337 0.586987
O O5 0.858726 0.750013 0.081120
O O6 0.712800 0.803563 0.220808
O O7 0.639003 0.816073 0.053706
O O8 0.271214 0.340201 0.883752
O O9 0.959918 0.327776 0.930731
O O10 0.204109 0.268308 0.671194
O O11 0.000000 0.202909 0.750000
O O12 0.766019 0.039339 0.126667
O O13 0.044213 0.084262 0.088721
O O14 0.000000 0.000000 0.000000
O O15 0.671338 0.867429 0.693449
O O16 0.767555 0.931411 0.799631
O O17 0.000000 0.865942 0.750000
O O18 0.000000 0.451081 0.750000
#
# Coordination Sequence:
#
# PCOD8131169 Si02
#       8
#     8   8   8   8   8   8   8   8
#     4  10  20  35  57  79 107 153 197 231 276 343
#     4  10  21  33  49  77 115 156 188 220 274 346
#     4  11  19  33  52  81 116 150 182 228 286 324
#     4  10  18  32  48  77 114 153 189 219 267 340
#     4  10  22  40  59  85 112 151 194 243 298 341
#     4  11  19  31  58  83 116 147 183 234 285 337
#     4  10  20  35  57  85 115 142 188 240 286 335
#     4  10  19  34  61  92 111 139 185 240 292 340
#
# _framework density 19.595600000000001
#
# number of rings (size 3 to 8) (size 9 to 14) (size 15 to 20)
#    0.000    1.750    5.000    1.500    0.000    0.000 
#    0.000    6.875    0.000    0.000    0.000    0.000 
#    0.000    0.000    0.000    0.000    0.000    0.000 
#
# Total GULP energy -396620.279962 kJ/mol
# GULP energy per Si atom -12394.383749 kJ/mol
# Density = 1.955100 g / cm^3
# Si number density = 19.595600 Si / 1000 Ang^3
#
#
#
# Elastic Constant Matrix: (Units=GPa)
#
#
# Indices 1 2 3 4 5 6 
#
# 1 69.1450 17.0756 29.5196 0.0000 0.4784 0.0000
# 2 17.0756 60.7377 40.6443 0.0000 -10.4614 0.0000
# 3 29.5196 40.6443 107.0228 0.0000 7.1079 0.0000
# 4 0.0000 0.0000 0.0000 21.2909 0.0000 -7.3608
# 5 0.4784 -10.4614 7.1079 0.0000 34.6581 0.0000
# 6 0.0000 0.0000 0.0000 -7.3608 0.0000 17.4213
#
#
#
# Elastic Compliance Matrix: (Units=1/GPa)
#
#
# Indices 1 2 3 4 5 6 
#
# 1 0.016600 -0.002184 -0.003741 0.000000 -0.000121 0.000000
# 2 -0.002184 0.025141 -0.009582 0.000000 0.009584 0.000000
# 3 -0.003741 -0.009582 0.014399 0.000000 -0.005794 0.000000
# 4 0.000000 0.000000 0.000000 0.055003 0.000000 0.023240
# 5 -0.000121 0.009584 -0.005794 0.000000 0.032936 0.000000
# 6 0.000000 0.000000 0.000000 0.023240 0.000000 0.067220
#
#
# Mechanical properties :
#
#
# Convention : Reuss Voigt Hill
#
# Bulk Modulus (GPa) = 39.79977 45.70939 42.75458
# Shear Modulus (GPa) = 19.94504 24.65181 22.29843
#
# Velocity S-wave (km/s) = 3.19381 3.55072 3.37698
# Velocity P-wave (km/s) = 5.82711 6.33933 6.08861
#
# Compressibility (1/GPa) = 0.02512578
#
# Stress axis : x y z
#
# Youngs Moduli (GPa) = 60.24183 39.77559 69.44718
#
# Poissons Ratio (x) = 0.08688 0.25981
# Poissons Ratio (y) = 0.13158 0.66544
# Poissons Ratio (z) = 0.22537 0.38113
#
# Static dielectric constant tensor:
#      x y z
#    x 3.709520 0.000000 0.318650 
#    y 0.000000 3.194160 0.000000 
#    z 0.318650 0.000000 4.152110 
# 
# 
# High freq. dielectric constant tensor:
#      x y z
#    x 1.757800 0.000000 0.011260 
#    y 0.000000 1.712940 0.000000 
#    z 0.011260 0.000000 1.778260 
# 
# From -- ./inp_files/138595.got.cif
#   From: 2010.06.25/outbox.cif.g09.slc.cpg/sg15_70_cif.got.tgz:138595.got - 2010.06.28 07:06:18.
