data_PCOD8131394
_publ_section_title
;
Structure prediction by ZEFSAII (Michael W. Deem and Ramdas Pophale) SiO2 
 PCOD8131394
Probable space group: C 2/C
;
_chemical_formula_sum "Si O2"
_cell_formula_units_Z 44
_cell_length_a 21.579276
_cell_length_b 10.960399
_cell_length_c 18.484566
_cell_angle_alpha 90.000000
_cell_angle_beta 33.661800
_cell_angle_gamma 90.000000
_cell_volume 2423.311503
_symmetry_space_group_name_H-M "C 2/C"
_symmetry_group_IT_number 15
_symmetry_cell_setting 'monoclinic'
loop_
_space_group_symop_operation_xyz
x,y,z
-x,y,1/2-z
-x,-y,-z
x,-y,1/2+z
1/2+x,1/2+y,z
1/2-x,1/2+y,1/2-z
1/2-x,1/2-y,-z
1/2+x,1/2-y,1/2+z
loop_
_atom_site_type_symbol
_atom_site_label
_atom_site_fract_x
_atom_site_fract_y
_atom_site_fract_z
Si Si1 0.594070 0.832969 0.101917
Si Si2 0.822790 0.920229 0.943341
Si Si3 0.366240 0.204591 0.460887
Si Si4 0.315481 0.893645 0.858008
Si Si5 0.500000 0.394195 0.250000
Si Si6 0.515570 0.017812 0.068919
O O1 0.500000 0.879761 0.250000
O O2 0.598611 0.685844 0.099838
O O3 0.551526 0.886500 0.066879
O O4 0.721650 0.873627 0.991782
O O5 0.897584 0.017687 0.825050
O O6 0.770458 0.992999 0.062051
O O7 0.364650 0.115876 0.391983
O O8 0.246894 0.265241 0.595088
O O9 0.461601 0.308068 0.354235
O O10 0.390532 0.119575 0.506198
O O11 0.405725 0.922291 0.710155
O O12 0.500000 0.000000 0.000000
#
# Coordination Sequence:
#
# PCOD8131394 Si02
#       6
#     8   8   8   8   4   8
#     4  11  20  37  58  84 115 148 196 236 286 342
#     4  10  20  33  62  87 109 140 186 255 291 328
#     4  10  19  35  63  86 110 144 199 248 285 335
#     4  10  19  37  61  84 107 145 199 251 281 333
#     4  10  18  32  62  96 106 130 190 260 298 326
#     4  12  23  38  55  84 125 159 189 230 295 363
#
# _framework density 18.156972
#
# number of rings (size 3 to 8) (size 9 to 14) (size 15 to 20)
#    0.000    1.455    6.364    0.000    0.000    0.000 
#    3.273    0.000    0.000    2.182    0.000    0.000 
#    0.000    0.000    0.000    0.000    0.000    0.000 
#
# Total GULP energy -272566.539091 kJ/mol
# GULP energy per Si atom -12389.388140 kJ/mol
# Density = 1.811565 g / cm^3
# Si number density = 18.156972 Si / 1000 Ang^3
#
#
#
# Elastic Constant Matrix: (Units=GPa)
#
#
# Indices 1 2 3 4 5 6 
#
# 1 115.2861 57.6426 45.1659 0.0000 14.8566 0.0000
# 2 57.6426 117.0530 35.6925 0.0000 5.8434 0.0000
# 3 45.1659 35.6925 75.3240 0.0000 -1.7609 0.0000
# 4 0.0000 0.0000 0.0000 30.9690 0.0000 -8.3653
# 5 14.8566 5.8434 -1.7609 0.0000 21.5475 0.0000
# 6 0.0000 0.0000 0.0000 -8.3653 0.0000 25.6368
#
#
#
# Elastic Compliance Matrix: (Units=1/GPa)
#
#
# Indices 1 2 3 4 5 6 
#
# 1 0.015051 -0.004804 -0.006974 0.000000 -0.009645 0.000000
# 2 -0.004804 0.011730 -0.002680 0.000000 -0.000088 0.000000
# 3 -0.006974 -0.002680 0.018893 0.000000 0.007079 0.000000
# 4 0.000000 0.000000 0.000000 0.035412 0.000000 0.011555
# 5 -0.009645 -0.000088 0.007079 0.000000 0.053661 0.000000
# 6 0.000000 0.000000 0.000000 0.011555 0.000000 0.042777
#
#
# Mechanical properties :
#
#
# Convention : Reuss Voigt Hill
#
# Bulk Modulus (GPa) = 59.67036 64.96278 62.31657
# Shear Modulus (GPa) = 23.58195 26.90816 25.24505
#
# Velocity S-wave (km/s) = 3.60777 3.85382 3.73282
# Velocity P-wave (km/s) = 7.09152 7.46047 7.27833
#
# Compressibility (1/GPa) = 0.01675874
#
# Stress axis : x y z
#
# Youngs Moduli (GPa) = 66.44028 85.24866 52.92886
#
# Poissons Ratio (x) = 0.40952 0.36913
# Poissons Ratio (y) = 0.31917 0.14185
# Poissons Ratio (z) = 0.46336 0.22847
#
# Static dielectric constant tensor:
#      x y z
#    x 3.000230 0.000000 -0.415060 
#    y 0.000000 3.881320 0.000000 
#    z -0.415060 0.000000 3.443940 
# 
# 
# High freq. dielectric constant tensor:
#      x y z
#    x 1.639870 0.000000 -0.043690 
#    y 0.000000 1.734070 0.000000 
#    z -0.043690 0.000000 1.705880 
# 
# From -- ./inp_files/110489.got.cif
#   From: 2010.06.25/outbox.cif.g09.slc.cpg/sg15_56_cif.got.tgz:110489.got - 2010.06.28 07:06:18.
