data_PCOD8131164
_publ_section_title
;
Structure prediction by ZEFSAII (Michael W. Deem and Ramdas Pophale) SiO2 
 PCOD8131164
Probable space group: C 2/C
;
_chemical_formula_sum "Si O2"
_cell_formula_units_Z 64
_cell_length_a 20.361233
_cell_length_b 18.798963
_cell_length_c 20.177681
_cell_angle_alpha 90.000000
_cell_angle_beta 26.393147
_cell_angle_gamma 90.000000
_cell_volume 3433.273342
_symmetry_space_group_name_H-M "C 2/C"
_symmetry_group_IT_number 15
_symmetry_cell_setting 'monoclinic'
loop_
_space_group_symop_operation_xyz
x,y,z
-x,y,1/2-z
-x,-y,-z
x,-y,1/2+z
1/2+x,1/2+y,z
1/2-x,1/2+y,1/2-z
1/2-x,1/2-y,-z
1/2+x,1/2-y,1/2+z
loop_
_atom_site_type_symbol
_atom_site_label
_atom_site_fract_x
_atom_site_fract_y
_atom_site_fract_z
Si Si1 0.698970 0.581738 0.931964
Si Si2 0.828961 0.336254 0.206803
Si Si3 0.616690 0.044007 0.937912
Si Si4 0.109482 0.651380 0.543623
Si Si5 0.002375 0.505953 0.820692
Si Si6 0.584274 0.464533 0.864450
Si Si7 0.154940 0.817326 0.777976
Si Si8 0.092414 0.798845 0.603067
O O1 0.695615 0.620791 0.862203
O O2 0.827628 0.523580 0.816804
O O3 0.537954 0.543997 0.084152
O O4 0.716130 0.640810 0.975827
O O5 0.876829 0.374633 0.095076
O O6 0.789725 0.252464 0.231045
O O7 0.950766 0.340619 0.154066
O O8 0.778410 0.009657 0.786726
O O9 0.500000 0.000000 0.000000
O O10 0.561741 0.045662 0.063964
O O11 0.102510 0.576341 0.588572
O O12 0.229631 0.651496 0.378464
O O13 0.153020 0.717108 0.554457
O O14 0.000000 0.469138 0.750000
O O15 0.634044 0.385427 0.844510
O O16 0.500000 0.500000 0.000000
O O17 0.005615 0.796906 0.874915
O O18 0.000000 0.822206 0.750000
#
# Coordination Sequence:
#
# PCOD8131164 Si02
#       8
#     8   8   8   8   8   8   8   8
#     4  10  20  34  50  71 107 145 184 231 267 322
#     4  10  19  33  50  70 102 138 178 231 269 315
#     4  12  20  36  57  77 103 146 186 229 281 327
#     4  10  18  32  47  70 102 144 179 216 265 318
#     4  11  23  35  51  77 109 146 187 229 273 329
#     4  11  20  34  56  80 108 145 183 232 283 329
#     4  10  20  32  48  73 104 140 185 221 270 325
#     4  10  21  29  44  69 105 149 184 216 259 316
#
# _framework density 18.641103000000001
#
# number of rings (size 3 to 8) (size 9 to 14) (size 15 to 20)
#    0.000    1.500    6.250    0.375    1.750    0.500 
#    0.000    0.000    0.000    0.000    0.000    0.000 
#    0.000   20.000    0.000    0.000    0.000    0.750 
#
# Total GULP energy -396460.970426 kJ/mol
# GULP energy per Si atom -12389.405326 kJ/mol
# Density = 1.859868 g / cm^3
# Si number density = 18.641103 Si / 1000 Ang^3
#
#
#
# Elastic Constant Matrix: (Units=GPa)
#
#
# Indices 1 2 3 4 5 6 
#
# 1 46.4093 26.8956 24.6504 0.0120 21.7670 -0.0112
# 2 26.8956 68.3569 28.2305 0.0232 15.7195 -0.0106
# 3 24.6504 28.2305 101.7517 0.0490 18.0834 -0.0474
# 4 0.0120 0.0232 0.0490 45.0868 -0.0272 23.0464
# 5 21.7670 15.7195 18.0834 -0.0272 37.2226 0.0338
# 6 -0.0112 -0.0106 -0.0474 23.0464 0.0338 39.3079
#
#
#
# Elastic Compliance Matrix: (Units=1/GPa)
#
#
# Indices 1 2 3 4 5 6 
#
# 1 0.035936 -0.009170 -0.003410 -0.000027 -0.015486 0.000033
# 2 -0.009170 0.019836 -0.003006 -0.000008 -0.001554 0.000005
# 3 -0.003410 -0.003006 0.011939 -0.000028 -0.002537 0.000031
# 4 -0.000027 -0.000008 -0.000028 0.031671 0.000073 -0.018569
# 5 -0.015486 -0.001554 -0.002537 0.000073 0.037810 -0.000083
# 6 0.000033 0.000005 0.000031 -0.018569 -0.000083 0.036327
#
#
# Mechanical properties :
#
#
# Convention : Reuss Voigt Hill
#
# Bulk Modulus (GPa) = 27.36732 41.78564 34.57648
# Shear Modulus (GPa) = 23.05538 33.43957 28.24747
#
# Velocity S-wave (km/s) = 3.52064 4.24000 3.89695
# Velocity P-wave (km/s) = 5.58924 6.81429 6.23194
#
# Compressibility (1/GPa) = 0.03653994
#
# Stress axis : x y z
#
# Youngs Moduli (GPa) = 27.82740 50.41380 83.76181
#
# Poissons Ratio (x) = 0.46230 0.28559
# Poissons Ratio (y) = 0.25518 0.25175
# Poissons Ratio (z) = 0.09488 0.15152
#
# Static dielectric constant tensor:
#      x y z
#    x 3.289840 -0.000050 -0.198260 
#    y -0.000050 3.705830 0.000070 
#    z -0.198260 0.000070 3.851080 
# 
# 
# High freq. dielectric constant tensor:
#      x y z
#    x 1.677530 0.000000 -0.011610 
#    y 0.000000 1.698170 0.000000 
#    z -0.011610 0.000000 1.749910 
# 
# From -- ./inp_files/253447.got.cif
#   From: 2010.06.25/outbox.cif.g09.slc.cpg/sg15_127_cif.got.tgz:253447.got - 2010.06.28 07:06:18.
