data_PCOD8131678
_publ_section_title
;
Structure prediction by ZEFSAII (Michael W. Deem and Ramdas Pophale) SiO2 
 PCOD8131678
Probable space group: C 2/C
;
_chemical_formula_sum "Si O2"
_cell_formula_units_Z 60
_cell_length_a 11.618457
_cell_length_b 21.357803
_cell_length_c 14.069272
_cell_angle_alpha 90.000000
_cell_angle_beta 111.509964
_cell_angle_gamma 90.000000
_cell_volume 3248.065670
_symmetry_space_group_name_H-M "C 2/C"
_symmetry_group_IT_number 15
_symmetry_cell_setting 'monoclinic'
loop_
_space_group_symop_operation_xyz
x,y,z
-x,y,1/2-z
-x,-y,-z
x,-y,1/2+z
1/2+x,1/2+y,z
1/2-x,1/2+y,1/2-z
1/2-x,1/2-y,-z
1/2+x,1/2-y,1/2+z
loop_
_atom_site_type_symbol
_atom_site_label
_atom_site_fract_x
_atom_site_fract_y
_atom_site_fract_z
Si Si1 0.000000 0.238065 0.250000
Si Si2 0.829118 0.452220 0.886841
Si Si3 0.862057 0.261517 0.733664
Si Si4 0.200078 0.164907 0.422016
Si Si5 0.884263 0.421752 0.498432
Si Si6 0.118354 0.291331 0.097430
Si Si7 0.360828 0.093579 0.203648
Si Si8 0.605346 0.263887 0.052399
O O1 0.885909 0.193240 0.187287
O O2 0.952016 0.281210 0.322759
O O3 0.734583 0.407151 0.914704
O O4 0.815427 0.521269 0.925019
O O5 0.791684 0.449159 0.762595
O O6 0.969964 0.430056 0.942894
O O7 0.756142 0.236859 0.632126
O O8 0.850106 0.335954 0.739499
O O9 0.839268 0.227293 0.826829
O O10 0.000000 0.241148 0.750000
O O11 0.325099 0.204753 0.474349
O O12 0.125906 0.172055 0.499340
O O13 0.866326 0.363696 0.423100
O O14 0.815679 0.412822 0.580581
O O15 0.039632 0.255545 0.991835
O O16 0.500000 0.069693 0.250000
#
# Coordination Sequence:
#
# PCOD8131678 Si02
#       8
#     4   8   8   8   8   8   8   8
#     4  10  20  32  60  88 112 140 184 244 296 332
#     4  10  18  36  52  74 109 151 186 228 273 333
#     4  11  21  34  56  82 116 149 180 230 285 344
#     4  10  18  34  55  79 111 144 184 235 283 338
#     4  10  21  32  51  79 109 147 189 226 275 334
#     4  11  20  35  53  88 112 144 187 230 288 339
#     4   9  17  33  50  72 104 142 184 220 271 329
#     4  10  19  33  53  82 112 142 180 237 286 327
#
# _framework density 18.472532000000001
#
# number of rings (size 3 to 8) (size 9 to 14) (size 15 to 20)
#    0.000    1.867    4.000    1.600    0.000    2.133 
#    8.400    0.000    1.467    0.000    0.000    3.733 
#    0.000    0.000    0.000    0.000    0.000    0.000 
#
# Total GULP energy -371744.302563 kJ/mol
# GULP energy per Si atom -12391.476752 kJ/mol
# Density = 1.843049 g / cm^3
# Si number density = 18.472532 Si / 1000 Ang^3
#
#
#
# Elastic Constant Matrix: (Units=GPa)
#
#
# Indices 1 2 3 4 5 6 
#
# 1 64.0044 44.7912 34.8114 0.0000 6.1041 0.0000
# 2 44.7912 98.9812 47.1299 0.0000 -12.3501 0.0000
# 3 34.8114 47.1299 88.0122 0.0000 -4.0147 0.0000
# 4 0.0000 0.0000 0.0000 25.0759 0.0000 1.2901
# 5 6.1041 -12.3501 -4.0147 0.0000 35.3588 0.0000
# 6 0.0000 0.0000 0.0000 1.2901 0.0000 22.4112
#
#
#
# Elastic Compliance Matrix: (Units=1/GPa)
#
#
# Indices 1 2 3 4 5 6 
#
# 1 0.026900 -0.010785 -0.005275 0.000000 -0.009010 0.000000
# 2 -0.010785 0.018451 -0.005263 0.000000 0.007709 0.000000
# 3 -0.005275 -0.005263 0.016309 0.000000 0.000924 0.000000
# 4 0.000000 0.000000 0.000000 0.039997 0.000000 -0.002303
# 5 -0.009010 0.007709 0.000924 0.000000 0.032634 0.000000
# 6 0.000000 0.000000 0.000000 -0.002303 0.000000 0.044753
#
#
# Mechanical properties :
#
#
# Convention : Reuss Voigt Hill
#
# Bulk Modulus (GPa) = 52.59478 56.05143 54.32311
# Shear Modulus (GPa) = 21.92691 24.85354 23.39023
#
# Velocity S-wave (km/s) = 3.44903 3.67199 3.56225
# Velocity P-wave (km/s) = 6.66294 6.95608 6.81109
#
# Compressibility (1/GPa) = 0.01901329
#
# Stress axis : x y z
#
# Youngs Moduli (GPa) = 37.17470 54.19665 61.31551
#
# Poissons Ratio (x) = 0.58452 0.32346
# Poissons Ratio (y) = 0.40094 0.32271
# Poissons Ratio (z) = 0.19611 0.28524
#
# Static dielectric constant tensor:
#      x y z
#    x 3.455270 0.000000 -0.137330 
#    y 0.000000 3.117520 0.000000 
#    z -0.137330 0.000000 3.575280 
# 
# 
# High freq. dielectric constant tensor:
#      x y z
#    x 1.704460 0.000000 -0.012380 
#    y 0.000000 1.679010 0.000000 
#    z -0.012380 0.000000 1.723650 
# 
# From -- ./inp_files/147188.got.cif
#   From: 2010.06.25/outbox.cif.g09.slc.cpg/sg15_74_cif.got.tgz:147188.got - 2010.06.28 07:06:18.
