data_PCOD8131763
_publ_section_title
;
Structure prediction by ZEFSAII (Michael W. Deem and Ramdas Pophale) SiO2 
 PCOD8131763
Probable space group: C 2/C
;
_chemical_formula_sum "Si O2"
_cell_formula_units_Z 56
_cell_length_a 9.048310
_cell_length_b 15.457930
_cell_length_c 27.597422
_cell_angle_alpha 90.000000
_cell_angle_beta 131.343913
_cell_angle_gamma 90.000000
_cell_volume 2897.926268
_symmetry_space_group_name_H-M "C 2/C"
_symmetry_group_IT_number 15
_symmetry_cell_setting 'monoclinic'
loop_
_space_group_symop_operation_xyz
x,y,z
-x,y,1/2-z
-x,-y,-z
x,-y,1/2+z
1/2+x,1/2+y,z
1/2-x,1/2+y,1/2-z
1/2-x,1/2-y,-z
1/2+x,1/2-y,1/2+z
loop_
_atom_site_type_symbol
_atom_site_label
_atom_site_fract_x
_atom_site_fract_y
_atom_site_fract_z
Si Si1 0.493530 0.957773 0.126020
Si Si2 0.844559 0.474112 0.927980
Si Si3 0.416787 0.812394 0.878389
Si Si4 0.836417 0.130150 0.904432
Si Si5 0.194287 0.888067 0.557009
Si Si6 0.302500 0.431549 0.737693
Si Si7 0.418022 0.459265 0.869724
O O1 0.377611 0.869577 0.114291
O O2 0.635887 0.953159 0.110069
O O3 0.317109 0.024660 0.074077
O O4 0.637392 0.992847 0.199374
O O5 0.873539 0.377415 0.913487
O O6 0.643104 0.482590 0.912203
O O7 0.000000 0.500000 0.000000
O O8 0.349028 0.717264 0.877126
O O9 0.650650 0.809436 0.916610
O O10 0.290705 0.843673 0.804524
O O11 0.817672 0.049807 0.863193
O O12 0.016307 0.119682 0.980636
O O13 0.111412 0.888403 0.594096
O O14 0.500000 0.455382 0.750000
O O15 0.339501 0.418824 0.802585
#
# Coordination Sequence:
#
# PCOD8131763 Si02
#       7
#     8   8   8   8   8   8   8
#     4   9  19  34  56  85 112 154 198 241 283 372
#     4  10  18  34  58  83 109 157 198 232 293 357
#     4  10  22  38  58  83 122 160 185 252 303 346
#     4  11  21  37  58  93 118 148 195 254 306 344
#     4   9  19  35  58  87 122 150 194 233 299 375
#     4  10  19  40  60  77 115 157 208 235 296 367
#     4  11  19  35  65  82 110 162 197 247 290 353
#
# _framework density 19.324162999999999
#
# number of rings (size 3 to 8) (size 9 to 14) (size 15 to 20)
#    0.000    2.286    2.857    4.714    0.000    5.143 
#    2.571    4.286    3.143    0.000    0.000    0.000 
#    0.000    0.000    0.000    0.000    0.000    0.000 
#
# Total GULP energy -346895.329331 kJ/mol
# GULP energy per Si atom -12389.118905 kJ/mol
# Density = 1.928018 g / cm^3
# Si number density = 19.324163 Si / 1000 Ang^3
#
#
#
# Elastic Constant Matrix: (Units=GPa)
#
#
# Indices 1 2 3 4 5 6 
#
# 1 112.4984 34.5163 16.5300 0.0000 7.9101 0.0000
# 2 34.5163 81.7041 31.2098 0.0000 -4.1593 0.0000
# 3 16.5300 31.2098 117.6972 0.0000 -3.1946 0.0000
# 4 0.0000 0.0000 0.0000 13.3840 0.0000 0.2092
# 5 7.9101 -4.1593 -3.1946 0.0000 40.0850 0.0000
# 6 0.0000 0.0000 0.0000 0.2092 0.0000 35.1720
#
#
#
# Elastic Compliance Matrix: (Units=1/GPa)
#
#
# Indices 1 2 3 4 5 6 
#
# 1 0.010478 -0.004415 -0.000370 0.000000 -0.002555 0.000000
# 2 -0.004415 0.015530 -0.003438 0.000000 0.002209 0.000000
# 3 -0.000370 -0.003438 0.009473 0.000000 0.000471 0.000000
# 4 0.000000 0.000000 0.000000 0.074723 0.000000 -0.000444
# 5 -0.002555 0.002209 0.000471 0.000000 0.025718 0.000000
# 6 0.000000 0.000000 0.000000 -0.000444 0.000000 0.028434
#
#
# Mechanical properties :
#
#
# Convention : Reuss Voigt Hill
#
# Bulk Modulus (GPa) = 52.53732 52.93464 52.73598
# Shear Modulus (GPa) = 26.71694 33.03778 29.87736
#
# Velocity S-wave (km/s) = 3.72232 4.13929 3.93633
# Velocity P-wave (km/s) = 6.76170 7.09207 6.92885
#
# Compressibility (1/GPa) = 0.01903409
#
# Stress axis : x y z
#
# Youngs Moduli (GPa) = 95.44108 64.39075 105.56494
#
# Poissons Ratio (x) = 0.28429 0.03908
# Poissons Ratio (y) = 0.42137 0.36295
# Poissons Ratio (z) = 0.03533 0.22138
#
# Static dielectric constant tensor:
#      x y z
#    x 4.686010 0.000000 0.094040 
#    y 0.000000 3.132720 0.000000 
#    z 0.094040 0.000000 3.556760 
# 
# 
# High freq. dielectric constant tensor:
#      x y z
#    x 1.774430 0.000000 0.006550 
#    y 0.000000 1.699530 0.000000 
#    z 0.006550 0.000000 1.760550 
# 
# From -- ./inp_files/289455.got.cif
#   From: 2010.06.25/outbox.cif.g09.slc.cpg/sg15_145_cif.got.tgz:289455.got - 2010.06.28 07:06:18.
