data_PCOD8131045
_publ_section_title
;
Structure prediction by ZEFSAII (Michael W. Deem and Ramdas Pophale) SiO2 
 PCOD8131045
Probable space group: C 2/C
;
_chemical_formula_sum "Si O2"
_cell_formula_units_Z 56
_cell_length_a 21.710855
_cell_length_b 18.300072
_cell_length_c 20.889072
_cell_angle_alpha 90.000000
_cell_angle_beta 21.699703
_cell_angle_gamma 90.000000
_cell_volume 3068.651638
_symmetry_space_group_name_H-M "C 2/C"
_symmetry_group_IT_number 15
_symmetry_cell_setting 'monoclinic'
loop_
_space_group_symop_operation_xyz
x,y,z
-x,y,1/2-z
-x,-y,-z
x,-y,1/2+z
1/2+x,1/2+y,z
1/2-x,1/2+y,1/2-z
1/2-x,1/2-y,-z
1/2+x,1/2-y,1/2+z
loop_
_atom_site_type_symbol
_atom_site_label
_atom_site_fract_x
_atom_site_fract_y
_atom_site_fract_z
Si Si1 0.623383 0.168659 0.746273
Si Si2 0.538116 0.023146 0.640419
Si Si3 0.970235 0.189660 0.350775
Si Si4 0.581463 0.530754 0.240149
Si Si5 0.492102 0.444998 0.448766
Si Si6 0.867572 0.558340 0.195443
Si Si7 0.674006 0.096656 0.828256
O O1 0.497761 0.107116 0.842576
O O2 0.777056 0.171951 0.548833
O O3 0.529614 0.246130 0.840445
O O4 0.685722 0.151090 0.757327
O O5 0.500000 0.006912 0.750000
O O6 0.728781 0.005303 0.441382
O O7 0.425351 0.967727 0.709311
O O8 0.000000 0.217581 0.250000
O O9 0.075939 0.116796 0.261195
O O10 0.500000 0.513975 0.250000
O O11 0.484244 0.488054 0.389235
O O12 0.500000 0.500000 0.500000
O O13 0.314022 0.401865 0.624192
O O14 0.654515 0.392321 0.296499
O O15 0.840249 0.487848 0.177243
O O16 0.006595 0.613039 0.031413
#
# Coordination Sequence:
#
# PCOD8131045 Si02
#       7
#     8   8   8   8   8   8   8
#     4  11  22  35  49  70  96 134 181 217 256 296
#     4  11  19  31  49  71 101 134 170 210 251 307
#     4  11  21  35  48  68  98 137 179 219 251 292
#     4  11  21  33  50  75 104 140 177 211 255 304
#     4  10  18  31  51  74  98 130 172 210 259 309
#     4   9  17  30  48  70  95 124 164 203 254 306
#     4   9  18  33  48  71  94 126 169 211 257 304
#
# _framework density 18.249058000000002
#
# number of rings (size 3 to 8) (size 9 to 14) (size 15 to 20)
#    0.000    1.714    1.429    6.857    2.000    0.000 
#    2.571    0.000    0.000    0.000    0.000    0.000 
#    0.000    0.000    0.000   11.571    0.857    0.286 
#
# Total GULP energy -347130.618086 kJ/mol
# GULP energy per Si atom -12397.522074 kJ/mol
# Density = 1.820752 g / cm^3
# Si number density = 18.249058 Si / 1000 Ang^3
#
#
#
# Elastic Constant Matrix: (Units=GPa)
#
#
# Indices 1 2 3 4 5 6 
#
# 1 101.3606 24.2341 54.4105 0.0157 -0.3431 -0.0297
# 2 24.2341 24.3930 19.0351 0.0133 2.2352 -0.0053
# 3 54.4105 19.0351 154.3641 0.0196 -13.8661 -0.0492
# 4 0.0157 0.0133 0.0196 11.2769 -0.0079 -2.3726
# 5 -0.3431 2.2352 -13.8661 -0.0079 34.8748 0.0159
# 6 -0.0297 -0.0053 -0.0492 -2.3726 0.0159 17.0139
#
#
#
# Elastic Compliance Matrix: (Units=1/GPa)
#
#
# Indices 1 2 3 4 5 6 
#
# 1 0.014665 -0.011545 -0.003802 0.000002 -0.000627 0.000012
# 2 -0.011545 0.055422 -0.003209 -0.000050 -0.004941 -0.000014
# 3 -0.003802 -0.003209 0.008534 0.000000 0.003561 0.000014
# 4 0.000002 -0.000050 0.000000 0.091357 0.000018 0.012740
# 5 -0.000627 -0.004941 0.003561 0.000018 0.030400 -0.000018
# 6 0.000012 -0.000014 0.000014 0.012740 -0.000018 0.060552
#
#
# Mechanical properties :
#
#
# Convention : Reuss Voigt Hill
#
# Bulk Modulus (GPa) = 24.09089 52.83079 38.46084
# Shear Modulus (GPa) = 16.03194 24.79565 20.41380
#
# Velocity S-wave (km/s) = 2.96718 3.69010 3.34821
# Velocity P-wave (km/s) = 4.99687 6.86793 6.00571
#
# Compressibility (1/GPa) = 0.04150947
#
# Stress axis : x y z
#
# Youngs Moduli (GPa) = 68.19094 18.04344 117.18093
#
# Poissons Ratio (x) = 0.20831 0.44549
# Poissons Ratio (y) = 0.78726 0.37600
# Poissons Ratio (z) = 0.25924 0.05790
#
# Static dielectric constant tensor:
#      x y z
#    x 3.426710 -0.000040 -0.134820 
#    y -0.000040 2.775640 0.000090 
#    z -0.134820 0.000090 4.022830 
# 
# 
# High freq. dielectric constant tensor:
#      x y z
#    x 1.708540 0.000000 -0.005560 
#    y 0.000000 1.628360 0.000010 
#    z -0.005560 0.000010 1.739750 
# 
# From -- ./inp_files/253319.got.cif
#   From: 2010.06.25/outbox.cif.g09.slc.cpg/sg15_127_cif.got.tgz:253319.got - 2010.06.28 07:06:18.
