data_PCOD8131067
_publ_section_title
;
Structure prediction by ZEFSAII (Michael W. Deem and Ramdas Pophale) SiO2 
 PCOD8131067
Probable space group: C 2/C
;
_chemical_formula_sum "Si O2"
_cell_formula_units_Z 64
_cell_length_a 12.552094
_cell_length_b 21.964230
_cell_length_c 27.233389
_cell_angle_alpha 90.000000
_cell_angle_beta 150.741493
_cell_angle_gamma 90.000000
_cell_volume 3669.621899
_symmetry_space_group_name_H-M "C 2/C"
_symmetry_group_IT_number 15
_symmetry_cell_setting 'monoclinic'
loop_
_space_group_symop_operation_xyz
x,y,z
-x,y,1/2-z
-x,-y,-z
x,-y,1/2+z
1/2+x,1/2+y,z
1/2-x,1/2+y,1/2-z
1/2-x,1/2-y,-z
1/2+x,1/2-y,1/2+z
loop_
_atom_site_type_symbol
_atom_site_label
_atom_site_fract_x
_atom_site_fract_y
_atom_site_fract_z
Si Si1 0.106985 0.358215 0.843663
Si Si2 0.303344 0.705699 0.281305
Si Si3 0.484994 0.815772 0.298946
Si Si4 0.955060 0.465689 0.607008
Si Si5 0.127158 0.908519 0.751402
Si Si6 0.142580 0.549339 0.761310
Si Si7 0.041719 0.154480 0.467850
Si Si8 0.455225 0.529438 0.085586
O O1 0.124534 0.414501 0.887192
O O2 0.352346 0.334415 0.932629
O O3 0.000000 0.382512 0.750000
O O4 0.946177 0.305287 0.800405
O O5 0.340152 0.773538 0.276313
O O6 0.355308 0.661609 0.256666
O O7 0.477540 0.694197 0.394645
O O8 0.500000 0.788051 0.250000
O O9 0.349238 0.878094 0.241347
O O10 0.728381 0.823944 0.418223
O O11 0.767465 0.492584 0.497617
O O12 0.134666 0.436720 0.643398
O O13 0.048546 0.522953 0.673566
O O14 0.000000 0.915992 0.750000
O O15 0.012604 0.945069 0.661711
O O16 0.377977 0.521222 0.866646
O O17 0.000000 0.529785 0.750000
O O18 0.054852 0.083264 0.458694
#
# Coordination Sequence:
#
# PCOD8131067 Si02
#       8
#     8   8   8   8   8   8   8   8
#     4   9  18  32  55  80 103 135 176 211 258 309
#     4   9  19  37  56  72 102 137 180 223 251 299
#     4  11  22  33  51  80 109 141 173 216 261 306
#     4  10  18  31  52  78 107 134 168 209 259 320
#     4   9  19  35  54  72  95 137 182 219 255 296
#     4  10  20  31  47  79 112 141 159 207 268 311
#     4  10  19  35  57  83 100 140 177 210 261 320
#     4  10  20  32  53  80 109 134 168 212 264 324
#
# _framework density 17.440488999999999
#
# number of rings (size 3 to 8) (size 9 to 14) (size 15 to 20)
#    0.000    2.250    1.250    4.125    3.500    1.500 
#    0.000    0.625    2.750    9.000    0.000    0.000 
#    0.000    0.000    0.000    0.000    0.000    0.000 
#
# Total GULP energy -396685.011506 kJ/mol
# GULP energy per Si atom -12396.406610 kJ/mol
# Density = 1.740079 g / cm^3
# Si number density = 17.440489 Si / 1000 Ang^3
#
#
#
# Elastic Constant Matrix: (Units=GPa)
#
#
# Indices 1 2 3 4 5 6 
#
# 1 111.3000 46.9498 34.6298 0.0008 17.3382 -0.0010
# 2 46.9498 80.3193 35.9205 0.0002 10.8353 -0.0004
# 3 34.6298 35.9205 88.3649 0.0052 15.8380 0.0002
# 4 0.0008 0.0002 0.0052 20.1749 0.0010 4.3023
# 5 17.3382 10.8353 15.8380 0.0010 17.6721 -0.0018
# 6 -0.0010 -0.0004 0.0002 4.3023 -0.0018 19.2898
#
#
#
# Elastic Compliance Matrix: (Units=1/GPa)
#
#
# Indices 1 2 3 4 5 6 
#
# 1 0.013193 -0.006057 -0.001255 0.000000 -0.008105 0.000000
# 2 -0.006057 0.018305 -0.004910 0.000001 -0.000881 0.000000
# 3 -0.001255 -0.004910 0.015540 -0.000003 -0.009686 0.000000
# 4 0.000000 0.000001 -0.000003 0.052042 -0.000002 -0.011607
# 5 -0.008105 -0.000881 -0.009686 -0.000002 0.073759 0.000007
# 6 0.000000 0.000000 0.000000 -0.011607 0.000007 0.054430
#
#
# Mechanical properties :
#
#
# Convention : Reuss Voigt Hill
#
# Bulk Modulus (GPa) = 44.25786 57.22047 50.73917
# Shear Modulus (GPa) = 19.28681 22.25963 20.77322
#
# Velocity S-wave (km/s) = 3.32906 3.57644 3.45496
# Velocity P-wave (km/s) = 6.34101 7.06645 6.71354
#
# Compressibility (1/GPa) = 0.02259486
#
# Stress axis : x y z
#
# Youngs Moduli (GPa) = 75.79821 54.62882 64.34826
#
# Poissons Ratio (x) = 0.33088 0.08078
# Poissons Ratio (y) = 0.45911 0.31592
# Poissons Ratio (z) = 0.09516 0.26820
#
# Static dielectric constant tensor:
#      x y z
#    x 3.212750 -0.000010 0.055880 
#    y -0.000010 3.136960 -0.000010 
#    z 0.055880 -0.000010 3.365110 
# 
# 
# High freq. dielectric constant tensor:
#      x y z
#    x 1.663990 0.000000 0.005730 
#    y 0.000000 1.664640 0.000000 
#    z 0.005730 0.000000 1.675430 
# 
# From -- ./inp_files/90798.got.cif
#   From: 2010.06.25/outbox.cif.g09.slc.cpg/sg15_46_cif.got.tgz:90798.got - 2010.06.28 07:06:18.
