data_PCOD8131761
_publ_section_title
;
Structure prediction by ZEFSAII (Michael W. Deem and Ramdas Pophale) SiO2 
 PCOD8131761
Probable space group: C 2/C
;
_chemical_formula_sum "Si O2"
_cell_formula_units_Z 56
_cell_length_a 17.952518
_cell_length_b 9.334535
_cell_length_c 29.269517
_cell_angle_alpha 90.000000
_cell_angle_beta 141.917770
_cell_angle_gamma 90.000000
_cell_volume 3025.326095
_symmetry_space_group_name_H-M "C 2/C"
_symmetry_group_IT_number 15
_symmetry_cell_setting 'monoclinic'
loop_
_space_group_symop_operation_xyz
x,y,z
-x,y,1/2-z
-x,-y,-z
x,-y,1/2+z
1/2+x,1/2+y,z
1/2-x,1/2+y,1/2-z
1/2-x,1/2-y,-z
1/2+x,1/2-y,1/2+z
loop_
_atom_site_type_symbol
_atom_site_label
_atom_site_fract_x
_atom_site_fract_y
_atom_site_fract_z
Si Si1 0.302743 0.064602 0.098518
Si Si2 0.777525 0.757100 0.171431
Si Si3 0.003317 0.243228 0.659066
Si Si4 0.539891 0.623184 0.955825
Si Si5 0.014299 0.193609 0.045941
Si Si6 0.109680 0.994924 0.333204
Si Si7 0.257571 0.247419 0.449740
O O1 0.301920 0.121927 0.150024
O O2 0.421188 0.116114 0.128317
O O3 0.295734 0.892957 0.097487
O O4 0.183463 0.122967 0.015377
O O5 0.864228 0.733391 0.256396
O O6 0.639881 0.764159 0.123047
O O7 0.802784 0.904996 0.157465
O O8 0.021343 0.214482 0.614039
O O9 0.939761 0.107066 0.651063
O O10 0.488339 0.463157 0.932867
O O11 0.509915 0.697510 0.989068
O O12 0.897877 0.281705 0.005872
O O13 0.180322 0.121010 0.391323
O O14 0.000000 0.057744 0.250000
O O15 0.250000 0.250000 0.500000
#
# Coordination Sequence:
#
# PCOD8131761 Si02
#       7
#     8   8   8   8   8   8   8
#     4   9  18  33  56  81 105 138 180 220 261 314
#     4   9  19  36  57  78 107 143 179 220 262 319
#     4  10  18  34  58  83 104 138 184 218 258 319
#     4   9  17  32  55  77 104 138 175 219 261 308
#     4   9  19  35  52  76 107 141 175 215 269 314
#     4   9  19  34  53  78 110 141 171 218 275 314
#     4  11  22  36  55  79 107 139 178 224 269 321
#
# _framework density 18.510401000000002
#
# number of rings (size 3 to 8) (size 9 to 14) (size 15 to 20)
#    0.000    2.571    0.000    4.286    0.000    4.000 
#    0.000    5.714    0.000    0.000    0.000    0.000 
#    0.000    0.000    0.000    0.000    0.000    0.000 
#
# Total GULP energy -347177.124625 kJ/mol
# GULP energy per Si atom -12399.183022 kJ/mol
# Density = 1.846827 g / cm^3
# Si number density = 18.510401 Si / 1000 Ang^3
#
#
#
# Elastic Constant Matrix: (Units=GPa)
#
#
# Indices 1 2 3 4 5 6 
#
# 1 93.1160 28.6379 67.6048 0.0000 18.3284 0.0000
# 2 28.6379 77.4770 60.5388 0.0000 13.0781 -0.0001
# 3 67.6048 60.5388 152.4781 0.0000 13.4725 0.0000
# 4 0.0000 0.0000 0.0000 30.8195 0.0000 6.0352
# 5 18.3284 13.0781 13.4725 0.0000 30.3175 0.0000
# 6 0.0000 -0.0001 0.0000 6.0352 0.0000 16.5245
#
#
#
# Elastic Compliance Matrix: (Units=1/GPa)
#
#
# Indices 1 2 3 4 5 6 
#
# 1 0.017284 0.000498 -0.007202 0.000000 -0.007464 0.000000
# 2 0.000498 0.019473 -0.007477 0.000000 -0.005379 0.000000
# 3 -0.007202 -0.007477 0.012543 0.000000 0.002005 0.000000
# 4 0.000000 0.000000 0.000000 0.034946 0.000000 -0.012763
# 5 -0.007464 -0.005379 0.002005 0.000000 0.038925 0.000000
# 6 0.000000 0.000000 0.000000 -0.012763 0.000000 0.065178
#
#
# Mechanical properties :
#
#
# Convention : Reuss Voigt Hill
#
# Bulk Modulus (GPa) = 47.75783 70.73712 59.24747
# Shear Modulus (GPa) = 22.35237 26.61827 24.48532
#
# Velocity S-wave (km/s) = 3.47876 3.79623 3.64096
# Velocity P-wave (km/s) = 6.48014 7.58373 7.05355
#
# Compressibility (1/GPa) = 0.02093898
#
# Stress axis : x y z
#
# Youngs Moduli (GPa) = 57.85838 51.35220 79.72684
#
# Poissons Ratio (x) = -0.02559 0.57415
# Poissons Ratio (y) = -0.02884 0.59614
# Poissons Ratio (z) = 0.41667 0.38398
#
# Static dielectric constant tensor:
#      x y z
#    x 3.357310 0.000000 0.130430 
#    y 0.000000 3.259000 0.000000 
#    z 0.130430 0.000000 3.493110 
# 
# 
# High freq. dielectric constant tensor:
#      x y z
#    x 1.711530 0.000000 0.003860 
#    y 0.000000 1.699880 0.000000 
#    z 0.003860 0.000000 1.723690 
# 
# From -- ./inp_files/276608.got.cif
#   From: 2010.06.25/outbox.cif.g09.slc.cpg/sg15_139_cif.got.tgz:276608.got - 2010.06.28 07:06:18.
