data_PCOD8131149
_publ_section_title
;
Structure prediction by ZEFSAII (Michael W. Deem and Ramdas Pophale) SiO2 
 PCOD8131149
Probable space group: C 2/C
;
_chemical_formula_sum "Si O2"
_cell_formula_units_Z 48
_cell_length_a 18.235767
_cell_length_b 18.258234
_cell_length_c 23.907656
_cell_angle_alpha 90.000000
_cell_angle_beta 160.564445
_cell_angle_gamma 90.000000
_cell_volume 2648.702304
_symmetry_space_group_name_H-M "C 2/C"
_symmetry_group_IT_number 15
_symmetry_cell_setting 'monoclinic'
loop_
_space_group_symop_operation_xyz
x,y,z
-x,y,1/2-z
-x,-y,-z
x,-y,1/2+z
1/2+x,1/2+y,z
1/2-x,1/2+y,1/2-z
1/2-x,1/2-y,-z
1/2+x,1/2-y,1/2+z
loop_
_atom_site_type_symbol
_atom_site_label
_atom_site_fract_x
_atom_site_fract_y
_atom_site_fract_z
Si Si1 0.216741 0.551300 0.214123
Si Si2 0.336409 0.321002 0.296230
Si Si3 0.251804 0.673405 0.331027
Si Si4 0.448862 0.545111 0.601085
Si Si5 0.000000 0.389289 0.750000
Si Si6 0.426030 0.912059 0.007791
Si Si7 0.000000 0.041430 0.250000
O O1 0.247939 0.602104 0.289788
O O2 0.449529 0.510360 0.371536
O O3 0.027121 0.492412 0.090542
O O4 0.147089 0.597942 0.109441
O O5 0.503165 0.316702 0.468284
O O6 0.319278 0.242315 0.256163
O O7 0.423140 0.377522 0.311570
O O8 0.097768 0.347855 0.146971
O O9 0.074809 0.663382 0.253335
O O10 0.484451 0.513165 0.687319
O O11 0.192645 0.555636 0.405822
O O12 0.213358 0.906272 0.895587
#
# Coordination Sequence:
#
# PCOD8131149 Si02
#       7
#     8   8   8   8   4   8   4
#     4   9  18  34  55  75 105 143 175 208 257 317
#     4  10  22  35  52  76 106 144 179 210 261 319
#     4  11  22  36  54  77 108 143 176 216 259 311
#     4   9  20  34  52  81 107 138 174 212 262 309
#     4  10  22  33  50  81 110 136 174 220 262 301
#     4   9  18  34  55  80 103 135 177 215 259 311
#     4  10  18  31  58  81 104 134 172 226 262 299
#
# _framework density 18.122081999999999
#
# number of rings (size 3 to 8) (size 9 to 14) (size 15 to 20)
#    0.000    2.333    0.000    3.000    0.000   12.000 
#    0.000    0.000    0.000   10.000    0.000    0.000 
#    0.000    0.000    0.000    0.000    0.000    0.000 
#
# Total GULP energy -297600.813067 kJ/mol
# GULP energy per Si atom -12400.033878 kJ/mol
# Density = 1.808084 g / cm^3
# Si number density = 18.122082 Si / 1000 Ang^3
#
#
#
# Elastic Constant Matrix: (Units=GPa)
#
#
# Indices 1 2 3 4 5 6 
#
# 1 98.3547 49.0120 47.4418 0.1360 6.7299 -0.0994
# 2 49.0120 82.2762 41.9029 0.4371 -2.4692 0.0409
# 3 47.4418 41.9029 131.6695 0.2218 14.2008 0.0707
# 4 0.1360 0.4371 0.2218 23.9229 0.0625 -5.7742
# 5 6.7299 -2.4692 14.2008 0.0625 34.3704 -0.0377
# 6 -0.0994 0.0409 0.0707 -5.7742 -0.0377 20.9439
#
#
#
# Elastic Compliance Matrix: (Units=1/GPa)
#
#
# Indices 1 2 3 4 5 6 
#
# 1 0.015679 -0.007963 -0.002849 0.000120 -0.002465 0.000128
# 2 -0.007963 0.018871 -0.003611 -0.000311 0.004407 -0.000140
# 3 -0.002849 -0.003611 0.010193 -0.000015 -0.003913 -0.000052
# 4 0.000120 -0.000311 -0.000015 0.044787 -0.000108 0.012349
# 5 -0.002465 0.004407 -0.003913 -0.000108 0.031511 0.000020
# 6 0.000128 -0.000140 -0.000052 0.012349 0.000020 0.051152
#
#
# Mechanical properties :
#
#
# Convention : Reuss Voigt Hill
#
# Bulk Modulus (GPa) = 62.91312 65.44598 64.17955
# Shear Modulus (GPa) = 24.23212 27.44369 25.83791
#
# Velocity S-wave (km/s) = 3.66069 3.89572 3.78003
# Velocity P-wave (km/s) = 7.25666 7.51185 7.38536
#
# Compressibility (1/GPa) = 0.01589494
#
# Stress axis : x y z
#
# Youngs Moduli (GPa) = 63.78157 52.99139 98.10968
#
# Poissons Ratio (x) = 0.42198 0.27955
# Poissons Ratio (y) = 0.50791 0.35428
# Poissons Ratio (z) = 0.18173 0.19136
#
# Static dielectric constant tensor:
#      x y z
#    x 3.338880 -0.000050 0.164760 
#    y -0.000050 3.155130 -0.000520 
#    z 0.164760 -0.000520 3.634570 
# 
# 
# High freq. dielectric constant tensor:
#      x y z
#    x 1.694220 -0.000020 0.003730 
#    y -0.000020 1.683340 -0.000090 
#    z 0.003730 -0.000090 1.717760 
# 
# From -- ./inp_files/48392.got.cif
#   From: 2010.06.25/outbox.cif.g09.slc.cpg/sg15_25_cif.got.tgz:48392.got - 2010.06.28 07:06:18.
