data_PCOD8131502
_publ_section_title
;
Structure prediction by ZEFSAII (Michael W. Deem and Ramdas Pophale) SiO2 
 PCOD8131502
Probable space group: C 2/C
;
_chemical_formula_sum "Si O2"
_cell_formula_units_Z 44
_cell_length_a 6.760074
_cell_length_b 20.386892
_cell_length_c 16.448829
_cell_angle_alpha 90.000000
_cell_angle_beta 96.993984
_cell_angle_gamma 90.000000
_cell_volume 2250.058266
_symmetry_space_group_name_H-M "C 2/C"
_symmetry_group_IT_number 15
_symmetry_cell_setting 'monoclinic'
loop_
_space_group_symop_operation_xyz
x,y,z
-x,y,1/2-z
-x,-y,-z
x,-y,1/2+z
1/2+x,1/2+y,z
1/2-x,1/2+y,1/2-z
1/2-x,1/2-y,-z
1/2+x,1/2-y,1/2+z
loop_
_atom_site_type_symbol
_atom_site_label
_atom_site_fract_x
_atom_site_fract_y
_atom_site_fract_z
Si Si1 0.083952 0.904541 0.967098
Si Si2 0.244709 0.194605 0.067543
Si Si3 0.488376 0.124668 0.955265
Si Si4 0.161569 0.286485 0.193355
Si Si5 0.500000 0.616375 0.750000
Si Si6 0.650526 0.465081 0.402434
O O1 0.974152 0.838629 0.931974
O O2 0.140213 0.955401 0.896568
O O3 0.278209 0.886753 0.028181
O O4 0.928414 0.941582 0.015477
O O5 0.289357 0.226346 0.159097
O O6 0.250000 0.250000 0.000000
O O7 0.408626 0.142624 0.042842
O O8 0.452758 0.182500 0.889120
O O9 0.380057 0.059769 0.912819
O O10 0.305449 0.337763 0.246040
O O11 0.000000 0.260601 0.250000
O O12 0.486019 0.568637 0.672475
#
# Coordination Sequence:
#
# PCOD8131502 Si02
#       6
#     8   8   8   8   4   8
#     4  10  18  33  56  78 106 141 175 228 274 312
#     4   9  20  34  50  79 107 135 181 221 262 322
#     4   9  18  33  55  80 103 134 183 225 269 320
#     4  10  20  33  52  77 104 140 181 220 265 326
#     4  10  20  36  52  74 108 140 176 228 266 314
#     4   9  19  33  53  81 104 138 181 222 269 327
#
# _framework density 19.555050000000001
#
# number of rings (size 3 to 8) (size 9 to 14) (size 15 to 20)
#    0.000    2.545    0.000    2.727    0.000    4.364 
#    1.636    0.000    0.000    0.000    0.000    0.000 
#    0.000    0.000    0.000    0.000    0.000    0.000 
#
# Total GULP energy -272541.307759 kJ/mol
# GULP energy per Si atom -12388.241262 kJ/mol
# Density = 1.951054 g / cm^3
# Si number density = 19.555050 Si / 1000 Ang^3
#
#
#
# Elastic Constant Matrix: (Units=GPa)
#
#
# Indices 1 2 3 4 5 6 
#
# 1 61.8359 16.7870 10.4783 0.0000 4.7968 0.0000
# 2 16.7870 90.2117 26.8931 0.0000 2.5334 0.0000
# 3 10.4783 26.8931 66.1731 0.0000 -5.1558 0.0000
# 4 0.0000 0.0000 0.0000 23.7585 0.0000 -3.0281
# 5 4.7968 2.5334 -5.1558 0.0000 32.6459 0.0000
# 6 0.0000 0.0000 0.0000 -3.0281 0.0000 22.7404
#
#
#
# Elastic Compliance Matrix: (Units=1/GPa)
#
#
# Indices 1 2 3 4 5 6 
#
# 1 0.017406 -0.002595 -0.001908 0.000000 -0.002658 0.000000
# 2 -0.002595 0.013107 -0.005027 0.000000 -0.001430 0.000000
# 3 -0.001908 -0.005027 0.017727 0.000000 0.003470 0.000000
# 4 0.000000 0.000000 0.000000 0.042817 0.000000 0.005701
# 5 -0.002658 -0.001430 0.003470 0.000000 0.031681 0.000000
# 6 0.000000 0.000000 0.000000 0.005701 0.000000 0.044734
#
#
# Mechanical properties :
#
#
# Convention : Reuss Voigt Hill
#
# Bulk Modulus (GPa) = 34.27197 36.28193 35.27695
# Shear Modulus (GPa) = 25.47639 26.76644 26.12141
#
# Velocity S-wave (km/s) = 3.61335 3.70371 3.65881
# Velocity P-wave (km/s) = 5.91374 6.07322 5.99401
#
# Compressibility (1/GPa) = 0.02917836
#
# Stress axis : x y z
#
# Youngs Moduli (GPa) = 57.45154 76.29633 56.40954
#
# Poissons Ratio (x) = 0.19802 0.10765
# Poissons Ratio (y) = 0.14911 0.28358
# Poissons Ratio (z) = 0.10964 0.38355
#
# Static dielectric constant tensor:
#      x y z
#    x 3.535640 0.000000 -0.196860 
#    y 0.000000 4.043430 0.000000 
#    z -0.196860 0.000000 3.445690 
# 
# 
# High freq. dielectric constant tensor:
#      x y z
#    x 1.755220 0.000000 -0.005660 
#    y 0.000000 1.761590 0.000000 
#    z -0.005660 0.000000 1.733250 
# 
# From -- ./inp_files/184809.got.cif
#   From: 2010.06.25/outbox.cif.g09.slc.cpg/sg15_93_cif.got.tgz:184809.got - 2010.06.28 07:06:18.
