data_PCOD8131661
_publ_section_title
;
Structure prediction by ZEFSAII (Michael W. Deem and Ramdas Pophale) SiO2 
 PCOD8131661
Probable space group: C 2/C
;
_chemical_formula_sum "Si O2"
_cell_formula_units_Z 52
_cell_length_a 13.590509
_cell_length_b 10.233824
_cell_length_c 29.124569
_cell_angle_alpha 90.000000
_cell_angle_beta 137.745937
_cell_angle_gamma 90.000000
_cell_volume 2723.788246
_symmetry_space_group_name_H-M "C 2/C"
_symmetry_group_IT_number 15
_symmetry_cell_setting 'monoclinic'
loop_
_space_group_symop_operation_xyz
x,y,z
-x,y,1/2-z
-x,-y,-z
x,-y,1/2+z
1/2+x,1/2+y,z
1/2-x,1/2+y,1/2-z
1/2-x,1/2-y,-z
1/2+x,1/2-y,1/2+z
loop_
_atom_site_type_symbol
_atom_site_label
_atom_site_fract_x
_atom_site_fract_y
_atom_site_fract_z
Si Si1 0.487345 0.259440 0.144668
Si Si2 0.500000 0.281593 0.250000
Si Si3 0.584402 0.009299 0.922165
Si Si4 0.705705 0.483058 0.919972
Si Si5 0.793399 0.252436 0.207208
Si Si6 0.399053 0.211256 0.646014
Si Si7 0.765881 0.527596 0.840218
O O1 0.484349 0.203619 0.196523
O O2 0.419269 0.144997 0.090222
O O3 0.397100 0.391986 0.107922
O O4 0.648327 0.299553 0.182999
O O5 0.353630 0.362466 0.208368
O O6 0.653323 0.093512 0.904771
O O7 0.422088 0.067282 0.873616
O O8 0.680359 0.030061 0.999951
O O9 0.612838 0.349609 0.884554
O O10 0.794920 0.499366 0.903761
O O11 0.794728 0.299294 0.154594
O O12 0.932419 0.309393 0.281698
O O13 0.801005 0.095693 0.209739
#
# Coordination Sequence:
#
# PCOD8131661 Si02
#       7
#     8   4   8   8   8   8   8
#     4  10  21  35  55  76 106 137 169 217 263 311
#     4  10  18  34  54  82 102 130 178 222 262 298
#     4  11  21  34  52  81 109 139 172 212 263 312
#     4  10  20  37  54  75 105 144 179 209 252 314
#     4   9  18  35  54  78 103 135 172 213 272 306
#     4  10  20  34  56  77 104 135 174 221 255 308
#     4   9  18  33  57  77 102 139 181 218 248 307
#
# _framework density 19.091059000000001
#
# number of rings (size 3 to 8) (size 9 to 14) (size 15 to 20)
#    0.000    2.154    0.000    5.077    0.000    2.462 
#    0.000    3.846    0.000    0.000    0.000    0.000 
#    0.000    0.000    0.000    0.000    0.000    0.000 
#
# Total GULP energy -322321.057059 kJ/mol
# GULP energy per Si atom -12396.963733 kJ/mol
# Density = 1.904761 g / cm^3
# Si number density = 19.091059 Si / 1000 Ang^3
#
#
#
# Elastic Constant Matrix: (Units=GPa)
#
#
# Indices 1 2 3 4 5 6 
#
# 1 88.8336 22.9511 16.6836 0.0000 1.3468 0.0000
# 2 22.9511 64.1421 15.3003 0.0000 -0.6370 0.0000
# 3 16.6836 15.3003 79.6013 0.0000 -13.2835 0.0000
# 4 0.0000 0.0000 0.0000 -29.8588 0.0000 -104.1922
# 5 1.3468 -0.6370 -13.2835 0.0000 22.5226 0.0000
# 6 0.0000 0.0000 0.0000 -104.1922 0.0000 -187.7138
#
#
#
# Elastic Compliance Matrix: (Units=1/GPa)
#
#
# Indices 1 2 3 4 5 6 
#
# 1 0.012762 -0.004048 -0.002266 0.000000 -0.002214 0.000000
# 2 -0.004048 0.017672 -0.002689 0.000000 -0.000844 0.000000
# 3 -0.002266 -0.002689 0.015045 0.000000 0.008933 0.000000
# 4 0.000000 0.000000 0.000000 0.035747 0.000000 -0.019842
# 5 -0.002214 -0.000844 0.008933 0.000000 0.049777 0.000000
# 6 0.000000 0.000000 0.000000 -0.019842 0.000000 0.005686
#
#
# Mechanical properties :
#
#
# Convention : Reuss Voigt Hill
#
# Bulk Modulus (GPa) = 36.40017 38.04966 37.22491
# Shear Modulus (GPa) = 30.51504 -27.16720 1.67392
#
# Velocity S-wave (km/s) = 4.00233 -3.77640 0.93740
# Velocity P-wave (km/s) = 6.36130 0.97925 4.55110
#
# Compressibility (1/GPa) = 0.02747240
#
# Stress axis : x y z
#
# Youngs Moduli (GPa) = 78.35765 56.58714 66.46656
#
# Poissons Ratio (x) = 0.22906 0.15063
# Poissons Ratio (y) = 0.31718 0.17874
# Poissons Ratio (z) = 0.17758 0.15217
#
# Static dielectric constant tensor:
#      x y z
#    x 3.648750 0.000000 -0.153510 
#    y 0.000000 3.256610 0.000000 
#    z -0.153510 0.000000 3.493780 
# 
# 
# High freq. dielectric constant tensor:
#      x y z
#    x 1.748880 0.000000 -0.012100 
#    y 0.000000 1.725870 0.000000 
#    z -0.012100 0.000000 1.743680 
# 
# From -- ./inp_files/236892.got.cif
#   From: 2010.06.25/outbox.cif.g09.slc.cpg/sg15_119_cif.got.tgz:236892.got - 2010.06.28 07:06:18.
