data_PCOD8131379
_publ_section_title
;
Structure prediction by ZEFSAII (Michael W. Deem and Ramdas Pophale) SiO2 
 PCOD8131379
Probable space group: C 2/C
;
_chemical_formula_sum "Si O2"
_cell_formula_units_Z 56
_cell_length_a 23.690184
_cell_length_b 15.057540
_cell_length_c 10.467861
_cell_angle_alpha 90.000000
_cell_angle_beta 49.793670
_cell_angle_gamma 90.000000
_cell_volume 2851.788092
_symmetry_space_group_name_H-M "C 2/C"
_symmetry_group_IT_number 15
_symmetry_cell_setting 'monoclinic'
loop_
_space_group_symop_operation_xyz
x,y,z
-x,y,1/2-z
-x,-y,-z
x,-y,1/2+z
1/2+x,1/2+y,z
1/2-x,1/2+y,1/2-z
1/2-x,1/2-y,-z
1/2+x,1/2-y,1/2+z
loop_
_atom_site_type_symbol
_atom_site_label
_atom_site_fract_x
_atom_site_fract_y
_atom_site_fract_z
Si Si1 0.496136 0.936346 0.121502
Si Si2 0.248623 0.504879 0.129940
Si Si3 0.080245 0.829258 0.475784
Si Si4 0.350966 0.847947 0.619327
Si Si5 0.088645 0.169892 0.263004
Si Si6 0.159445 0.652074 0.649578
Si Si7 0.155734 0.993212 0.257215
O O1 0.500000 0.990927 0.250000
O O2 0.423097 0.880712 0.218849
O O3 0.563554 0.869500 0.024127
O O4 0.500000 0.000000 0.000000
O O5 0.188420 0.585077 0.224340
O O6 0.211689 0.407884 0.162208
O O7 0.289033 0.499062 0.204964
O O8 0.301149 0.529047 0.936007
O O9 0.140523 0.753835 0.344811
O O10 0.092790 0.851647 0.606513
O O11 0.096957 0.915387 0.366530
O O12 0.994731 0.801937 0.576236
O O13 0.310659 0.853987 0.539937
O O14 0.150971 0.245062 0.205490
O O15 0.110678 0.084059 0.311589
#
# Coordination Sequence:
#
# PCOD8131379 Si02
#       7
#     8   8   8   8   8   8   8
#     4  10  18  32  60  90 118 153 197 256 304 350
#     4  12  24  39  62  93 132 166 197 244 315 377
#     4  10  21  41  68  92 117 161 212 264 304 349
#     4  10  20  37  63  93 123 156 204 253 307 365
#     4  10  21  41  69  91 116 161 218 259 297 359
#     4  10  20  37  64  93 119 158 210 250 301 367
#     4  12  25  42  61  90 129 168 203 251 305 370
#
# _framework density 19.636801999999999
#
# number of rings (size 3 to 8) (size 9 to 14) (size 15 to 20)
#    0.000    1.429    5.714    0.429    0.000    2.286 
#    0.000    0.000    0.000    0.000    0.000    0.000 
#    0.000    0.000    0.000    0.000    0.000    0.000 
#
# Total GULP energy -347011.618454 kJ/mol
# GULP energy per Si atom -12393.272088 kJ/mol
# Density = 1.959211 g / cm^3
# Si number density = 19.636802 Si / 1000 Ang^3
#
#
#
# Elastic Constant Matrix: (Units=GPa)
#
#
# Indices 1 2 3 4 5 6 
#
# 1 65.8717 30.5986 12.7911 0.0000 6.6004 0.0000
# 2 30.5986 138.3322 40.6492 0.0000 6.2875 0.0000
# 3 12.7911 40.6492 82.1057 0.0000 -2.5719 0.0000
# 4 0.0000 0.0000 0.0000 34.3619 0.0000 2.8113
# 5 6.6004 6.2875 -2.5719 0.0000 25.9404 0.0000
# 6 0.0000 0.0000 0.0000 2.8113 0.0000 31.5050
#
#
#
# Elastic Compliance Matrix: (Units=1/GPa)
#
#
# Indices 1 2 3 4 5 6 
#
# 1 0.017323 -0.003318 -0.001172 0.000000 -0.003720 0.000000
# 2 -0.003318 0.009257 -0.004122 0.000000 -0.001808 0.000000
# 3 -0.001172 -0.004122 0.014489 0.000000 0.002734 0.000000
# 4 0.000000 0.000000 0.000000 0.029316 0.000000 -0.002616
# 5 -0.003720 -0.001808 0.002734 0.000000 0.040206 0.000000
# 6 0.000000 0.000000 0.000000 -0.002616 0.000000 0.031974
#
#
# Mechanical properties :
#
#
# Convention : Reuss Voigt Hill
#
# Bulk Modulus (GPa) = 41.94305 50.48749 46.21527
# Shear Modulus (GPa) = 29.80851 31.84617 30.82734
#
# Velocity S-wave (km/s) = 3.90037 4.03148 3.96646
# Velocity P-wave (km/s) = 6.45675 6.88744 6.67557
#
# Compressibility (1/GPa) = 0.02384185
#
# Stress axis : x y z
#
# Youngs Moduli (GPa) = 57.72762 108.03210 69.01942
#
# Poissons Ratio (x) = 0.35847 0.08092
# Poissons Ratio (y) = 0.19155 0.28453
# Poissons Ratio (z) = 0.06768 0.44536
#
# Static dielectric constant tensor:
#      x y z
#    x 3.587340 0.000000 -0.077930 
#    y 0.000000 3.890700 0.000000 
#    z -0.077930 0.000000 3.571530 
# 
# 
# High freq. dielectric constant tensor:
#      x y z
#    x 1.767330 0.000000 -0.013970 
#    y 0.000000 1.770020 0.000000 
#    z -0.013970 0.000000 1.751480 
# 
# From -- ./inp_files/55658.got.cif
#   From: 2010.06.25/outbox.cif.g09.slc.cpg/sg15_28_cif.got.tgz:55658.got - 2010.06.28 07:06:18.
