data_PCOD8131937
_publ_section_title
;
Structure prediction by ZEFSAII (Michael W. Deem and Ramdas Pophale) SiO2 
 PCOD8131937
Probable space group: C 2/C
;
_chemical_formula_sum "Si O2"
_cell_formula_units_Z 44
_cell_length_a 12.714775
_cell_length_b 23.532456
_cell_length_c 8.594167
_cell_angle_alpha 90.000000
_cell_angle_beta 56.006866
_cell_angle_gamma 90.000000
_cell_volume 2132.009011
_symmetry_space_group_name_H-M "C 2/C"
_symmetry_group_IT_number 15
_symmetry_cell_setting 'monoclinic'
loop_
_space_group_symop_operation_xyz
x,y,z
-x,y,1/2-z
-x,-y,-z
x,-y,1/2+z
1/2+x,1/2+y,z
1/2-x,1/2+y,1/2-z
1/2-x,1/2-y,-z
1/2+x,1/2-y,1/2+z
loop_
_atom_site_type_symbol
_atom_site_label
_atom_site_fract_x
_atom_site_fract_y
_atom_site_fract_z
Si Si1 0.000000 0.317263 0.750000
Si Si2 0.377471 0.535897 0.657496
Si Si3 0.500000 0.220788 0.750000
Si Si4 0.618322 0.726105 0.445622
Si Si5 0.672143 0.164131 0.374459
Si Si6 0.347722 0.568868 0.361501
Si Si7 0.500000 0.369226 0.250000
O O1 0.932097 0.355170 0.670828
O O2 0.106634 0.278070 0.576432
O O3 0.500000 0.500000 0.500000
O O4 0.297557 0.561078 0.579155
O O5 0.301462 0.489311 0.818125
O O6 0.402024 0.590074 0.744362
O O7 0.465040 0.261571 0.637245
O O8 0.611184 0.180382 0.590974
O O9 0.761254 0.718671 0.262960
O O10 0.573451 0.667941 0.562485
O O11 0.780075 0.118358 0.321475
O O12 0.500000 0.579481 0.250000
#
# Coordination Sequence:
#
# PCOD8131937 Si02
#       7
#     4   8   4   8   8   8   4
#     4   9  22  42  58  87 127 160 216 249 292 370
#     4  10  18  35  55  93 130 151 191 257 312 380
#     4  10  24  42  59  91 131 161 218 254 290 368
#     4  10  21  37  62  92 121 164 202 255 313 370
#     4  11  22  41  64  86 124 170 205 256 307 362
#     4  10  21  36  63  93 126 153 197 256 328 367
#     4  11  20  34  61  96 134 155 190 251 334 372
#
# _framework density 20.637810000000002
#
# number of rings (size 3 to 8) (size 9 to 14) (size 15 to 20)
#    0.000    1.818    2.727    3.273    3.818    0.000 
#    9.818    0.000    0.000    3.273    0.000    0.000 
#    0.000    0.000    0.000    0.000    0.000    0.000 
#
# Total GULP energy -272537.047135 kJ/mol
# GULP energy per Si atom -12388.047597 kJ/mol
# Density = 2.059084 g / cm^3
# Si number density = 20.637810 Si / 1000 Ang^3
#
#
#
# Elastic Constant Matrix: (Units=GPa)
#
#
# Indices 1 2 3 4 5 6 
#
# 1 92.3751 54.7639 43.5898 0.0000 25.9134 0.0000
# 2 54.7639 88.1757 42.7370 0.0000 19.3591 0.0000
# 3 43.5898 42.7370 126.0555 0.0000 20.2034 0.0000
# 4 0.0000 0.0000 0.0000 -6.7819 0.0000 17.8199
# 5 25.9134 19.3591 20.2034 0.0000 42.1541 0.0000
# 6 0.0000 0.0000 0.0000 17.8199 0.0000 16.1807
#
#
#
# Elastic Compliance Matrix: (Units=1/GPa)
#
#
# Indices 1 2 3 4 5 6 
#
# 1 0.019380 -0.009431 -0.002479 0.000000 -0.006394 0.000000
# 2 -0.009431 0.018944 -0.002921 0.000000 -0.001503 0.000000
# 3 -0.002479 -0.002921 0.010097 0.000000 -0.001974 0.000000
# 4 0.000000 0.000000 0.000000 -0.037869 0.000000 0.041705
# 5 -0.006394 -0.001503 -0.001974 0.000000 0.029289 0.000000
# 6 0.000000 0.000000 0.000000 0.041705 0.000000 0.015872
#
#
# Mechanical properties :
#
#
# Convention : Reuss Voigt Hill
#
# Bulk Modulus (GPa) = 53.30779 65.42085 59.36432
# Shear Modulus (GPa) = 54.56815 21.34494 37.95654
#
# Velocity S-wave (km/s) = 5.14765 3.21949 4.29321
# Velocity P-wave (km/s) = 7.82415 6.75192 7.30773
#
# Compressibility (1/GPa) = 0.01875899
#
# Stress axis : x y z
#
# Youngs Moduli (GPa) = 51.59894 52.78764 99.04044
#
# Poissons Ratio (x) = 0.49784 0.24556
# Poissons Ratio (y) = 0.48663 0.28925
# Poissons Ratio (z) = 0.12794 0.15417
#
# Static dielectric constant tensor:
#      x y z
#    x 3.649540 0.000000 0.441960 
#    y 0.000000 3.580330 0.000000 
#    z 0.441960 0.000000 4.352780 
# 
# 
# High freq. dielectric constant tensor:
#      x y z
#    x 1.782730 0.000000 0.038700 
#    y 0.000000 1.787250 0.000000 
#    z 0.038700 0.000000 1.825070 
# 
# From -- ./inp_files/31865.got.cif
#   From: 2010.06.25/outbox.cif.g09.slc.cpg/sg15_16_cif.got.tgz:31865.got - 2010.06.28 07:06:18.
