data_PCOD8131139
_publ_section_title
;
Structure prediction by ZEFSAII (Michael W. Deem and Ramdas Pophale) SiO2 
 PCOD8131139
Probable space group: C 2/C
;
_chemical_formula_sum "Si O2"
_cell_formula_units_Z 40
_cell_length_a 23.335823
_cell_length_b 14.531233
_cell_length_c 17.907762
_cell_angle_alpha 90.000000
_cell_angle_beta 18.600536
_cell_angle_gamma 90.000000
_cell_volume 1936.931476
_symmetry_space_group_name_H-M "C 2/C"
_symmetry_group_IT_number 15
_symmetry_cell_setting 'monoclinic'
loop_
_space_group_symop_operation_xyz
x,y,z
-x,y,1/2-z
-x,-y,-z
x,-y,1/2+z
1/2+x,1/2+y,z
1/2-x,1/2+y,1/2-z
1/2-x,1/2-y,-z
1/2+x,1/2-y,1/2+z
loop_
_atom_site_type_symbol
_atom_site_label
_atom_site_fract_x
_atom_site_fract_y
_atom_site_fract_z
Si Si1 0.199694 0.148762 0.535314
Si Si2 0.736574 0.842581 0.109670
Si Si3 0.962865 0.524266 0.131030
Si Si4 0.571782 0.664100 0.280379
Si Si5 0.808006 0.504083 0.521780
O O1 0.250000 0.250000 0.500000
O O2 0.335108 0.113177 0.302702
O O3 0.213806 0.083897 0.590379
O O4 0.000000 0.145907 0.750000
O O5 0.599719 0.757754 0.293639
O O6 0.636236 0.935791 0.212139
O O7 0.856301 0.817968 0.891120
O O8 0.859029 0.856151 0.032935
O O9 0.149068 0.539143 0.946757
O O10 0.000000 0.500000 0.000000
O O11 0.672726 0.581056 0.196636
O O12 0.000000 0.475388 0.250000
#
# Coordination Sequence:
#
# PCOD8131139 Si02
#       5
#     8   8   8   8   8
#     4  11  22  42  68  92 119 170 225 259 302 387
#     4  10  19  31  54  86 120 149 188 239 298 354
#     4  11  23  40  60  92 128 157 201 267 319 359
#     4  10  18  31  56  85 114 148 199 241 280 356
#     4  10  19  35  58  85 119 159 205 247 302 370
#
# _framework density 20.651221
#
# number of rings (size 3 to 8) (size 9 to 14) (size 15 to 20)
#    0.000    1.600    4.000    4.200    2.800    0.000 
#    0.000   12.000    0.000    0.000    0.000    0.000 
#    0.000    0.000    0.000    0.000    0.000    0.000 
#
# Total GULP energy -247859.454613 kJ/mol
# GULP energy per Si atom -12392.972731 kJ/mol
# Density = 2.060422 g / cm^3
# Si number density = 20.651221 Si / 1000 Ang^3
#
#
#
# Elastic Constant Matrix: (Units=GPa)
#
#
# Indices 1 2 3 4 5 6 
#
# 1 133.2063 37.2472 59.6158 -0.0064 -29.0486 0.0045
# 2 37.2472 149.2425 46.5258 -0.0176 -19.4491 0.0141
# 3 59.6158 46.5258 70.0952 -0.0188 -40.6705 0.0156
# 4 -0.0064 -0.0176 -0.0188 24.7624 0.0109 -16.1709
# 5 -29.0486 -19.4491 -40.6705 0.0109 46.8365 -0.0084
# 6 0.0045 0.0141 0.0156 -16.1709 -0.0084 30.9034
#
#
#
# Elastic Compliance Matrix: (Units=1/GPa)
#
#
# Indices 1 2 3 4 5 6 
#
# 1 0.012340 0.000439 -0.012577 -0.000004 -0.003085 0.000002
# 2 0.000439 0.008643 -0.007799 0.000002 -0.002911 0.000000
# 3 -0.012577 -0.007799 0.047836 0.000011 0.030499 -0.000005
# 4 -0.000004 0.000002 0.000011 0.061347 0.000000 0.032101
# 5 -0.003085 -0.002911 0.030499 0.000000 0.044713 -0.000002
# 6 0.000002 0.000000 -0.000005 0.032101 -0.000002 0.049157
#
#
# Mechanical properties :
#
#
# Convention : Reuss Voigt Hill
#
# Bulk Modulus (GPa) = 34.54838 71.03573 52.79206
# Shear Modulus (GPa) = 18.27766 34.44414 26.36090
#
# Velocity S-wave (km/s) = 2.97823 4.08842 3.57666
# Velocity P-wave (km/s) = 5.34717 7.53389 6.53268
#
# Compressibility (1/GPa) = 0.02894492
#
# Stress axis : x y z
#
# Youngs Moduli (GPa) = 81.03510 115.70138 20.90484
#
# Poissons Ratio (x) = -0.05078 0.26292
# Poissons Ratio (y) = -0.03556 0.16304
# Poissons Ratio (z) = 1.01917 0.90237
#
# Static dielectric constant tensor:
#      x y z
#    x 4.158710 0.000030 -0.527340 
#    y 0.000030 3.804970 0.000080 
#    z -0.527340 0.000080 3.849120 
# 
# 
# High freq. dielectric constant tensor:
#      x y z
#    x 1.798950 0.000000 -0.049600 
#    y 0.000000 1.811590 0.000000 
#    z -0.049600 0.000000 1.783740 
# 
# From -- ./inp_files/46276.got.cif
#   From: 2010.06.25/outbox.cif.g09.slc.cpg/sg15_24_cif.got.tgz:46276.got - 2010.06.28 07:06:18.
