data_PCOD8131477
_publ_section_title
;
Structure prediction by ZEFSAII (Michael W. Deem and Ramdas Pophale) SiO2 
 PCOD8131477
Probable space group: C 2/C
;
_chemical_formula_sum "Si O2"
_cell_formula_units_Z 44
_cell_length_a 5.100293
_cell_length_b 26.896230
_cell_length_c 17.177938
_cell_angle_alpha 90.000000
_cell_angle_beta 78.556544
_cell_angle_gamma 90.000000
_cell_volume 2309.602560
_symmetry_space_group_name_H-M "C 2/C"
_symmetry_group_IT_number 15
_symmetry_cell_setting 'monoclinic'
loop_
_space_group_symop_operation_xyz
x,y,z
-x,y,1/2-z
-x,-y,-z
x,-y,1/2+z
1/2+x,1/2+y,z
1/2-x,1/2+y,1/2-z
1/2-x,1/2-y,-z
1/2+x,1/2-y,1/2+z
loop_
_atom_site_type_symbol
_atom_site_label
_atom_site_fract_x
_atom_site_fract_y
_atom_site_fract_z
Si Si1 0.500000 0.748232 0.750000
Si Si2 0.721168 0.343766 0.793452
Si Si3 0.442160 0.896689 0.171145
Si Si4 0.070541 0.556686 0.509001
Si Si5 0.104329 0.883287 0.968144
Si Si6 0.537419 0.661966 0.864298
O O1 0.243360 0.784093 0.778312
O O2 0.520397 0.716734 0.828696
O O3 0.500000 0.366857 0.750000
O O4 0.632369 0.353509 0.886830
O O5 0.000000 0.369675 0.750000
O O6 0.500000 0.923810 0.250000
O O7 0.650834 0.851192 0.156122
O O8 0.144646 0.874544 0.178452
O O9 0.501013 0.937364 0.103351
O O10 0.376405 0.573809 0.476648
O O11 0.000000 0.500000 0.500000
O O12 0.886552 0.590455 0.465507
O O13 0.054387 0.842919 0.040024
#
# Coordination Sequence:
#
# PCOD8131477 Si02
#       6
#     4   8   8   8   8   8
#     4  10  22  34  58  84 116 148 204 230 282 328
#     4  10  23  38  56  81 117 157 197 234 277 337
#     4  10  18  33  54  82 114 141 180 232 296 332
#     4  10  21  37  61  86 111 146 190 236 286 353
#     4  10  21  40  58  82 116 154 186 235 301 336
#     4  10  20  32  58  82 112 150 183 238 286 331
#
# _framework density 19.050898
#
# number of rings (size 3 to 8) (size 9 to 14) (size 15 to 20)
#    0.545    1.455    1.818    1.636    2.545    0.727 
#    0.000    3.636    0.000    2.182    0.000    0.000 
#    0.000    0.000    0.000    0.000    0.000    0.000 
#
# Total GULP energy -272579.541857 kJ/mol
# GULP energy per Si atom -12389.979175 kJ/mol
# Density = 1.900754 g / cm^3
# Si number density = 19.050898 Si / 1000 Ang^3
#
#
#
# Elastic Constant Matrix: (Units=GPa)
#
#
# Indices 1 2 3 4 5 6 
#
# 1 98.4921 16.0387 42.9457 0.0000 9.4773 0.0000
# 2 16.0387 66.5670 55.8214 0.0000 0.4645 0.0000
# 3 42.9457 55.8214 159.6809 0.0000 13.7704 0.0000
# 4 0.0000 0.0000 0.0000 25.0595 0.0000 3.1637
# 5 9.4773 0.4645 13.7704 0.0000 30.1307 0.0000
# 6 0.0000 0.0000 0.0000 3.1637 0.0000 13.1499
#
#
#
# Elastic Compliance Matrix: (Units=1/GPa)
#
#
# Indices 1 2 3 4 5 6 
#
# 1 0.011667 -0.000476 -0.002764 0.000000 -0.002399 0.000000
# 2 -0.000476 0.021571 -0.007701 0.000000 0.003337 0.000000
# 3 -0.002764 -0.007701 0.010007 0.000000 -0.003585 0.000000
# 4 0.000000 0.000000 0.000000 0.041155 0.000000 -0.009901
# 5 -0.002399 0.003337 -0.003585 0.000000 0.035530 0.000000
# 6 0.000000 0.000000 0.000000 -0.009901 0.000000 0.078428
#
#
# Mechanical properties :
#
#
# Convention : Reuss Voigt Hill
#
# Bulk Modulus (GPa) = 46.80969 61.59460 54.20215
# Shear Modulus (GPa) = 21.99129 27.66365 24.82747
#
# Velocity S-wave (km/s) = 3.40125 3.81477 3.61393
# Velocity P-wave (km/s) = 6.32842 7.19757 6.77694
#
# Compressibility (1/GPa) = 0.02136310
#
# Stress axis : x y z
#
# Youngs Moduli (GPa) = 85.71292 46.35752 99.92833
#
# Poissons Ratio (x) = 0.02207 0.27625
# Poissons Ratio (y) = 0.04080 0.76952
# Poissons Ratio (z) = 0.23695 0.35698
#
# Static dielectric constant tensor:
#      x y z
#    x 3.847840 0.000000 0.142910 
#    y 0.000000 3.038180 0.000000 
#    z 0.142910 0.000000 3.712640 
# 
# 
# High freq. dielectric constant tensor:
#      x y z
#    x 1.761450 0.000000 0.005480 
#    y 0.000000 1.697370 0.000000 
#    z 0.005480 0.000000 1.752070 
# 
# From -- ./inp_files/130213.got.cif
#   From: 2010.06.25/outbox.cif.g09.slc.cpg/sg15_66_cif.got.tgz:130213.got - 2010.06.28 07:06:18.
