data_PCOD8131829
_publ_section_title
;
Structure prediction by ZEFSAII (Michael W. Deem and Ramdas Pophale) SiO2 
 PCOD8131829
Probable space group: C 2/C
;
_chemical_formula_sum "Si O2"
_cell_formula_units_Z 40
_cell_length_a 9.139018
_cell_length_b 16.570563
_cell_length_c 12.459992
_cell_angle_alpha 90.000000
_cell_angle_beta 50.252424
_cell_angle_gamma 90.000000
_cell_volume 1450.797658
_symmetry_space_group_name_H-M "C 2/C"
_symmetry_group_IT_number 15
_symmetry_cell_setting 'monoclinic'
loop_
_space_group_symop_operation_xyz
x,y,z
-x,y,1/2-z
-x,-y,-z
x,-y,1/2+z
1/2+x,1/2+y,z
1/2-x,1/2+y,1/2-z
1/2-x,1/2-y,-z
1/2+x,1/2-y,1/2+z
loop_
_atom_site_type_symbol
_atom_site_label
_atom_site_fract_x
_atom_site_fract_y
_atom_site_fract_z
Si Si1 0.219344 0.712688 0.838171
Si Si2 0.080713 0.156653 0.552120
Si Si3 0.114164 0.434689 0.796948
Si Si4 0.082444 0.401930 0.049119
Si Si5 0.522578 0.475594 0.615266
O O1 0.394732 0.709624 0.672083
O O2 0.271498 0.657142 0.917674
O O3 0.176511 0.803097 0.900728
O O4 0.032114 0.678622 0.861940
O O5 0.036310 0.062061 0.547723
O O6 0.082991 0.387403 0.921016
O O7 0.334668 0.431742 0.661740
O O8 0.000000 0.395903 0.750000
O O9 0.047997 0.525989 0.848427
O O10 0.296976 0.416100 0.991794
O O11 0.500000 0.497214 0.750000
#
# Coordination Sequence:
#
# PCOD8131829 Si02
#       5
#     8   8   8   8   8
#     4  10  19  35  60  92 129 177 218 281 330 407
#     4  10  18  34  60  91 127 173 226 267 337 402
#     4  10  20  35  60  92 123 166 221 279 334 399
#     4  10  20  38  61  89 133 171 215 282 350 391
#     4  10  18  36  64  88 126 175 214 276 343 397
#
# _framework density 27.571041999999998
#
# number of rings (size 3 to 8) (size 9 to 14) (size 15 to 20)
#    0.000    2.000    4.000    2.400    0.000    0.800 
#   10.800    0.000    0.000    4.800    0.000    0.000 
#    0.000    0.000    0.000    0.000    0.000    0.000 
#
# Total GULP energy -247867.308825 kJ/mol
# GULP energy per Si atom -12393.365441 kJ/mol
# Density = 2.750829 g / cm^3
# Si number density = 27.571042 Si / 1000 Ang^3
#
#
#
# Elastic Constant Matrix: (Units=GPa)
#
#
# Indices 1 2 3 4 5 6 
#
# 1 149.4714 25.5642 67.1030 0.0000 -51.3252 0.0000
# 2 25.5642 97.0196 28.7131 0.0000 -39.6348 0.0000
# 3 67.1030 28.7131 152.4117 0.0000 -26.7974 0.0000
# 4 0.0000 0.0000 0.0000 44.9748 0.0000 -6.0778
# 5 -51.3252 -39.6348 -26.7974 0.0000 63.9741 0.0000
# 6 0.0000 0.0000 0.0000 -6.0778 0.0000 26.8361
#
#
#
# Elastic Compliance Matrix: (Units=1/GPa)
#
#
# Indices 1 2 3 4 5 6 
#
# 1 0.010855 0.001542 -0.003639 0.000000 0.008140 0.000000
# 2 0.001542 0.014220 -0.001718 0.000000 0.009327 0.000000
# 3 -0.003639 -0.001718 0.008405 0.000000 -0.000463 0.000000
# 4 0.000000 0.000000 0.000000 0.022937 0.000000 0.005195
# 5 0.008140 0.009327 -0.000463 0.000000 0.027747 0.000000
# 6 0.000000 0.000000 0.000000 0.005195 0.000000 0.038440
#
#
# Mechanical properties :
#
#
# Convention : Reuss Voigt Hill
#
# Bulk Modulus (GPa) = 38.68255 71.29591 54.98923
# Shear Modulus (GPa) = 36.01029 45.65849 40.83439
#
# Velocity S-wave (km/s) = 3.61791 4.07385 3.85263
# Velocity P-wave (km/s) = 5.61364 6.93134 6.30700
#
# Compressibility (1/GPa) = 0.02585145
#
# Stress axis : x y z
#
# Youngs Moduli (GPa) = 92.12275 70.32507 118.97086
#
# Poissons Ratio (x) = -0.10844 0.43288
# Poissons Ratio (y) = -0.14205 0.20437
# Poissons Ratio (z) = 0.33519 0.12080
#
# Static dielectric constant tensor:
#      x y z
#    x 4.974320 0.000000 -0.374290 
#    y 0.000000 4.264150 0.000000 
#    z -0.374290 0.000000 5.094320 
# 
# 
# High freq. dielectric constant tensor:
#      x y z
#    x 2.104340 0.000000 -0.002740 
#    y 0.000000 2.080510 0.000000 
#    z -0.002740 0.000000 2.154930 
# 
# From -- ./inp_files/135752.got.cif
#   From: 2010.06.25/outbox.cif.g09.slc.cpg/sg15_68_cif.got.tgz:135752.got - 2010.06.28 07:06:18.
