data_PCOD8131364
_publ_section_title
;
Structure prediction by ZEFSAII (Michael W. Deem and Ramdas Pophale) SiO2 
 PCOD8131364
Probable space group: C 2/C
;
_chemical_formula_sum "Si O2"
_cell_formula_units_Z 56
_cell_length_a 9.539895
_cell_length_b 20.750389
_cell_length_c 28.707192
_cell_angle_alpha 90.000000
_cell_angle_beta 149.206605
_cell_angle_gamma 90.000000
_cell_volume 2909.262267
_symmetry_space_group_name_H-M "C 2/C"
_symmetry_group_IT_number 15
_symmetry_cell_setting 'monoclinic'
loop_
_space_group_symop_operation_xyz
x,y,z
-x,y,1/2-z
-x,-y,-z
x,-y,1/2+z
1/2+x,1/2+y,z
1/2-x,1/2+y,1/2-z
1/2-x,1/2-y,-z
1/2+x,1/2-y,1/2+z
loop_
_atom_site_type_symbol
_atom_site_label
_atom_site_fract_x
_atom_site_fract_y
_atom_site_fract_z
Si Si1 0.947894 0.856442 0.869847
Si Si2 0.312176 0.314904 0.117396
Si Si3 0.500000 0.240085 0.250000
Si Si4 0.304494 0.346445 0.354383
Si Si5 0.208189 0.748242 0.072137
Si Si6 0.500000 0.044635 0.250000
Si Si7 0.269281 0.539059 0.906856
Si Si8 0.595853 0.868658 0.429870
O O1 0.763857 0.800561 0.839059
O O2 0.743624 0.913406 0.795493
O O3 0.129650 0.820901 0.881478
O O4 0.134440 0.885438 0.963580
O O5 0.545833 0.281207 0.215953
O O6 0.478659 0.351241 0.125182
O O7 0.160582 0.365564 0.108342
O O8 0.096884 0.264671 0.033808
O O9 0.309263 0.276215 0.380488
O O10 0.409188 0.400901 0.420094
O O11 0.000000 0.362756 0.250000
O O12 0.366095 0.799238 0.084113
O O13 0.394007 0.003686 0.176453
O O14 0.056636 0.572082 0.882771
O O15 0.500000 0.500000 0.000000
#
# Coordination Sequence:
#
# PCOD8131364 Si02
#       8
#     8   8   4   8   8   4   8   8
#     4  10  18  32  58  91 113 152 200 239 295 364
#     4  11  21  34  58  92 120 159 192 241 317 362
#     4  11  18  28  54  90 124 144 185 238 294 373
#     4  11  24  38  60  88 121 156 198 256 307 360
#     4  10  19  38  56  90 124 151 188 244 305 372
#     4  11  22  36  64  92 116 166 207 252 298 363
#     4  11  23  42  60  84 118 162 214 250 296 352
#     4  10  19  37  61  85 118 158 199 247 289 367
#
# _framework density 19.248867000000001
#
# number of rings (size 3 to 8) (size 9 to 14) (size 15 to 20)
#    0.000    1.429    5.000    2.143    2.000    0.000 
#    0.000    2.143    0.000    0.000    3.714    0.000 
#    0.000    0.000    0.000    0.000    0.000    0.000 
#
# Total GULP energy -346966.906350 kJ/mol
# GULP energy per Si atom -12391.675227 kJ/mol
# Density = 1.920506 g / cm^3
# Si number density = 19.248867 Si / 1000 Ang^3
#
#
#
# Elastic Constant Matrix: (Units=GPa)
#
#
# Indices 1 2 3 4 5 6 
#
# 1 143.6782 57.4729 48.8779 -0.0028 4.5306 -0.0042
# 2 57.4729 103.5556 50.5111 0.0027 -7.4878 0.0003
# 3 48.8779 50.5111 101.8125 -0.0010 -8.0816 -0.0027
# 4 -0.0028 0.0027 -0.0010 21.2226 -0.0042 -11.5936
# 5 4.5306 -7.4878 -8.0816 -0.0042 28.6811 -0.0054
# 6 -0.0042 0.0003 -0.0027 -11.5936 -0.0054 28.1002
#
#
#
# Elastic Compliance Matrix: (Units=1/GPa)
#
#
# Indices 1 2 3 4 5 6 
#
# 1 0.009742 -0.004276 -0.002829 0.000002 -0.003453 0.000001
# 2 -0.004276 0.014687 -0.004987 -0.000003 0.003105 -0.000002
# 3 -0.002829 -0.004987 0.013897 0.000003 0.003061 0.000003
# 4 0.000002 -0.000003 0.000003 0.060830 0.000013 0.025097
# 5 -0.003453 0.003105 0.003061 0.000013 0.037085 0.000012
# 6 0.000001 -0.000002 0.000003 0.025097 0.000012 0.045942
#
#
# Mechanical properties :
#
#
# Convention : Reuss Voigt Hill
#
# Bulk Modulus (GPa) = 70.71721 73.64111 72.17916
# Shear Modulus (GPa) = 23.68752 28.41308 26.05030
#
# Velocity S-wave (km/s) = 3.51179 3.84616 3.68277
# Velocity P-wave (km/s) = 7.29806 7.62000 7.46076
#
# Compressibility (1/GPa) = 0.01414083
#
# Stress axis : x y z
#
# Youngs Moduli (GPa) = 102.64866 68.08738 71.95553
#
# Poissons Ratio (x) = 0.29116 0.20359
# Poissons Ratio (y) = 0.43896 0.35885
# Poissons Ratio (z) = 0.29043 0.33956
#
# Static dielectric constant tensor:
#      x y z
#    x 3.442230 0.000000 -0.091150 
#    y 0.000000 3.507570 0.000000 
#    z -0.091150 0.000000 3.734600 
# 
# 
# High freq. dielectric constant tensor:
#      x y z
#    x 1.732730 0.000000 -0.008310 
#    y 0.000000 1.733130 0.000000 
#    z -0.008310 0.000000 1.760420 
# 
# From -- ./inp_files/192055.got.cif
#   From: 2010.06.25/outbox.cif.g09.slc.cpg/sg15_97_cif.got.tgz:192055.got - 2010.06.28 07:06:18.
