data_PCOD8131116
_publ_section_title
;
Structure prediction by ZEFSAII (Michael W. Deem and Ramdas Pophale) SiO2 
 PCOD8131116
Probable space group: C 2/C
;
_chemical_formula_sum "Si O2"
_cell_formula_units_Z 44
_cell_length_a 8.777297
_cell_length_b 24.498166
_cell_length_c 13.014752
_cell_angle_alpha 90.000000
_cell_angle_beta 121.824511
_cell_angle_gamma 90.000000
_cell_volume 2377.820733
_symmetry_space_group_name_H-M "C 2/C"
_symmetry_group_IT_number 15
_symmetry_cell_setting 'monoclinic'
loop_
_space_group_symop_operation_xyz
x,y,z
-x,y,1/2-z
-x,-y,-z
x,-y,1/2+z
1/2+x,1/2+y,z
1/2-x,1/2+y,1/2-z
1/2-x,1/2-y,-z
1/2+x,1/2-y,1/2+z
loop_
_atom_site_type_symbol
_atom_site_label
_atom_site_fract_x
_atom_site_fract_y
_atom_site_fract_z
Si Si1 0.000000 0.919454 0.250000
Si Si2 0.201343 0.716219 0.834902
Si Si3 0.500000 0.957534 0.250000
Si Si4 0.000000 0.904758 0.750000
Si Si5 0.849652 0.629202 0.853141
Si Si6 0.192049 0.673616 0.057235
Si Si7 0.629112 0.505172 0.139926
O O1 0.172446 0.886760 0.354707
O O2 0.088168 0.952226 0.190582
O O3 0.234615 0.673762 0.755365
O O4 0.315277 0.772258 0.873446
O O5 0.000000 0.737225 0.750000
O O6 0.240682 0.686449 0.956437
O O7 0.542323 0.918959 0.167521
O O8 0.333484 0.999014 0.172418
O O9 0.837958 0.869206 0.648317
O O10 0.910050 0.940710 0.808114
O O11 0.989085 0.651152 0.987253
O O12 0.500000 0.500000 0.000000
#
# Coordination Sequence:
#
# PCOD8131116 Si02
#       7
#     4   8   4   4   8   8   8
#     4   9  22  36  54  80 106 142 196 211 276 334
#     4   9  17  31  54  83 106 136 179 225 276 317
#     4  10  18  35  56  74 100 143 188 210 274 326
#     4  11  22  33  54  88 112 141 180 227 282 320
#     4  10  18  35  57  79 106 147 181 226 275 328
#     4  10  18  31  54  83 109 133 182 230 262 328
#     4  10  22  37  54  79 111 146 180 231 269 321
#
# _framework density 18.504337
#
# number of rings (size 3 to 8) (size 9 to 14) (size 15 to 20)
#    0.000    2.182    3.636    1.091    2.545    1.455 
#    0.000    6.364    0.000    1.091    0.000    0.000 
#    0.000    0.000    0.000    0.000    0.000    0.000 
#
# Total GULP energy -272538.313161 kJ/mol
# GULP energy per Si atom -12388.105144 kJ/mol
# Density = 1.846222 g / cm^3
# Si number density = 18.504337 Si / 1000 Ang^3
#
#
#
# Elastic Constant Matrix: (Units=GPa)
#
#
# Indices 1 2 3 4 5 6 
#
# 1 111.3380 46.3550 42.2186 0.0000 33.8138 0.0000
# 2 46.3550 102.0853 55.2508 0.0000 24.0321 0.0000
# 3 42.2186 55.2508 118.8217 0.0000 30.5351 0.0000
# 4 0.0000 0.0000 0.0000 16.4517 0.0000 25.1900
# 5 33.8138 24.0321 30.5351 0.0000 28.4115 0.0000
# 6 0.0000 0.0000 0.0000 25.1900 0.0000 6.7110
#
#
#
# Elastic Compliance Matrix: (Units=1/GPa)
#
#
# Indices 1 2 3 4 5 6 
#
# 1 0.014873 -0.003266 0.000101 0.000000 -0.015047 0.000000
# 2 -0.003266 0.014666 -0.004794 0.000000 -0.003366 0.000000
# 3 0.000101 -0.004794 0.013260 0.000000 -0.010317 0.000000
# 4 0.000000 0.000000 0.000000 -0.012804 0.000000 0.048061
# 5 -0.015047 -0.003366 -0.010317 0.000000 0.067040 0.000000
# 6 0.000000 0.000000 0.000000 0.048061 0.000000 -0.031389
#
#
# Mechanical properties :
#
#
# Convention : Reuss Voigt Hill
#
# Bulk Modulus (GPa) = 37.20096 68.87708 53.03902
# Shear Modulus (GPa) = 55.23379 22.87622 39.05501
#
# Velocity S-wave (km/s) = 5.46936 3.51987 4.59910
# Velocity P-wave (km/s) = 7.74808 7.33636 7.54503
#
# Compressibility (1/GPa) = 0.02688102
#
# Stress axis : x y z
#
# Youngs Moduli (GPa) = 67.23625 68.18623 75.41205
#
# Poissons Ratio (x) = 0.22269 -0.00761
# Poissons Ratio (y) = 0.21959 0.36153
# Poissons Ratio (z) = -0.00678 0.32689
#
# Static dielectric constant tensor:
#      x y z
#    x 3.374250 0.000000 0.401210 
#    y 0.000000 4.891870 0.000000 
#    z 0.401210 0.000000 0.926090 
# 
# 
# High freq. dielectric constant tensor:
#      x y z
#    x 1.695300 0.000000 0.029030 
#    y 0.000000 1.725620 0.000000 
#    z 0.029030 0.000000 1.718210 
# 
# From -- ./inp_files/78742.got.cif
#   From: 2010.06.25/outbox.cif.g09.slc.cpg/sg15_40_cif.got.tgz:78742.got - 2010.06.28 07:06:18.
