data_PCOD8131648
_publ_section_title
;
Structure prediction by ZEFSAII (Michael W. Deem and Ramdas Pophale) SiO2 
 PCOD8131648
Probable space group: C 2/C
;
_chemical_formula_sum "Si O2"
_cell_formula_units_Z 44
_cell_length_a 11.982381
_cell_length_b 14.212402
_cell_length_c 20.316766
_cell_angle_alpha 90.000000
_cell_angle_beta 38.413260
_cell_angle_gamma 90.000000
_cell_volume 2149.744788
_symmetry_space_group_name_H-M "C 2/C"
_symmetry_group_IT_number 15
_symmetry_cell_setting 'monoclinic'
loop_
_space_group_symop_operation_xyz
x,y,z
-x,y,1/2-z
-x,-y,-z
x,-y,1/2+z
1/2+x,1/2+y,z
1/2-x,1/2+y,1/2-z
1/2-x,1/2-y,-z
1/2+x,1/2-y,1/2+z
loop_
_atom_site_type_symbol
_atom_site_label
_atom_site_fract_x
_atom_site_fract_y
_atom_site_fract_z
Si Si1 0.070259 0.613100 0.434457
Si Si2 0.688059 0.783257 0.191222
Si Si3 0.648051 0.791544 0.352797
Si Si4 0.235698 0.013435 0.564073
Si Si5 0.500000 0.354162 0.250000
Si Si6 0.848131 0.839456 0.988136
O O1 0.176577 0.698470 0.352414
O O2 0.212445 0.532927 0.389307
O O3 0.983832 0.643110 0.544353
O O4 0.912284 0.574087 0.459458
O O5 0.500000 0.742587 0.250000
O O6 0.656163 0.836153 0.275206
O O7 0.776085 0.851953 0.096198
O O8 0.843744 0.786537 0.295140
O O9 0.560741 0.686335 0.390236
O O10 0.179573 0.937701 0.535656
O O11 0.070135 0.082372 0.656477
O O12 0.750000 0.750000 0.000000
#
# Coordination Sequence:
#
# PCOD8131648 Si02
#       6
#     8   8   8   8   4   8
#     4   9  19  32  52  88 111 145 184 241 272 329
#     4  11  18  31  60  85 110 148 191 234 285 326
#     4  10  20  38  53  84 120 146 191 233 280 337
#     4  10  18  34  53  81 118 139 189 232 280 325
#     4  10  24  36  58  82 116 156 186 230 284 342
#     4  11  19  33  55  88 116 144 190 238 276 333
#
# _framework density 20.467544
#
# number of rings (size 3 to 8) (size 9 to 14) (size 15 to 20)
#    0.000    1.818    5.455    0.000    3.818    0.000 
#    0.000    9.091    0.000    0.000    4.727    0.000 
#    0.000    0.000    0.000    0.000    0.000    0.000 
#
# Total GULP energy -272617.479967 kJ/mol
# GULP energy per Si atom -12391.703635 kJ/mol
# Density = 2.042096 g / cm^3
# Si number density = 20.467544 Si / 1000 Ang^3
#
#
#
# Elastic Constant Matrix: (Units=GPa)
#
#
# Indices 1 2 3 4 5 6 
#
# 1 106.8357 50.5688 57.3679 0.0000 -14.3625 0.0000
# 2 50.5688 79.8169 32.6119 -0.0001 -14.4426 0.0000
# 3 57.3679 32.6119 101.8337 -0.0003 -3.6833 0.0000
# 4 0.0000 -0.0001 -0.0003 10.6005 0.0000 -5.9621
# 5 -14.3625 -14.4426 -3.6833 0.0000 42.2063 0.0000
# 6 0.0000 0.0000 0.0000 -5.9621 0.0000 42.4891
#
#
#
# Elastic Compliance Matrix: (Units=1/GPa)
#
#
# Indices 1 2 3 4 5 6 
#
# 1 0.017058 -0.007411 -0.007141 0.000000 0.002646 0.000000
# 2 -0.007411 0.018559 -0.001635 0.000000 0.003686 0.000000
# 3 -0.007141 -0.001635 0.014303 0.000000 -0.001741 0.000000
# 4 0.000000 0.000000 0.000000 0.102419 0.000000 0.014371
# 5 0.002646 0.003686 -0.001741 0.000000 0.025703 0.000000
# 6 0.000000 0.000000 0.000000 0.014371 0.000000 0.025552
#
#
# Mechanical properties :
#
#
# Convention : Reuss Voigt Hill
#
# Bulk Modulus (GPa) = 56.99037 63.28706 60.13871
# Shear Modulus (GPa) = 20.67685 28.92168 24.79927
#
# Velocity S-wave (km/s) = 3.18185 3.76314 3.48464
# Velocity P-wave (km/s) = 6.43457 7.06183 6.75548
#
# Compressibility (1/GPa) = 0.01754682
#
# Stress axis : x y z
#
# Youngs Moduli (GPa) = 58.62346 53.88193 69.91420
#
# Poissons Ratio (x) = 0.39932 0.49923
# Poissons Ratio (y) = 0.43446 0.11432
# Poissons Ratio (z) = 0.41861 0.08811
#
# Static dielectric constant tensor:
#      x y z
#    x 3.761830 0.000000 -0.297530 
#    y 0.000000 3.499390 0.000000 
#    z -0.297530 0.000000 4.020420 
# 
# 
# High freq. dielectric constant tensor:
#      x y z
#    x 1.782390 0.000000 -0.020110 
#    y 0.000000 1.759100 0.000000 
#    z -0.020110 0.000000 1.812990 
# 
# From -- ./inp_files/238600.got.cif
#   From: 2010.06.25/outbox.cif.g09.slc.cpg/sg15_120_cif.got.tgz:238600.got - 2010.06.28 07:06:18.
