data_PCOD8131383
_publ_section_title
;
Structure prediction by ZEFSAII (Michael W. Deem and Ramdas Pophale) SiO2 
 PCOD8131383
Probable space group: C 2/C
;
_chemical_formula_sum "Si O2"
_cell_formula_units_Z 52
_cell_length_a 11.565064
_cell_length_b 14.027303
_cell_length_c 26.936878
_cell_angle_alpha 90.000000
_cell_angle_beta 36.726115
_cell_angle_gamma 90.000000
_cell_volume 2613.146651
_symmetry_space_group_name_H-M "C 2/C"
_symmetry_group_IT_number 15
_symmetry_cell_setting 'monoclinic'
loop_
_space_group_symop_operation_xyz
x,y,z
-x,y,1/2-z
-x,-y,-z
x,-y,1/2+z
1/2+x,1/2+y,z
1/2-x,1/2+y,1/2-z
1/2-x,1/2-y,-z
1/2+x,1/2-y,1/2+z
loop_
_atom_site_type_symbol
_atom_site_label
_atom_site_fract_x
_atom_site_fract_y
_atom_site_fract_z
Si Si1 0.598379 0.583303 0.936583
Si Si2 0.000000 0.630226 0.250000
Si Si3 0.009507 0.383614 0.143357
Si Si4 0.129292 0.783690 0.924187
Si Si5 0.550574 0.666535 0.114680
Si Si6 0.038490 0.591307 0.521697
Si Si7 0.791232 0.999960 0.702531
O O1 0.821588 0.592668 0.876105
O O2 0.598561 0.557699 0.878560
O O3 0.500000 0.500000 0.000000
O O4 0.458390 0.674683 0.994150
O O5 0.850313 0.691532 0.334710
O O6 0.889282 0.563101 0.250973
O O7 0.978604 0.269794 0.156743
O O8 0.797185 0.423448 0.229586
O O9 0.057358 0.431969 0.073641
O O10 0.980817 0.829775 0.934362
O O11 0.131165 0.668840 0.927236
O O12 0.767419 0.649066 0.058450
O O13 0.435967 0.576685 0.177868
O O14 0.000000 0.500000 0.500000
#
# Coordination Sequence:
#
# PCOD8131383 Si02
#       7
#     8   4   8   8   8   8   8
#     4  12  17  33  67  90 113 152 198 255 298 345
#     4  10  18  32  60  94 116 144 192 258 302 346
#     4  11  20  39  61  88 119 159 204 243 295 366
#     4  10  19  36  62  87 117 155 203 243 301 361
#     4  10  20  40  62  83 118 165 201 234 302 373
#     4  11  22  41  60  83 117 170 208 235 295 372
#     4  11  21  35  60  98 120 147 201 257 303 348
#
# _framework density 19.899380000000001
#
# number of rings (size 3 to 8) (size 9 to 14) (size 15 to 20)
#    0.000    1.231    7.692    0.923    0.000    0.000 
#   11.077    0.000    0.000    2.769    0.000    0.000 
#    0.000    0.000    0.000    0.000    0.000    0.000 
#
# Total GULP energy -322133.948309 kJ/mol
# GULP energy per Si atom -12389.767243 kJ/mol
# Density = 1.985409 g / cm^3
# Si number density = 19.899380 Si / 1000 Ang^3
#
#
#
# Elastic Constant Matrix: (Units=GPa)
#
#
# Indices 1 2 3 4 5 6 
#
# 1 33.9927 21.9317 20.5487 -0.0001 -7.4816 -0.0039
# 2 21.9317 121.5126 61.0649 0.0006 -3.3414 -0.0043
# 3 20.5487 61.0649 108.7749 0.0017 -14.5002 -0.0035
# 4 -0.0001 0.0006 0.0017 50.7107 0.0001 6.7001
# 5 -7.4816 -3.3414 -14.5002 0.0001 19.2690 0.0039
# 6 -0.0039 -0.0043 -0.0035 6.7001 0.0039 40.8388
#
#
#
# Elastic Compliance Matrix: (Units=1/GPa)
#
#
# Indices 1 2 3 4 5 6 
#
# 1 0.036741 -0.005008 -0.002605 0.000000 0.011437 0.000002
# 2 -0.005008 0.012324 -0.006610 0.000000 -0.004781 0.000001
# 3 -0.002605 -0.006610 0.014570 0.000000 0.008807 0.000000
# 4 0.000000 0.000000 0.000000 0.020157 0.000000 -0.003307
# 5 0.011437 -0.004781 0.008807 0.000000 0.062136 -0.000005
# 6 0.000002 0.000001 0.000000 -0.003307 -0.000005 0.025029
#
#
# Mechanical properties :
#
#
# Convention : Reuss Voigt Hill
#
# Bulk Modulus (GPa) = 28.41727 52.37452 40.39589
# Shear Modulus (GPa) = 23.68207 32.87934 28.28071
#
# Velocity S-wave (km/s) = 3.45351 4.06923 3.77395
# Velocity P-wave (km/s) = 5.49671 6.96096 6.27172
#
# Compressibility (1/GPa) = 0.03518987
#
# Stress axis : x y z
#
# Youngs Moduli (GPa) = 27.21761 81.14522 68.63458
#
# Poissons Ratio (x) = 0.40636 0.17878
# Poissons Ratio (y) = 0.13630 0.45365
# Poissons Ratio (z) = 0.07090 0.53634
#
# Static dielectric constant tensor:
#      x y z
#    x 3.792780 -0.000010 -1.346420 
#    y -0.000010 4.847110 -0.000010 
#    z -1.346420 -0.000010 8.178910 
# 
# 
# High freq. dielectric constant tensor:
#      x y z
#    x 1.736180 0.000000 -0.023380 
#    y 0.000000 1.786150 0.000000 
#    z -0.023380 0.000000 1.776180 
# 
# From -- ./inp_files/269905.got.cif
#   From: 2010.06.25/outbox.cif.g09.slc.cpg/sg15_135_cif.got.tgz:269905.got - 2010.06.28 07:06:18.
