data_PCOD8131595
_publ_section_title
;
Structure prediction by ZEFSAII (Michael W. Deem and Ramdas Pophale) SiO2 
 PCOD8131595
Probable space group: C 2/C
;
_chemical_formula_sum "Si O2"
_cell_formula_units_Z 60
_cell_length_a 9.644497
_cell_length_b 24.749405
_cell_length_c 15.007134
_cell_angle_alpha 90.000000
_cell_angle_beta 65.465064
_cell_angle_gamma 90.000000
_cell_volume 3258.698910
_symmetry_space_group_name_H-M "C 2/C"
_symmetry_group_IT_number 15
_symmetry_cell_setting 'monoclinic'
loop_
_space_group_symop_operation_xyz
x,y,z
-x,y,1/2-z
-x,-y,-z
x,-y,1/2+z
1/2+x,1/2+y,z
1/2-x,1/2+y,1/2-z
1/2-x,1/2-y,-z
1/2+x,1/2-y,1/2+z
loop_
_atom_site_type_symbol
_atom_site_label
_atom_site_fract_x
_atom_site_fract_y
_atom_site_fract_z
Si Si1 0.160123 0.342174 0.439320
Si Si2 0.000000 0.298775 0.250000
Si Si3 0.433208 0.754374 0.449578
Si Si4 0.870300 0.039555 0.066500
Si Si5 0.852150 0.466129 0.032579
Si Si6 0.282734 0.361863 0.219121
Si Si7 0.838209 0.020652 0.751826
Si Si8 0.559698 0.655917 0.519959
O O1 0.107784 0.404071 0.458481
O O2 0.259918 0.335440 0.322652
O O3 0.272491 0.327305 0.490500
O O4 0.006974 0.305227 0.484334
O O5 0.999207 0.258930 0.166994
O O6 0.146517 0.337385 0.196131
O O7 0.250000 0.750000 0.500000
O O8 0.501642 0.699354 0.466621
O O9 0.835520 0.028113 0.180415
O O10 0.722759 0.028670 0.044901
O O11 0.931545 0.099984 0.036392
O O12 0.000000 0.000000 0.000000
O O13 0.753281 0.494720 0.135665
O O14 0.000000 0.500000 0.000000
O O15 0.268336 0.426582 0.222990
O O16 0.446194 0.346750 0.134553
O O17 0.000000 0.036298 0.750000
#
# Coordination Sequence:
#
# PCOD8131595 Si02
#       8
#     8   4   8   8   8   8   8   8
#     4   9  21  37  59  87 112 147 201 246 286 342
#     4  10  22  38  52  92 116 144 194 246 294 354
#     4  11  22  39  59  83 117 150 191 244 298 347
#     4  11  21  36  59  88 122 155 196 237 292 364
#     4  10  22  38  60  89 122 154 199 249 293 343
#     4  10  18  33  61  83 114 143 197 247 290 327
#     4  11  20  37  58  88 119 157 198 241 290 355
#     4  11  20  37  60  85 112 160 190 238 294 348
#
# _framework density 18.412257
#
# number of rings (size 3 to 8) (size 9 to 14) (size 15 to 20)
#    0.000    1.600    4.000    2.400    0.000    4.800 
#    1.200    0.000    0.000    1.600    0.000    0.000 
#    0.000    0.000    0.000    0.000    0.000    0.000 
#
# Total GULP energy -371821.179632 kJ/mol
# GULP energy per Si atom -12394.039321 kJ/mol
# Density = 1.837035 g / cm^3
# Si number density = 18.412257 Si / 1000 Ang^3
#
#
#
# Elastic Constant Matrix: (Units=GPa)
#
#
# Indices 1 2 3 4 5 6 
#
# 1 123.9399 73.9379 41.3193 0.0000 -4.2146 0.0000
# 2 73.9379 110.6177 44.9912 0.0000 6.2441 0.0000
# 3 41.3193 44.9912 79.4641 0.0000 3.0749 0.0000
# 4 0.0000 0.0000 0.0000 26.6594 0.0000 3.6052
# 5 -4.2146 6.2441 3.0749 0.0000 31.5116 0.0000
# 6 0.0000 0.0000 0.0000 3.6052 0.0000 38.9774
#
#
#
# Elastic Compliance Matrix: (Units=1/GPa)
#
#
# Indices 1 2 3 4 5 6 
#
# 1 0.014257 -0.008669 -0.002656 0.000000 0.003884 0.000000
# 2 -0.008669 0.017105 -0.005020 0.000000 -0.004059 0.000000
# 3 -0.002656 -0.005020 0.016846 0.000000 -0.001004 0.000000
# 4 0.000000 0.000000 0.000000 0.037985 0.000000 -0.003513
# 5 0.003884 -0.004059 -0.001004 0.000000 0.033156 0.000000
# 6 0.000000 0.000000 0.000000 -0.003513 0.000000 0.025981
#
#
# Mechanical properties :
#
#
# Convention : Reuss Voigt Hill
#
# Bulk Modulus (GPa) = 64.43334 70.50207 67.46771
# Shear Modulus (GPa) = 27.29348 29.68124 28.48736
#
# Velocity S-wave (km/s) = 3.85431 4.01937 3.93771
# Velocity P-wave (km/s) = 7.40800 7.74044 7.57604
#
# Compressibility (1/GPa) = 0.01551991
#
# Stress axis : x y z
#
# Youngs Moduli (GPa) = 70.13929 58.46081 59.36012
#
# Poissons Ratio (x) = 0.50679 0.15763
# Poissons Ratio (y) = 0.60803 0.29800
# Poissons Ratio (z) = 0.18626 0.29348
#
# Static dielectric constant tensor:
#      x y z
#    x 3.557660 0.000000 0.070740 
#    y 0.000000 3.586670 0.000000 
#    z 0.070740 0.000000 3.176680 
# 
# 
# High freq. dielectric constant tensor:
#      x y z
#    x 1.725860 0.000000 0.006660 
#    y 0.000000 1.705230 0.000000 
#    z 0.006660 0.000000 1.707770 
# 
# From -- ./inp_files/137789.got.cif
#   From: 2010.06.25/outbox.cif.g09.slc.cpg/sg15_69_cif.got.tgz:137789.got - 2010.06.28 07:06:18.
