data_PCOD8131934
_publ_section_title
;
Structure prediction by ZEFSAII (Michael W. Deem and Ramdas Pophale) SiO2 
 PCOD8131934
Probable space group: C 2/C
;
_chemical_formula_sum "Si O2"
_cell_formula_units_Z 60
_cell_length_a 22.617188
_cell_length_b 5.080745
_cell_length_c 25.496713
_cell_angle_alpha 90.000000
_cell_angle_beta 84.341720
_cell_angle_gamma 90.000000
_cell_volume 2915.607004
_symmetry_space_group_name_H-M "C 2/C"
_symmetry_group_IT_number 15
_symmetry_cell_setting 'monoclinic'
loop_
_space_group_symop_operation_xyz
x,y,z
-x,y,1/2-z
-x,-y,-z
x,-y,1/2+z
1/2+x,1/2+y,z
1/2-x,1/2+y,1/2-z
1/2-x,1/2-y,-z
1/2+x,1/2-y,1/2+z
loop_
_atom_site_type_symbol
_atom_site_label
_atom_site_fract_x
_atom_site_fract_y
_atom_site_fract_z
Si Si1 0.500000 0.775557 0.750000
Si Si2 0.327445 0.470274 0.608396
Si Si3 0.139775 0.002397 0.115425
Si Si4 0.236823 0.472733 0.844565
Si Si5 0.837819 0.577250 0.738161
Si Si6 0.099293 0.502603 0.168862
Si Si7 0.207636 0.001728 0.002359
Si Si8 0.900223 0.080099 0.693454
O O1 0.456304 0.965360 0.786946
O O2 0.466781 0.580923 0.711403
O O3 0.281719 0.678167 0.637662
O O4 0.333539 0.511745 0.545735
O O5 0.391679 0.502040 0.632408
O O6 0.301719 0.178324 0.618400
O O7 0.194151 0.998151 0.150928
O O8 0.095710 0.242069 0.133598
O O9 0.102229 0.739421 0.127516
O O10 0.161902 0.013187 0.054121
O O11 0.227138 0.533039 0.782847
O O12 0.840885 0.508586 0.799698
O O13 0.879668 0.381358 0.701296
O O14 0.860361 0.877055 0.730259
O O15 0.250000 0.250000 0.000000
O O16 0.250000 0.750000 0.000000
#
# Coordination Sequence:
#
# PCOD8131934 Si02
#       8
#     4   8   8   8   8   8   8   8
#     4  10  22  44  62  82 110 162 202 254 308 346
#     4  10  18  35  55  86 112 152 190 231 277 351
#     4  12  23  35  54  88 115 151 190 241 279 349
#     4  10  19  33  55  79 121 149 185 222 282 356
#     4   9  19  35  52  82 111 153 181 228 289 352
#     4  11  24  37  56  80 116 146 202 244 291 338
#     4  12  21  36  60  83 117 161 188 224 288 353
#     4   9  19  33  61  82 107 142 203 239 280 346
#
# _framework density 20.578907000000001
#
# number of rings (size 3 to 8) (size 9 to 14) (size 15 to 20)
#    0.000    1.600    2.667    3.200    0.000    5.867 
#    0.000    0.000    0.000    1.600    0.000    0.000 
#    0.000    0.000    0.000    0.000    0.000    0.000 
#
# Total GULP energy -371760.550192 kJ/mol
# GULP energy per Si atom -12392.018340 kJ/mol
# Density = 2.053207 g / cm^3
# Si number density = 20.578907 Si / 1000 Ang^3
#
#
#
# Elastic Constant Matrix: (Units=GPa)
#
#
# Indices 1 2 3 4 5 6 
#
# 1 74.6731 23.9837 38.3259 0.0000 15.2119 0.0000
# 2 23.9837 121.4747 51.1855 0.0000 1.2462 0.0000
# 3 38.3259 51.1855 142.6360 0.0000 2.2178 0.0000
# 4 0.0000 0.0000 0.0000 26.4102 0.0000 -1.2652
# 5 15.2119 1.2462 2.2178 0.0000 32.5539 0.0000
# 6 0.0000 0.0000 0.0000 -1.2652 0.0000 21.1647
#
#
#
# Elastic Compliance Matrix: (Units=1/GPa)
#
#
# Indices 1 2 3 4 5 6 
#
# 1 0.017596 -0.001711 -0.003991 0.000000 -0.007885 0.000000
# 2 -0.001711 0.009866 -0.003090 0.000000 0.000633 0.000000
# 3 -0.003991 -0.003090 0.009171 0.000000 0.001359 0.000000
# 4 0.000000 0.000000 0.000000 0.037973 0.000000 0.002270
# 5 -0.007885 0.000633 0.001359 0.000000 0.034286 0.000000
# 6 0.000000 0.000000 0.000000 0.002270 0.000000 0.047384
#
#
# Mechanical properties :
#
#
# Convention : Reuss Voigt Hill
#
# Bulk Modulus (GPa) = 52.50189 62.86379 57.68284
# Shear Modulus (GPa) = 27.74521 31.04500 29.39511
#
# Velocity S-wave (km/s) = 3.67582 3.88826 3.78353
# Velocity P-wave (km/s) = 6.60177 7.12546 6.86861
#
# Compressibility (1/GPa) = 0.01904693
#
# Stress axis : x y z
#
# Youngs Moduli (GPa) = 56.83050 101.36073 109.03755
#
# Poissons Ratio (x) = 0.17348 0.43520
# Poissons Ratio (y) = 0.09726 0.33696
# Poissons Ratio (z) = 0.22683 0.31324
#
# Static dielectric constant tensor:
#      x y z
#    x 3.695180 0.000000 0.492520 
#    y 0.000000 4.039030 0.000000 
#    z 0.492520 0.000000 3.746430 
# 
# 
# High freq. dielectric constant tensor:
#      x y z
#    x 1.767500 0.000000 0.026850 
#    y 0.000000 1.833810 0.000000 
#    z 0.026850 0.000000 1.787850 
# 
# From -- ./inp_files/280956.got.cif
#   From: 2010.06.25/outbox.cif.g09.slc.cpg/sg15_141_cif.got.tgz:280956.got - 2010.06.28 07:06:18.
