data_PCOD8131588
_publ_section_title
;
Structure prediction by ZEFSAII (Michael W. Deem and Ramdas Pophale) SiO2 
 PCOD8131588
Probable space group: C 2/C
;
_chemical_formula_sum "Si O2"
_cell_formula_units_Z 48
_cell_length_a 11.995728
_cell_length_b 37.040699
_cell_length_c 12.651031
_cell_angle_alpha 90.000000
_cell_angle_beta 23.630212
_cell_angle_gamma 90.000000
_cell_volume 2253.171646
_symmetry_space_group_name_H-M "C 2/C"
_symmetry_group_IT_number 15
_symmetry_cell_setting 'monoclinic'
loop_
_space_group_symop_operation_xyz
x,y,z
-x,y,1/2-z
-x,-y,-z
x,-y,1/2+z
1/2+x,1/2+y,z
1/2-x,1/2+y,1/2-z
1/2-x,1/2-y,-z
1/2+x,1/2-y,1/2+z
loop_
_atom_site_type_symbol
_atom_site_label
_atom_site_fract_x
_atom_site_fract_y
_atom_site_fract_z
Si Si1 0.225941 0.006885 0.672008
Si Si2 0.880610 0.125769 0.237087
Si Si3 0.500000 0.225585 0.750000
Si Si4 0.500000 0.973037 0.250000
Si Si5 0.603565 0.556403 0.944149
Si Si6 0.328660 0.829994 0.230721
Si Si7 0.618260 0.272997 0.262662
O O1 0.284061 0.001379 0.495894
O O2 0.500000 0.000000 0.500000
O O3 0.125374 0.047436 0.798700
O O4 0.000710 0.978518 0.903520
O O5 0.913676 0.091053 0.131930
O O6 0.000000 0.117231 0.250000
O O7 0.556309 0.138000 0.516511
O O8 0.064949 0.156835 0.025885
O O9 0.750000 0.250000 0.500000
O O10 0.536797 0.201836 0.821001
O O11 0.401641 0.943717 0.245881
O O12 0.217106 0.812145 0.219427
O O13 0.500000 0.280803 0.250000
O O14 0.372722 0.255374 0.545010
#
# Coordination Sequence:
#
# PCOD8131588 Si02
#       7
#     8   8   4   4   8   8   8
#     4   9  19  35  56  87 114 146 216 265 328 361
#     4  12  24  39  59  89 138 175 217 247 324 408
#     4  12  22  37  60  86 134 172 206 256 324 376
#     4  10  18  33  60  86 118 154 206 284 322 380
#     4  10  22  35  58  88 120 166 207 268 320 389
#     4  12  24  40  59  97 132 171 212 264 315 391
#     4  10  21  41  70  97 119 159 218 274 320 366
#
# _framework density 21.303305000000002
#
# number of rings (size 3 to 8) (size 9 to 14) (size 15 to 20)
#    0.000    1.333    1.667    4.500    7.000    0.000 
#    0.000    0.000    0.000    6.000    2.167    0.000 
#    0.000    0.000    0.000    0.000    0.000    0.000 
#
# Total GULP energy -297318.668828 kJ/mol
# GULP energy per Si atom -12388.277868 kJ/mol
# Density = 2.125482 g / cm^3
# Si number density = 21.303305 Si / 1000 Ang^3
#
#
#
# Elastic Constant Matrix: (Units=GPa)
#
#
# Indices 1 2 3 4 5 6 
#
# 1 65.1375 34.3513 12.6196 0.0000 8.7488 0.0000
# 2 34.3513 94.1142 18.4021 0.0000 11.7490 0.0000
# 3 12.6196 18.4021 90.6437 0.0000 11.9370 0.0000
# 4 0.0000 0.0000 0.0000 42.9855 0.0000 8.8562
# 5 8.7488 11.7490 11.9370 0.0000 30.6478 0.0000
# 6 0.0000 0.0000 0.0000 8.8562 0.0000 32.8104
#
#
#
# Elastic Compliance Matrix: (Units=1/GPa)
#
#
# Indices 1 2 3 4 5 6 
#
# 1 0.019348 -0.006535 -0.001022 0.000000 -0.002620 0.000000
# 2 -0.006535 0.013651 -0.001495 0.000000 -0.002785 0.000000
# 3 -0.001022 -0.001495 0.011978 0.000000 -0.003801 0.000000
# 4 0.000000 0.000000 0.000000 0.024634 0.000000 -0.006649
# 5 -0.002620 -0.002785 -0.003801 0.000000 0.035925 0.000000
# 6 0.000000 0.000000 0.000000 -0.006649 0.000000 0.032273
#
#
# Mechanical properties :
#
#
# Convention : Reuss Voigt Hill
#
# Bulk Modulus (GPa) = 37.21076 42.29350 39.75213
# Shear Modulus (GPa) = 30.32683 33.59023 31.95853
#
# Velocity S-wave (km/s) = 3.77712 3.97515 3.87740
# Velocity P-wave (km/s) = 6.04378 6.40041 6.22465
#
# Compressibility (1/GPa) = 0.02687395
#
# Stress axis : x y z
#
# Youngs Moduli (GPa) = 51.68362 73.25639 83.48319
#
# Poissons Ratio (x) = 0.47875 0.08532
# Poissons Ratio (y) = 0.33776 0.12478
# Poissons Ratio (z) = 0.05282 0.10949
#
# Static dielectric constant tensor:
#      x y z
#    x 3.917710 0.000000 0.143930 
#    y 0.000000 3.762260 0.000000 
#    z 0.143930 0.000000 4.185010 
# 
# 
# High freq. dielectric constant tensor:
#      x y z
#    x 1.826600 0.000000 -0.003450 
#    y 0.000000 1.814190 0.000000 
#    z -0.003450 0.000000 1.862000 
# 
# From -- ./inp_files/157652.got.cif
#   From: 2010.06.25/outbox.cif.g09.slc.cpg/sg15_79_cif.got.tgz:157652.got - 2010.06.28 07:06:18.
