data_PCOD8131719
_publ_section_title
;
Structure prediction by ZEFSAII (Michael W. Deem and Ramdas Pophale) SiO2 
 PCOD8131719
Probable space group: C 2/C
;
_chemical_formula_sum "Si O2"
_cell_formula_units_Z 52
_cell_length_a 23.785188
_cell_length_b 9.263926
_cell_length_c 19.089446
_cell_angle_alpha 90.000000
_cell_angle_beta 141.639860
_cell_angle_gamma 90.000000
_cell_volume 2610.408397
_symmetry_space_group_name_H-M "C 2/C"
_symmetry_group_IT_number 15
_symmetry_cell_setting 'monoclinic'
loop_
_space_group_symop_operation_xyz
x,y,z
-x,y,1/2-z
-x,-y,-z
x,-y,1/2+z
1/2+x,1/2+y,z
1/2-x,1/2+y,1/2-z
1/2-x,1/2-y,-z
1/2+x,1/2-y,1/2+z
loop_
_atom_site_type_symbol
_atom_site_label
_atom_site_fract_x
_atom_site_fract_y
_atom_site_fract_z
Si Si1 0.555399 0.731356 0.075943
Si Si2 0.214883 0.435776 0.630880
Si Si3 0.746972 0.715133 0.766536
Si Si4 0.500000 0.249055 0.750000
Si Si5 0.575472 0.250629 0.179106
Si Si6 0.603394 0.551001 0.255352
Si Si7 0.017529 0.540745 0.894416
O O1 0.649668 0.730471 0.125385
O O2 0.557849 0.612036 0.139475
O O3 0.538006 0.886135 0.096526
O O4 0.475506 0.704556 0.942651
O O5 0.254573 0.540904 0.731224
O O6 0.207502 0.272917 0.653720
O O7 0.287191 0.438642 0.638598
O O8 0.118991 0.500367 0.515364
O O9 0.681513 0.776825 0.763969
O O10 0.421742 0.355710 0.701088
O O11 0.532263 0.146355 0.843615
O O12 0.569943 0.384666 0.228229
O O13 0.533918 0.108034 0.174858
#
# Coordination Sequence:
#
# PCOD8131719 Si02
#       7
#     8   8   8   4   8   8   8
#     4  10  18  34  56  89 118 150 177 229 291 351
#     4  10  19  35  56  88 116 152 179 233 284 349
#     4  10  19  31  54  89 127 137 180 226 291 350
#     4  10  24  44  56  76 110 158 202 238 272 338
#     4  11  19  33  60  87 114 148 183 240 289 341
#     4   9  22  36  57  81 118 149 191 231 286 334
#     4  11  21  37  62  81 115 156 196 231 281 330
#
# _framework density 19.920255000000001
#
# number of rings (size 3 to 8) (size 9 to 14) (size 15 to 20)
#    0.000    1.846    3.077    1.846    0.000    1.231 
#    0.000    0.000    3.385    2.769    0.000    0.000 
#    0.000    0.000    0.000    0.000    0.000    0.000 
#
# Total GULP energy -322154.361880 kJ/mol
# GULP energy per Si atom -12390.552380 kJ/mol
# Density = 1.987492 g / cm^3
# Si number density = 19.920255 Si / 1000 Ang^3
#
#
#
# Elastic Constant Matrix: (Units=GPa)
#
#
# Indices 1 2 3 4 5 6 
#
# 1 111.7884 68.5833 43.5992 0.0000 21.5544 0.0000
# 2 68.5833 131.6635 39.4812 0.0000 16.3728 0.0000
# 3 43.5992 39.4812 51.5385 0.0000 16.5781 0.0000
# 4 0.0000 0.0000 0.0000 22.2349 0.0000 -1.1292
# 5 21.5544 16.3728 16.5781 0.0000 25.3338 0.0000
# 6 0.0000 0.0000 0.0000 -1.1292 0.0000 31.5553
#
#
#
# Elastic Compliance Matrix: (Units=1/GPa)
#
#
# Indices 1 2 3 4 5 6 
#
# 1 0.016466 -0.005525 -0.008030 0.000000 -0.005185 0.000000
# 2 -0.005525 0.011780 -0.004323 0.000000 -0.000083 0.000000
# 3 -0.008030 -0.004323 0.033453 0.000000 -0.012265 0.000000
# 4 0.000000 0.000000 0.000000 0.045056 0.000000 0.001612
# 5 -0.005185 -0.000083 -0.012265 0.000000 0.051964 0.000000
# 6 0.000000 0.000000 0.000000 0.001612 0.000000 0.031748
#
#
# Mechanical properties :
#
#
# Convention : Reuss Voigt Hill
#
# Bulk Modulus (GPa) = 38.54562 66.47975 52.51269
# Shear Modulus (GPa) = 21.28823 25.37992 23.33408
#
# Velocity S-wave (km/s) = 3.27260 3.57329 3.42625
# Velocity P-wave (km/s) = 5.80275 7.10422 6.48621
#
# Compressibility (1/GPa) = 0.02594328
#
# Stress axis : x y z
#
# Youngs Moduli (GPa) = 60.72982 84.89145 29.89254
#
# Poissons Ratio (x) = 0.46900 0.24003
# Poissons Ratio (y) = 0.33551 0.12924
# Poissons Ratio (z) = 0.48765 0.36703
#
# Static dielectric constant tensor:
#      x y z
#    x 3.634650 0.000000 0.272380 
#    y 0.000000 3.782820 0.000000 
#    z 0.272380 0.000000 3.381050 
# 
# 
# High freq. dielectric constant tensor:
#      x y z
#    x 1.767300 0.000000 0.036730 
#    y 0.000000 1.790260 0.000000 
#    z 0.036730 0.000000 1.743830 
# 
# From -- ./inp_files/171729.got.cif
#   From: 2010.06.25/outbox.cif.g09.slc.cpg/sg15_86_cif.got.tgz:171729.got - 2010.06.28 07:06:18.
