data_PCOD8131251
_publ_section_title
;
Structure prediction by ZEFSAII (Michael W. Deem and Ramdas Pophale) SiO2 
 PCOD8131251
Probable space group: C 2/C
;
_chemical_formula_sum "Si O2"
_cell_formula_units_Z 52
_cell_length_a 17.649432
_cell_length_b 8.895385
_cell_length_c 18.301879
_cell_angle_alpha 90.000000
_cell_angle_beta 108.399936
_cell_angle_gamma 90.000000
_cell_volume 2726.470427
_symmetry_space_group_name_H-M "C 2/C"
_symmetry_group_IT_number 15
_symmetry_cell_setting 'monoclinic'
loop_
_space_group_symop_operation_xyz
x,y,z
-x,y,1/2-z
-x,-y,-z
x,-y,1/2+z
1/2+x,1/2+y,z
1/2-x,1/2+y,1/2-z
1/2-x,1/2-y,-z
1/2+x,1/2-y,1/2+z
loop_
_atom_site_type_symbol
_atom_site_label
_atom_site_fract_x
_atom_site_fract_y
_atom_site_fract_z
Si Si1 0.738263 0.988874 0.420201
Si Si2 0.328809 0.255045 0.183453
Si Si3 0.500000 0.383253 0.250000
Si Si4 0.198883 0.458484 0.070557
Si Si5 0.899720 0.170500 0.473984
Si Si6 0.970463 0.947870 0.392849
Si Si7 0.315086 0.253540 0.347841
O O1 0.747571 0.833685 0.377738
O O2 0.679321 0.091638 0.354881
O O3 0.706263 0.964371 0.492833
O O4 0.821524 0.071963 0.453020
O O5 0.423205 0.280541 0.211378
O O6 0.280782 0.375975 0.119513
O O7 0.292567 0.257268 0.254946
O O8 0.478664 0.491216 0.310716
O O9 0.124097 0.343106 0.045817
O O10 0.177375 0.582358 0.123991
O O11 0.949034 0.143694 0.562930
O O12 0.958931 0.107874 0.428782
O O13 0.898232 0.835750 0.386940
#
# Coordination Sequence:
#
# PCOD8131251 Si02
#       7
#     8   8   4   8   8   8   8
#     4  10  19  34  54  77 100 133 174 211 250 306
#     4  10  20  35  54  73 101 136 173 211 257 314
#     4  10  18  32  54  76  94 130 174 214 258 302
#     4  11  20  33  54  77 103 136 173 213 255 306
#     4   9  18  33  52  74 100 134 171 206 251 302
#     4   9  18  33  52  74 103 133 170 212 252 306
#     4  10  21  33  51  78 107 134 165 213 265 302
#
# _framework density 19.072277
#
# number of rings (size 3 to 8) (size 9 to 14) (size 15 to 20)
#    0.000    2.154    0.000    5.077    0.000    1.846 
#    0.000    0.000    0.000    4.615    0.000    0.000 
#    0.000    0.000    0.000    0.000    0.000    0.000 
#
# Total GULP energy -322268.790383 kJ/mol
# GULP energy per Si atom -12394.953476 kJ/mol
# Density = 1.902887 g / cm^3
# Si number density = 19.072277 Si / 1000 Ang^3
#
#
#
# Elastic Constant Matrix: (Units=GPa)
#
#
# Indices 1 2 3 4 5 6 
#
# 1 62.5948 15.4310 37.3733 0.0000 -3.4673 0.0000
# 2 15.4310 64.9309 28.2932 0.0000 -14.0552 0.0000
# 3 37.3733 28.2932 115.9959 0.0000 -9.3289 0.0000
# 4 0.0000 0.0000 0.0000 26.0178 0.0000 -1.3383
# 5 -3.4673 -14.0552 -9.3289 0.0000 28.3564 0.0000
# 6 0.0000 0.0000 0.0000 -1.3383 0.0000 13.8014
#
#
#
# Elastic Compliance Matrix: (Units=1/GPa)
#
#
# Indices 1 2 3 4 5 6 
#
# 1 0.020064 -0.002316 -0.005952 0.000000 -0.000653 0.000000
# 2 -0.002316 0.019134 -0.003267 0.000000 0.008126 0.000000
# 3 -0.005952 -0.003267 0.011450 0.000000 0.001420 0.000000
# 4 0.000000 0.000000 0.000000 0.038628 0.000000 0.003746
# 5 -0.000653 0.008126 0.001420 0.000000 0.039680 0.000000
# 6 0.000000 0.000000 0.000000 0.003746 0.000000 0.072820
#
#
# Mechanical properties :
#
#
# Convention : Reuss Voigt Hill
#
# Bulk Modulus (GPa) = 36.26185 45.07961 40.67073
# Shear Modulus (GPa) = 21.36387 24.46340 22.91364
#
# Velocity S-wave (km/s) = 3.35050 3.58532 3.46990
# Velocity P-wave (km/s) = 5.83283 6.38959 6.11755
#
# Compressibility (1/GPa) = 0.02757719
#
# Stress axis : x y z
#
# Youngs Moduli (GPa) = 49.83936 52.26274 87.33692
#
# Poissons Ratio (x) = 0.12104 0.51985
# Poissons Ratio (y) = 0.11543 0.28536
# Poissons Ratio (z) = 0.29666 0.17076
#
# Static dielectric constant tensor:
#      x y z
#    x 3.508770 0.000000 -0.062360 
#    y 0.000000 3.392610 0.000000 
#    z -0.062360 0.000000 3.841300 
# 
# 
# High freq. dielectric constant tensor:
#      x y z
#    x 1.733250 0.000000 -0.002440 
#    y 0.000000 1.716830 0.000000 
#    z -0.002440 0.000000 1.764360 
# 
# From -- ./inp_files/209013.got.cif
#   From: 2010.06.25/outbox.cif.g09.slc.cpg/sg15_105_cif.got.tgz:209013.got - 2010.06.28 07:06:18.
