data_PCOD8131066
_publ_section_title
;
Structure prediction by ZEFSAII (Michael W. Deem and Ramdas Pophale) SiO2 
 PCOD8131066
Probable space group: C 2/C
;
_chemical_formula_sum "Si O2"
_cell_formula_units_Z 48
_cell_length_a 12.146370
_cell_length_b 16.659656
_cell_length_c 21.965894
_cell_angle_alpha 90.000000
_cell_angle_beta 145.956391
_cell_angle_gamma 90.000000
_cell_volume 2488.357241
_symmetry_space_group_name_H-M "C 2/C"
_symmetry_group_IT_number 15
_symmetry_cell_setting 'monoclinic'
loop_
_space_group_symop_operation_xyz
x,y,z
-x,y,1/2-z
-x,-y,-z
x,-y,1/2+z
1/2+x,1/2+y,z
1/2-x,1/2+y,1/2-z
1/2-x,1/2-y,-z
1/2+x,1/2-y,1/2+z
loop_
_atom_site_type_symbol
_atom_site_label
_atom_site_fract_x
_atom_site_fract_y
_atom_site_fract_z
Si Si1 0.664074 0.430464 0.146991
Si Si2 0.190317 0.255643 0.294199
Si Si3 0.869130 0.619558 0.441629
Si Si4 0.709913 0.527154 0.537776
Si Si5 0.103833 0.176022 0.419104
Si Si6 0.090537 0.476791 0.131249
O O1 0.704034 0.337110 0.174822
O O2 0.777131 0.464405 0.139069
O O3 0.732777 0.470277 0.241069
O O4 0.434510 0.451339 0.035380
O O5 0.367930 0.204983 0.406671
O O6 0.000000 0.270676 0.250000
O O7 0.111026 0.211671 0.196292
O O8 0.674258 0.622248 0.394037
O O9 0.851503 0.550373 0.384243
O O10 0.056111 0.601904 0.571940
O O11 0.600645 0.613003 0.473548
O O12 0.892753 0.508519 0.578783
O O13 0.250000 0.250000 0.500000
#
# Coordination Sequence:
#
# PCOD8131066 Si02
#       6
#     8   8   8   8   8   8
#     4  11  21  33  52  77 108 145 183 220 270 325
#     4  10  18  31  52  78 104 135 177 227 271 316
#     4   9  19  32  53  78 102 135 175 221 277 326
#     4  10  21  34  51  79 108 141 181 222 269 331
#     4  10  18  32  56  83 106 132 175 229 278 320
#     4  10  19  36  54  75 108 143 175 224 283 330
#
# _framework density 19.289833999999999
#
# number of rings (size 3 to 8) (size 9 to 14) (size 15 to 20)
#    0.000    2.000    0.000    6.500    0.000    1.333 
#    0.000    3.333    0.000    0.000    0.000    2.333 
#    0.000    0.000    0.000    0.000    0.000    0.000 
#
# Total GULP energy -297334.950260 kJ/mol
# GULP energy per Si atom -12388.956261 kJ/mol
# Density = 1.924593 g / cm^3
# Si number density = 19.289834 Si / 1000 Ang^3
#
#
#
# Elastic Constant Matrix: (Units=GPa)
#
#
# Indices 1 2 3 4 5 6 
#
# 1 49.7496 25.2758 21.6211 0.0000 -16.6374 0.0000
# 2 25.2758 74.7950 25.4650 0.0000 -3.3688 -0.0001
# 3 21.6211 25.4650 92.4211 0.0003 -26.3348 0.0002
# 4 0.0000 0.0000 0.0003 32.2634 0.0001 0.6224
# 5 -16.6374 -3.3688 -26.3348 0.0001 29.6865 0.0001
# 6 0.0000 -0.0001 0.0002 0.6224 0.0001 31.4277
#
#
#
# Elastic Compliance Matrix: (Units=1/GPa)
#
#
# Indices 1 2 3 4 5 6 
#
# 1 0.030235 -0.009533 0.000098 0.000000 0.015950 0.000000
# 2 -0.009533 0.017909 -0.004882 0.000000 -0.007641 0.000000
# 3 0.000098 -0.004882 0.016059 0.000000 0.013747 0.000000
# 4 0.000000 0.000000 0.000000 0.031007 0.000000 -0.000614
# 5 0.015950 -0.007641 0.013747 0.000000 0.053952 0.000000
# 6 0.000000 0.000000 0.000000 -0.000614 0.000000 0.031831
#
#
# Mechanical properties :
#
#
# Convention : Reuss Voigt Hill
#
# Bulk Modulus (GPa) = 28.11223 40.18771 34.14997
# Shear Modulus (GPa) = 22.57507 28.31579 25.44543
#
# Velocity S-wave (km/s) = 3.42469 3.83549 3.63590
# Velocity P-wave (km/s) = 5.49938 6.36345 5.94713
#
# Compressibility (1/GPa) = 0.03557171
#
# Stress axis : x y z
#
# Youngs Moduli (GPa) = 33.07397 55.83736 62.26927
#
# Poissons Ratio (x) = 0.53227 -0.00611
# Poissons Ratio (y) = 0.31528 0.30397
# Poissons Ratio (z) = -0.00325 0.27258
#
# Static dielectric constant tensor:
#      x y z
#    x 3.350570 0.000000 -0.436880 
#    y 0.000000 3.639730 0.000000 
#    z -0.436880 0.000000 3.871530 
# 
# 
# High freq. dielectric constant tensor:
#      x y z
#    x 1.716390 0.000000 -0.038720 
#    y 0.000000 1.748940 0.000000 
#    z -0.038720 0.000000 1.760630 
# 
# From -- ./inp_files/274385.got.cif
#   From: 2010.06.25/outbox.cif.g09.slc.cpg/sg15_138_cif.got.tgz:274385.got - 2010.06.28 07:06:18.
