data_PCOD8131351
_publ_section_title
;
Structure prediction by ZEFSAII (Michael W. Deem and Ramdas Pophale) SiO2 
 PCOD8131351
Probable space group: C 2/C
;
_chemical_formula_sum "Si O2"
_cell_formula_units_Z 52
_cell_length_a 23.294515
_cell_length_b 8.371956
_cell_length_c 29.837124
_cell_angle_alpha 90.000000
_cell_angle_beta 153.657780
_cell_angle_gamma 90.000000
_cell_volume 2582.010458
_symmetry_space_group_name_H-M "C 2/C"
_symmetry_group_IT_number 15
_symmetry_cell_setting 'monoclinic'
loop_
_space_group_symop_operation_xyz
x,y,z
-x,y,1/2-z
-x,-y,-z
x,-y,1/2+z
1/2+x,1/2+y,z
1/2-x,1/2+y,1/2-z
1/2-x,1/2-y,-z
1/2+x,1/2-y,1/2+z
loop_
_atom_site_type_symbol
_atom_site_label
_atom_site_fract_x
_atom_site_fract_y
_atom_site_fract_z
Si Si1 0.533424 0.842113 0.868903
Si Si2 0.649795 0.236200 0.035443
Si Si3 0.401923 0.961313 0.349445
Si Si4 0.794369 0.983810 0.572734
Si Si5 0.963010 0.019687 0.107773
Si Si6 0.267206 0.681721 0.209690
Si Si7 0.500000 0.281247 0.250000
O O1 0.547003 0.670690 0.902505
O O2 0.486235 0.827474 0.784579
O O3 0.426748 0.943657 0.820667
O O4 0.671281 0.928267 0.965327
O O5 0.712761 0.268123 0.127463
O O6 0.756738 0.167229 0.076356
O O7 0.536663 0.106138 0.962212
O O8 0.595367 0.403136 0.978220
O O9 0.302743 0.818767 0.269903
O O10 0.343855 0.073289 0.346807
O O11 0.872334 0.109714 0.657702
O O12 0.883858 0.917079 0.595377
O O13 0.110565 0.073174 0.217571
#
# Coordination Sequence:
#
# PCOD8131351 Si02
#       7
#     8   8   8   8   8   8   4
#     4  10  21  37  56  83 116 146 183 228 271 324
#     4  10  21  37  59  83 110 147 184 224 279 330
#     4  10  23  40  57  82 112 144 184 233 275 319
#     4  10  20  35  55  83 118 146 181 229 273 323
#     4  10  20  36  57  84 114 146 182 227 274 323
#     4  11  22  39  59  80 110 146 187 229 274 330
#     4  10  18  32  58  84 108 152 186 216 278 330
#
# _framework density 20.139346
#
# number of rings (size 3 to 8) (size 9 to 14) (size 15 to 20)
#    0.000    1.846    0.000    5.538    0.000    2.462 
#    0.000   10.000    0.000    0.923    0.000    0.000 
#    0.000    0.000    0.000    0.000    0.000    0.000 
#
# Total GULP energy -322495.863708 kJ/mol
# GULP energy per Si atom -12403.687066 kJ/mol
# Density = 2.009351 g / cm^3
# Si number density = 20.139346 Si / 1000 Ang^3
#
#
#
# Elastic Constant Matrix: (Units=GPa)
#
#
# Indices 1 2 3 4 5 6 
#
# 1 86.5478 22.3245 35.5260 -0.0062 9.4457 0.0027
# 2 22.3245 50.4853 -4.6774 -0.0248 1.4402 0.0022
# 3 35.5260 -4.6774 66.6046 -0.0500 -5.3753 0.0038
# 4 -0.0062 -0.0248 -0.0500 20.3177 0.0120 0.2674
# 5 9.4457 1.4402 -5.3753 0.0120 32.5592 0.0003
# 6 0.0027 0.0022 0.0038 0.2674 0.0003 35.2269
#
#
#
# Elastic Compliance Matrix: (Units=1/GPa)
#
#
# Indices 1 2 3 4 5 6 
#
# 1 0.019612 -0.009552 -0.011713 -0.000030 -0.007201 0.000001
# 2 -0.009552 0.024604 0.007053 0.000043 0.002847 -0.000002
# 3 -0.011713 0.007053 0.022303 0.000056 0.006768 -0.000002
# 4 -0.000030 0.000043 0.000056 0.049223 -0.000002 -0.000374
# 5 -0.007201 0.002847 0.006768 -0.000002 0.033794 -0.000001
# 6 0.000001 -0.000002 -0.000002 -0.000374 -0.000001 0.028390
#
#
# Mechanical properties :
#
#
# Convention : Reuss Voigt Hill
#
# Bulk Modulus (GPa) = 26.25064 34.44264 30.34664
# Shear Modulus (GPa) = 22.82604 27.65176 25.23890
#
# Velocity S-wave (km/s) = 3.37026 3.70945 3.54392
# Velocity P-wave (km/s) = 5.31109 5.95701 5.64330
#
# Compressibility (1/GPa) = 0.03809431
#
# Stress axis : x y z
#
# Youngs Moduli (GPa) = 50.98952 40.64404 44.83726
#
# Poissons Ratio (x) = 0.38823 0.52516
# Poissons Ratio (y) = 0.48706 -0.31622
# Poissons Ratio (z) = 0.59722 -0.28665
#
# Static dielectric constant tensor:
#      x y z
#    x 3.631560 0.000000 0.125260 
#    y 0.000000 3.570080 -0.000010 
#    z 0.125260 -0.000010 3.652870 
# 
# 
# High freq. dielectric constant tensor:
#      x y z
#    x 1.788930 0.000000 0.007370 
#    y 0.000000 1.782460 0.000000 
#    z 0.007370 0.000000 1.789650 
# 
# From -- ./inp_files/121592.got.cif
#   From: 2010.06.25/outbox.cif.g09.slc.cpg/sg15_61_cif.got.tgz:121592.got - 2010.06.28 07:06:18.
