data_PCOD8131984
_publ_section_title
;
Structure prediction by ZEFSAII (Michael W. Deem and Ramdas Pophale) SiO2 
 PCOD8131984
Probable space group: C 2/C
;
_chemical_formula_sum "Si O2"
_cell_formula_units_Z 56
_cell_length_a 18.025301
_cell_length_b 8.942174
_cell_length_c 25.066913
_cell_angle_alpha 90.000000
_cell_angle_beta 46.834481
_cell_angle_gamma 90.000000
_cell_volume 2947.003288
_symmetry_space_group_name_H-M "C 2/C"
_symmetry_group_IT_number 15
_symmetry_cell_setting 'monoclinic'
loop_
_space_group_symop_operation_xyz
x,y,z
-x,y,1/2-z
-x,-y,-z
x,-y,1/2+z
1/2+x,1/2+y,z
1/2-x,1/2+y,1/2-z
1/2-x,1/2-y,-z
1/2+x,1/2-y,1/2+z
loop_
_atom_site_type_symbol
_atom_site_label
_atom_site_fract_x
_atom_site_fract_y
_atom_site_fract_z
Si Si1 0.475331 0.061073 0.319720
Si Si2 0.192960 0.449387 0.331353
Si Si3 0.817406 0.669799 0.259743
Si Si4 0.254599 0.125541 0.407182
Si Si5 0.823788 0.111254 0.474301
Si Si6 0.790713 0.459880 0.057680
Si Si7 0.527663 0.142673 0.582950
O O1 0.500000 0.993895 0.250000
O O2 0.561160 0.183380 0.291945
O O3 0.366735 0.141128 0.377648
O O4 0.483006 0.915260 0.352021
O O5 0.201650 0.579517 0.284566
O O6 0.275904 0.333281 0.269975
O O7 0.225590 0.512325 0.373274
O O8 0.082153 0.369566 0.391145
O O9 0.762902 0.598853 0.339242
O O10 0.196449 0.279553 0.449595
O O11 0.199969 0.983020 0.460584
O O12 0.750000 0.250000 0.500000
O O13 0.935164 0.183990 0.430161
O O14 0.807688 0.006595 0.429932
O O15 0.893797 0.535435 0.986440
#
# Coordination Sequence:
#
# PCOD8131984 Si02
#       7
#     8   8   8   8   8   8   8
#     4   9  17  33  56  76 102 142 181 215 269 321
#     4  10  21  40  54  80 112 150 186 223 274 336
#     4   9  21  37  57  75 108 150 184 221 267 328
#     4  10  18  35  58  82 108 139 183 224 275 327
#     4  10  19  32  55  86 110 135 180 232 278 320
#     4  10  20  34  57  81 113 145 178 226 283 333
#     4  10  20  36  54  83 110 142 182 224 280 326
#
# _framework density 19.002354
#
# number of rings (size 3 to 8) (size 9 to 14) (size 15 to 20)
#    0.000    2.286    2.857    0.857    0.000    2.286 
#    5.143    2.857    0.000    0.000    0.000    0.000 
#    0.000    0.000    0.000    0.000    0.000    0.000 
#
# Total GULP energy -346972.948417 kJ/mol
# GULP energy per Si atom -12391.891015 kJ/mol
# Density = 1.895910 g / cm^3
# Si number density = 19.002354 Si / 1000 Ang^3
#
#
#
# Elastic Constant Matrix: (Units=GPa)
#
#
# Indices 1 2 3 4 5 6 
#
# 1 48.1590 11.4065 35.2208 0.0000 8.4443 0.0003
# 2 11.4065 63.3040 37.3809 0.0001 -1.0416 0.0006
# 3 35.2208 37.3809 78.1238 0.0000 1.8883 0.0000
# 4 0.0000 0.0001 0.0000 32.5965 0.0000 0.3576
# 5 8.4443 -1.0416 1.8883 0.0000 32.0541 0.0001
# 6 0.0003 0.0006 0.0000 0.3576 0.0001 23.0595
#
#
#
# Elastic Compliance Matrix: (Units=1/GPa)
#
#
# Indices 1 2 3 4 5 6 
#
# 1 0.033411 0.003676 -0.016636 0.000000 -0.007702 0.000000
# 2 0.003676 0.022480 -0.012426 0.000000 0.000494 -0.000001
# 3 -0.016636 -0.012426 0.026187 0.000000 0.002436 0.000000
# 4 0.000000 0.000000 0.000000 0.030683 0.000000 -0.000476
# 5 -0.007702 0.000494 0.002436 0.000000 0.033099 0.000000
# 6 0.000000 -0.000001 0.000000 -0.000476 0.000000 0.043373
#
#
# Mechanical properties :
#
#
# Convention : Reuss Voigt Hill
#
# Bulk Modulus (GPa) = 31.94118 39.73367 35.83743
# Shear Modulus (GPa) = 19.96504 24.58059 22.27281
#
# Velocity S-wave (km/s) = 3.24491 3.60050 3.42732
# Velocity P-wave (km/s) = 5.55741 6.18386 5.87898
#
# Compressibility (1/GPa) = 0.03130754
#
# Stress axis : x y z
#
# Youngs Moduli (GPa) = 29.93061 44.48450 38.18755
#
# Poissons Ratio (x) = -0.16354 0.63527
# Poissons Ratio (y) = -0.11004 0.47450
# Poissons Ratio (z) = 0.49791 0.55274
#
# Static dielectric constant tensor:
#      x y z
#    x 3.809370 0.000000 0.061910 
#    y 0.000000 3.376600 0.000000 
#    z 0.061910 0.000000 3.548930 
# 
# 
# High freq. dielectric constant tensor:
#      x y z
#    x 1.744430 0.000000 0.014970 
#    y 0.000000 1.718810 0.000000 
#    z 0.014970 0.000000 1.736910 
# 
# From -- ./inp_files/246984.got.cif
#   From: 2010.06.25/outbox.cif.g09.slc.cpg/sg15_124_cif.got.tgz:246984.got - 2010.06.28 07:06:18.
