data_PCOD8131316
_publ_section_title
;
Structure prediction by ZEFSAII (Michael W. Deem and Ramdas Pophale) SiO2 
 PCOD8131316
Probable space group: C 2/C
;
_chemical_formula_sum "Si O2"
_cell_formula_units_Z 60
_cell_length_a 28.171984
_cell_length_b 21.609984
_cell_length_c 15.299952
_cell_angle_alpha 90.000000
_cell_angle_beta 20.703135
_cell_angle_gamma 90.000000
_cell_volume 3292.936374
_symmetry_space_group_name_H-M "C 2/C"
_symmetry_group_IT_number 15
_symmetry_cell_setting 'monoclinic'
loop_
_space_group_symop_operation_xyz
x,y,z
-x,y,1/2-z
-x,-y,-z
x,-y,1/2+z
1/2+x,1/2+y,z
1/2-x,1/2+y,1/2-z
1/2-x,1/2-y,-z
1/2+x,1/2-y,1/2+z
loop_
_atom_site_type_symbol
_atom_site_label
_atom_site_fract_x
_atom_site_fract_y
_atom_site_fract_z
Si Si1 0.225504 0.983500 0.282219
Si Si2 0.983568 0.593760 0.092912
Si Si3 0.177920 0.299774 0.237505
Si Si4 0.500000 0.942241 0.750000
Si Si5 0.294786 0.003211 0.345044
Si Si6 0.381737 0.652753 0.521713
Si Si7 0.878181 0.045067 0.199858
Si Si8 0.090043 0.180631 0.299020
O O1 0.170257 0.914391 0.358418
O O2 0.192476 0.005106 0.438954
O O3 0.166205 0.036162 0.322987
O O4 0.382346 0.985751 0.988087
O O5 0.951386 0.599706 0.251948
O O6 0.848145 0.572636 0.275390
O O7 0.045106 0.658377 0.956194
O O8 0.089747 0.540393 0.890974
O O9 0.256732 0.308465 0.194703
O O10 0.117662 0.231466 0.326521
O O11 0.281509 0.319620 0.984852
O O12 0.233817 0.972411 0.536120
O O13 0.450414 0.690265 0.484613
O O14 0.500000 0.640395 0.250000
O O15 0.922677 0.115451 0.131525
O O16 0.000000 0.000000 0.000000
#
# Coordination Sequence:
#
# PCOD8131316 Si02
#       8
#     8   8   8   4   8   8   8   8
#     4  11  21  33  57  85 112 152 185 239 281 343
#     4  10  18  33  57  81 113 142 184 243 275 335
#     4  10  19  36  60  76 114 152 183 237 282 341
#     4  10  18  32  56  86 102 144 200 220 282 338
#     4  10  20  34  53  85 116 143 187 233 291 327
#     4  10  18  35  57  81 106 145 193 227 281 341
#     4  12  22  35  58  85 120 148 188 242 281 346
#     4  10  21  35  54  85 112 146 191 229 290 336
#
# _framework density 18.220821000000001
#
# number of rings (size 3 to 8) (size 9 to 14) (size 15 to 20)
#    0.000    1.600    6.667    0.800    0.000    0.000 
#    2.400    0.000    1.467    4.800    0.000    0.000 
#    0.000    0.000    0.000    0.000    0.000    0.000 
#
# Total GULP energy -371664.561904 kJ/mol
# GULP energy per Si atom -12388.818730 kJ/mol
# Density = 1.817935 g / cm^3
# Si number density = 18.220821 Si / 1000 Ang^3
#
#
#
# Elastic Constant Matrix: (Units=GPa)
#
#
# Indices 1 2 3 4 5 6 
#
# 1 130.9944 66.0684 18.3474 0.0010 0.9862 -0.0007
# 2 66.0684 124.1465 25.1515 0.0018 -8.8040 -0.0013
# 3 18.3474 25.1515 30.3983 0.0009 -2.9496 -0.0013
# 4 0.0010 0.0018 0.0009 24.8650 -0.0009 -2.7940
# 5 0.9862 -8.8040 -2.9496 -0.0009 23.7215 0.0009
# 6 -0.0007 -0.0013 -0.0013 -2.7940 0.0009 27.0295
#
#
#
# Elastic Compliance Matrix: (Units=1/GPa)
#
#
# Indices 1 2 3 4 5 6 
#
# 1 0.010712 -0.005444 -0.002227 0.000000 -0.002743 0.000000
# 2 -0.005444 0.012609 -0.006752 0.000000 0.004066 0.000000
# 3 -0.002227 -0.006752 0.040077 -0.000001 0.002570 0.000001
# 4 0.000000 0.000000 -0.000001 0.040690 0.000001 0.004206
# 5 -0.002743 0.004066 0.002570 0.000001 0.044099 -0.000001
# 6 0.000000 0.000000 0.000001 0.004206 -0.000001 0.037431
#
#
# Mechanical properties :
#
#
# Convention : Reuss Voigt Hill
#
# Bulk Modulus (GPa) = 28.94266 56.07487 42.50876
# Shear Modulus (GPa) = 22.12578 26.85466 24.49022
#
# Velocity S-wave (km/s) = 3.48848 3.84323 3.67015
# Velocity P-wave (km/s) = 5.66964 7.10886 6.42965
#
# Compressibility (1/GPa) = 0.03455107
#
# Stress axis : x y z
#
# Youngs Moduli (GPa) = 93.35015 79.31130 24.95219
#
# Poissons Ratio (x) = 0.43179 0.05558
# Poissons Ratio (y) = 0.50822 0.16847
# Poissons Ratio (z) = 0.20792 0.53549
#
# Static dielectric constant tensor:
#      x y z
#    x 3.761020 -0.000020 -0.174540 
#    y -0.000020 4.468930 0.000020 
#    z -0.174540 0.000020 3.142700 
# 
# 
# High freq. dielectric constant tensor:
#      x y z
#    x 1.716880 0.000000 -0.002290 
#    y 0.000000 1.669360 0.000000 
#    z -0.002290 0.000000 1.697770 
# 
# From -- ./inp_files/183068.got.cif
#   From: 2010.06.25/outbox.cif.g09.slc.cpg/sg15_92_cif.got.tgz:183068.got - 2010.06.28 07:06:18.
