data_PCOD8131103
_publ_section_title
;
Structure prediction by ZEFSAII (Michael W. Deem and Ramdas Pophale) SiO2 
 PCOD8131103
Probable space group: C 2/C
;
_chemical_formula_sum "Si O2"
_cell_formula_units_Z 64
_cell_length_a 21.313912
_cell_length_b 11.764429
_cell_length_c 21.123380
_cell_angle_alpha 90.000000
_cell_angle_beta 140.074543
_cell_angle_gamma 90.000000
_cell_volume 3399.309184
_symmetry_space_group_name_H-M "C 2/C"
_symmetry_group_IT_number 15
_symmetry_cell_setting 'monoclinic'
loop_
_space_group_symop_operation_xyz
x,y,z
-x,y,1/2-z
-x,-y,-z
x,-y,1/2+z
1/2+x,1/2+y,z
1/2-x,1/2+y,1/2-z
1/2-x,1/2-y,-z
1/2+x,1/2-y,1/2+z
loop_
_atom_site_type_symbol
_atom_site_label
_atom_site_fract_x
_atom_site_fract_y
_atom_site_fract_z
Si Si1 0.429417 0.291957 0.531846
Si Si2 0.731271 0.258529 0.827019
Si Si3 0.737862 0.243966 0.680145
Si Si4 0.963431 0.993921 0.401114
Si Si5 0.975639 0.759867 0.029025
Si Si6 0.750611 0.994593 0.698306
Si Si7 0.601761 0.922453 0.685154
Si Si8 0.536472 0.860825 0.207621
O O1 0.314115 0.309777 0.429854
O O2 0.476104 0.411821 0.592227
O O3 0.476034 0.253061 0.502134
O O4 0.449866 0.192961 0.598445
O O5 0.734461 0.235485 0.754010
O O6 0.752605 0.392840 0.855489
O O7 0.628158 0.223844 0.775759
O O8 0.638884 0.280996 0.569169
O O9 0.822738 0.331512 0.725516
O O10 0.757992 0.116390 0.669939
O O11 0.849550 0.026109 0.314914
O O12 0.000000 0.000000 0.500000
O O13 0.982702 0.863507 0.394837
O O14 0.004500 0.642436 0.085685
O O15 0.655978 0.989612 0.670432
O O16 0.567002 0.013602 0.709182
O O17 0.500000 0.872261 0.250000
#
# Coordination Sequence:
#
# PCOD8131103 Si02
#       8
#     8   8   8   8   8   8   8   8
#     4  11  20  36  60  88 120 152 192 243 296 358
#     4  11  21  35  59  88 119 152 191 240 293 353
#     4  11  20  34  57  96 120 147 179 245 313 349
#     4  10  18  31  53  89 122 147 176 226 306 359
#     4  11  20  32  59  96 121 149 180 245 317 356
#     4  11  18  33  56  87 121 144 179 245 302 345
#     4  11  22  36  58  88 120 152 195 240 301 353
#     4  12  27  43  57  79 121 169 206 238 280 352
#
# _framework density 18.827355000000001
#
# number of rings (size 3 to 8) (size 9 to 14) (size 15 to 20)
#    0.000    1.000    7.500    3.000    3.500    1.500 
#    0.000    0.000    0.000    3.750    0.000    0.000 
#    0.000    0.000    0.000    0.000    0.000    0.000 
#
# Total GULP energy -396649.387234 kJ/mol
# GULP energy per Si atom -12395.293351 kJ/mol
# Density = 1.878450 g / cm^3
# Si number density = 18.827355 Si / 1000 Ang^3
#
#
#
# Elastic Constant Matrix: (Units=GPa)
#
#
# Indices 1 2 3 4 5 6 
#
# 1 68.3963 39.5396 31.7216 0.0000 -4.7094 0.0000
# 2 39.5396 124.5107 19.4721 0.0000 -10.4903 0.0000
# 3 31.7216 19.4721 93.5872 0.0000 18.8947 0.0000
# 4 0.0000 0.0000 0.0000 30.3408 0.0000 6.4819
# 5 -4.7094 -10.4903 18.8947 0.0000 15.5611 0.0000
# 6 0.0000 0.0000 0.0000 6.4819 0.0000 17.9748
#
#
#
# Elastic Compliance Matrix: (Units=1/GPa)
#
#
# Indices 1 2 3 4 5 6 
#
# 1 0.022985 -0.004316 -0.010214 0.000000 0.016449 0.000000
# 2 -0.004316 0.010543 -0.002519 0.000000 0.008860 0.000000
# 3 -0.010214 -0.002519 0.020717 0.000000 -0.029945 0.000000
# 4 0.000000 0.000000 0.000000 0.035710 0.000000 -0.012877
# 5 0.016449 0.008860 -0.029945 0.000000 0.111573 0.000000
# 6 0.000000 0.000000 0.000000 -0.012877 0.000000 0.060277
#
#
# Mechanical properties :
#
#
# Convention : Reuss Voigt Hill
#
# Bulk Modulus (GPa) = 49.63632 51.99564 50.81598
# Shear Modulus (GPa) = 16.52240 25.82607 21.17424
#
# Velocity S-wave (km/s) = 2.96560 3.70771 3.35722
# Velocity P-wave (km/s) = 6.17637 6.78281 6.48668
#
# Compressibility (1/GPa) = 0.02014654
#
# Stress axis : x y z
#
# Youngs Moduli (GPa) = 43.50581 94.85408 48.26937
#
# Poissons Ratio (x) = 0.40940 0.49301
# Poissons Ratio (y) = 0.18778 0.12161
# Poissons Ratio (z) = 0.44436 0.23897
#
# Static dielectric constant tensor:
#      x y z
#    x 2.988650 0.000000 0.471740 
#    y 0.000000 4.494230 0.000000 
#    z 0.471740 0.000000 3.665720 
# 
# 
# High freq. dielectric constant tensor:
#      x y z
#    x 1.651740 0.000000 0.043660 
#    y 0.000000 1.759910 0.000000 
#    z 0.043660 0.000000 1.735980 
# 
# From -- ./inp_files/252583.got.cif
#   From: 2010.06.25/outbox.cif.g09.slc.cpg/sg15_127_cif.got.tgz:252583.got - 2010.06.28 07:06:18.
