data_PCOD8131442
_publ_section_title
;
Structure prediction by ZEFSAII (Michael W. Deem and Ramdas Pophale) SiO2 
 PCOD8131442
Probable space group: C 2/C
;
_chemical_formula_sum "Si O2"
_cell_formula_units_Z 48
_cell_length_a 18.662611
_cell_length_b 13.684006
_cell_length_c 11.123874
_cell_angle_alpha 90.000000
_cell_angle_beta 82.546796
_cell_angle_gamma 90.000000
_cell_volume 2816.805355
_symmetry_space_group_name_H-M "C 2/C"
_symmetry_group_IT_number 15
_symmetry_cell_setting 'monoclinic'
loop_
_space_group_symop_operation_xyz
x,y,z
-x,y,1/2-z
-x,-y,-z
x,-y,1/2+z
1/2+x,1/2+y,z
1/2-x,1/2+y,1/2-z
1/2-x,1/2-y,-z
1/2+x,1/2-y,1/2+z
loop_
_atom_site_type_symbol
_atom_site_label
_atom_site_fract_x
_atom_site_fract_y
_atom_site_fract_z
Si Si1 0.809735 0.755263 0.384967
Si Si2 0.599716 0.608645 0.489916
Si Si3 0.257047 0.423296 0.696894
Si Si4 0.824299 0.824109 0.896009
Si Si5 0.038107 0.924106 0.626068
Si Si6 0.242491 0.855947 0.339647
O O1 0.750000 0.750000 0.500000
O O2 0.884068 0.798585 0.425435
O O3 0.810224 0.644434 0.333557
O O4 0.790712 0.828387 0.281221
O O5 0.666663 0.598276 0.385005
O O6 0.590662 0.506149 0.560209
O O7 0.522009 0.624996 0.445838
O O8 0.271718 0.398310 0.833900
O O9 0.230907 0.532988 0.680044
O O10 0.908377 0.837721 0.845930
O O11 0.809884 0.712747 0.858946
O O12 0.815077 0.842466 0.040436
O O13 0.000000 0.971539 0.750000
#
# Coordination Sequence:
#
# PCOD8131442 Si02
#       6
#     8   8   8   8   8   8
#     4   9  20  33  50  77 106 134 173 218 258 306
#     4  10  20  31  49  76 107 139 169 211 263 313
#     4  10  18  33  53  76 104 137 175 216 261 307
#     4  10  20  34  49  77 105 140 175 214 264 306
#     4  11  20  31  50  76 110 142 171 208 265 322
#     4  10  20  33  54  73 107 135 175 223 256 312
#
# _framework density 17.040582000000001
#
# number of rings (size 3 to 8) (size 9 to 14) (size 15 to 20)
#    0.000    2.000    3.333    1.000    2.333    0.000 
#    0.000    0.000    0.000    1.000    0.000    1.167 
#    0.000    0.000    0.000    0.000    0.000    0.000 
#
# Total GULP energy -297328.864553 kJ/mol
# GULP energy per Si atom -12388.702690 kJ/mol
# Density = 1.700180 g / cm^3
# Si number density = 17.040582 Si / 1000 Ang^3
#
#
#
# Elastic Constant Matrix: (Units=GPa)
#
#
# Indices 1 2 3 4 5 6 
#
# 1 74.5798 52.4201 22.3659 0.0000 13.1713 0.0000
# 2 52.4201 130.9124 28.5874 0.0000 19.3273 0.0000
# 3 22.3659 28.5874 94.6308 0.0000 14.2061 0.0000
# 4 0.0000 0.0000 0.0000 20.7945 0.0000 2.9032
# 5 13.1713 19.3273 14.2061 0.0000 22.8231 0.0000
# 6 0.0000 0.0000 0.0000 2.9032 0.0000 26.0563
#
#
#
# Elastic Compliance Matrix: (Units=1/GPa)
#
#
# Indices 1 2 3 4 5 6 
#
# 1 0.019491 -0.006745 -0.001917 0.000000 -0.004343 0.000000
# 2 -0.006745 0.011315 -0.001070 0.000000 -0.005023 0.000000
# 3 -0.001917 -0.001070 0.012180 0.000000 -0.005569 0.000000
# 4 0.000000 0.000000 0.000000 0.048850 0.000000 -0.005443
# 5 -0.004343 -0.005023 -0.005569 0.000000 0.054042 0.000000
# 6 0.000000 0.000000 0.000000 -0.005443 0.000000 0.038985
#
#
# Mechanical properties :
#
#
# Convention : Reuss Voigt Hill
#
# Bulk Modulus (GPa) = 42.51341 56.31885 49.41613
# Shear Modulus (GPa) = 23.56640 27.05140 25.30890
#
# Velocity S-wave (km/s) = 3.72285 3.98863 3.85803
# Velocity P-wave (km/s) = 6.59408 7.37115 6.99342
#
# Compressibility (1/GPa) = 0.02352199
#
# Stress axis : x y z
#
# Youngs Moduli (GPa) = 51.30518 88.38063 82.10387
#
# Poissons Ratio (x) = 0.59611 0.15740
# Poissons Ratio (y) = 0.34604 0.08784
# Poissons Ratio (z) = 0.09836 0.09456
#
# Static dielectric constant tensor:
#      x y z
#    x 3.080260 0.000000 0.187850 
#    y 0.000000 3.329490 0.000000 
#    z 0.187850 0.000000 3.490020 
# 
# 
# High freq. dielectric constant tensor:
#      x y z
#    x 1.624540 0.000000 0.016930 
#    y 0.000000 1.648260 0.000000 
#    z 0.016930 0.000000 1.679170 
# 
# From -- ./inp_files/96443.got.cif
#   From: 2010.06.25/outbox.cif.g09.slc.cpg/sg15_49_cif.got.tgz:96443.got - 2010.06.28 07:06:18.
