data_PCOD8131468
_publ_section_title
;
Structure prediction by ZEFSAII (Michael W. Deem and Ramdas Pophale) SiO2 
 PCOD8131468
Probable space group: C 2/C
;
_chemical_formula_sum "Si O2"
_cell_formula_units_Z 56
_cell_length_a 22.387273
_cell_length_b 10.794546
_cell_length_c 18.731792
_cell_angle_alpha 90.000000
_cell_angle_beta 42.268365
_cell_angle_gamma 90.000000
_cell_volume 3044.699049
_symmetry_space_group_name_H-M "C 2/C"
_symmetry_group_IT_number 15
_symmetry_cell_setting 'monoclinic'
loop_
_space_group_symop_operation_xyz
x,y,z
-x,y,1/2-z
-x,-y,-z
x,-y,1/2+z
1/2+x,1/2+y,z
1/2-x,1/2+y,1/2-z
1/2-x,1/2-y,-z
1/2+x,1/2-y,1/2+z
loop_
_atom_site_type_symbol
_atom_site_label
_atom_site_fract_x
_atom_site_fract_y
_atom_site_fract_z
Si Si1 0.624256 0.689197 0.967888
Si Si2 0.805660 0.996000 0.695499
Si Si3 0.641926 0.039331 0.752083
Si Si4 0.976795 0.577433 0.450237
Si Si5 0.566853 0.265768 0.905360
Si Si6 0.253792 0.613004 0.525651
Si Si7 0.796674 0.457834 0.576779
O O1 0.647527 0.622271 0.872556
O O2 0.657342 0.601127 0.004347
O O3 0.678622 0.817365 0.923100
O O4 0.518961 0.707019 0.068197
O O5 0.876873 0.887060 0.630080
O O6 0.771192 0.015533 0.806369
O O7 0.722140 0.964204 0.718406
O O8 0.625426 0.163081 0.813321
O O9 0.667206 0.080413 0.649850
O O10 0.557409 0.946614 0.823684
O O11 0.966779 0.718300 0.486846
O O12 0.886430 0.536222 0.492957
O O13 0.000000 0.500000 0.500000
O O14 0.250000 0.750000 0.500000
O O15 0.252201 0.527460 0.456606
#
# Coordination Sequence:
#
# PCOD8131468 Si02
#       7
#     8   8   8   8   8   8   8
#     4  10  20  35  52  80 114 141 178 227 275 332
#     4  11  20  31  55  81 105 145 181 226 279 319
#     4  10  19  36  54  80 108 143 182 222 277 327
#     4  10  18  33  54  80 107 139 182 231 258 314
#     4  11  19  34  55  83 111 137 188 230 268 320
#     4   9  20  33  52  82 113 140 167 222 284 329
#     4  11  19  36  54  81 113 138 184 224 275 330
#
# _framework density 18.392621999999999
#
# number of rings (size 3 to 8) (size 9 to 14) (size 15 to 20)
#    0.000    1.714    5.714    3.000    0.000    0.571 
#    0.000    2.143    0.000    3.429    7.429    0.000 
#    0.000    0.000    0.000    0.000    0.000    0.000 
#
# Total GULP energy -347028.552353 kJ/mol
# GULP energy per Si atom -12393.876870 kJ/mol
# Density = 1.835076 g / cm^3
# Si number density = 18.392622 Si / 1000 Ang^3
#
#
#
# Elastic Constant Matrix: (Units=GPa)
#
#
# Indices 1 2 3 4 5 6 
#
# 1 109.4531 31.6272 44.8462 0.0000 0.8923 0.0000
# 2 31.6272 37.7901 27.8242 0.0000 -0.6922 0.0000
# 3 44.8462 27.8242 101.7361 0.0000 10.0820 0.0000
# 4 0.0000 0.0000 0.0000 29.0004 0.0000 0.8492
# 5 0.8923 -0.6922 10.0820 0.0000 32.6367 0.0000
# 6 0.0000 0.0000 0.0000 0.8492 0.0000 29.3685
#
#
#
# Elastic Compliance Matrix: (Units=1/GPa)
#
#
# Indices 1 2 3 4 5 6 
#
# 1 0.012952 -0.008246 -0.003509 0.000000 0.000555 0.000000
# 2 -0.008246 0.038802 -0.007305 0.000000 0.003305 0.000000
# 3 -0.003509 -0.007305 0.013802 0.000000 -0.004323 0.000000
# 4 0.000000 0.000000 0.000000 0.034512 0.000000 -0.000998
# 5 0.000555 0.003305 -0.004323 0.000000 0.032031 0.000000
# 6 0.000000 0.000000 0.000000 -0.000998 0.000000 0.034079
#
#
# Mechanical properties :
#
#
# Convention : Reuss Voigt Hill
#
# Bulk Modulus (GPa) = 36.44736 50.84161 43.64449
# Shear Modulus (GPa) = 23.42534 27.84657 25.63595
#
# Velocity S-wave (km/s) = 3.57266 3.89525 3.73744
# Velocity P-wave (km/s) = 6.07272 6.92337 6.51195
#
# Compressibility (1/GPa) = 0.02743683
#
# Stress axis : x y z
#
# Youngs Moduli (GPa) = 77.20542 25.77172 72.45092
#
# Poissons Ratio (x) = 0.21252 0.25425
# Poissons Ratio (y) = 0.63665 0.52923
# Poissons Ratio (z) = 0.27094 0.18825
#
# Static dielectric constant tensor:
#      x y z
#    x 3.720860 0.000000 0.048180 
#    y 0.000000 3.326900 0.000000 
#    z 0.048180 0.000000 3.677380 
# 
# 
# High freq. dielectric constant tensor:
#      x y z
#    x 1.709160 0.000000 -0.012660 
#    y 0.000000 1.684880 0.000000 
#    z -0.012660 0.000000 1.710380 
# 
# From -- ./inp_files/214790.got.cif
#   From: 2010.06.25/outbox.cif.g09.slc.cpg/sg15_108_cif.got.tgz:214790.got - 2010.06.28 07:06:18.
