data_PCOD8131489
_publ_section_title
;
Structure prediction by ZEFSAII (Michael W. Deem and Ramdas Pophale) SiO2 
 PCOD8131489
Probable space group: C 2/C
;
_chemical_formula_sum "Si O2"
_cell_formula_units_Z 48
_cell_length_a 8.537876
_cell_length_b 22.695223
_cell_length_c 16.570009
_cell_angle_alpha 90.000000
_cell_angle_beta 52.725498
_cell_angle_gamma 90.000000
_cell_volume 2554.935338
_symmetry_space_group_name_H-M "C 2/C"
_symmetry_group_IT_number 15
_symmetry_cell_setting 'monoclinic'
loop_
_space_group_symop_operation_xyz
x,y,z
-x,y,1/2-z
-x,-y,-z
x,-y,1/2+z
1/2+x,1/2+y,z
1/2-x,1/2+y,1/2-z
1/2-x,1/2-y,-z
1/2+x,1/2-y,1/2+z
loop_
_atom_site_type_symbol
_atom_site_label
_atom_site_fract_x
_atom_site_fract_y
_atom_site_fract_z
Si Si1 0.282074 0.481239 0.471853
Si Si2 0.460486 0.585266 0.508666
Si Si3 0.489951 0.261990 0.661054
Si Si4 0.222019 0.632609 0.211999
Si Si5 0.362022 0.067241 0.101875
Si Si6 0.323180 0.163189 0.983441
O O1 0.335737 0.528494 0.523015
O O2 0.443571 0.427866 0.432281
O O3 0.275838 0.512366 0.385551
O O4 0.070471 0.457188 0.564456
O O5 0.641670 0.596079 0.390799
O O6 0.310789 0.640559 0.551076
O O7 0.500000 0.242718 0.750000
O O8 0.298281 0.300288 0.698162
O O9 0.494561 0.201830 0.606542
O O10 0.688523 0.298079 0.583777
O O11 0.242299 0.600368 0.292115
O O12 0.000000 0.635304 0.250000
O O13 0.402340 0.109486 0.012438
#
# Coordination Sequence:
#
# PCOD8131489 Si02
#       6
#     8   8   8   8   8   8
#     4   9  18  31  54  79 107 141 168 216 266 327
#     4   9  18  33  54  80 112 137 177 218 266 326
#     4  10  19  35  56  78 103 139 185 227 270 324
#     4  11  20  33  55  85 102 137 187 231 261 316
#     4  10  18  33  55  81 109 139 178 219 269 322
#     4   9  19  33  56  80 105 141 180 225 276 317
#
# _framework density 18.787168999999999
#
# number of rings (size 3 to 8) (size 9 to 14) (size 15 to 20)
#    0.000    2.333    3.333    0.000    0.000    0.000 
#    0.000    2.500   36.667    0.000    0.000    0.000 
#    0.000    0.000    0.000    0.000    0.000    0.000 
#
# Total GULP energy -297335.947988 kJ/mol
# GULP energy per Si atom -12388.997833 kJ/mol
# Density = 1.874441 g / cm^3
# Si number density = 18.787169 Si / 1000 Ang^3
#
#
#
# Elastic Constant Matrix: (Units=GPa)
#
#
# Indices 1 2 3 4 5 6 
#
# 1 112.0351 50.1652 38.1649 0.0000 -0.3348 0.0000
# 2 50.1652 93.0930 49.7792 0.0000 -1.3202 0.0000
# 3 38.1649 49.7792 56.2700 0.0000 1.6609 0.0000
# 4 0.0000 0.0000 0.0000 22.6973 0.0000 -11.0844
# 5 -0.3348 -1.3202 1.6609 0.0000 21.3343 0.0000
# 6 0.0000 0.0000 0.0000 -11.0844 0.0000 29.9666
#
#
#
# Elastic Compliance Matrix: (Units=1/GPa)
#
#
# Indices 1 2 3 4 5 6 
#
# 1 0.012399 -0.004128 -0.004767 0.000000 0.000310 0.000000
# 2 -0.004128 0.021912 -0.016661 0.000000 0.002588 0.000000
# 3 -0.004767 -0.016661 0.035859 0.000000 -0.003897 0.000000
# 4 0.000000 0.000000 0.000000 0.053771 0.000000 0.019890
# 5 0.000310 0.002588 -0.003897 0.000000 0.047341 0.000000
# 6 0.000000 0.000000 0.000000 0.019890 0.000000 0.040727
#
#
# Mechanical properties :
#
#
# Convention : Reuss Voigt Hill
#
# Bulk Modulus (GPa) = 52.47163 59.73520 56.10342
# Shear Modulus (GPa) = 18.55457 23.01888 20.78673
#
# Velocity S-wave (km/s) = 3.14605 3.50415 3.32992
# Velocity P-wave (km/s) = 6.41771 6.94527 6.68670
#
# Compressibility (1/GPa) = 0.01905792
#
# Stress axis : x y z
#
# Youngs Moduli (GPa) = 80.65224 45.63620 27.88711
#
# Poissons Ratio (x) = 0.18839 0.13293
# Poissons Ratio (y) = 0.33295 0.46464
# Poissons Ratio (z) = 0.38444 0.76036
#
# Static dielectric constant tensor:
#      x y z
#    x 3.697560 0.000000 0.018290 
#    y 0.000000 3.719900 0.000000 
#    z 0.018290 0.000000 3.142900 
# 
# 
# High freq. dielectric constant tensor:
#      x y z
#    x 1.736540 0.000000 -0.002680 
#    y 0.000000 1.732020 0.000000 
#    z -0.002680 0.000000 1.691140 
# 
# From -- ./inp_files/80255.got.cif
#   From: 2010.06.25/outbox.cif.g09.slc.cpg/sg15_41_cif.got.tgz:80255.got - 2010.06.28 07:06:18.
