data_PCOD8131792
_publ_section_title
;
Structure prediction by ZEFSAII (Michael W. Deem and Ramdas Pophale) SiO2 
 PCOD8131792
Probable space group: C 2/C
;
_chemical_formula_sum "Si O2"
_cell_formula_units_Z 60
_cell_length_a 20.159156
_cell_length_b 10.090109
_cell_length_c 23.888958
_cell_angle_alpha 90.000000
_cell_angle_beta 32.557446
_cell_angle_gamma 90.000000
_cell_volume 2614.957724
_symmetry_space_group_name_H-M "C 2/C"
_symmetry_group_IT_number 15
_symmetry_cell_setting 'monoclinic'
loop_
_space_group_symop_operation_xyz
x,y,z
-x,y,1/2-z
-x,-y,-z
x,-y,1/2+z
1/2+x,1/2+y,z
1/2-x,1/2+y,1/2-z
1/2-x,1/2-y,-z
1/2+x,1/2-y,1/2+z
loop_
_atom_site_type_symbol
_atom_site_label
_atom_site_fract_x
_atom_site_fract_y
_atom_site_fract_z
Si Si1 0.371906 0.692160 0.351865
Si Si2 0.636012 0.645010 0.012194
Si Si3 0.941809 0.872963 0.479136
Si Si4 0.791876 0.950688 0.233261
Si Si5 0.859827 0.672470 0.450742
Si Si6 0.121671 0.778922 0.854314
Si Si7 0.179571 0.073328 0.658968
Si Si8 0.500000 0.799244 0.750000
O O1 0.500000 0.772833 0.250000
O O2 0.355526 0.641384 0.426788
O O3 0.257735 0.774346 0.407352
O O4 0.393209 0.562112 0.298301
O O5 0.510424 0.715148 0.081819
O O6 0.641845 0.499114 0.980046
O O7 0.944195 0.773460 0.425599
O O8 0.890413 0.797950 0.570094
O O9 0.082213 0.918749 0.390466
O O10 0.676769 0.862486 0.294127
O O11 0.795297 0.908343 0.294547
O O12 0.778843 0.109304 0.236603
O O13 0.750000 0.750000 0.500000
O O14 0.805203 0.561808 0.531717
O O15 0.948177 0.611654 0.338693
O O16 0.110479 0.205742 0.690636
#
# Coordination Sequence:
#
# PCOD8131792 Si02
#       8
#     8   8   8   8   8   8   8   4
#     4  11  22  40  69  92 125 167 220 280 334 394
#     4  10  23  41  65  92 128 170 222 269 333 402
#     4  11  21  42  65  91 133 176 219 269 340 397
#     4  11  23  42  66  95 132 180 228 275 332 404
#     4  10  20  33  62  92 128 164 212 266 329 394
#     4  11  25  43  66  97 135 181 226 276 335 397
#     4  11  20  36  63  95 125 166 215 273 333 387
#     4  10  18  34  58  92 126 164 210 260 328 402
#
# _framework density 22.944921000000001
#
# number of rings (size 3 to 8) (size 9 to 14) (size 15 to 20)
#    0.000    1.333    3.333    4.800    0.000    4.267 
#    2.400    1.333   26.400    0.000    0.000    0.000 
#    0.000    0.000    0.000    0.000    0.000    0.000 
#
# Total GULP energy -371738.630581 kJ/mol
# GULP energy per Si atom -12391.287686 kJ/mol
# Density = 2.289270 g / cm^3
# Si number density = 22.944921 Si / 1000 Ang^3
#
#
#
# Elastic Constant Matrix: (Units=GPa)
#
#
# Indices 1 2 3 4 5 6 
#
# 1 59.6606 18.6258 9.6903 -0.0003 -11.5834 0.0000
# 2 18.6258 50.9837 33.3555 0.0003 -19.4969 0.0002
# 3 9.6903 33.3555 120.3481 -0.0012 -1.2218 -0.0007
# 4 -0.0003 0.0003 -0.0012 -56.7021 0.0003 -28.0027
# 5 -11.5834 -19.4969 -1.2218 0.0003 36.8422 0.0001
# 6 0.0000 0.0002 -0.0007 -28.0027 0.0001 21.4029
#
#
#
# Elastic Compliance Matrix: (Units=1/GPa)
#
#
# Indices 1 2 3 4 5 6 
#
# 1 0.019167 -0.006012 0.000152 0.000000 0.002850 0.000000
# 2 -0.006012 0.033359 -0.008604 0.000000 0.015478 0.000000
# 3 0.000152 -0.008604 0.010640 0.000000 -0.004153 0.000000
# 4 0.000000 0.000000 0.000000 -0.010714 0.000000 -0.014017
# 5 0.002850 0.015478 -0.004153 0.000000 0.036092 0.000000
# 6 0.000000 0.000000 0.000000 -0.014017 0.000000 0.028383
#
#
# Mechanical properties :
#
#
# Convention : Reuss Voigt Hill
#
# Bulk Modulus (GPa) = 29.20855 39.37063 34.28959
# Shear Modulus (GPa) = 31.79289 11.59666 21.69477
#
# Velocity S-wave (km/s) = 3.72643 2.25058 3.07826
# Velocity P-wave (km/s) = 5.59218 4.89382 5.25462
#
# Compressibility (1/GPa) = 0.03423655
#
# Stress axis : x y z
#
# Youngs Moduli (GPa) = 52.17306 29.97716 93.98816
#
# Poissons Ratio (x) = 0.18022 -0.01427
# Poissons Ratio (y) = 0.31365 0.80872
# Poissons Ratio (z) = -0.00792 0.25794
#
# Static dielectric constant tensor:
#      x y z
#    x 4.199740 0.000000 0.063790 
#    y 0.000000 3.634840 -0.000010 
#    z 0.063790 -0.000010 4.397080 
# 
# 
# High freq. dielectric constant tensor:
#      x y z
#    x 1.908950 0.000000 0.012040 
#    y 0.000000 1.874820 0.000000 
#    z 0.012040 0.000000 1.915300 
# 
# From -- ./inp_files/280089.got.cif
#   From: 2010.06.25/outbox.cif.g09.slc.cpg/sg15_141_cif.got.tgz:280089.got - 2010.06.28 07:06:18.
