data_PCOD8131681
_publ_section_title
;
Structure prediction by ZEFSAII (Michael W. Deem and Ramdas Pophale) SiO2 
 PCOD8131681
Probable space group: C 2/C
;
_chemical_formula_sum "Si O2"
_cell_formula_units_Z 64
_cell_length_a 19.285086
_cell_length_b 11.811356
_cell_length_c 11.272583
_cell_angle_alpha 90.000000
_cell_angle_beta 88.956626
_cell_angle_gamma 90.000000
_cell_volume 2567.277223
_symmetry_space_group_name_H-M "C 2/C"
_symmetry_group_IT_number 15
_symmetry_cell_setting 'monoclinic'
loop_
_space_group_symop_operation_xyz
x,y,z
-x,y,1/2-z
-x,-y,-z
x,-y,1/2+z
1/2+x,1/2+y,z
1/2-x,1/2+y,1/2-z
1/2-x,1/2-y,-z
1/2+x,1/2-y,1/2+z
loop_
_atom_site_type_symbol
_atom_site_label
_atom_site_fract_x
_atom_site_fract_y
_atom_site_fract_z
Si Si1 0.171087 0.777894 0.472979
Si Si2 0.870731 0.661629 0.803687
Si Si3 0.204091 0.354965 0.566183
Si Si4 0.408739 0.736813 0.074280
Si Si5 0.402387 0.082784 0.256963
Si Si6 0.666559 0.531683 0.535645
Si Si7 0.008877 0.622926 0.446878
Si Si8 0.782005 0.837396 0.269507
O O1 0.250000 0.750000 0.500000
O O2 0.121283 0.695172 0.555663
O O3 0.166548 0.775719 0.328256
O O4 0.147369 0.902228 0.516860
O O5 0.896684 0.763645 0.717025
O O6 0.916689 0.552579 0.770649
O O7 0.789798 0.630889 0.788177
O O8 0.142099 0.336794 0.474178
O O9 0.175043 0.394548 0.695582
O O10 0.258778 0.449587 0.528501
O O11 0.236685 0.233191 0.606540
O O12 0.392032 0.613791 0.019886
O O13 0.488186 0.776571 0.040550
O O14 0.456276 0.144905 0.340411
O O15 0.414569 0.127042 0.119989
O O16 0.675774 0.555571 0.677298
O O17 0.000000 0.500000 0.500000
#
# Coordination Sequence:
#
# PCOD8131681 Si02
#       8
#     8   8   8   8   8   8   8   8
#     4  10  24  32  47  83 119 157 207 247 295 358
#     4  11  19  35  50  82 119 156 194 249 305 361
#     4  10  18  34  55  81 112 159 202 237 302 375
#     4  10  19  34  58  80 115 156 202 247 301 379
#     4  10  22  33  56  88 123 151 197 257 312 359
#     4  11  20  36  57  80 117 172 206 244 307 378
#     4  10  20  37  56  88 116 154 203 249 316 370
#     4  10  20  35  52  80 120 160 200 245 297 372
#
# _framework density 24.929134000000001
#
# number of rings (size 3 to 8) (size 9 to 14) (size 15 to 20)
#    0.000    1.750    3.750    2.250    1.750    3.000 
#    0.000    0.000    0.000    0.000    0.000   14.000 
#    0.000    0.125    0.000    0.000    0.000    0.000 
#
# Total GULP energy -396420.702060 kJ/mol
# GULP energy per Si atom -12388.146939 kJ/mol
# Density = 2.487239 g / cm^3
# Si number density = 24.929134 Si / 1000 Ang^3
#
#
#
# Elastic Constant Matrix: (Units=GPa)
#
#
# Indices 1 2 3 4 5 6 
#
# 1 44.7146 -4.4259 15.6292 0.0000 -28.2770 0.0000
# 2 -4.4259 61.0060 11.8999 0.0000 -11.5953 0.0000
# 3 15.6292 11.8999 169.9251 0.0000 -16.0939 0.0000
# 4 0.0000 0.0000 0.0000 35.7998 0.0000 -9.9942
# 5 -28.2770 -11.5953 -16.0939 0.0000 39.5411 0.0000
# 6 0.0000 0.0000 0.0000 -9.9942 0.0000 26.0888
#
#
#
# Elastic Compliance Matrix: (Units=1/GPa)
#
#
# Indices 1 2 3 4 5 6 
#
# 1 0.046545 0.010480 -0.001634 0.000000 0.035693 0.000000
# 2 0.010480 0.019815 -0.001135 0.000000 0.012843 0.000000
# 3 -0.001634 -0.001135 0.006212 0.000000 0.001027 0.000000
# 4 0.000000 0.000000 0.000000 0.031278 0.000000 0.011982
# 5 0.035693 0.012843 0.001027 0.000000 0.055000 0.000000
# 6 0.000000 0.000000 0.000000 0.011982 0.000000 0.042921
#
#
# Mechanical properties :
#
#
# Convention : Reuss Voigt Hill
#
# Bulk Modulus (GPa) = 11.36467 35.76133 23.56300
# Shear Modulus (GPa) = 23.18248 37.12210 30.15229
#
# Velocity S-wave (km/s) = 3.05279 3.86308 3.48159
# Velocity P-wave (km/s) = 4.12247 5.85441 5.06305
#
# Compressibility (1/GPa) = 0.08799197
#
# Stress axis : x y z
#
# Youngs Moduli (GPa) = 21.48468 50.46784 160.97855
#
# Poissons Ratio (x) = -0.52889 0.26310
# Poissons Ratio (y) = -0.22515 0.18273
# Poissons Ratio (z) = 0.03511 0.05729
#
# Static dielectric constant tensor:
#      x y z
#    x 4.548060 0.000000 -0.718350 
#    y 0.000000 4.183360 0.000000 
#    z -0.718350 0.000000 5.734990 
# 
# 
# High freq. dielectric constant tensor:
#      x y z
#    x 1.964290 0.000000 -0.015300 
#    y 0.000000 1.963180 0.000000 
#    z -0.015300 0.000000 2.030680 
# 
# From -- ./inp_files/117559.got.cif
#   From: 2010.06.25/outbox.cif.g09.slc.cpg/sg15_59_cif.got.tgz:117559.got - 2010.06.28 07:06:18.
