data_PCOD8131772
_publ_section_title
;
Structure prediction by ZEFSAII (Michael W. Deem and Ramdas Pophale) SiO2 
 PCOD8131772
Probable space group: C 2/C
;
_chemical_formula_sum "Si O2"
_cell_formula_units_Z 56
_cell_length_a 8.947061
_cell_length_b 17.537396
_cell_length_c 19.385792
_cell_angle_alpha 90.000000
_cell_angle_beta 62.232212
_cell_angle_gamma 90.000000
_cell_volume 2691.505645
_symmetry_space_group_name_H-M "C 2/C"
_symmetry_group_IT_number 15
_symmetry_cell_setting 'monoclinic'
loop_
_space_group_symop_operation_xyz
x,y,z
-x,y,1/2-z
-x,-y,-z
x,-y,1/2+z
1/2+x,1/2+y,z
1/2-x,1/2+y,1/2-z
1/2-x,1/2-y,-z
1/2+x,1/2-y,1/2+z
loop_
_atom_site_type_symbol
_atom_site_label
_atom_site_fract_x
_atom_site_fract_y
_atom_site_fract_z
Si Si1 0.999262 0.697704 0.461149
Si Si2 0.896927 0.668082 0.910560
Si Si3 0.726245 0.941277 0.483877
Si Si4 0.493693 0.664472 0.146346
Si Si5 0.927364 0.478870 0.121347
Si Si6 0.237278 0.623912 0.306525
Si Si7 0.518348 0.364461 0.484653
O O1 0.835826 0.645596 0.500881
O O2 0.116430 0.678994 0.503381
O O3 0.098499 0.680352 0.369177
O O4 0.939077 0.784616 0.475940
O O5 0.946838 0.747556 0.864836
O O6 0.039363 0.606070 0.856384
O O7 0.716149 0.637829 0.922989
O O8 0.708844 0.975564 0.411444
O O9 0.921487 0.935020 0.467686
O O10 0.613336 0.994235 0.557243
O O11 0.305506 0.658690 0.220098
O O12 0.614992 0.614758 0.168676
O O13 0.488864 0.626675 0.072557
O O14 0.846543 0.540380 0.190997
#
# Coordination Sequence:
#
# PCOD8131772 Si02
#       7
#     8   8   8   8   8   8   8
#     4   9  16  33  54  83 111 148 189 232 278 341
#     4  10  18  34  58  86 113 141 190 242 283 324
#     4   9  19  31  56  83 116 145 186 229 295 338
#     4  10  20  33  60  83 110 150 195 232 280 348
#     4   9  20  37  54  80 112 155 181 230 292 349
#     4  10  18  36  60  77 110 161 191 216 289 363
#     4  11  18  31  55  93 112 140 194 252 272 322
#
# _framework density 20.806198999999999
#
# number of rings (size 3 to 8) (size 9 to 14) (size 15 to 20)
#    0.000    2.286    2.857    2.143    0.000    0.571 
#    0.000    2.857   12.571    0.000    0.000    0.000 
#    0.000    0.000    0.000    0.000    0.000    0.000 
#
# Total GULP energy -346986.267647 kJ/mol
# GULP energy per Si atom -12392.366702 kJ/mol
# Density = 2.075884 g / cm^3
# Si number density = 20.806199 Si / 1000 Ang^3
#
#
#
# Elastic Constant Matrix: (Units=GPa)
#
#
# Indices 1 2 3 4 5 6 
#
# 1 74.5802 29.6537 10.0327 0.0000 -10.8517 0.0000
# 2 29.6537 76.8121 19.2649 0.0000 -4.3643 0.0000
# 3 10.0327 19.2649 79.1528 0.0000 -14.2273 0.0000
# 4 0.0000 0.0000 0.0000 14.2938 0.0000 -4.9322
# 5 -10.8517 -4.3643 -14.2273 0.0000 13.2007 0.0000
# 6 0.0000 0.0000 0.0000 -4.9322 0.0000 40.1500
#
#
#
# Elastic Compliance Matrix: (Units=1/GPa)
#
#
# Indices 1 2 3 4 5 6 
#
# 1 0.017886 -0.006565 0.001964 0.000000 0.014650 0.000000
# 2 -0.006565 0.016290 -0.003888 0.000000 -0.004202 0.000000
# 3 0.001964 -0.003888 0.016608 0.000000 0.018228 0.000000
# 4 0.000000 0.000000 0.000000 0.073057 0.000000 0.008975
# 5 0.014650 -0.004202 0.018228 0.000000 0.106053 0.000000
# 6 0.000000 0.000000 0.000000 0.008975 0.000000 0.026009
#
#
# Mechanical properties :
#
#
# Convention : Reuss Voigt Hill
#
# Bulk Modulus (GPa) = 29.58115 38.71639 34.14877
# Shear Modulus (GPa) = 17.59635 24.96847 21.28241
#
# Velocity S-wave (km/s) = 2.91129 3.46793 3.20173
# Velocity P-wave (km/s) = 5.05462 5.88930 5.48785
#
# Compressibility (1/GPa) = 0.03380532
#
# Stress axis : x y z
#
# Youngs Moduli (GPa) = 55.90922 61.38850 60.21354
#
# Poissons Ratio (x) = 0.40303 -0.11826
# Poissons Ratio (y) = 0.36706 0.23410
# Poissons Ratio (z) = -0.10981 0.23867
#
# Static dielectric constant tensor:
#      x y z
#    x 3.631160 0.000000 -0.085820 
#    y 0.000000 3.858940 0.000000 
#    z -0.085820 0.000000 3.468560 
# 
# 
# High freq. dielectric constant tensor:
#      x y z
#    x 1.802640 0.000000 -0.013860 
#    y 0.000000 1.822770 0.000000 
#    z -0.013860 0.000000 1.769820 
# 
# From -- ./inp_files/232606.got.cif
#   From: 2010.06.25/outbox.cif.g09.slc.cpg/sg15_117_cif.got.tgz:232606.got - 2010.06.28 07:06:18.
