data_PCOD8131253
_publ_section_title
;
Structure prediction by ZEFSAII (Michael W. Deem and Ramdas Pophale) SiO2 
 PCOD8131253
Probable space group: C 2/C
;
_chemical_formula_sum "Si O2"
_cell_formula_units_Z 52
_cell_length_a 14.272245
_cell_length_b 15.481286
_cell_length_c 16.857523
_cell_angle_alpha 90.000000
_cell_angle_beta 48.119516
_cell_angle_gamma 90.000000
_cell_volume 2773.195753
_symmetry_space_group_name_H-M "C 2/C"
_symmetry_group_IT_number 15
_symmetry_cell_setting 'monoclinic'
loop_
_space_group_symop_operation_xyz
x,y,z
-x,y,1/2-z
-x,-y,-z
x,-y,1/2+z
1/2+x,1/2+y,z
1/2-x,1/2+y,1/2-z
1/2-x,1/2-y,-z
1/2+x,1/2-y,1/2+z
loop_
_atom_site_type_symbol
_atom_site_label
_atom_site_fract_x
_atom_site_fract_y
_atom_site_fract_z
Si Si1 0.500000 0.767633 0.750000
Si Si2 0.844213 0.821877 0.918822
Si Si3 0.756384 0.816682 0.314515
Si Si4 0.845956 0.012903 0.925527
Si Si5 0.829424 0.665862 0.472503
Si Si6 0.374968 0.482122 0.221196
Si Si7 0.371119 0.326264 0.717889
O O1 0.613002 0.706635 0.715096
O O2 0.542445 0.827809 0.651310
O O3 0.800324 0.916391 0.974022
O O4 0.841712 0.817044 0.826166
O O5 0.982075 0.804984 0.877630
O O6 0.750000 0.750000 0.000000
O O7 0.651437 0.837085 0.442311
O O8 0.784072 0.902759 0.245252
O O9 0.712612 0.739612 0.284111
O O10 0.863994 0.016230 0.821724
O O11 0.981470 0.034905 0.887850
O O12 0.744160 0.080585 0.015386
O O13 0.750000 0.750000 0.500000
O O14 0.335189 0.576190 0.209573
#
# Coordination Sequence:
#
# PCOD8131253 Si02
#       7
#     4   8   8   8   8   8   8
#     4  10  20  32  50  76 108 134 160 208 260 304
#     4   9  18  35  54  73 100 134 172 215 256 292
#     4  10  18  32  54  77 103 135 170 207 253 304
#     4   8  14  29  53  73  93 131 175 208 245 299
#     4   9  17  30  49  74 101 130 164 203 253 303
#     4   8  14  29  52  74  97 130 171 209 246 293
#     4   9  19  33  53  78 100 130 176 215 246 299
#
# _framework density 18.750931000000001
#
# number of rings (size 3 to 8) (size 9 to 14) (size 15 to 20)
#    0.000    3.077    0.000    4.615    0.000    1.231 
#    0.000    6.154    0.000   15.692    0.000    0.000 
#    0.000    0.000    0.000    0.000    0.000    0.000 
#
# Total GULP energy -322109.695418 kJ/mol
# GULP energy per Si atom -12388.834439 kJ/mol
# Density = 1.870825 g / cm^3
# Si number density = 18.750931 Si / 1000 Ang^3
#
#
#
# Elastic Constant Matrix: (Units=GPa)
#
#
# Indices 1 2 3 4 5 6 
#
# 1 59.1382 46.0885 10.4961 0.0000 -0.1155 0.0000
# 2 46.0885 165.7352 50.5860 0.0000 -11.9029 0.0000
# 3 10.4961 50.5860 81.1744 0.0000 -16.4674 0.0000
# 4 0.0000 0.0000 0.0000 27.8257 0.0000 -5.3128
# 5 -0.1155 -11.9029 -16.4674 0.0000 9.8916 0.0000
# 6 0.0000 0.0000 0.0000 -5.3128 0.0000 34.6529
#
#
#
# Elastic Compliance Matrix: (Units=1/GPa)
#
#
# Indices 1 2 3 4 5 6 
#
# 1 0.022137 -0.006627 -0.000450 0.000000 -0.008465 0.000000
# 2 -0.006627 0.009457 -0.004143 0.000000 0.004406 0.000000
# 3 -0.000450 -0.004143 0.021059 0.000000 0.030068 0.000000
# 4 0.000000 0.000000 0.000000 0.037022 0.000000 0.005676
# 5 -0.008465 0.004406 0.030068 0.000000 0.156355 0.000000
# 6 0.000000 0.000000 0.000000 0.005676 0.000000 0.029728
#
#
# Mechanical properties :
#
#
# Convention : Reuss Voigt Hill
#
# Bulk Modulus (GPa) = 33.09714 57.82099 45.45906
# Shear Modulus (GPa) = 16.21962 27.73252 21.97607
#
# Velocity S-wave (km/s) = 2.94428 3.84994 3.42716
# Velocity P-wave (km/s) = 5.40811 7.11801 6.32114
#
# Compressibility (1/GPa) = 0.03021409
#
# Stress axis : x y z
#
# Youngs Moduli (GPa) = 45.17275 105.73681 47.48601
#
# Poissons Ratio (x) = 0.70067 0.02137
# Poissons Ratio (y) = 0.29934 0.19674
# Poissons Ratio (z) = 0.02033 0.43807
#
# Static dielectric constant tensor:
#      x y z
#    x 7.135920 0.000000 -4.754770 
#    y 0.000000 2.828760 0.000000 
#    z -4.754770 0.000000 8.903230 
# 
# 
# High freq. dielectric constant tensor:
#      x y z
#    x 1.681790 0.000000 -0.004690 
#    y 0.000000 1.744230 0.000000 
#    z -0.004690 0.000000 1.715230 
# 
# From -- ./inp_files/205001.got.cif
#   From: 2010.06.25/outbox.cif.g09.slc.cpg/sg15_103_cif.got.tgz:205001.got - 2010.06.28 07:06:18.
