data_PCOD8131495
_publ_section_title
;
Structure prediction by ZEFSAII (Michael W. Deem and Ramdas Pophale) SiO2 
 PCOD8131495
Probable space group: C 2/C
;
_chemical_formula_sum "Si O2"
_cell_formula_units_Z 64
_cell_length_a 19.359258
_cell_length_b 11.897784
_cell_length_c 14.450463
_cell_angle_alpha 90.000000
_cell_angle_beta 94.107258
_cell_angle_gamma 90.000000
_cell_volume 3319.859656
_symmetry_space_group_name_H-M "C 2/C"
_symmetry_group_IT_number 15
_symmetry_cell_setting 'monoclinic'
loop_
_space_group_symop_operation_xyz
x,y,z
-x,y,1/2-z
-x,-y,-z
x,-y,1/2+z
1/2+x,1/2+y,z
1/2-x,1/2+y,1/2-z
1/2-x,1/2-y,-z
1/2+x,1/2-y,1/2+z
loop_
_atom_site_type_symbol
_atom_site_label
_atom_site_fract_x
_atom_site_fract_y
_atom_site_fract_z
Si Si1 0.439305 0.436710 0.610052
Si Si2 0.844143 0.698724 0.089944
Si Si3 0.438766 0.816500 0.131479
Si Si4 0.918152 0.503455 0.495098
Si Si5 0.314421 0.314226 0.901446
Si Si6 0.094224 0.368372 0.172850
Si Si7 0.420888 0.354264 0.232895
Si Si8 0.907038 0.984798 0.401602
O O1 0.418001 0.313149 0.644282
O O2 0.408261 0.530793 0.674277
O O3 0.405657 0.444938 0.506343
O O4 0.521767 0.451160 0.615517
O O5 0.886570 0.590970 0.059727
O O6 0.767248 0.668378 0.114543
O O7 0.881759 0.751281 0.182253
O O8 0.840061 0.790464 0.008226
O O9 0.522028 0.817644 0.127096
O O10 0.413954 0.889376 0.218470
O O11 0.401027 0.874066 0.038565
O O12 0.890641 0.482390 0.386827
O O13 0.000000 0.500000 0.500000
O O14 0.341583 0.215312 0.837449
O O15 0.345047 0.431951 0.873032
O O16 0.500000 0.318048 0.250000
O O17 0.394555 0.376789 0.334736
#
# Coordination Sequence:
#
# PCOD8131495 Si02
#       8
#     8   8   8   8   8   8   8   8
#     4  10  19  31  56  88 116 140 192 242 295 344
#     4  10  21  38  57  85 111 155 200 236 292 351
#     4  10  18  33  55  83 113 142 194 248 282 344
#     4   9  20  36  55  77 111 149 192 247 279 336
#     4  10  18  36  62  78 116 154 197 236 280 370
#     4   9  18  32  56  82 102 152 199 228 291 343
#     4  10  21  35  56  87 119 144 189 251 294 340
#     4  10  19  32  56  88 114 153 181 239 303 340
#
# _framework density 19.277923000000001
#
# number of rings (size 3 to 8) (size 9 to 14) (size 15 to 20)
#    0.000    2.250    2.500    0.750    3.500    0.000 
#    9.000    0.000    0.000    0.750    0.000    0.000 
#    0.000    0.000    0.000    0.000    0.000    0.000 
#
# Total GULP energy -396568.569427 kJ/mol
# GULP energy per Si atom -12392.767795 kJ/mol
# Density = 1.923405 g / cm^3
# Si number density = 19.277923 Si / 1000 Ang^3
#
#
#
# Elastic Constant Matrix: (Units=GPa)
#
#
# Indices 1 2 3 4 5 6 
#
# 1 79.7111 20.3690 17.8889 0.0000 -3.9501 0.0000
# 2 20.3690 54.9161 11.5905 0.0000 7.7861 0.0000
# 3 17.8889 11.5905 77.7629 0.0000 5.1926 0.0000
# 4 0.0000 0.0000 0.0000 28.3057 0.0000 -0.7614
# 5 -3.9501 7.7861 5.1926 0.0000 18.7880 0.0000
# 6 0.0000 0.0000 0.0000 -0.7614 0.0000 17.0635
#
#
#
# Elastic Compliance Matrix: (Units=1/GPa)
#
#
# Indices 1 2 3 4 5 6 
#
# 1 0.015035 -0.005850 -0.003015 0.000000 0.006419 0.000000
# 2 -0.005850 0.022070 -0.001274 0.000000 -0.010024 0.000000
# 3 -0.003015 -0.001274 0.014009 0.000000 -0.003978 0.000000
# 4 0.000000 0.000000 0.000000 0.035371 0.000000 0.001578
# 5 0.006419 -0.010024 -0.003978 0.000000 0.059829 0.000000
# 6 0.000000 0.000000 0.000000 0.001578 0.000000 0.058675
#
#
# Mechanical properties :
#
#
# Convention : Reuss Voigt Hill
#
# Bulk Modulus (GPa) = 32.43214 34.67631 33.55423
# Shear Modulus (GPa) = 21.22727 23.66756 22.44741
#
# Velocity S-wave (km/s) = 3.32191 3.50766 3.41605
# Velocity P-wave (km/s) = 5.61902 5.86784 5.74478
#
# Compressibility (1/GPa) = 0.03083361
#
# Stress axis : x y z
#
# Youngs Moduli (GPa) = 66.51111 45.31092 71.38369
#
# Poissons Ratio (x) = 0.26508 0.21525
# Poissons Ratio (y) = 0.38911 0.09096
# Poissons Ratio (z) = 0.20056 0.05774
#
# Static dielectric constant tensor:
#      x y z
#    x 3.236790 0.000000 -0.125280 
#    y 0.000000 3.395550 0.000000 
#    z -0.125280 0.000000 3.778730 
# 
# 
# High freq. dielectric constant tensor:
#      x y z
#    x 1.715790 0.000000 -0.014480 
#    y 0.000000 1.732960 0.000000 
#    z -0.014480 0.000000 1.757710 
# 
# From -- ./inp_files/161348.got.cif
#   From: 2010.06.25/outbox.cif.g09.slc.cpg/sg15_81_cif.got.tgz:161348.got - 2010.06.28 07:06:18.
