data_PCOD8131589
_publ_section_title
;
Structure prediction by ZEFSAII (Michael W. Deem and Ramdas Pophale) SiO2 
 PCOD8131589
Probable space group: C 2/C
;
_chemical_formula_sum "Si O2"
_cell_formula_units_Z 56
_cell_length_a 8.176264
_cell_length_b 16.802988
_cell_length_c 20.162784
_cell_angle_alpha 90.000000
_cell_angle_beta 86.486335
_cell_angle_gamma 90.000000
_cell_volume 2764.870342
_symmetry_space_group_name_H-M "C 2/C"
_symmetry_group_IT_number 15
_symmetry_cell_setting 'monoclinic'
loop_
_space_group_symop_operation_xyz
x,y,z
-x,y,1/2-z
-x,-y,-z
x,-y,1/2+z
1/2+x,1/2+y,z
1/2-x,1/2+y,1/2-z
1/2-x,1/2-y,-z
1/2+x,1/2-y,1/2+z
loop_
_atom_site_type_symbol
_atom_site_label
_atom_site_fract_x
_atom_site_fract_y
_atom_site_fract_z
Si Si1 0.500000 0.657371 0.250000
Si Si2 0.268167 0.059175 0.169444
Si Si3 0.191887 0.445814 0.120137
Si Si4 0.945862 0.380496 0.907633
Si Si5 0.104631 0.307271 0.029175
Si Si6 0.612415 0.308017 0.883720
Si Si7 0.000000 0.454613 0.250000
Si Si8 0.489125 0.521183 0.422301
O O1 0.633033 0.599931 0.216437
O O2 0.423417 0.710203 0.193038
O O3 0.393127 0.127767 0.141986
O O4 0.189693 0.010503 0.108040
O O5 0.359984 0.002465 0.216964
O O6 0.105413 0.526131 0.094081
O O7 0.193843 0.374565 0.068741
O O8 0.382973 0.468939 0.124118
O O9 0.104475 0.410899 0.189302
O O10 0.807506 0.318959 0.886459
O O11 0.999200 0.353968 0.978283
O O12 0.962171 0.264166 0.073691
O O13 0.250000 0.250000 0.000000
O O14 0.525578 0.385936 0.914257
O O15 0.500000 0.500000 0.500000
#
# Coordination Sequence:
#
# PCOD8131589 Si02
#       8
#     4   8   8   8   8   8   4   8
#     4  10  18  35  56  84 116 153 194 230 294 353
#     4  10  18  33  60  88 117 152 196 250 288 353
#     4  10  22  38  60  85 118 156 196 245 294 361
#     4  10  21  39  60  87 114 152 199 242 293 354
#     4  12  23  39  59  87 120 153 194 248 304 353
#     4  10  22  35  58  83 115 154 189 239 290 355
#     4  10  20  35  56  86 116 153 198 238 298 355
#     4  10  19  35  58  88 116 150 197 245 296 347
#
# _framework density 20.254114000000001
#
# number of rings (size 3 to 8) (size 9 to 14) (size 15 to 20)
#    0.000    1.714    0.000    7.714    0.000    4.000 
#    0.000    2.857    0.000    1.714    0.000    0.000 
#    0.000    0.000    0.000    0.000    0.000    0.000 
#
# Total GULP energy -346867.835355 kJ/mol
# GULP energy per Si atom -12388.136977 kJ/mol
# Density = 2.020801 g / cm^3
# Si number density = 20.254114 Si / 1000 Ang^3
#
#
#
# Elastic Constant Matrix: (Units=GPa)
#
#
# Indices 1 2 3 4 5 6 
#
# 1 141.5123 30.5538 53.0950 0.0000 -0.9193 0.0000
# 2 30.5538 64.0014 33.9550 0.0000 -0.9723 0.0000
# 3 53.0950 33.9550 133.6953 0.0000 1.3698 0.0000
# 4 0.0000 0.0000 0.0000 88.9549 0.0000 -15.5776
# 5 -0.9193 -0.9723 1.3698 0.0000 38.1133 0.0000
# 6 0.0000 0.0000 0.0000 -15.5776 0.0000 19.4702
#
#
#
# Elastic Compliance Matrix: (Units=1/GPa)
#
#
# Indices 1 2 3 4 5 6 
#
# 1 0.008685 -0.002671 -0.002773 0.000000 0.000241 0.000000
# 2 -0.002671 0.018894 -0.003743 0.000000 0.000552 0.000000
# 3 -0.002773 -0.003743 0.009537 0.000000 -0.000505 0.000000
# 4 0.000000 0.000000 0.000000 0.013073 0.000000 0.010460
# 5 0.000241 0.000552 -0.000505 0.000000 0.026276 0.000000
# 6 0.000000 0.000000 0.000000 0.010460 0.000000 0.059729
#
#
# Mechanical properties :
#
#
# Convention : Reuss Voigt Hill
#
# Bulk Modulus (GPa) = 53.36014 63.82406 58.59210
# Shear Modulus (GPa) = 31.09111 44.08134 37.58623
#
# Velocity S-wave (km/s) = 3.92222 4.67027 4.31250
# Velocity P-wave (km/s) = 6.84940 7.78858 7.33404
#
# Compressibility (1/GPa) = 0.01874058
#
# Stress axis : x y z
#
# Youngs Moduli (GPa) = 115.13589 52.92585 104.85517
#
# Poissons Ratio (x) = 0.14138 0.29079
# Poissons Ratio (y) = 0.30757 0.39252
# Poissons Ratio (z) = 0.31930 0.19812
#
# Static dielectric constant tensor:
#      x y z
#    x 4.390500 0.000000 0.027310 
#    y 0.000000 3.358220 0.000000 
#    z 0.027310 0.000000 4.193570 
# 
# 
# High freq. dielectric constant tensor:
#      x y z
#    x 1.813680 0.000000 -0.003260 
#    y 0.000000 1.753390 0.000000 
#    z -0.003260 0.000000 1.807230 
# 
# From -- ./inp_files/231611.got.cif
#   From: 2010.06.25/outbox.cif.g09.slc.cpg/sg15_116_cif.got.tgz:231611.got - 2010.06.28 07:06:18.
