data_PCOD8131291
_publ_section_title
;
Structure prediction by ZEFSAII (Michael W. Deem and Ramdas Pophale) SiO2 
 PCOD8131291
Probable space group: C 2/C
;
_chemical_formula_sum "Si O2"
_cell_formula_units_Z 28
_cell_length_a 9.280558
_cell_length_b 11.034423
_cell_length_c 17.547460
_cell_angle_alpha 90.000000
_cell_angle_beta 35.109618
_cell_angle_gamma 90.000000
_cell_volume 1033.507191
_symmetry_space_group_name_H-M "C 2/C"
_symmetry_group_IT_number 15
_symmetry_cell_setting 'monoclinic'
loop_
_space_group_symop_operation_xyz
x,y,z
-x,y,1/2-z
-x,-y,-z
x,-y,1/2+z
1/2+x,1/2+y,z
1/2-x,1/2+y,1/2-z
1/2-x,1/2-y,-z
1/2+x,1/2-y,1/2+z
loop_
_atom_site_type_symbol
_atom_site_label
_atom_site_fract_x
_atom_site_fract_y
_atom_site_fract_z
Si Si1 0.000000 0.309418 0.750000
Si Si2 0.625561 0.513244 0.062025
Si Si3 0.014994 0.797295 0.488478
Si Si4 0.147259 0.575642 0.343248
O O1 0.927576 0.397074 0.711666
O O2 0.247031 0.230854 0.623583
O O3 0.550815 0.398911 0.044427
O O4 0.420898 0.513938 0.219212
O O5 0.634831 0.639397 0.010448
O O6 0.905836 0.503421 0.977865
O O7 0.191744 0.695414 0.375881
#
# Coordination Sequence:
#
# PCOD8131291 Si02
#       4
#     4   8   8   8
#     4   8  14  26  48  74  98 140 184 216 266 328
#     4   9  18  32  55  84 111 150 194 230 287 347
#     4   9  17  30  53  82 112 148 193 235 279 341
#     4  10  18  32  55  83 114 147 190 240 283 339
#
# _framework density 27.092214999999999
#
# number of rings (size 3 to 8) (size 9 to 14) (size 15 to 20)
#    0.000    2.857    0.000    5.143    0.000    0.000 
#    0.000    1.429    0.000   25.714    0.000    4.000 
#    0.000    2.286    0.000    0.000    0.000    0.000 
#
# Total GULP energy -173443.282876 kJ/mol
# GULP energy per Si atom -12388.805920 kJ/mol
# Density = 2.703055 g / cm^3
# Si number density = 27.092215 Si / 1000 Ang^3
#
#
#
# Elastic Constant Matrix: (Units=GPa)
#
#
# Indices 1 2 3 4 5 6 
#
# 1 92.5845 28.1475 31.3822 0.0004 -9.3698 -0.0003
# 2 28.1475 66.9680 80.1802 -0.0019 13.2680 -0.0007
# 3 31.3822 80.1802 224.2055 -0.0102 -54.0017 -0.0025
# 4 0.0004 -0.0019 -0.0102 28.1786 -0.0017 -15.8683
# 5 -9.3698 13.2680 -54.0017 -0.0017 -50.2590 0.0007
# 6 -0.0003 -0.0007 -0.0025 -15.8683 0.0007 8.8917
#
#
#
# Elastic Compliance Matrix: (Units=1/GPa)
#
#
# Indices 1 2 3 4 5 6 
#
# 1 0.011962 -0.003473 -0.000945 0.000166 -0.002131 0.000296
# 2 -0.003473 0.019167 -0.003967 -0.000022 0.009970 -0.000040
# 3 -0.000945 -0.003967 0.004609 -0.000380 -0.005823 -0.000677
# 4 0.000166 -0.000022 -0.000380 -7.139256 0.000428-12.740778
# 5 -0.002131 0.009970 -0.005823 0.000428 -0.010611 0.000764
# 6 0.000296 -0.000040 -0.000677-12.740778 0.000764-22.624837
#
#
# Mechanical properties :
#
#
# Convention : Reuss Voigt Hill
#
# Bulk Modulus (GPa) = 52.72727 73.68641 63.20684
# Shear Modulus (GPa) = -0.16826 13.63214 6.73194
#
# Velocity S-wave (km/s) = -0.24948 2.24559 1.57804
# Velocity P-wave (km/s) = 4.40697 5.82932 5.16732
#
# Compressibility (1/GPa) = 0.01896552
#
# Stress axis : x y z
#
# Youngs Moduli (GPa) = 83.60001 52.17365 216.98269
#
# Poissons Ratio (x) = 0.18122 0.20514
# Poissons Ratio (y) = 0.29038 0.86075
# Poissons Ratio (z) = 0.07904 0.20697
#
# Static dielectric constant tensor:
#      x y z
#    x 4.846110 0.000000 -0.088640 
#    y 0.000000 4.398800 0.000000 
#    z -0.088640 0.000000 6.219650 
# 
# 
# High freq. dielectric constant tensor:
#      x y z
#    x 2.099330 0.000000 0.007370 
#    y 0.000000 2.053780 0.000000 
#    z 0.007370 0.000000 2.115550 
# 
# From -- ./inp_files/36719.got.cif
#   From: 2010.06.25/outbox.cif.g09.slc.cpg/sg15_19_cif.got.tgz:36719.got - 2010.06.28 07:06:18.
