data_PCOD8131536
_publ_section_title
;
Structure prediction by ZEFSAII (Michael W. Deem and Ramdas Pophale) SiO2 
 PCOD8131536
Probable space group: C 2/C
;
_chemical_formula_sum "Si O2"
_cell_formula_units_Z 52
_cell_length_a 18.349000
_cell_length_b 8.418248
_cell_length_c 21.895160
_cell_angle_alpha 90.000000
_cell_angle_beta 52.866541
_cell_angle_gamma 90.000000
_cell_volume 2696.290678
_symmetry_space_group_name_H-M "C 2/C"
_symmetry_group_IT_number 15
_symmetry_cell_setting 'monoclinic'
loop_
_space_group_symop_operation_xyz
x,y,z
-x,y,1/2-z
-x,-y,-z
x,-y,1/2+z
1/2+x,1/2+y,z
1/2-x,1/2+y,1/2-z
1/2-x,1/2-y,-z
1/2+x,1/2-y,1/2+z
loop_
_atom_site_type_symbol
_atom_site_label
_atom_site_fract_x
_atom_site_fract_y
_atom_site_fract_z
Si Si1 0.527986 0.988635 0.864264
Si Si2 0.473215 0.269380 0.968134
Si Si3 0.184042 0.229480 0.123527
Si Si4 0.114562 0.723840 0.991862
Si Si5 0.179794 0.034729 0.005809
Si Si6 0.000000 0.395654 0.250000
Si Si7 0.331115 0.940435 0.611601
O O1 0.512971 0.171577 0.890877
O O2 0.528140 0.986743 0.790821
O O3 0.447745 0.872837 0.928494
O O4 0.629160 0.943333 0.839322
O O5 0.550788 0.322512 0.976710
O O6 0.419337 0.419256 0.970203
O O7 0.406624 0.146606 0.033879
O O8 0.236451 0.385880 0.072970
O O9 0.082640 0.278435 0.191699
O O10 0.235450 0.155662 0.157007
O O11 0.186768 0.088105 0.072364
O O12 0.177761 0.611448 0.917236
O O13 0.180944 0.843940 0.995827
#
# Coordination Sequence:
#
# PCOD8131536 Si02
#       7
#     8   8   8   8   8   4   8
#     4   9  18  35  58  80 111 149 179 225 286 338
#     4   8  14  31  56  86 109 138 179 223 281 337
#     4  10  22  36  57  78 111 153 188 226 273 347
#     4   9  17  30  60  88 112 132 176 246 285 320
#     4  10  18  33  57  88 110 137 191 230 275 332
#     4  12  22  40  60  74 110 164 198 216 282 350
#     4   8  17  35  56  83 110 140 179 230 286 326
#
# _framework density 19.285754000000001
#
# number of rings (size 3 to 8) (size 9 to 14) (size 15 to 20)
#    0.000    2.769    1.538    2.308    2.154    0.615 
#    0.000    3.846    6.769    0.000    0.000    0.000 
#    0.000    0.000    0.000    0.000    0.000    0.000 
#
# Total GULP energy -322143.863662 kJ/mol
# GULP energy per Si atom -12390.148602 kJ/mol
# Density = 1.924186 g / cm^3
# Si number density = 19.285754 Si / 1000 Ang^3
#
#
#
# Elastic Constant Matrix: (Units=GPa)
#
#
# Indices 1 2 3 4 5 6 
#
# 1 123.7004 50.0224 57.9073 0.0000 8.5074 0.0003
# 2 50.0224 74.7511 19.2706 0.0001 3.0047 0.0005
# 3 57.9073 19.2706 56.0862 0.0000 6.6369 0.0000
# 4 0.0000 0.0001 0.0000 8.6026 0.0000 -1.5269
# 5 8.5074 3.0047 6.6369 0.0000 35.3292 0.0000
# 6 0.0003 0.0005 0.0000 -1.5269 0.0000 39.2587
#
#
#
# Elastic Compliance Matrix: (Units=1/GPa)
#
#
# Indices 1 2 3 4 5 6 
#
# 1 0.019786 -0.008741 -0.017335 0.000000 -0.000765 0.000000
# 2 -0.008741 0.018543 0.002650 0.000000 0.000030 0.000000
# 3 -0.017335 0.002650 0.035131 0.000000 -0.002651 0.000000
# 4 0.000000 0.000000 0.000000 0.117051 0.000000 0.004553
# 5 -0.000765 0.000030 -0.002651 0.000000 0.028985 0.000000
# 6 0.000000 0.000000 0.000000 0.004553 0.000000 0.025649
#
#
# Mechanical properties :
#
#
# Convention : Reuss Voigt Hill
#
# Bulk Modulus (GPa) = 37.58250 56.54872 47.06561
# Shear Modulus (GPa) = 16.61870 25.12725 20.87297
#
# Velocity S-wave (km/s) = 2.93867 3.61348 3.29340
# Velocity P-wave (km/s) = 5.57170 6.84067 6.23853
#
# Compressibility (1/GPa) = 0.02660813
#
# Stress axis : x y z
#
# Youngs Moduli (GPa) = 50.53986 53.92952 28.46521
#
# Poissons Ratio (x) = 0.47141 0.49344
# Poissons Ratio (y) = 0.44178 -0.07544
# Poissons Ratio (z) = 0.87611 -0.14293
#
# Static dielectric constant tensor:
#      x y z
#    x 4.718930 0.000000 -0.005180 
#    y 0.000000 3.532310 0.000000 
#    z -0.005180 0.000000 3.066210 
# 
# 
# High freq. dielectric constant tensor:
#      x y z
#    x 1.773620 0.000000 0.008130 
#    y 0.000000 1.737300 0.000000 
#    z 0.008130 0.000000 1.697020 
# 
# From -- ./inp_files/209086.got.cif
#   From: 2010.06.25/outbox.cif.g09.slc.cpg/sg15_105_cif.got.tgz:209086.got - 2010.06.28 07:06:18.
