data_PCOD8131511
_publ_section_title
;
Structure prediction by ZEFSAII (Michael W. Deem and Ramdas Pophale) SiO2 
 PCOD8131511
Probable space group: C 2/C
;
_chemical_formula_sum "Si O2"
_cell_formula_units_Z 56
_cell_length_a 17.316055
_cell_length_b 8.990223
_cell_length_c 22.749276
_cell_angle_alpha 90.000000
_cell_angle_beta 52.375909
_cell_angle_gamma 90.000000
_cell_volume 2804.983381
_symmetry_space_group_name_H-M "C 2/C"
_symmetry_group_IT_number 15
_symmetry_cell_setting 'monoclinic'
loop_
_space_group_symop_operation_xyz
x,y,z
-x,y,1/2-z
-x,-y,-z
x,-y,1/2+z
1/2+x,1/2+y,z
1/2-x,1/2+y,1/2-z
1/2-x,1/2-y,-z
1/2+x,1/2-y,1/2+z
loop_
_atom_site_type_symbol
_atom_site_label
_atom_site_fract_x
_atom_site_fract_y
_atom_site_fract_z
Si Si1 0.212287 0.770866 0.881256
Si Si2 0.429242 0.210013 0.064936
Si Si3 0.901734 0.116432 0.965312
Si Si4 0.222020 0.088228 0.907304
Si Si5 0.413082 0.714650 0.830858
Si Si6 0.453886 0.898378 0.099537
Si Si7 0.438148 0.061339 0.834650
O O1 0.317086 0.692841 0.835594
O O2 0.146054 0.695264 0.861992
O O3 0.228722 0.946693 0.859464
O O4 0.163421 0.757674 0.969865
O O5 0.488573 0.352230 0.062788
O O6 0.318654 0.266934 0.107030
O O7 0.427841 0.073735 0.111066
O O8 0.469685 0.147544 0.985231
O O9 0.898786 0.120734 0.896614
O O10 0.858130 0.955468 0.004624
O O11 0.328307 0.126388 0.883890
O O12 0.500000 0.652456 0.750000
O O13 0.431889 0.883392 0.842297
O O14 0.504785 0.865318 0.137652
O O15 0.500000 0.112094 0.750000
#
# Coordination Sequence:
#
# PCOD8131511 Si02
#       7
#     8   8   8   8   8   8   8
#     4   8  19  33  57  83 108 141 189 232 278 317
#     4  10  19  34  57  89 107 141 186 231 286 320
#     4   9  17  31  56  81 111 139 184 235 268 324
#     4   9  20  35  59  82 110 146 185 232 276 332
#     4  10  18  33  56  83 112 148 191 228 274 339
#     4  10  20  34  58  81 115 140 183 236 270 335
#     4  10  21  38  54  81 113 154 187 223 283 341
#
# _framework density 19.964468
#
# number of rings (size 3 to 8) (size 9 to 14) (size 15 to 20)
#    0.857    1.714    1.429    0.857    0.000    0.571 
#    2.571    0.000    0.000    1.714    0.000    1.000 
#    0.000    0.000    0.000    0.000    0.000    0.000 
#
# Total GULP energy -346961.246920 kJ/mol
# GULP energy per Si atom -12391.473104 kJ/mol
# Density = 1.991903 g / cm^3
# Si number density = 19.964468 Si / 1000 Ang^3
#
#
#
# Elastic Constant Matrix: (Units=GPa)
#
#
# Indices 1 2 3 4 5 6 
#
# 1 184.6130 49.0610 49.5514 0.0000 0.9957 0.0003
# 2 49.0610 42.1928 18.3927 0.0001 2.2766 0.0006
# 3 49.5514 18.3927 46.8366 0.0000 -0.8119 0.0000
# 4 0.0000 0.0001 0.0000 7.3895 0.0000 0.4081
# 5 0.9957 2.2766 -0.8119 0.0000 21.7071 0.0000
# 6 0.0003 0.0006 0.0000 0.4081 0.0000 33.4076
#
#
#
# Elastic Compliance Matrix: (Units=1/GPa)
#
#
# Indices 1 2 3 4 5 6 
#
# 1 0.009335 -0.007913 -0.006766 0.000000 0.000149 0.000000
# 2 -0.007913 0.035560 -0.005655 0.000000 -0.003578 -0.000001
# 3 -0.006766 -0.005655 0.030765 0.000000 0.002054 0.000000
# 4 0.000000 0.000000 0.000000 0.135419 0.000000 -0.001654
# 5 0.000149 -0.003578 0.002054 0.000000 0.046513 0.000000
# 6 0.000000 -0.000001 0.000000 -0.001654 0.000000 0.029954
#
#
# Mechanical properties :
#
#
# Convention : Reuss Voigt Hill
#
# Bulk Modulus (GPa) = 28.57746 56.40586 42.49166
# Shear Modulus (GPa) = 14.71121 22.94332 18.82726
#
# Velocity S-wave (km/s) = 2.71748 3.39367 3.07422
# Velocity P-wave (km/s) = 4.91848 6.60837 5.82503
#
# Compressibility (1/GPa) = 0.03499261
#
# Stress axis : x y z
#
# Youngs Moduli (GPa) = 107.12561 28.12158 32.50435
#
# Poissons Ratio (x) = 0.22253 0.21992
# Poissons Ratio (y) = 0.84768 0.18380
# Poissons Ratio (z) = 0.72480 0.15902
#
# Static dielectric constant tensor:
#      x y z
#    x 3.633080 0.000000 -0.152080 
#    y 0.000000 3.268600 0.000000 
#    z -0.152080 0.000000 3.284280 
# 
# 
# High freq. dielectric constant tensor:
#      x y z
#    x 1.790720 0.000000 -0.007870 
#    y 0.000000 1.741340 0.000000 
#    z -0.007870 0.000000 1.744920 
# 
# From -- ./inp_files/243328.got.cif
#   From: 2010.06.25/outbox.cif.g09.slc.cpg/sg15_122_cif.got.tgz:243328.got - 2010.06.28 07:06:18.
