data_PCOD8131246
_publ_section_title
;
Structure prediction by ZEFSAII (Michael W. Deem and Ramdas Pophale) SiO2 
 PCOD8131246
Probable space group: C 2/C
;
_chemical_formula_sum "Si O2"
_cell_formula_units_Z 60
_cell_length_a 26.119796
_cell_length_b 15.610885
_cell_length_c 20.005079
_cell_angle_alpha 90.000000
_cell_angle_beta 20.177424
_cell_angle_gamma 90.000000
_cell_volume 2813.626898
_symmetry_space_group_name_H-M "C 2/C"
_symmetry_group_IT_number 15
_symmetry_cell_setting 'monoclinic'
loop_
_space_group_symop_operation_xyz
x,y,z
-x,y,1/2-z
-x,-y,-z
x,-y,1/2+z
1/2+x,1/2+y,z
1/2-x,1/2+y,1/2-z
1/2-x,1/2-y,-z
1/2+x,1/2-y,1/2+z
loop_
_atom_site_type_symbol
_atom_site_label
_atom_site_fract_x
_atom_site_fract_y
_atom_site_fract_z
Si Si1 0.848097 0.605424 0.220448
Si Si2 0.771000 0.796495 0.168658
Si Si3 0.000000 0.635961 0.250000
Si Si4 0.486219 0.163264 0.609003
Si Si5 0.110494 0.015873 0.963632
Si Si6 0.233856 0.713187 0.866337
Si Si7 0.519041 0.008526 0.326567
Si Si8 0.680330 0.469266 0.229848
O O1 0.694771 0.551861 0.407606
O O2 0.814274 0.699992 0.290755
O O3 0.968769 0.557048 0.117724
O O4 0.921336 0.608695 0.058053
O O5 0.646738 0.784826 0.263594
O O6 0.694683 0.780135 0.334738
O O7 0.837436 0.890533 0.079948
O O8 0.904073 0.730421 0.990055
O O9 0.907780 0.697283 0.412560
O O10 0.102373 0.570272 0.170289
O O11 0.427327 0.090805 0.733976
O O12 0.146098 0.990211 0.843870
O O13 0.930972 0.007962 0.190017
O O14 0.346615 0.633717 0.736008
O O15 0.350219 0.009230 0.506144
#
# Coordination Sequence:
#
# PCOD8131246 Si02
#       8
#     8   8   4   8   8   8   8   8
#     4  11  20  34  59  84 121 153 192 248 298 353
#     4  10  22  35  58  93 122 143 193 244 311 352
#     4  10  22  40  58  82 120 168 210 232 278 352
#     4  11  21  35  58  89 118 149 188 250 308 349
#     4  10  18  32  53  84 117 149 182 238 303 353
#     4   9  21  36  55  87 120 162 196 240 286 354
#     4  11  21  37  58  80 113 162 204 240 284 353
#     4   9  19  31  51  80 118 150 190 232 289 352
#
# _framework density 21.324788999999999
#
# number of rings (size 3 to 8) (size 9 to 14) (size 15 to 20)
#    0.000    1.867    2.667    2.800    1.867    8.000 
#    0.000    1.333    0.000    0.800    0.000    0.000 
#    0.000    0.000    0.000    0.000    0.000    0.000 
#
# Total GULP energy -371719.983080 kJ/mol
# GULP energy per Si atom -12390.666103 kJ/mol
# Density = 2.127625 g / cm^3
# Si number density = 21.324789 Si / 1000 Ang^3
#
#
#
# Elastic Constant Matrix: (Units=GPa)
#
#
# Indices 1 2 3 4 5 6 
#
# 1 50.6131 37.5851 30.1679 0.0037 -24.9686 -0.0037
# 2 37.5851 116.8183 28.8611 0.0045 -10.5694 -0.0041
# 3 30.1679 28.8611 59.2500 0.0061 -25.0252 -0.0060
# 4 0.0037 0.0045 0.0061 30.9929 -0.0038 -6.0437
# 5 -24.9686 -10.5694 -25.0252 -0.0038 35.9327 0.0029
# 6 -0.0037 -0.0041 -0.0060 -6.0437 0.0029 22.7529
#
#
#
# Elastic Compliance Matrix: (Units=1/GPa)
#
#
# Indices 1 2 3 4 5 6 
#
# 1 0.041841 -0.009648 -0.007824 0.000001 0.020787 0.000001
# 2 -0.009648 0.011966 -0.003204 -0.000001 -0.005416 0.000000
# 3 -0.007824 -0.003204 0.027949 -0.000002 0.013086 0.000003
# 4 0.000001 -0.000001 -0.000002 0.034028 0.000002 0.009039
# 5 0.020787 -0.005416 0.013086 0.000002 0.049794 0.000000
# 6 0.000001 0.000000 0.000003 0.009039 0.000000 0.046351
#
#
# Mechanical properties :
#
#
# Convention : Reuss Voigt Hill
#
# Bulk Modulus (GPa) = 24.75044 46.65662 35.70353
# Shear Modulus (GPa) = 18.74419 26.60686 22.67552
#
# Velocity S-wave (km/s) = 2.96799 3.53611 3.26443
# Velocity P-wave (km/s) = 4.83496 6.21278 5.56666
#
# Compressibility (1/GPa) = 0.04040332
#
# Stress axis : x y z
#
# Youngs Moduli (GPa) = 23.90023 83.57047 35.77939
#
# Poissons Ratio (x) = 0.80628 0.27996
# Poissons Ratio (y) = 0.23059 0.11463
# Poissons Ratio (z) = 0.18701 0.26773
#
# Static dielectric constant tensor:
#      x y z
#    x 3.776650 0.000000 -0.178100 
#    y 0.000000 4.076270 0.000000 
#    z -0.178100 0.000000 3.658360 
# 
# 
# High freq. dielectric constant tensor:
#      x y z
#    x 1.814440 0.000000 -0.026480 
#    y 0.000000 1.848640 0.000000 
#    z -0.026480 0.000000 1.797320 
# 
# From -- ./inp_files/257837.got.cif
#   From: 2010.06.25/outbox.cif.g09.slc.cpg/sg15_129_cif.got.tgz:257837.got - 2010.06.28 07:06:18.
