data_PCOD8131770
_publ_section_title
;
Structure prediction by ZEFSAII (Michael W. Deem and Ramdas Pophale) SiO2 
 PCOD8131770
Probable space group: C 2/C
;
_chemical_formula_sum "Si O2"
_cell_formula_units_Z 48
_cell_length_a 7.805097
_cell_length_b 26.152602
_cell_length_c 12.445894
_cell_angle_alpha 90.000000
_cell_angle_beta 78.917006
_cell_angle_gamma 90.000000
_cell_volume 2493.119693
_symmetry_space_group_name_H-M "C 2/C"
_symmetry_group_IT_number 15
_symmetry_cell_setting 'monoclinic'
loop_
_space_group_symop_operation_xyz
x,y,z
-x,y,1/2-z
-x,-y,-z
x,-y,1/2+z
1/2+x,1/2+y,z
1/2-x,1/2+y,1/2-z
1/2-x,1/2-y,-z
1/2+x,1/2-y,1/2+z
loop_
_atom_site_type_symbol
_atom_site_label
_atom_site_fract_x
_atom_site_fract_y
_atom_site_fract_z
Si Si1 0.423725 0.690681 0.530345
Si Si2 0.527132 0.783499 0.118929
Si Si3 0.444863 0.418129 0.513008
Si Si4 0.322485 0.117840 0.620243
Si Si5 0.000000 0.545897 0.750000
Si Si6 0.500000 0.660876 0.750000
Si Si7 0.374454 0.506474 0.666597
O O1 0.514342 0.731280 0.439818
O O2 0.220140 0.699365 0.566582
O O3 0.459004 0.635200 0.474506
O O4 0.506716 0.694642 0.640557
O O5 0.500000 0.775997 0.250000
O O6 0.398948 0.826239 0.086339
O O7 0.261056 0.407449 0.475115
O O8 0.401591 0.447697 0.627566
O O9 0.578225 0.453263 0.430899
O O10 0.474379 0.081935 0.648752
O O11 0.170437 0.124156 0.729778
O O12 0.170293 0.510876 0.718930
O O13 0.500000 0.518360 0.750000
#
# Coordination Sequence:
#
# PCOD8131770 Si02
#       7
#     8   8   8   8   4   4   8
#     4  10  22  38  60  86 126 157 201 256 304 361
#     4  11  21  37  61  95 117 160 207 244 307 371
#     4  10  23  40  61  89 123 162 202 255 312 356
#     4  11  19  35  62  91 118 154 208 252 295 360
#     4  12  20  36  68  89 118 159 206 260 292 366
#     4  10  18  34  58  85 116 163 196 246 298 354
#     4  11  23  42  62  90 121 164 207 253 310 364
#
# _framework density 19.252987999999998
#
# number of rings (size 3 to 8) (size 9 to 14) (size 15 to 20)
#    0.000    1.333    4.167    3.000    1.167    4.000 
#    3.000    0.000    0.000    0.000    0.000    0.000 
#    0.000    0.000    0.000    0.000    0.000    0.000 
#
# Total GULP energy -297550.852790 kJ/mol
# GULP energy per Si atom -12397.952200 kJ/mol
# Density = 1.920917 g / cm^3
# Si number density = 19.252988 Si / 1000 Ang^3
#
#
#
# Elastic Constant Matrix: (Units=GPa)
#
#
# Indices 1 2 3 4 5 6 
#
# 1 103.2910 38.4757 29.2580 0.0000 -10.1174 0.0000
# 2 38.4757 134.0060 45.6379 0.0000 -10.9835 0.0000
# 3 29.2580 45.6379 56.1336 0.0000 -6.1565 0.0000
# 4 0.0000 0.0000 0.0000 33.4756 0.0000 -1.4719
# 5 -10.1174 -10.9835 -6.1565 0.0000 22.0239 0.0000
# 6 0.0000 0.0000 0.0000 -1.4719 0.0000 43.4626
#
#
#
# Elastic Compliance Matrix: (Units=1/GPa)
#
#
# Indices 1 2 3 4 5 6 
#
# 1 0.011891 -0.001593 -0.004530 0.000000 0.003402 0.000000
# 2 -0.001593 0.010714 -0.007609 0.000000 0.002485 0.000000
# 3 -0.004530 -0.007609 0.026531 0.000000 0.001541 0.000000
# 4 0.000000 0.000000 0.000000 0.029917 0.000000 0.001013
# 5 0.003402 0.002485 0.001541 0.000000 0.048638 0.000000
# 6 0.000000 0.000000 0.000000 0.001013 0.000000 0.023043
#
#
# Mechanical properties :
#
#
# Convention : Reuss Voigt Hill
#
# Bulk Modulus (GPa) = 46.13803 57.79710 51.96756
# Shear Modulus (GPa) = 26.96575 31.79636 29.38105
#
# Velocity S-wave (km/s) = 3.74652 4.06828 3.91071
# Velocity P-wave (km/s) = 6.53692 7.22169 6.88782
#
# Compressibility (1/GPa) = 0.02167410
#
# Stress axis : x y z
#
# Youngs Moduli (GPa) = 84.09736 93.33163 37.69230
#
# Poissons Ratio (x) = 0.14863 0.17074
# Poissons Ratio (y) = 0.13393 0.28678
# Poissons Ratio (z) = 0.38096 0.71011
#
# Static dielectric constant tensor:
#      x y z
#    x 3.660460 0.000000 0.042400 
#    y 0.000000 3.689060 0.000000 
#    z 0.042400 0.000000 3.457550 
# 
# 
# High freq. dielectric constant tensor:
#      x y z
#    x 1.760710 0.000000 0.000800 
#    y 0.000000 1.749540 0.000000 
#    z 0.000800 0.000000 1.725300 
# 
# From -- ./inp_files/79176.got.cif
#   From: 2010.06.25/outbox.cif.g09.slc.cpg/sg15_40_cif.got.tgz:79176.got - 2010.06.28 07:06:18.
