data_PCOD8131759
_publ_section_title
;
Structure prediction by ZEFSAII (Michael W. Deem and Ramdas Pophale) SiO2 
 PCOD8131759
Probable space group: C 2/C
;
_chemical_formula_sum "Si O2"
_cell_formula_units_Z 60
_cell_length_a 16.095978
_cell_length_b 21.269391
_cell_length_c 12.163043
_cell_angle_alpha 90.000000
_cell_angle_beta 132.871683
_cell_angle_gamma 90.000000
_cell_volume 3051.736878
_symmetry_space_group_name_H-M "C 2/C"
_symmetry_group_IT_number 15
_symmetry_cell_setting 'monoclinic'
loop_
_space_group_symop_operation_xyz
x,y,z
-x,y,1/2-z
-x,-y,-z
x,-y,1/2+z
1/2+x,1/2+y,z
1/2-x,1/2+y,1/2-z
1/2-x,1/2-y,-z
1/2+x,1/2-y,1/2+z
loop_
_atom_site_type_symbol
_atom_site_label
_atom_site_fract_x
_atom_site_fract_y
_atom_site_fract_z
Si Si1 0.121407 0.949991 0.815159
Si Si2 0.718090 0.015610 0.844964
Si Si3 0.369364 0.126614 0.050945
Si Si4 0.575914 0.811806 0.670368
Si Si5 0.994056 0.173887 0.613715
Si Si6 0.785134 0.881805 0.810245
Si Si7 0.500000 0.987147 0.750000
Si Si8 0.331992 0.422198 0.248120
O O1 0.161571 0.902048 0.757302
O O2 0.000000 0.926713 0.750000
O O3 0.106765 0.019401 0.753714
O O4 0.213176 0.953176 0.994026
O O5 0.749853 0.941871 0.854401
O O6 0.582523 0.026522 0.743469
O O7 0.745647 0.055394 0.762700
O O8 0.381034 0.171471 0.167399
O O9 0.454765 0.155297 0.036689
O O10 0.408584 0.054791 0.103024
O O11 0.239465 0.123147 0.897521
O O12 0.555128 0.738354 0.634701
O O13 0.673482 0.840286 0.679654
O O14 0.065125 0.119664 0.615117
O O15 0.000000 0.164389 0.750000
O O16 0.867475 0.164675 0.453349
#
# Coordination Sequence:
#
# PCOD8131759 Si02
#       8
#     8   8   8   8   8   8   4   8
#     4  11  22  39  59  82 120 155 190 237 290 337
#     4  11  21  38  58  89 116 154 195 233 288 341
#     4  10  18  37  53  88 119 151 178 237 281 353
#     4  10  21  37  58  85 118 149 185 232 294 345
#     4  12  23  35  59  90 118 151 186 235 297 349
#     4  11  23  38  60  87 118 152 191 238 288 347
#     4  10  18  34  58  82 122 150 188 230 280 338
#     4  11  23  33  60  88 119 151 192 236 283 354
#
# _framework density 19.660934999999998
#
# number of rings (size 3 to 8) (size 9 to 14) (size 15 to 20)
#    0.000    1.333    5.333    3.600    1.867    4.800 
#    0.000    0.000    0.000    3.200    0.000    0.000 
#    0.000    0.000    0.000    0.000    0.000    0.000 
#
# Total GULP energy -371838.638395 kJ/mol
# GULP energy per Si atom -12394.621280 kJ/mol
# Density = 1.961619 g / cm^3
# Si number density = 19.660935 Si / 1000 Ang^3
#
#
#
# Elastic Constant Matrix: (Units=GPa)
#
#
# Indices 1 2 3 4 5 6 
#
# 1 136.1795 36.9777 18.7541 0.0000 15.0968 0.0000
# 2 36.9777 80.8216 12.6748 0.0000 4.2744 0.0000
# 3 18.7541 12.6748 41.8221 0.0000 0.3215 0.0000
# 4 0.0000 0.0000 0.0000 19.1022 0.0000 5.4419
# 5 15.0968 4.2744 0.3215 0.0000 26.5405 0.0000
# 6 0.0000 0.0000 0.0000 5.4419 0.0000 25.5137
#
#
#
# Elastic Compliance Matrix: (Units=1/GPa)
#
#
# Indices 1 2 3 4 5 6 
#
# 1 0.009228 -0.003499 -0.003042 0.000000 -0.004648 0.000000
# 2 -0.003499 0.014429 -0.002802 0.000000 -0.000300 0.000000
# 3 -0.003042 -0.002802 0.026109 0.000000 0.001865 0.000000
# 4 0.000000 0.000000 0.000000 0.055737 0.000000 -0.011888
# 5 -0.004648 -0.000300 0.001865 0.000000 0.040348 0.000000
# 6 0.000000 0.000000 0.000000 -0.011888 0.000000 0.041730
#
#
# Mechanical properties :
#
#
# Convention : Reuss Voigt Hill
#
# Bulk Modulus (GPa) = 32.17348 43.95961 38.06654
# Shear Modulus (GPa) = 23.08126 26.92573 25.00350
#
# Velocity S-wave (km/s) = 3.43004 3.70470 3.57001
# Velocity P-wave (km/s) = 5.66450 6.38021 6.03298
#
# Compressibility (1/GPa) = 0.03108150
#
# Stress axis : x y z
#
# Youngs Moduli (GPa) = 108.37093 69.30496 38.30025
#
# Poissons Ratio (x) = 0.24250 0.11650
# Poissons Ratio (y) = 0.37919 0.10730
# Poissons Ratio (z) = 0.32963 0.19416
#
# Static dielectric constant tensor:
#      x y z
#    x 3.920640 0.000000 0.279090 
#    y 0.000000 3.409000 0.000000 
#    z 0.279090 0.000000 3.390560 
# 
# 
# High freq. dielectric constant tensor:
#      x y z
#    x 1.779020 0.000000 0.029990 
#    y 0.000000 1.742230 0.000000 
#    z 0.029990 0.000000 1.744010 
# 
# From -- ./inp_files/100685.got.cif
#   From: 2010.06.25/outbox.cif.g09.slc.cpg/sg15_51_cif.got.tgz:100685.got - 2010.06.28 07:06:18.
