data_PCOD8131601
_publ_section_title
;
Structure prediction by ZEFSAII (Michael W. Deem and Ramdas Pophale) SiO2 
 PCOD8131601
Probable space group: C 2/C
;
_chemical_formula_sum "Si O2"
_cell_formula_units_Z 64
_cell_length_a 24.894510
_cell_length_b 13.803719
_cell_length_c 14.463097
_cell_angle_alpha 90.000000
_cell_angle_beta 140.457320
_cell_angle_gamma 90.000000
_cell_volume 3164.198107
_symmetry_space_group_name_H-M "C 2/C"
_symmetry_group_IT_number 15
_symmetry_cell_setting 'monoclinic'
loop_
_space_group_symop_operation_xyz
x,y,z
-x,y,1/2-z
-x,-y,-z
x,-y,1/2+z
1/2+x,1/2+y,z
1/2-x,1/2+y,1/2-z
1/2-x,1/2-y,-z
1/2+x,1/2-y,1/2+z
loop_
_atom_site_type_symbol
_atom_site_label
_atom_site_fract_x
_atom_site_fract_y
_atom_site_fract_z
Si Si1 0.284483 0.667350 0.646970
Si Si2 0.918499 0.956373 0.683780
Si Si3 0.181393 0.375713 0.851524
Si Si4 0.133679 0.879835 0.697840
Si Si5 0.535766 0.375634 0.126206
Si Si6 0.671647 0.174717 0.664521
Si Si7 0.283272 0.506104 0.352958
Si Si8 0.996996 0.660799 0.353737
O O1 0.236034 0.590545 0.514483
O O2 0.318292 0.759715 0.635637
O O3 0.371666 0.619945 0.802108
O O4 0.220412 0.708159 0.637654
O O5 0.863388 0.897214 0.687243
O O6 0.862421 0.989728 0.523350
O O7 0.000000 0.897311 0.750000
O O8 0.960221 0.051270 0.783664
O O9 0.223171 0.410928 0.813356
O O10 0.082499 0.404573 0.718006
O O11 0.161164 0.768543 0.716317
O O12 0.036424 0.902770 0.543039
O O13 0.191770 0.955524 0.716474
O O14 0.511290 0.273456 0.136477
O O15 0.729941 0.092556 0.785907
O O16 0.582054 0.126309 0.518398
O O17 0.000000 0.641911 0.250000
#
# Coordination Sequence:
#
# PCOD8131601 Si02
#       8
#     8   8   8   8   8   8   8   8
#     4  10  18  33  61  94 122 155 198 259 323 376
#     4  12  24  38  63  95 130 167 207 263 331 393
#     4  10  20  34  59  90 122 155 205 257 319 372
#     4  11  25  43  62  95 134 168 209 267 323 388
#     4  10  20  34  63  98 129 150 198 269 337 384
#     4  11  24  40  61  89 133 169 214 258 322 385
#     4  12  25  40  65  92 128 175 214 263 319 386
#     4  10  20  34  60  92 126 159 206 270 327 369
#
# _framework density 20.226293999999999
#
# number of rings (size 3 to 8) (size 9 to 14) (size 15 to 20)
#    0.000    1.250    5.000    1.500    3.500    1.000 
#    0.000    0.000    0.000    0.750    0.000    0.000 
#    0.000    0.000    0.000    0.000    0.000    0.000 
#
# Total GULP energy -396458.746932 kJ/mol
# GULP energy per Si atom -12389.335842 kJ/mol
# Density = 2.018026 g / cm^3
# Si number density = 20.226294 Si / 1000 Ang^3
#
#
#
# Elastic Constant Matrix: (Units=GPa)
#
#
# Indices 1 2 3 4 5 6 
#
# 1 126.1554 16.1509 23.7555 0.0000 12.9615 0.0000
# 2 16.1509 50.3768 15.7848 0.0000 3.1920 0.0000
# 3 23.7555 15.7848 72.0798 0.0000 21.3886 0.0000
# 4 0.0000 0.0000 0.0000 17.1097 0.0000 3.2751
# 5 12.9615 3.1920 21.3886 0.0000 38.5521 0.0000
# 6 0.0000 0.0000 0.0000 3.2751 0.0000 30.7060
#
#
#
# Elastic Compliance Matrix: (Units=1/GPa)
#
#
# Indices 1 2 3 4 5 6 
#
# 1 0.008730 -0.002091 -0.001915 0.000000 -0.001699 0.000000
# 2 -0.002091 0.021845 -0.004509 0.000000 0.001396 0.000000
# 3 -0.001915 -0.004509 0.018184 0.000000 -0.009071 0.000000
# 4 0.000000 0.000000 0.000000 0.059665 0.000000 -0.006364
# 5 -0.001699 0.001396 -0.009071 0.000000 0.031427 0.000000
# 6 0.000000 0.000000 0.000000 -0.006364 0.000000 0.033246
#
#
# Mechanical properties :
#
#
# Convention : Reuss Voigt Hill
#
# Bulk Modulus (GPa) = 31.51702 39.99939 35.75820
# Shear Modulus (GPa) = 24.91254 30.13494 27.52374
#
# Velocity S-wave (km/s) = 3.51335 3.86410 3.69289
# Velocity P-wave (km/s) = 5.66341 6.30295 5.99172
#
# Compressibility (1/GPa) = 0.03172889
#
# Stress axis : x y z
#
# Youngs Moduli (GPa) = 114.55257 45.77675 54.99416
#
# Poissons Ratio (x) = 0.09572 0.10530
# Poissons Ratio (y) = 0.23954 0.24796
# Poissons Ratio (z) = 0.21935 0.20640
#
# Static dielectric constant tensor:
#      x y z
#    x 3.810540 0.000000 0.347410 
#    y 0.000000 3.362650 0.000000 
#    z 0.347410 0.000000 3.880940 
# 
# 
# High freq. dielectric constant tensor:
#      x y z
#    x 1.801170 0.000000 0.021100 
#    y 0.000000 1.756380 0.000000 
#    z 0.021100 0.000000 1.790860 
# 
# From -- ./inp_files/173690.got.cif
#   From: 2010.06.25/outbox.cif.g09.slc.cpg/sg15_87_cif.got.tgz:173690.got - 2010.06.28 07:06:18.
