data_PCOD8131241
_publ_section_title
;
Structure prediction by ZEFSAII (Michael W. Deem and Ramdas Pophale) SiO2 
 PCOD8131241
Probable space group: C 2/C
;
_chemical_formula_sum "Si O2"
_cell_formula_units_Z 52
_cell_length_a 15.200513
_cell_length_b 17.138374
_cell_length_c 18.340207
_cell_angle_alpha 90.000000
_cell_angle_beta 144.987821
_cell_angle_gamma 90.000000
_cell_volume 2741.291412
_symmetry_space_group_name_H-M "C 2/C"
_symmetry_group_IT_number 15
_symmetry_cell_setting 'monoclinic'
loop_
_space_group_symop_operation_xyz
x,y,z
-x,y,1/2-z
-x,-y,-z
x,-y,1/2+z
1/2+x,1/2+y,z
1/2-x,1/2+y,1/2-z
1/2-x,1/2-y,-z
1/2+x,1/2-y,1/2+z
loop_
_atom_site_type_symbol
_atom_site_label
_atom_site_fract_x
_atom_site_fract_y
_atom_site_fract_z
Si Si1 0.745762 0.997252 0.127593
Si Si2 0.000000 0.113285 0.750000
Si Si3 0.463714 0.914239 0.393210
Si Si4 0.931331 0.914202 0.864619
Si Si5 0.386436 0.248724 0.891937
Si Si6 0.442242 0.316041 0.358473
Si Si7 0.810510 0.950698 0.369525
O O1 0.868971 0.057696 0.244841
O O2 0.644167 0.953402 0.118652
O O3 0.629443 0.046118 0.997854
O O4 0.842697 0.936033 0.147121
O O5 0.972176 0.164208 0.658735
O O6 0.484286 0.823189 0.425533
O O7 0.370191 0.928223 0.253749
O O8 0.912889 0.822002 0.857434
O O9 0.837100 0.959142 0.864857
O O10 0.112730 0.935157 0.999282
O O11 0.206520 0.232394 0.767025
O O12 0.445848 0.264539 0.014533
O O13 0.396717 0.395667 0.368417
#
# Coordination Sequence:
#
# PCOD8131241 Si02
#       7
#     8   4   8   8   8   8   8
#     4  10  19  32  54  71  98 138 175 201 243 307
#     4  12  20  36  50  70 110 146 170 196 248 324
#     4   9  17  33  50  78  95 126 172 218 246 280
#     4   9  15  27  51  76  92 126 166 214 248 288
#     4  10  18  32  53  80 106 124 169 221 259 289
#     4  10  20  32  49  74 107 142 163 202 256 306
#     4   8  15  30  48  72  97 125 169 213 242 284
#
# _framework density 18.969162000000001
#
# number of rings (size 3 to 8) (size 9 to 14) (size 15 to 20)
#    0.000    2.462    4.615    0.923    0.000    0.615 
#    0.000    0.000    0.000    1.846    0.000    0.000 
#    0.000    0.000    0.000    0.000    0.000    0.000 
#
# Total GULP energy -322173.978225 kJ/mol
# GULP energy per Si atom -12391.306855 kJ/mol
# Density = 1.892599 g / cm^3
# Si number density = 18.969162 Si / 1000 Ang^3
#
#
#
# Elastic Constant Matrix: (Units=GPa)
#
#
# Indices 1 2 3 4 5 6 
#
# 1 8.1000 -9.8333 13.4041 0.0002 2.8363 0.0002
# 2 -9.8333 92.9029 36.5540 -0.0003 -1.7493 -0.0003
# 3 13.4041 36.5540 167.0786 -0.0012 -10.4631 -0.0012
# 4 0.0002 -0.0003 -0.0012 34.6908 -0.0006 1.2649
# 5 2.8363 -1.7493 -10.4631 -0.0006 15.3737 -0.0007
# 6 0.0002 -0.0003 -0.0012 1.2649 -0.0007 13.9279
#
#
#
# Elastic Compliance Matrix: (Units=1/GPa)
#
#
# Indices 1 2 3 4 5 6 
#
# 1 0.241195 0.036656 -0.031226 -0.000003 -0.061580 -0.000009
# 2 0.036656 0.017351 -0.007350 0.000000 -0.009791 -0.000001
# 3 -0.031226 -0.007350 0.010870 0.000001 0.012323 0.000002
# 4 -0.000003 0.000000 0.000001 0.028922 0.000002 -0.002627
# 5 -0.061580 -0.009791 0.012323 0.000002 0.083680 0.000006
# 6 -0.000009 -0.000001 0.000002 -0.002627 0.000006 0.072037
#
#
# Mechanical properties :
#
#
# Convention : Reuss Voigt Hill
#
# Bulk Modulus (GPa) = 3.76540 38.70346 21.23443
# Shear Modulus (GPa) = 9.15046 27.99561 18.57304
#
# Velocity S-wave (km/s) = 2.19871 3.84585 3.13248
# Velocity P-wave (km/s) = 2.90432 6.33785 4.92968
#
# Compressibility (1/GPa) = 0.26557586
#
# Stress axis : x y z
#
# Youngs Moduli (GPa) = 4.14603 57.63203 91.99502
#
# Poissons Ratio (x) = -2.11257 2.87266
# Poissons Ratio (y) = -0.15198 0.67618
# Poissons Ratio (z) = 0.12946 0.42360
#
# Static dielectric constant tensor:
#      x y z
#    x 2.807370 0.000000 -0.152830 
#    y 0.000000 3.561250 0.000000 
#    z -0.152830 0.000000 4.251440 
# 
# 
# High freq. dielectric constant tensor:
#      x y z
#    x 1.659400 0.000000 -0.012490 
#    y 0.000000 1.744650 0.000000 
#    z -0.012490 0.000000 1.765600 
# 
# From -- ./inp_files/206103.got.cif
#   From: 2010.06.25/outbox.cif.g09.slc.cpg/sg15_104_cif.got.tgz:206103.got - 2010.06.28 07:06:18.
