data_PCOD8131952
_publ_section_title
;
Structure prediction by ZEFSAII (Michael W. Deem and Ramdas Pophale) SiO2 
 PCOD8131952
Probable space group: C 2/C
;
_chemical_formula_sum "Si O2"
_cell_formula_units_Z 56
_cell_length_a 16.435814
_cell_length_b 18.112302
_cell_length_c 12.677826
_cell_angle_alpha 90.000000
_cell_angle_beta 50.928154
_cell_angle_gamma 90.000000
_cell_volume 2930.020707
_symmetry_space_group_name_H-M "C 2/C"
_symmetry_group_IT_number 15
_symmetry_cell_setting 'monoclinic'
loop_
_space_group_symop_operation_xyz
x,y,z
-x,y,1/2-z
-x,-y,-z
x,-y,1/2+z
1/2+x,1/2+y,z
1/2-x,1/2+y,1/2-z
1/2-x,1/2-y,-z
1/2+x,1/2-y,1/2+z
loop_
_atom_site_type_symbol
_atom_site_label
_atom_site_fract_x
_atom_site_fract_y
_atom_site_fract_z
Si Si1 0.345452 0.555908 0.170852
Si Si2 0.816718 0.134236 0.413821
Si Si3 0.737170 0.836896 0.615878
Si Si4 0.915547 0.731501 0.402516
Si Si5 0.387975 0.206065 0.879203
Si Si6 0.083387 0.905274 0.457280
Si Si7 0.401860 0.241812 0.107830
O O1 0.308608 0.583098 0.316682
O O2 0.265162 0.584258 0.145004
O O3 0.349897 0.467270 0.159849
O O4 0.459622 0.585347 0.049236
O O5 0.704771 0.146957 0.565225
O O6 0.864595 0.214746 0.342801
O O7 0.889962 0.094188 0.439639
O O8 0.841028 0.800090 0.485558
O O9 0.649544 0.838710 0.593227
O O10 0.693767 0.785803 0.744263
O O11 0.000000 0.761743 0.250000
O O12 0.983900 0.710204 0.449310
O O13 0.500000 0.174993 0.750000
O O14 0.386414 0.213197 0.004732
O O15 0.109084 0.829660 0.378058
#
# Coordination Sequence:
#
# PCOD8131952 Si02
#       7
#     8   8   8   8   8   8   8
#     4  11  20  38  57  83 117 156 186 236 293 357
#     4  10  20  37  54  86 116 144 191 234 291 341
#     4  10  19  34  56  82 114 152 188 234 284 340
#     4   9  19  33  52  81 115 141 189 231 275 342
#     4  10  20  32  62  87 111 144 188 249 284 332
#     4  10  22  35  56  84 117 149 187 236 297 353
#     4  10  18  35  56  86 116 144 191 244 287 339
#
# _framework density 19.112493000000001
#
# number of rings (size 3 to 8) (size 9 to 14) (size 15 to 20)
#    0.000    2.000    2.857    2.143    0.000    0.000 
#    7.714    0.000    0.000    3.429    0.000    0.000 
#    0.000    0.000    0.000    0.000    0.000    0.000 
#
# Total GULP energy -347009.089982 kJ/mol
# GULP energy per Si atom -12393.181785 kJ/mol
# Density = 1.906899 g / cm^3
# Si number density = 19.112493 Si / 1000 Ang^3
#
#
#
# Elastic Constant Matrix: (Units=GPa)
#
#
# Indices 1 2 3 4 5 6 
#
# 1 100.4160 31.8193 16.7378 0.0000 2.7009 0.0000
# 2 31.8193 69.9072 20.9097 0.0000 2.0119 0.0000
# 3 16.7378 20.9097 59.5471 0.0000 -16.2304 0.0000
# 4 0.0000 0.0000 0.0000 20.3459 0.0000 -1.9578
# 5 2.7009 2.0119 -16.2304 0.0000 35.6849 0.0000
# 6 0.0000 0.0000 0.0000 -1.9578 0.0000 22.6898
#
#
#
# Elastic Compliance Matrix: (Units=1/GPa)
#
#
# Indices 1 2 3 4 5 6 
#
# 1 0.011847 -0.004716 -0.002107 0.000000 -0.001589 0.000000
# 2 -0.004716 0.018362 -0.006058 0.000000 -0.003434 0.000000
# 3 -0.002107 -0.006058 0.022430 0.000000 0.010703 0.000000
# 4 0.000000 0.000000 0.000000 0.049561 0.000000 0.004276
# 5 -0.001589 -0.003434 0.010703 0.000000 0.033205 0.000000
# 6 0.000000 0.000000 0.000000 0.004276 0.000000 0.044442
#
#
# Mechanical properties :
#
#
# Convention : Reuss Voigt Hill
#
# Bulk Modulus (GPa) = 37.20711 40.97821 39.09266
# Shear Modulus (GPa) = 23.30253 26.43768 24.87010
#
# Velocity S-wave (km/s) = 3.49554 3.72326 3.61120
# Velocity P-wave (km/s) = 5.98343 6.32224 6.15516
#
# Compressibility (1/GPa) = 0.02687659
#
# Stress axis : x y z
#
# Youngs Moduli (GPa) = 84.40939 54.45957 44.58286
#
# Poissons Ratio (x) = 0.25685 0.09394
# Poissons Ratio (y) = 0.39811 0.27008
# Poissons Ratio (z) = 0.17785 0.32992
#
# Static dielectric constant tensor:
#      x y z
#    x 4.102070 0.000000 0.011370 
#    y 0.000000 3.258380 0.000000 
#    z 0.011370 0.000000 3.506760 
# 
# 
# High freq. dielectric constant tensor:
#      x y z
#    x 1.765220 0.000000 0.000520 
#    y 0.000000 1.695660 0.000000 
#    z 0.000520 0.000000 1.740630 
# 
# From -- ./inp_files/106625.got.cif
#   From: 2010.06.25/outbox.cif.g09.slc.cpg/sg15_54_cif.got.tgz:106625.got - 2010.06.28 07:06:18.
