data_PCOD8131794
_publ_section_title
;
Structure prediction by ZEFSAII (Michael W. Deem and Ramdas Pophale) SiO2 
 PCOD8131794
Probable space group: C 2/C
;
_chemical_formula_sum "Si O2"
_cell_formula_units_Z 52
_cell_length_a 21.998239
_cell_length_b 11.200672
_cell_length_c 21.233955
_cell_angle_alpha 90.000000
_cell_angle_beta 152.758653
_cell_angle_gamma 90.000000
_cell_volume 2394.867108
_symmetry_space_group_name_H-M "C 2/C"
_symmetry_group_IT_number 15
_symmetry_cell_setting 'monoclinic'
loop_
_space_group_symop_operation_xyz
x,y,z
-x,y,1/2-z
-x,-y,-z
x,-y,1/2+z
1/2+x,1/2+y,z
1/2-x,1/2+y,1/2-z
1/2-x,1/2-y,-z
1/2+x,1/2-y,1/2+z
loop_
_atom_site_type_symbol
_atom_site_label
_atom_site_fract_x
_atom_site_fract_y
_atom_site_fract_z
Si Si1 0.000000 0.605926 0.750000
Si Si2 0.272296 0.380154 0.182119
Si Si3 0.553792 0.309685 0.479012
Si Si4 0.384158 0.399037 0.831953
Si Si5 0.683939 0.228487 0.827867
Si Si6 0.756929 0.032912 0.047752
Si Si7 0.121200 0.977946 0.967562
O O1 0.047138 0.690252 0.735602
O O2 0.882521 0.519542 0.617890
O O3 0.401146 0.294203 0.314538
O O4 0.132310 0.312837 0.063480
O O5 0.273256 0.495172 0.230538
O O6 0.274948 0.424729 0.112491
O O7 0.544416 0.384826 0.535641
O O8 0.643967 0.386998 0.513754
O O9 0.331646 0.270856 0.759261
O O10 0.475184 0.442957 0.857073
O O11 0.749161 0.335868 0.927444
O O12 0.776903 0.114132 0.908139
O O13 0.873912 0.024072 0.103589
#
# Coordination Sequence:
#
# PCOD8131794 Si02
#       7
#     4   8   8   8   8   8   8
#     4  10  18  34  58  98 130 152 204 258 322 370
#     4  10  24  45  61  91 123 167 215 255 316 364
#     4  11  25  41  65  87 128 168 212 256 301 382
#     4  10  22  38  64  86 125 163 207 257 306 376
#     4  10  19  33  62  92 124 156 201 261 317 366
#     4  10  21  37  62  90 129 161 205 265 313 381
#     4  10  20  37  60  90 118 163 204 249 316 363
#
# _framework density 21.713104999999999
#
# number of rings (size 3 to 8) (size 9 to 14) (size 15 to 20)
#    0.000    1.846    0.000    5.538    4.308    8.000 
#    0.000    0.769    0.000    0.000    0.000    0.000 
#    0.000    0.000    0.000    0.000    0.000    0.000 
#
# Total GULP energy -322236.676569 kJ/mol
# GULP energy per Si atom -12393.718330 kJ/mol
# Density = 2.166368 g / cm^3
# Si number density = 21.713105 Si / 1000 Ang^3
#
#
#
# Elastic Constant Matrix: (Units=GPa)
#
#
# Indices 1 2 3 4 5 6 
#
# 1 49.2516 6.1846 20.5723 0.0001 -8.5798 0.0000
# 2 6.1846 59.9863 29.4003 0.0001 5.7989 0.0000
# 3 20.5723 29.4003 110.5750 -0.0001 -7.1096 0.0000
# 4 0.0001 0.0001 -0.0001 36.5787 -0.0001 2.1930
# 5 -8.5798 5.7989 -7.1096 -0.0001 26.8336 0.0000
# 6 0.0000 0.0000 0.0000 2.1930 0.0000 29.0563
#
#
#
# Elastic Compliance Matrix: (Units=1/GPa)
#
#
# Indices 1 2 3 4 5 6 
#
# 1 0.023112 -0.001310 -0.003518 0.000000 0.006741 0.000000
# 2 -0.001310 0.020103 -0.005501 0.000000 -0.006221 0.000000
# 3 -0.003518 -0.005501 0.011359 0.000000 0.003073 0.000000
# 4 0.000000 0.000000 0.000000 0.027463 0.000000 -0.002073
# 5 0.006741 -0.006221 0.003073 0.000000 0.041581 0.000000
# 6 0.000000 0.000000 0.000000 -0.002073 0.000000 0.034572
#
#
# Mechanical properties :
#
#
# Convention : Reuss Voigt Hill
#
# Bulk Modulus (GPa) = 29.48594 36.90302 33.19448
# Shear Modulus (GPa) = 26.29445 29.40410 27.84928
#
# Velocity S-wave (km/s) = 3.48371 3.68395 3.58523
# Velocity P-wave (km/s) = 5.45811 5.92688 5.69732
#
# Compressibility (1/GPa) = 0.03391446
#
# Stress axis : x y z
#
# Youngs Moduli (GPa) = 43.26711 49.74313 88.03946
#
# Poissons Ratio (x) = 0.06517 0.30974
# Poissons Ratio (y) = 0.05669 0.48434
# Poissons Ratio (z) = 0.15222 0.27366
#
# Static dielectric constant tensor:
#      x y z
#    x 3.955310 0.000000 -0.114050 
#    y 0.000000 4.001400 0.000000 
#    z -0.114050 0.000000 3.900980 
# 
# 
# High freq. dielectric constant tensor:
#      x y z
#    x 1.843390 0.000000 -0.013460 
#    y 0.000000 1.838280 0.000000 
#    z -0.013460 0.000000 1.856500 
# 
# From -- ./inp_files/252753.got.cif
#   From: 2010.06.25/outbox.cif.g09.slc.cpg/sg15_127_cif.got.tgz:252753.got - 2010.06.28 07:06:18.
