data_PCOD8131651
_publ_section_title
;
Structure prediction by ZEFSAII (Michael W. Deem and Ramdas Pophale) SiO2 
 PCOD8131651
Probable space group: C 2/C
;
_chemical_formula_sum "Si O2"
_cell_formula_units_Z 40
_cell_length_a 17.703613
_cell_length_b 17.689022
_cell_length_c 10.158946
_cell_angle_alpha 90.000000
_cell_angle_beta 131.431463
_cell_angle_gamma 90.000000
_cell_volume 2385.226283
_symmetry_space_group_name_H-M "C 2/C"
_symmetry_group_IT_number 15
_symmetry_cell_setting 'monoclinic'
loop_
_space_group_symop_operation_xyz
x,y,z
-x,y,1/2-z
-x,-y,-z
x,-y,1/2+z
1/2+x,1/2+y,z
1/2-x,1/2+y,1/2-z
1/2-x,1/2-y,-z
1/2+x,1/2-y,1/2+z
loop_
_atom_site_type_symbol
_atom_site_label
_atom_site_fract_x
_atom_site_fract_y
_atom_site_fract_z
Si Si1 0.228953 0.837954 0.099794
Si Si2 0.118225 0.978418 0.904232
Si Si3 0.561363 0.964909 0.450732
Si Si4 0.276948 0.537573 0.716781
Si Si5 0.105807 0.695680 0.911787
O O1 0.242609 0.875870 0.259352
O O2 0.337355 0.832204 0.154876
O O3 0.159259 0.892678 0.927514
O O4 0.176942 0.756994 0.064189
O O5 0.000000 0.979895 0.750000
O O6 0.163440 0.036731 0.850893
O O7 0.155701 0.004985 0.092819
O O8 0.500000 0.986989 0.250000
O O9 0.578135 0.874095 0.476737
O O10 0.500000 0.000000 0.500000
O O11 0.671173 0.999018 0.572475
O O12 0.000000 0.734471 0.750000
#
# Coordination Sequence:
#
# PCOD8131651 Si02
#       5
#     8   8   8   8   8
#     4   9  20  32  54  79 112 138 185 229 272 325
#     4  10  19  33  52  78 106 145 181 227 269 325
#     4  11  20  34  59  85 110 144 183 233 280 329
#     4  10  19  34  51  82 109 138 186 227 270 332
#     4  10  18  34  53  83 109 144 185 232 277 318
#
# _framework density 16.769898000000001
#
# number of rings (size 3 to 8) (size 9 to 14) (size 15 to 20)
#    1.200    0.800    2.000    4.800    0.000    0.000 
#    0.000    0.000    0.000    6.000    0.000    0.000 
#    0.000    0.000    0.000    0.000    0.000    0.000 
#
# Total GULP energy -247795.323888 kJ/mol
# GULP energy per Si atom -12389.766194 kJ/mol
# Density = 1.673173 g / cm^3
# Si number density = 16.769898 Si / 1000 Ang^3
#
#
#
# Elastic Constant Matrix: (Units=GPa)
#
#
# Indices 1 2 3 4 5 6 
#
# 1 92.5280 21.9983 27.7028 0.0000 15.0569 0.0000
# 2 21.9983 70.0691 17.6215 0.0000 -2.2354 0.0000
# 3 27.7028 17.6215 96.0162 0.0000 13.0161 0.0000
# 4 0.0000 0.0000 0.0000 0.5178 0.0000 0.1649
# 5 15.0569 -2.2354 13.0161 0.0000 37.9107 0.0000
# 6 0.0000 0.0000 0.0000 0.1649 0.0000 30.7597
#
#
#
# Elastic Compliance Matrix: (Units=1/GPa)
#
#
# Indices 1 2 3 4 5 6 
#
# 1 0.013173 -0.003651 -0.002509 0.000000 -0.004586 0.000000
# 2 -0.003651 0.016108 -0.002337 0.000000 0.003202 0.000000
# 3 -0.002509 -0.002337 0.012010 0.000000 -0.003265 0.000000
# 4 0.000000 0.000000 0.000000 1.934470 0.000000 -0.010373
# 5 -0.004586 0.003202 -0.003265 0.000000 0.029509 0.000000
# 6 0.000000 0.000000 0.000000 -0.010373 0.000000 0.032566
#
#
# Mechanical properties :
#
#
# Convention : Reuss Voigt Hill
#
# Bulk Modulus (GPa) = 41.15697 43.69538 42.42618
# Shear Modulus (GPa) = 2.42374 26.59037 14.50705
#
# Velocity S-wave (km/s) = 1.20351 3.98628 2.94439
# Velocity P-wave (km/s) = 5.15041 6.87747 6.07562
#
# Compressibility (1/GPa) = 0.02429722
#
# Stress axis : x y z
#
# Youngs Moduli (GPa) = 75.91300 62.08202 83.26206
#
# Poissons Ratio (x) = 0.22666 0.20890
# Poissons Ratio (y) = 0.27716 0.19457
# Poissons Ratio (z) = 0.19046 0.14508
#
# Static dielectric constant tensor:
#      x y z
#    x 3.176990 0.000000 0.022080 
#    y 0.000000 3.087490 0.000000 
#    z 0.022080 0.000000 3.107390 
# 
# 
# High freq. dielectric constant tensor:
#      x y z
#    x 1.660520 0.000000 0.022630 
#    y 0.000000 1.628040 0.000000 
#    z 0.022630 0.000000 1.631950 
# 
# From -- ./inp_files/40426.got.cif
#   From: 2010.06.25/outbox.cif.g09.slc.cpg/sg15_21_cif.got.tgz:40426.got - 2010.06.28 07:06:18.
