data_PCOD8131099
_publ_section_title
;
Structure prediction by ZEFSAII (Michael W. Deem and Ramdas Pophale) SiO2 
 PCOD8131099
Probable space group: C 2/C
;
_chemical_formula_sum "Si O2"
_cell_formula_units_Z 48
_cell_length_a 13.598861
_cell_length_b 34.753005
_cell_length_c 14.029427
_cell_angle_alpha 90.000000
_cell_angle_beta 20.763480
_cell_angle_gamma 90.000000
_cell_volume 2350.523474
_symmetry_space_group_name_H-M "C 2/C"
_symmetry_group_IT_number 15
_symmetry_cell_setting 'monoclinic'
loop_
_space_group_symop_operation_xyz
x,y,z
-x,y,1/2-z
-x,-y,-z
x,-y,1/2+z
1/2+x,1/2+y,z
1/2-x,1/2+y,1/2-z
1/2-x,1/2-y,-z
1/2+x,1/2-y,1/2+z
loop_
_atom_site_type_symbol
_atom_site_label
_atom_site_fract_x
_atom_site_fract_y
_atom_site_fract_z
Si Si1 0.500000 0.660056 0.750000
Si Si2 0.000000 0.068422 0.250000
Si Si3 0.500000 0.790116 0.750000
Si Si4 0.808615 0.896700 0.732101
Si Si5 0.747305 0.855709 0.289525
Si Si6 0.500000 0.014343 0.750000
Si Si7 0.281114 0.020548 0.264867
Si Si8 0.461768 0.229225 0.494708
O O1 0.672205 0.635410 0.672629
O O2 0.722900 0.684018 0.484476
O O3 0.966236 0.095331 0.188377
O O4 0.730800 0.041747 0.495654
O O5 0.575117 0.765446 0.587213
O O6 0.772668 0.934738 0.702264
O O7 0.984251 0.864102 0.518191
O O8 0.496269 0.882294 0.030072
O O9 0.636293 0.812197 0.381170
O O10 0.630623 0.985365 0.706953
O O11 0.000000 0.000000 0.500000
O O12 0.500000 0.000000 0.000000
O O13 0.786325 0.239103 0.214165
#
# Coordination Sequence:
#
# PCOD8131099 Si02
#       8
#     4   4   4   8   8   4   8   8
#     4  10  20  37  55  80 131 174 198 246 304 375
#     4  12  24  42  71  90 115 161 210 273 312 351
#     4  10  18  31  53  84 117 166 216 254 286 351
#     4  12  24  42  64  92 124 160 206 265 318 364
#     4  11  24  39  59  90 130 165 209 254 310 374
#     4  12  22  42  67  96 125 161 212 253 306 371
#     4  12  23  41  64  95 125 165 203 253 309 373
#     4  11  20  34  56  86 122 168 212 255 304 366
#
# _framework density 20.420983
#
# number of rings (size 3 to 8) (size 9 to 14) (size 15 to 20)
#    0.000    0.667    3.333    7.500    0.000    2.000 
#    0.000    0.000    0.000    0.000    0.000   11.667 
#    0.000    0.000    0.000    0.000    0.000    0.000 
#
# Total GULP energy -297492.527920 kJ/mol
# GULP energy per Si atom -12395.521997 kJ/mol
# Density = 2.037450 g / cm^3
# Si number density = 20.420983 Si / 1000 Ang^3
#
#
#
# Elastic Constant Matrix: (Units=GPa)
#
#
# Indices 1 2 3 4 5 6 
#
# 1 123.0559 33.2484 18.0898 -0.0003 -4.2858 0.0001
# 2 33.2484 90.1435 35.8662 0.0002 5.4439 0.0000
# 3 18.0898 35.8662 132.2758 0.0000 -6.8238 0.0003
# 4 -0.0003 0.0002 0.0000 44.4731 0.0006 4.0286
# 5 -4.2858 5.4439 -6.8238 0.0006 31.0091 -0.0004
# 6 0.0001 0.0000 0.0003 4.0286 -0.0004 25.4083
#
#
#
# Elastic Compliance Matrix: (Units=1/GPa)
#
#
# Indices 1 2 3 4 5 6 
#
# 1 0.009139 -0.003385 -0.000239 0.000000 0.001805 0.000000
# 2 -0.003385 0.013963 -0.003514 0.000000 -0.003692 0.000000
# 3 -0.000239 -0.003514 0.008674 0.000000 0.002493 0.000000
# 4 0.000000 0.000000 0.000000 0.022813 0.000000 -0.003617
# 5 0.001805 -0.003692 0.002493 0.000000 0.033695 0.000001
# 6 0.000000 0.000000 0.000000 -0.003617 0.000001 0.039931
#
#
# Mechanical properties :
#
#
# Convention : Reuss Voigt Hill
#
# Bulk Modulus (GPa) = 57.13909 57.76490 57.45200
# Shear Modulus (GPa) = 33.71035 37.39614 35.55325
#
# Velocity S-wave (km/s) = 4.06738 4.28397 4.17707
# Velocity P-wave (km/s) = 7.07809 7.26762 7.17348
#
# Compressibility (1/GPa) = 0.01750115
#
# Stress axis : x y z
#
# Youngs Moduli (GPa) = 109.42259 71.61901 115.28807
#
# Poissons Ratio (x) = 0.24241 0.02755
# Poissons Ratio (y) = 0.37036 0.40507
# Poissons Ratio (z) = 0.02615 0.25164
#
# Static dielectric constant tensor:
#      x y z
#    x 3.590120 0.000000 -0.174880 
#    y 0.000000 3.598270 0.000000 
#    z -0.174880 0.000000 4.102360 
# 
# 
# High freq. dielectric constant tensor:
#      x y z
#    x 1.768650 0.000000 -0.013710 
#    y 0.000000 1.788600 0.000000 
#    z -0.013710 0.000000 1.831510 
# 
# From -- ./inp_files/157683.got.cif
#   From: 2010.06.25/outbox.cif.g09.slc.cpg/sg15_79_cif.got.tgz:157683.got - 2010.06.28 07:06:18.
