data_PCOD8131207
_publ_section_title
;
Structure prediction by ZEFSAII (Michael W. Deem and Ramdas Pophale) SiO2 
 PCOD8131207
Probable space group: C 2/C
;
_chemical_formula_sum "Si O2"
_cell_formula_units_Z 60
_cell_length_a 28.001069
_cell_length_b 16.011048
_cell_length_c 9.316462
_cell_angle_alpha 90.000000
_cell_angle_beta 43.441323
_cell_angle_gamma 90.000000
_cell_volume 2872.026398
_symmetry_space_group_name_H-M "C 2/C"
_symmetry_group_IT_number 15
_symmetry_cell_setting 'monoclinic'
loop_
_space_group_symop_operation_xyz
x,y,z
-x,y,1/2-z
-x,-y,-z
x,-y,1/2+z
1/2+x,1/2+y,z
1/2-x,1/2+y,1/2-z
1/2-x,1/2-y,-z
1/2+x,1/2-y,1/2+z
loop_
_atom_site_type_symbol
_atom_site_label
_atom_site_fract_x
_atom_site_fract_y
_atom_site_fract_z
Si Si1 0.210658 0.805527 0.868607
Si Si2 0.000000 0.713644 0.250000
Si Si3 0.124312 0.448199 0.716370
Si Si4 0.125935 0.594705 0.899310
Si Si5 0.412565 0.766869 0.697166
Si Si6 0.220735 0.054493 0.551940
Si Si7 0.219482 0.865783 0.534989
Si Si8 0.667017 0.308925 0.366679
O O1 0.193978 0.897235 0.968342
O O2 0.212743 0.810231 0.692339
O O3 0.282609 0.769410 0.774914
O O4 0.153783 0.741217 0.052459
O O5 0.932654 0.662493 0.443895
O O6 0.977597 0.765524 0.154393
O O7 0.092643 0.533950 0.849846
O O8 0.136472 0.459819 0.520489
O O9 0.078507 0.366031 0.854035
O O10 0.197056 0.443687 0.639576
O O11 0.200343 0.636444 0.694580
O O12 0.404089 0.715289 0.565373
O O13 0.195063 0.102781 0.748568
O O14 0.193000 0.960037 0.618424
O O15 0.165024 0.822643 0.542320
#
# Coordination Sequence:
#
# PCOD8131207 Si02
#       8
#     8   4   8   8   8   8   8   8
#     4  11  20  33  56  83 112 148 181 233 289 347
#     4  10  22  42  52  80 104 156 208 234 258 322
#     4  10  18  34  50  78 105 151 184 222 273 318
#     4  10  22  33  56  75 115 152 190 229 268 324
#     4  10  20  35  58  71 109 149 190 231 269 334
#     4  10  18  32  51  80 115 149 176 218 288 351
#     4  11  22  32  54  88 119 141 179 239 291 339
#     4  11  18  33  52  83 107 149 187 225 291 340
#
# _framework density 20.891172000000001
#
# number of rings (size 3 to 8) (size 9 to 14) (size 15 to 20)
#    0.000    1.600    4.000    2.800    5.600    2.133 
#    0.000    0.000    0.000    6.400    0.000   14.933 
#    0.000    0.000    0.000    0.000    0.000    0.000 
#
# Total GULP energy -371654.470454 kJ/mol
# GULP energy per Si atom -12388.482348 kJ/mol
# Density = 2.084362 g / cm^3
# Si number density = 20.891172 Si / 1000 Ang^3
#
#
#
# Elastic Constant Matrix: (Units=GPa)
#
#
# Indices 1 2 3 4 5 6 
#
# 1 141.8025 29.4348 18.5406 0.0000 25.9510 0.0000
# 2 29.4348 68.0865 8.0880 0.0000 5.9021 0.0000
# 3 18.5406 8.0880 52.5391 0.0000 26.4663 0.0000
# 4 0.0000 0.0000 0.0000 15.7930 0.0000 9.3605
# 5 25.9510 5.9021 26.4663 0.0000 28.2979 0.0000
# 6 0.0000 0.0000 0.0000 9.3605 0.0000 27.2422
#
#
#
# Elastic Compliance Matrix: (Units=1/GPa)
#
#
# Indices 1 2 3 4 5 6 
#
# 1 0.009279 -0.003420 0.002230 0.000000 -0.009881 0.000000
# 2 -0.003420 0.016271 -0.002209 0.000000 0.001808 0.000000
# 3 0.002230 -0.002209 0.036653 0.000000 -0.035865 0.000000
# 4 0.000000 0.000000 0.000000 0.079512 0.000000 -0.027321
# 5 -0.009881 0.001808 -0.035865 0.000000 0.077567 0.000000
# 6 0.000000 0.000000 0.000000 -0.027321 0.000000 0.046095
#
#
# Mechanical properties :
#
#
# Convention : Reuss Voigt Hill
#
# Bulk Modulus (GPa) = 18.04876 41.61720 29.83298
# Shear Modulus (GPa) = 17.20319 28.02426 22.61372
#
# Velocity S-wave (km/s) = 2.87272 3.66654 3.29364
# Velocity P-wave (km/s) = 4.43414 6.15540 5.36426
#
# Compressibility (1/GPa) = 0.05540546
#
# Stress axis : x y z
#
# Youngs Moduli (GPa) = 107.77341 61.45825 27.28253
#
# Poissons Ratio (x) = 0.21016 -0.06083
# Poissons Ratio (y) = 0.36855 0.06027
# Poissons Ratio (z) = -0.24030 0.13577
#
# Static dielectric constant tensor:
#      x y z
#    x 4.097720 0.000000 0.372860 
#    y 0.000000 3.887620 0.000000 
#    z 0.372860 0.000000 3.416430 
# 
# 
# High freq. dielectric constant tensor:
#      x y z
#    x 1.818120 0.000000 0.042270 
#    y 0.000000 1.815490 0.000000 
#    z 0.042270 0.000000 1.772490 
# 
# From -- ./inp_files/67025.got.cif
#   From: 2010.06.25/outbox.cif.g09.slc.cpg/sg15_34_cif.got.tgz:67025.got - 2010.06.28 07:06:18.
