data_PCOD8131830
_publ_section_title
;
Structure prediction by ZEFSAII (Michael W. Deem and Ramdas Pophale) SiO2 
 PCOD8131830
Probable space group: C 2/C
;
_chemical_formula_sum "Si O2"
_cell_formula_units_Z 64
_cell_length_a 20.208055
_cell_length_b 9.886475
_cell_length_c 22.877475
_cell_angle_alpha 90.000000
_cell_angle_beta 130.217265
_cell_angle_gamma 90.000000
_cell_volume 3490.123931
_symmetry_space_group_name_H-M "C 2/C"
_symmetry_group_IT_number 15
_symmetry_cell_setting 'monoclinic'
loop_
_space_group_symop_operation_xyz
x,y,z
-x,y,1/2-z
-x,-y,-z
x,-y,1/2+z
1/2+x,1/2+y,z
1/2-x,1/2+y,1/2-z
1/2-x,1/2-y,-z
1/2+x,1/2-y,1/2+z
loop_
_atom_site_type_symbol
_atom_site_label
_atom_site_fract_x
_atom_site_fract_y
_atom_site_fract_z
Si Si1 0.357033 0.106429 0.035503
Si Si2 0.787983 0.877269 0.952358
Si Si3 0.780844 0.768049 0.718989
Si Si4 0.636886 0.615316 0.445419
Si Si5 0.021206 0.762054 0.698089
Si Si6 0.720709 0.851861 0.562567
Si Si7 0.980862 0.447759 0.803862
Si Si8 0.219722 0.452678 0.788518
O O1 0.300607 0.102153 0.062333
O O2 0.456733 0.124382 0.112872
O O3 0.324904 0.225947 0.975092
O O4 0.346885 0.970060 0.991914
O O5 0.769945 0.920325 0.876387
O O6 0.862392 0.968471 0.024430
O O7 0.880979 0.790026 0.762591
O O8 0.725542 0.831680 0.634695
O O9 0.762219 0.608746 0.717902
O O10 0.757486 0.851066 0.762769
O O11 0.537752 0.658938 0.382111
O O12 0.689430 0.711329 0.518588
O O13 0.684494 0.613193 0.409485
O O14 0.995270 0.605419 0.680990
O O15 0.000000 0.819694 0.750000
O O16 0.881918 0.421020 0.764021
O O17 0.000000 0.389588 0.750000
#
# Coordination Sequence:
#
# PCOD8131830 Si02
#       8
#     8   8   8   8   8   8   8   8
#     4  10  20  36  60  94 118 151 197 248 299 346
#     4  10  21  37  58  88 127 156 188 244 304 351
#     4  11  24  41  59  87 122 163 195 240 298 359
#     4  10  18  34  60  92 114 145 196 252 295 335
#     4  10  19  35  62  93 116 144 204 256 288 336
#     4  10  19  33  62  87 117 149 196 243 295 347
#     4  10  19  36  64  90 115 150 201 248 291 345
#     4  11  24  42  61  84 123 163 196 236 299 360
#
# _framework density 18.337457000000001
#
# number of rings (size 3 to 8) (size 9 to 14) (size 15 to 20)
#    0.000    1.750    5.000    0.000    1.750    0.000 
#    2.250    3.125    0.000    0.000    0.000    0.000 
#    0.000    0.000    0.000    0.000    0.000    0.000 
#
# Total GULP energy -396844.461809 kJ/mol
# GULP energy per Si atom -12401.389432 kJ/mol
# Density = 1.829572 g / cm^3
# Si number density = 18.337457 Si / 1000 Ang^3
#
#
#
# Elastic Constant Matrix: (Units=GPa)
#
#
# Indices 1 2 3 4 5 6 
#
# 1 75.5292 42.1112 45.5056 0.0000 -7.8352 0.0000
# 2 42.1112 81.1656 32.0496 0.0000 -11.1601 0.0000
# 3 45.5056 32.0496 98.6992 0.0000 -1.8567 0.0000
# 4 0.0000 0.0000 0.0000 25.3206 0.0000 -1.9177
# 5 -7.8352 -11.1601 -1.8567 0.0000 26.8900 0.0000
# 6 0.0000 0.0000 0.0000 -1.9177 0.0000 23.1676
#
#
#
# Elastic Compliance Matrix: (Units=1/GPa)
#
#
# Indices 1 2 3 4 5 6 
#
# 1 0.022906 -0.008457 -0.007765 0.000000 0.002628 0.000000
# 2 -0.008457 0.018135 -0.001897 0.000000 0.004932 0.000000
# 3 -0.007765 -0.001897 0.014289 0.000000 -0.002063 0.000000
# 4 0.000000 0.000000 0.000000 0.039743 0.000000 0.003290
# 5 0.002628 0.004932 -0.002063 0.000000 0.039859 0.000000
# 6 0.000000 0.000000 0.000000 0.003290 0.000000 0.043436
#
#
# Mechanical properties :
#
#
# Convention : Reuss Voigt Hill
#
# Bulk Modulus (GPa) = 52.37745 54.96963 53.67354
# Shear Modulus (GPa) = 22.62742 24.12415 23.37579
#
# Velocity S-wave (km/s) = 3.51657 3.63101 3.57425
# Velocity P-wave (km/s) = 6.71665 6.90078 6.80934
#
# Compressibility (1/GPa) = 0.01909219
#
# Stress axis : x y z
#
# Youngs Moduli (GPa) = 43.65627 55.14122 69.98242
#
# Poissons Ratio (x) = 0.46631 0.54345
# Poissons Ratio (y) = 0.36919 0.13276
# Poissons Ratio (z) = 0.33901 0.10461
#
# Static dielectric constant tensor:
#      x y z
#    x 3.137920 0.000000 0.011290 
#    y 0.000000 3.348270 0.000000 
#    z 0.011290 0.000000 3.374540 
# 
# 
# High freq. dielectric constant tensor:
#      x y z
#    x 1.681380 0.000000 0.005260 
#    y 0.000000 1.707850 0.000000 
#    z 0.005260 0.000000 1.723350 
# 
# From -- ./inp_files/281516.got.cif
#   From: 2010.06.25/outbox.cif.g09.slc.cpg/sg15_141_cif.got.tgz:281516.got - 2010.06.28 07:06:18.
