data_PCOD8131564
_publ_section_title
;
Structure prediction by ZEFSAII (Michael W. Deem and Ramdas Pophale) SiO2 
 PCOD8131564
Probable space group: C 2/C
;
_chemical_formula_sum "Si O2"
_cell_formula_units_Z 40
_cell_length_a 17.575208
_cell_length_b 12.670381
_cell_length_c 9.638769
_cell_angle_alpha 90.000000
_cell_angle_beta 69.895230
_cell_angle_gamma 90.000000
_cell_volume 2015.615408
_symmetry_space_group_name_H-M "C 2/C"
_symmetry_group_IT_number 15
_symmetry_cell_setting 'monoclinic'
loop_
_space_group_symop_operation_xyz
x,y,z
-x,y,1/2-z
-x,-y,-z
x,-y,1/2+z
1/2+x,1/2+y,z
1/2-x,1/2+y,1/2-z
1/2-x,1/2-y,-z
1/2+x,1/2-y,1/2+z
loop_
_atom_site_type_symbol
_atom_site_label
_atom_site_fract_x
_atom_site_fract_y
_atom_site_fract_z
Si Si1 0.090013 0.426045 0.231037
Si Si2 0.053687 0.702262 0.010320
Si Si3 0.836580 0.744608 0.015113
Si Si4 0.519649 0.600990 0.080465
Si Si5 0.884151 0.346023 0.749885
O O1 0.098254 0.377548 0.378808
O O2 0.113981 0.343971 0.097789
O O3 0.142523 0.533747 0.198111
O O4 0.000000 0.461690 0.250000
O O5 0.110404 0.719978 0.110105
O O6 0.968975 0.653920 0.113519
O O7 0.041999 0.810643 0.935411
O O8 0.887461 0.854930 0.985137
O O9 0.750000 0.750000 0.000000
O O10 0.820719 0.708975 0.184946
O O11 0.500000 0.570594 0.250000
O O12 0.500000 0.500000 0.000000
#
# Coordination Sequence:
#
# PCOD8131564 Si02
#       5
#     8   8   8   8   8
#     4  12  17  36  63  90 116 153 194 246 303 366
#     4  10  18  33  58  93 116 142 200 255 294 348
#     4  11  24  43  57  87 132 162 196 258 317 359
#     4  11  23  41  66  85 114 166 219 255 294 364
#     4  10  20  31  62  94 118 143 193 248 309 368
#
# _framework density 19.845054000000001
#
# number of rings (size 3 to 8) (size 9 to 14) (size 15 to 20)
#    0.000    1.200    8.000    1.800    5.600    0.000 
#    3.600    1.000    0.000    0.000    0.000    0.000 
#    0.000    0.000    0.000    0.000    0.000    0.000 
#
# Total GULP energy -247891.088910 kJ/mol
# GULP energy per Si atom -12394.554446 kJ/mol
# Density = 1.979989 g / cm^3
# Si number density = 19.845054 Si / 1000 Ang^3
#
#
#
# Elastic Constant Matrix: (Units=GPa)
#
#
# Indices 1 2 3 4 5 6 
#
# 1 86.3698 37.2189 35.6469 0.0000 36.6451 0.0000
# 2 37.2189 114.4963 46.4148 0.0000 16.7867 0.0000
# 3 35.6469 46.4148 151.9532 0.0000 46.0213 0.0000
# 4 0.0000 0.0000 0.0000 40.3711 0.0000 13.9223
# 5 36.6451 16.7867 46.0213 0.0000 33.9203 0.0000
# 6 0.0000 0.0000 0.0000 13.9223 0.0000 14.8018
#
#
#
# Elastic Compliance Matrix: (Units=1/GPa)
#
#
# Indices 1 2 3 4 5 6 
#
# 1 0.025401 -0.005795 0.005523 0.000000 -0.032068 0.000000
# 2 -0.005795 0.011327 -0.003902 0.000000 0.005949 0.000000
# 3 0.005523 -0.003902 0.013070 0.000000 -0.021769 0.000000
# 4 0.000000 0.000000 0.000000 0.036662 0.000000 -0.034484
# 5 -0.032068 0.005949 -0.021769 0.000000 0.090716 0.000000
# 6 0.000000 0.000000 0.000000 -0.034484 0.000000 0.099994
#
#
# Mechanical properties :
#
#
# Convention : Reuss Voigt Hill
#
# Bulk Modulus (GPa) = 24.12441 65.70894 44.91667
# Shear Modulus (GPa) = 16.70368 33.38790 25.04579
#
# Velocity S-wave (km/s) = 2.90436 4.10619 3.55641
# Velocity P-wave (km/s) = 4.84044 7.46083 6.28863
#
# Compressibility (1/GPa) = 0.04145179
#
# Stress axis : x y z
#
# Youngs Moduli (GPa) = 39.36790 88.28247 76.50964
#
# Poissons Ratio (x) = 0.51156 -0.42259
# Poissons Ratio (y) = 0.22812 0.29856
# Poissons Ratio (z) = -0.21744 0.34450
#
# Static dielectric constant tensor:
#      x y z
#    x 2.805600 0.000000 1.077990 
#    y 0.000000 3.763060 0.000000 
#    z 1.077990 0.000000 3.567090 
# 
# 
# High freq. dielectric constant tensor:
#      x y z
#    x 1.719280 0.000000 0.035190 
#    y 0.000000 1.770300 0.000000 
#    z 0.035190 0.000000 1.799280 
# 
# From -- ./inp_files/46189.got.cif
#   From: 2010.06.25/outbox.cif.g09.slc.cpg/sg15_24_cif.got.tgz:46189.got - 2010.06.28 07:06:18.
