data_PCOD8131596
_publ_section_title
;
Structure prediction by ZEFSAII (Michael W. Deem and Ramdas Pophale) SiO2 
 PCOD8131596
Probable space group: C 2/C
;
_chemical_formula_sum "Si O2"
_cell_formula_units_Z 64
_cell_length_a 9.307852
_cell_length_b 20.595383
_cell_length_c 23.229940
_cell_angle_alpha 90.000000
_cell_angle_beta 45.517263
_cell_angle_gamma 90.000000
_cell_volume 3177.152289
_symmetry_space_group_name_H-M "C 2/C"
_symmetry_group_IT_number 15
_symmetry_cell_setting 'monoclinic'
loop_
_space_group_symop_operation_xyz
x,y,z
-x,y,1/2-z
-x,-y,-z
x,-y,1/2+z
1/2+x,1/2+y,z
1/2-x,1/2+y,1/2-z
1/2-x,1/2-y,-z
1/2+x,1/2-y,1/2+z
loop_
_atom_site_type_symbol
_atom_site_label
_atom_site_fract_x
_atom_site_fract_y
_atom_site_fract_z
Si Si1 0.698616 0.346645 0.224195
Si Si2 0.327948 0.471052 0.587151
Si Si3 0.252904 0.151571 0.461062
Si Si4 0.610057 0.905719 0.123576
Si Si5 0.888800 0.319601 0.563091
Si Si6 0.105292 0.883592 0.565486
Si Si7 0.338116 0.687561 0.634264
Si Si8 0.376595 0.743402 0.091533
O O1 0.500000 0.377334 0.250000
O O2 0.650150 0.323818 0.301739
O O3 0.755427 0.281654 0.173592
O O4 0.873924 0.401122 0.173519
O O5 0.500000 0.500000 0.500000
O O6 0.221805 0.411194 0.585360
O O7 0.159986 0.526808 0.643725
O O8 0.439429 0.442501 0.613691
O O9 0.422297 0.144940 0.461531
O O10 0.275494 0.217471 0.416185
O O11 0.034623 0.154442 0.551395
O O12 0.648750 0.847484 0.157593
O O13 0.739992 0.898969 0.029371
O O14 0.720392 0.374099 0.594304
O O15 0.810555 0.263876 0.628191
O O16 0.954156 0.289505 0.483632
O O17 0.988827 0.817085 0.587529
#
# Coordination Sequence:
#
# PCOD8131596 Si02
#       8
#     8   8   8   8   8   8   8   8
#     4  12  24  35  53  88 125 155 184 234 300 358
#     4   9  18  37  57  79 108 144 198 241 278 337
#     4  10  19  34  59  87 115 147 192 248 278 331
#     4  11  20  38  58  81 114 153 198 240 282 344
#     4  11  18  31  56  89 120 143 185 243 293 328
#     4  10  18  33  61  86 107 150 196 242 276 334
#     4  11  21  35  55  86 121 153 187 232 294 351
#     4  10  18  35  56  81 122 155 184 226 288 355
#
# _framework density 20.143826000000001
#
# number of rings (size 3 to 8) (size 9 to 14) (size 15 to 20)
#    0.000    1.500    6.250    4.500    0.000    0.000 
#    0.000    3.750    0.000   12.000    0.000    5.250 
#    0.000    0.000    0.000    0.000    0.000    0.000 
#
# Total GULP energy -396615.021776 kJ/mol
# GULP energy per Si atom -12394.219431 kJ/mol
# Density = 2.009798 g / cm^3
# Si number density = 20.143826 Si / 1000 Ang^3
#
#
#
# Elastic Constant Matrix: (Units=GPa)
#
#
# Indices 1 2 3 4 5 6 
#
# 1 157.7066 46.8432 29.2762 0.0058 -20.3977 -0.0028
# 2 46.8432 83.3935 19.1131 0.0043 -16.1336 -0.0024
# 3 29.2762 19.1131 53.2872 0.0012 1.5152 0.0001
# 4 0.0058 0.0043 0.0012 11.9783 -0.0023 -1.9474
# 5 -20.3977 -16.1336 1.5152 -0.0023 29.4694 0.0012
# 6 -0.0028 -0.0024 0.0001 -1.9474 0.0012 29.0611
#
#
#
# Elastic Compliance Matrix: (Units=1/GPa)
#
#
# Indices 1 2 3 4 5 6 
#
# 1 0.008511 -0.003084 -0.003695 -0.000002 0.004392 0.000000
# 2 -0.003084 0.016024 -0.004248 -0.000002 0.006856 0.000001
# 3 -0.003695 -0.004248 0.022491 0.000000 -0.006039 -0.000001
# 4 -0.000002 -0.000002 0.000000 0.084404 0.000004 0.005656
# 5 0.004392 0.006856 -0.006039 0.000004 0.041038 0.000000
# 6 0.000000 0.000001 -0.000001 0.005656 0.000000 0.034789
#
#
# Mechanical properties :
#
#
# Convention : Reuss Voigt Hill
#
# Bulk Modulus (GPa) = 40.04365 53.87248 46.95807
# Shear Modulus (GPa) = 21.04070 27.37875 24.20973
#
# Velocity S-wave (km/s) = 3.23542 3.69068 3.47052
# Velocity P-wave (km/s) = 5.82059 6.70548 6.27864
#
# Compressibility (1/GPa) = 0.02497275
#
# Stress axis : x y z
#
# Youngs Moduli (GPa) = 117.49580 62.40729 44.46135
#
# Poissons Ratio (x) = 0.19247 0.16427
# Poissons Ratio (y) = 0.36237 0.18887
# Poissons Ratio (z) = 0.43410 0.26510
#
# Static dielectric constant tensor:
#      x y z
#    x 4.058810 -0.000010 -0.034910 
#    y -0.000010 3.722890 0.000020 
#    z -0.034910 0.000020 3.270930 
# 
# 
# High freq. dielectric constant tensor:
#      x y z
#    x 1.803280 0.000000 -0.004830 
#    y 0.000000 1.770170 0.000000 
#    z -0.004830 0.000000 1.747780 
# 
# From -- ./inp_files/266102.got.cif
#   From: 2010.06.25/outbox.cif.g09.slc.cpg/sg15_134_cif.got.tgz:266102.got - 2010.06.28 07:06:18.
