data_PCOD8131663
_publ_section_title
;
Structure prediction by ZEFSAII (Michael W. Deem and Ramdas Pophale) SiO2 
 PCOD8131663
Probable space group: C 2/C
;
_chemical_formula_sum "Si O2"
_cell_formula_units_Z 48
_cell_length_a 14.744947
_cell_length_b 13.974969
_cell_length_c 12.956299
_cell_angle_alpha 90.000000
_cell_angle_beta 72.010995
_cell_angle_gamma 90.000000
_cell_volume 2539.267339
_symmetry_space_group_name_H-M "C 2/C"
_symmetry_group_IT_number 15
_symmetry_cell_setting 'monoclinic'
loop_
_space_group_symop_operation_xyz
x,y,z
-x,y,1/2-z
-x,-y,-z
x,-y,1/2+z
1/2+x,1/2+y,z
1/2-x,1/2+y,1/2-z
1/2-x,1/2-y,-z
1/2+x,1/2-y,1/2+z
loop_
_atom_site_type_symbol
_atom_site_label
_atom_site_fract_x
_atom_site_fract_y
_atom_site_fract_z
Si Si1 0.248030 0.388619 0.029789
Si Si2 0.038940 0.396178 0.475014
Si Si3 0.101744 0.674752 0.748145
Si Si4 0.764032 0.606561 0.501265
Si Si5 0.361200 0.228955 0.086333
Si Si6 0.737275 0.245211 0.179164
O O1 0.154631 0.379754 0.136039
O O2 0.273144 0.498252 0.995793
O O3 0.340429 0.335865 0.047717
O O4 0.221480 0.339281 0.930865
O O5 0.078676 0.401346 0.345119
O O6 0.122340 0.383023 0.528522
O O7 0.000000 0.500000 0.500000
O O8 0.964995 0.309272 0.518341
O O9 0.172060 0.751441 0.775386
O O10 0.000000 0.721538 0.750000
O O11 0.717556 0.659130 0.617561
O O12 0.737693 0.657624 0.403904
O O13 0.353619 0.229039 0.213928
#
# Coordination Sequence:
#
# PCOD8131663 Si02
#       6
#     8   8   8   8   8   8
#     4  10  20  34  57  82 118 148 190 235 289 348
#     4  11  20  32  55  89 119 142 186 239 294 339
#     4  10  18  34  54  82 111 144 188 235 281 344
#     4  10  20  38  54  82 114 155 191 240 284 350
#     4  10  20  34  51  88 114 153 184 233 292 352
#     4   9  22  34  54  78 115 155 192 231 294 339
#
# _framework density 18.903091
#
# number of rings (size 3 to 8) (size 9 to 14) (size 15 to 20)
#    0.000    2.000    3.333    0.000    2.333    2.000 
#    0.000    0.000    0.000    9.000    0.000    0.000 
#    0.000    0.000    0.000    0.000    0.000    0.000 
#
# Total GULP energy -297399.481472 kJ/mol
# GULP energy per Si atom -12391.645061 kJ/mol
# Density = 1.886007 g / cm^3
# Si number density = 18.903091 Si / 1000 Ang^3
#
#
#
# Elastic Constant Matrix: (Units=GPa)
#
#
# Indices 1 2 3 4 5 6 
#
# 1 47.2754 22.9660 16.7448 0.0000 -1.3023 0.0000
# 2 22.9660 132.0441 49.3806 0.0000 -1.8716 0.0000
# 3 16.7448 49.3806 124.9951 0.0000 -1.3177 0.0000
# 4 0.0000 0.0000 0.0000 21.0065 0.0000 -1.2308
# 5 -1.3023 -1.8716 -1.3177 0.0000 29.0681 0.0000
# 6 0.0000 0.0000 0.0000 -1.2308 0.0000 24.7593
#
#
#
# Elastic Compliance Matrix: (Units=1/GPa)
#
#
# Indices 1 2 3 4 5 6 
#
# 1 0.023459 -0.003400 -0.001792 0.000000 0.000751 0.000000
# 2 -0.003400 0.009384 -0.003248 0.000000 0.000305 0.000000
# 3 -0.001792 -0.003248 0.009525 0.000000 0.000142 0.000000
# 4 0.000000 0.000000 0.000000 0.047743 0.000000 0.002373
# 5 0.000751 0.000305 0.000142 0.000000 0.034462 0.000000
# 6 0.000000 0.000000 0.000000 0.002373 0.000000 0.040507
#
#
# Mechanical properties :
#
#
# Convention : Reuss Voigt Hill
#
# Bulk Modulus (GPa) = 39.23303 53.61084 46.42194
# Shear Modulus (GPa) = 26.25279 29.31500 27.78389
#
# Velocity S-wave (km/s) = 3.73072 3.94230 3.83797
# Velocity P-wave (km/s) = 6.27356 7.01033 6.65215
#
# Compressibility (1/GPa) = 0.02548873
#
# Stress axis : x y z
#
# Youngs Moduli (GPa) = 42.62673 106.56831 104.98470
#
# Poissons Ratio (x) = 0.36228 0.18811
# Poissons Ratio (y) = 0.14491 0.34104
# Poissons Ratio (z) = 0.07638 0.34619
#
# Static dielectric constant tensor:
#      x y z
#    x 3.470820 0.000000 -0.013150 
#    y 0.000000 3.349550 0.000000 
#    z -0.013150 0.000000 3.867000 
# 
# 
# High freq. dielectric constant tensor:
#      x y z
#    x 1.713630 0.000000 0.012810 
#    y 0.000000 1.713720 0.000000 
#    z 0.012810 0.000000 1.754640 
# 
# From -- ./inp_files/96306.got.cif
#   From: 2010.06.25/outbox.cif.g09.slc.cpg/sg15_49_cif.got.tgz:96306.got - 2010.06.28 07:06:18.
