data_PCOD8131276
_publ_section_title
;
Structure prediction by ZEFSAII (Michael W. Deem and Ramdas Pophale) SiO2 
 PCOD8131276
Probable space group: C 2/C
;
_chemical_formula_sum "Si O2"
_cell_formula_units_Z 56
_cell_length_a 6.427500
_cell_length_b 25.635713
_cell_length_c 18.562762
_cell_angle_alpha 90.000000
_cell_angle_beta 112.797164
_cell_angle_gamma 90.000000
_cell_volume 2819.717334
_symmetry_space_group_name_H-M "C 2/C"
_symmetry_group_IT_number 15
_symmetry_cell_setting 'monoclinic'
loop_
_space_group_symop_operation_xyz
x,y,z
-x,y,1/2-z
-x,-y,-z
x,-y,1/2+z
1/2+x,1/2+y,z
1/2-x,1/2+y,1/2-z
1/2-x,1/2-y,-z
1/2+x,1/2-y,1/2+z
loop_
_atom_site_type_symbol
_atom_site_label
_atom_site_fract_x
_atom_site_fract_y
_atom_site_fract_z
Si Si1 0.752582 0.221745 0.303681
Si Si2 0.500000 0.361819 0.750000
Si Si3 0.518196 0.531557 0.928069
Si Si4 0.759335 0.366923 0.101458
Si Si5 0.911946 0.926133 0.608352
Si Si6 0.000000 0.694019 0.750000
Si Si7 0.850932 0.842352 0.952881
Si Si8 0.050785 0.602233 0.517574
O O1 0.500000 0.237117 0.250000
O O2 0.809864 0.172031 0.262855
O O3 0.800136 0.207199 0.394112
O O4 0.902702 0.271015 0.301846
O O5 0.366256 0.398269 0.677344
O O6 0.321713 0.573915 0.893910
O O7 0.498974 0.485185 0.866385
O O8 0.755106 0.559954 0.947468
O O9 0.500000 0.500000 0.000000
O O10 0.810210 0.341168 0.185791
O O11 0.988920 0.369198 0.084713
O O12 0.567010 0.332635 0.034261
O O13 0.673205 0.927887 0.536360
O O14 0.094514 0.894466 0.585344
O O15 0.628882 0.853235 0.971138
#
# Coordination Sequence:
#
# PCOD8131276 Si02
#       8
#     8   4   8   8   8   4   8   8
#     4  10  21  40  66  87 114 153 194 246 319 359
#     4   9  20  36  54  90 122 144 182 247 302 352
#     4  11  19  35  56  86 113 154 202 238 280 350
#     4  10  23  40  58  82 120 160 202 243 291 347
#     4  10  18  32  54  84 122 149 187 235 292 343
#     4  11  26  46  58  80 124 164 194 251 298 350
#     4   9  19  36  62  92 113 142 195 252 289 362
#     4  10  18  33  60  82 114 150 192 237 291 338
#
# _framework density 19.860146
#
# number of rings (size 3 to 8) (size 9 to 14) (size 15 to 20)
#    0.000    2.000    4.286    1.286    0.000    4.000 
#    2.571    1.429    1.571    0.000    0.000    0.000 
#    0.000    0.000    0.000    0.000    0.000    0.000 
#
# Total GULP energy -347059.114145 kJ/mol
# GULP energy per Si atom -12394.968362 kJ/mol
# Density = 1.981494 g / cm^3
# Si number density = 19.860146 Si / 1000 Ang^3
#
#
#
# Elastic Constant Matrix: (Units=GPa)
#
#
# Indices 1 2 3 4 5 6 
#
# 1 92.5403 30.2769 14.3368 0.0000 -5.8416 0.0000
# 2 30.2769 105.3932 52.2524 0.0000 -1.5366 0.0000
# 3 14.3368 52.2524 91.1406 0.0000 2.9582 0.0000
# 4 0.0000 0.0000 0.0000 30.2886 0.0000 2.2968
# 5 -5.8416 -1.5366 2.9582 0.0000 25.0019 0.0000
# 6 0.0000 0.0000 0.0000 2.2968 0.0000 13.4965
#
#
#
# Elastic Compliance Matrix: (Units=1/GPa)
#
#
# Indices 1 2 3 4 5 6 
#
# 1 0.012096 -0.003425 -0.000024 0.000000 0.002618 0.000000
# 2 -0.003425 0.014300 -0.007692 0.000000 0.000989 0.000000
# 3 -0.000024 -0.007692 0.015461 0.000000 -0.002308 0.000000
# 4 0.000000 0.000000 0.000000 0.033447 0.000000 -0.005692
# 5 0.002618 0.000989 -0.002308 0.000000 0.040943 0.000000
# 6 0.000000 0.000000 0.000000 -0.005692 0.000000 0.075062
#
#
# Mechanical properties :
#
#
# Convention : Reuss Voigt Hill
#
# Bulk Modulus (GPa) = 51.08601 53.64516 52.36559
# Shear Modulus (GPa) = 22.71548 26.57127 24.64337
#
# Velocity S-wave (km/s) = 3.38564 3.66173 3.52639
# Velocity P-wave (km/s) = 6.40797 6.70431 6.55781
#
# Compressibility (1/GPa) = 0.01957483
#
# Stress axis : x y z
#
# Youngs Moduli (GPa) = 82.67480 69.93025 64.68045
#
# Poissons Ratio (x) = 0.23948 0.00157
# Poissons Ratio (y) = 0.28312 0.49751
# Poissons Ratio (z) = 0.00201 0.53789
#
# Static dielectric constant tensor:
#      x y z
#    x 3.653610 0.000000 -0.215140 
#    y 0.000000 3.728490 0.000000 
#    z -0.215140 0.000000 3.572350 
# 
# 
# High freq. dielectric constant tensor:
#      x y z
#    x 1.778270 0.000000 -0.011150 
#    y 0.000000 1.768660 0.000000 
#    z -0.011150 0.000000 1.754730 
# 
# From -- ./inp_files/186593.got.cif
#   From: 2010.06.25/outbox.cif.g09.slc.cpg/sg15_94_cif.got.tgz:186593.got - 2010.06.28 07:06:18.
