data_PCOD8131273
_publ_section_title
;
Structure prediction by ZEFSAII (Michael W. Deem and Ramdas Pophale) SiO2 
 PCOD8131273
Probable space group: C 2/C
;
_chemical_formula_sum "Si O2"
_cell_formula_units_Z 64
_cell_length_a 9.781713
_cell_length_b 19.979795
_cell_length_c 26.129671
_cell_angle_alpha 90.000000
_cell_angle_beta 43.879123
_cell_angle_gamma 90.000000
_cell_volume 3539.650376
_symmetry_space_group_name_H-M "C 2/C"
_symmetry_group_IT_number 15
_symmetry_cell_setting 'monoclinic'
loop_
_space_group_symop_operation_xyz
x,y,z
-x,y,1/2-z
-x,-y,-z
x,-y,1/2+z
1/2+x,1/2+y,z
1/2-x,1/2+y,1/2-z
1/2-x,1/2-y,-z
1/2+x,1/2-y,1/2+z
loop_
_atom_site_type_symbol
_atom_site_label
_atom_site_fract_x
_atom_site_fract_y
_atom_site_fract_z
Si Si1 0.772494 0.788744 0.545891
Si Si2 0.292318 0.701020 0.535190
Si Si3 0.896023 0.939412 0.965486
Si Si4 0.230633 0.440924 0.572498
Si Si5 0.981536 0.246374 0.194290
Si Si6 0.066156 0.282966 0.789426
Si Si7 0.580739 0.593219 0.154539
Si Si8 0.690783 0.918958 0.807691
O O1 0.750000 0.750000 0.500000
O O2 0.724614 0.866980 0.549520
O O3 0.624096 0.756196 0.628163
O O4 0.993949 0.777265 0.503710
O O5 0.250000 0.750000 0.500000
O O6 0.288138 0.623504 0.520205
O O7 0.133031 0.705663 0.623757
O O8 0.807858 0.008295 0.009448
O O9 0.858045 0.938028 0.915622
O O10 0.130473 0.938819 0.914786
O O11 0.007148 0.462616 0.648361
O O12 0.033891 0.171548 0.162072
O O13 0.000000 0.255552 0.250000
O O14 0.756574 0.266486 0.238011
O O15 0.149718 0.345730 0.797476
O O16 0.000000 0.301173 0.750000
O O17 0.761960 0.583607 0.144508
O O18 0.384487 0.553305 0.226514
#
# Coordination Sequence:
#
# PCOD8131273 Si02
#       8
#     8   8   8   8   8   8   8   8
#     4  10  21  35  56  82 111 141 186 233 278 333
#     4  11  21  32  56  84 111 143 183 232 275 331
#     4  10  21  37  55  80 115 145 187 223 279 330
#     4   9  21  37  55  79 110 147 180 233 271 330
#     4  11  19  33  52  80 112 143 178 232 282 327
#     4  10  19  31  51  79 110 141 179 230 278 325
#     4  10  18  32  54  83 107 139 180 233 268 322
#     4   9  19  31  52  81 106 135 185 225 271 320
#
# _framework density 18.080881999999999
#
# number of rings (size 3 to 8) (size 9 to 14) (size 15 to 20)
#    0.000    2.000    3.750    1.500   10.500    0.500 
#    0.000    0.000   11.000    0.000    0.000    0.000 
#    0.000    0.000    0.000    0.000    0.000    0.000 
#
# Total GULP energy -396606.539258 kJ/mol
# GULP energy per Si atom -12393.954352 kJ/mol
# Density = 1.803973 g / cm^3
# Si number density = 18.080882 Si / 1000 Ang^3
#
#
#
# Elastic Constant Matrix: (Units=GPa)
#
#
# Indices 1 2 3 4 5 6 
#
# 1 121.9126 29.0170 66.6381 -0.0025 -3.4321 -0.0053
# 2 29.0170 47.9654 27.1362 -0.0205 -1.0408 0.0009
# 3 66.6381 27.1362 128.0604 -0.0434 -4.9885 -0.0086
# 4 -0.0025 -0.0205 -0.0434 21.0854 -0.0040 -0.8647
# 5 -3.4321 -1.0408 -4.9885 -0.0040 44.7273 0.0105
# 6 -0.0053 0.0009 -0.0086 -0.8647 0.0105 18.3420
#
#
#
# Elastic Compliance Matrix: (Units=1/GPa)
#
#
# Indices 1 2 3 4 5 6 
#
# 1 0.012200 -0.004305 -0.005427 -0.000014 0.000231 0.000000
# 2 -0.004305 0.025207 -0.003105 0.000017 -0.000090 -0.000003
# 3 -0.005427 -0.003105 0.011321 0.000020 0.000774 0.000004
# 4 -0.000014 0.000017 0.000020 0.047518 0.000005 0.002240
# 5 0.000231 -0.000090 0.000774 0.000005 0.022460 -0.000012
# 6 0.000000 -0.000003 0.000004 0.002240 -0.000012 0.054625
#
#
# Mechanical properties :
#
#
# Convention : Reuss Voigt Hill
#
# Bulk Modulus (GPa) = 43.37596 60.39123 51.88359
# Shear Modulus (GPa) = 24.19066 28.50742 26.34904
#
# Velocity S-wave (km/s) = 3.66172 3.97503 3.82158
# Velocity P-wave (km/s) = 6.47454 7.38518 6.94480
#
# Compressibility (1/GPa) = 0.02305424
#
# Stress axis : x y z
#
# Youngs Moduli (GPa) = 81.96420 39.67093 88.33059
#
# Poissons Ratio (x) = 0.17079 0.47941
# Poissons Ratio (y) = 0.35287 0.27424
# Poissons Ratio (z) = 0.44485 0.12317
#
# Static dielectric constant tensor:
#      x y z
#    x 3.645090 -0.000080 -0.457950 
#    y -0.000080 2.993430 0.000110 
#    z -0.457950 0.000110 3.896050 
# 
# 
# High freq. dielectric constant tensor:
#      x y z
#    x 1.720660 0.000000 -0.009960 
#    y 0.000000 1.648110 0.000000 
#    z -0.009960 0.000000 1.710420 
# 
# From -- ./inp_files/266081.got.cif
#   From: 2010.06.25/outbox.cif.g09.slc.cpg/sg15_134_cif.got.tgz:266081.got - 2010.06.28 07:06:18.
