data_PCOD8131243
_publ_section_title
;
Structure prediction by ZEFSAII (Michael W. Deem and Ramdas Pophale) SiO2 
 PCOD8131243
Probable space group: C 2/C
;
_chemical_formula_sum "Si O2"
_cell_formula_units_Z 64
_cell_length_a 9.773878
_cell_length_b 21.434068
_cell_length_c 23.942746
_cell_angle_alpha 90.000000
_cell_angle_beta 137.324081
_cell_angle_gamma 90.000000
_cell_volume 3400.004914
_symmetry_space_group_name_H-M "C 2/C"
_symmetry_group_IT_number 15
_symmetry_cell_setting 'monoclinic'
loop_
_space_group_symop_operation_xyz
x,y,z
-x,y,1/2-z
-x,-y,-z
x,-y,1/2+z
1/2+x,1/2+y,z
1/2-x,1/2+y,1/2-z
1/2-x,1/2-y,-z
1/2+x,1/2-y,1/2+z
loop_
_atom_site_type_symbol
_atom_site_label
_atom_site_fract_x
_atom_site_fract_y
_atom_site_fract_z
Si Si1 0.455404 0.697207 0.423113
Si Si2 0.234704 0.404904 0.194147
Si Si3 0.329446 0.873530 0.739033
Si Si4 0.730097 0.451470 0.811000
Si Si5 0.581989 0.639698 0.860370
Si Si6 0.400800 0.170692 0.556888
Si Si7 0.079100 0.718634 0.384744
Si Si8 0.017715 0.633301 0.468902
O O1 0.369884 0.647306 0.353415
O O2 0.491607 0.762601 0.402315
O O3 0.670557 0.671697 0.508869
O O4 0.304618 0.703760 0.430374
O O5 0.243354 0.474957 0.174329
O O6 0.325740 0.358467 0.174325
O O7 0.367745 0.397614 0.291163
O O8 0.004938 0.380465 0.129564
O O9 0.500000 0.900765 0.750000
O O10 0.285229 0.931411 0.765449
O O11 0.412676 0.812861 0.795641
O O12 0.500000 0.430290 0.750000
O O13 0.880200 0.419644 0.900170
O O14 0.538041 0.708062 0.870876
O O15 0.754214 0.606861 0.950798
O O16 0.411187 0.153920 0.494165
O O17 0.047112 0.693703 0.437974
#
# Coordination Sequence:
#
# PCOD8131243 Si02
#       8
#     8   8   8   8   8   8   8   8
#     4  10  18  32  53  81 107 141 175 219 274 332
#     4  10  20  35  53  79 105 148 184 228 258 316
#     4   9  20  34  56  78 104 149 180 222 266 329
#     4  11  21  37  55  77 114 140 188 228 267 314
#     4  10  18  32  55  82 104 138 183 224 263 319
#     4  10  20  32  53  79 114 137 175 225 277 327
#     4  10  18  32  58  81 111 133 180 223 270 330
#     4  10  21  33  53  85 107 141 169 233 272 317
#
# _framework density 18.823502000000001
#
# number of rings (size 3 to 8) (size 9 to 14) (size 15 to 20)
#    0.000    2.000    3.750    1.875    3.500    2.000 
#    2.250    0.000    2.750    2.250    0.000    0.000 
#    0.000    0.000    0.000    0.000    0.000    0.000 
#
# Total GULP energy -396566.243747 kJ/mol
# GULP energy per Si atom -12392.695117 kJ/mol
# Density = 1.878066 g / cm^3
# Si number density = 18.823502 Si / 1000 Ang^3
#
#
#
# Elastic Constant Matrix: (Units=GPa)
#
#
# Indices 1 2 3 4 5 6 
#
# 1 57.9171 26.5329 34.2063 0.0001 13.8395 0.0000
# 2 26.5329 81.8195 54.4697 0.0000 12.1942 0.0000
# 3 34.2063 54.4697 122.5710 0.0000 23.1643 0.0000
# 4 0.0001 0.0000 0.0000 23.5207 0.0001 5.5209
# 5 13.8395 12.1942 23.1643 0.0001 28.1517 0.0001
# 6 0.0000 0.0000 0.0000 5.5209 0.0001 13.6834
#
#
#
# Elastic Compliance Matrix: (Units=1/GPa)
#
#
# Indices 1 2 3 4 5 6 
#
# 1 0.022689 -0.004242 -0.003181 0.000000 -0.006699 0.000000
# 2 -0.004242 0.018196 -0.006876 0.000000 -0.000138 0.000000
# 3 -0.003181 -0.006876 0.013314 0.000000 -0.006413 0.000000
# 4 0.000000 0.000000 0.000000 0.046963 0.000000 -0.018948
# 5 -0.006699 -0.000138 -0.006413 0.000000 0.044152 0.000000
# 6 0.000000 0.000000 0.000000 -0.018948 0.000000 0.080726
#
#
# Mechanical properties :
#
#
# Convention : Reuss Voigt Hill
#
# Bulk Modulus (GPa) = 39.06065 54.74724 46.90395
# Shear Modulus (GPa) = 18.99904 22.87774 20.93839
#
# Velocity S-wave (km/s) = 3.18043 3.49001 3.33881
# Velocity P-wave (km/s) = 5.85516 6.73706 6.31153
#
# Compressibility (1/GPa) = 0.02560121
#
# Stress axis : x y z
#
# Youngs Moduli (GPa) = 44.07498 54.95751 75.10931
#
# Poissons Ratio (x) = 0.23311 0.23890
# Poissons Ratio (y) = 0.18695 0.51647
# Poissons Ratio (z) = 0.14019 0.37790
#
# Static dielectric constant tensor:
#      x y z
#    x 3.391090 0.000000 0.207070 
#    y 0.000000 3.227580 0.000000 
#    z 0.207070 0.000000 3.953520 
# 
# 
# High freq. dielectric constant tensor:
#      x y z
#    x 1.703550 0.000000 0.018090 
#    y 0.000000 1.713480 0.000000 
#    z 0.018090 0.000000 1.750890 
# 
# From -- ./inp_files/192184.got.cif
#   From: 2010.06.25/outbox.cif.g09.slc.cpg/sg15_97_cif.got.tgz:192184.got - 2010.06.28 07:06:18.
