data_PCOD8131249
_publ_section_title
;
Structure prediction by ZEFSAII (Michael W. Deem and Ramdas Pophale) SiO2 
 PCOD8131249
Probable space group: C 2/C
;
_chemical_formula_sum "Si O2"
_cell_formula_units_Z 64
_cell_length_a 26.215048
_cell_length_b 11.717246
_cell_length_c 22.364036
_cell_angle_alpha 90.000000
_cell_angle_beta 149.856463
_cell_angle_gamma 90.000000
_cell_volume 3449.653013
_symmetry_space_group_name_H-M "C 2/C"
_symmetry_group_IT_number 15
_symmetry_cell_setting 'monoclinic'
loop_
_space_group_symop_operation_xyz
x,y,z
-x,y,1/2-z
-x,-y,-z
x,-y,1/2+z
1/2+x,1/2+y,z
1/2-x,1/2+y,1/2-z
1/2-x,1/2-y,-z
1/2+x,1/2-y,1/2+z
loop_
_atom_site_type_symbol
_atom_site_label
_atom_site_fract_x
_atom_site_fract_y
_atom_site_fract_z
Si Si1 0.105044 0.757960 0.583742
Si Si2 0.837058 0.359032 0.932514
Si Si3 0.981986 0.599440 0.801385
Si Si4 0.963040 0.659462 0.149587
Si Si5 0.682255 0.158915 0.775815
Si Si6 0.086581 0.234097 0.678435
Si Si7 0.211681 0.417373 0.748001
Si Si8 0.216097 0.605134 0.601299
O O1 0.104696 0.722296 0.652631
O O2 0.174546 0.869056 0.643532
O O3 0.147689 0.650908 0.587577
O O4 0.987485 0.791091 0.452690
O O5 0.777202 0.241843 0.882615
O O6 0.851201 0.392399 0.876911
O O7 0.780149 0.469048 0.901933
O O8 0.940521 0.340719 0.074234
O O9 0.990696 0.464207 0.816996
O O10 0.000000 0.636824 0.750000
O O11 0.870365 0.633925 0.713293
O O12 0.000000 0.704171 0.250000
O O13 0.009439 0.755487 0.154542
O O14 0.840157 0.655467 0.015406
O O15 0.720620 0.046702 0.779177
O O16 0.150602 0.349797 0.736752
O O17 0.166047 0.134059 0.771595
#
# Coordination Sequence:
#
# PCOD8131249 Si02
#       8
#     8   8   8   8   8   8   8   8
#     4   9  19  32  52  82 108 137 172 214 274 332
#     4  10  21  36  54  80 112 138 179 224 270 329
#     4  10  21  37  56  78 104 142 193 229 256 313
#     4   9  18  32  52  77 101 133 186 231 259 314
#     4  11  20  35  57  81 107 146 177 223 275 314
#     4  10  18  32  54  74 107 143 167 217 276 318
#     4  10  19  33  54  82 107 135 178 217 268 332
#     4   9  18  33  51  75 109 140 168 220 273 321
#
# _framework density 18.552589999999999
#
# number of rings (size 3 to 8) (size 9 to 14) (size 15 to 20)
#    0.000    2.250    2.500    0.750    0.000    2.000 
#    2.250    1.250    0.000    0.750    0.000    0.000 
#    0.000    0.000    0.000    0.000    0.000    0.000 
#
# Total GULP energy -396451.077198 kJ/mol
# GULP energy per Si atom -12389.096162 kJ/mol
# Density = 1.851036 g / cm^3
# Si number density = 18.552590 Si / 1000 Ang^3
#
#
#
# Elastic Constant Matrix: (Units=GPa)
#
#
# Indices 1 2 3 4 5 6 
#
# 1 63.9113 22.4060 14.4660 0.0000 -0.1986 0.0000
# 2 22.4060 69.2642 25.6510 0.0000 9.3741 0.0000
# 3 14.4660 25.6510 82.3805 0.0000 2.4826 0.0000
# 4 0.0000 0.0000 0.0000 21.9035 0.0000 -0.9138
# 5 -0.1986 9.3741 2.4826 0.0000 24.2145 0.0000
# 6 0.0000 0.0000 0.0000 -0.9138 0.0000 15.3273
#
#
#
# Elastic Compliance Matrix: (Units=1/GPa)
#
#
# Indices 1 2 3 4 5 6 
#
# 1 0.017950 -0.005590 -0.001486 0.000000 0.002464 0.000000
# 2 -0.005590 0.018919 -0.004702 0.000000 -0.006888 0.000000
# 3 -0.001486 -0.004702 0.013852 0.000000 0.000388 0.000000
# 4 0.000000 0.000000 0.000000 0.045769 0.000000 0.002729
# 5 0.002464 -0.006888 0.000388 0.000000 0.043944 0.000000
# 6 0.000000 0.000000 0.000000 0.002729 0.000000 0.065406
#
#
# Mechanical properties :
#
#
# Convention : Reuss Voigt Hill
#
# Bulk Modulus (GPa) = 36.80976 37.84466 37.32721
# Shear Modulus (GPa) = 20.96869 22.49126 21.72997
#
# Velocity S-wave (km/s) = 3.36554 3.48558 3.42609
# Velocity P-wave (km/s) = 5.91492 6.05326 5.98449
#
# Compressibility (1/GPa) = 0.02716671
#
# Stress axis : x y z
#
# Youngs Moduli (GPa) = 55.70927 52.85659 72.19168
#
# Poissons Ratio (x) = 0.29546 0.10726
# Poissons Ratio (y) = 0.31141 0.33943
# Poissons Ratio (z) = 0.08277 0.24852
#
# Static dielectric constant tensor:
#      x y z
#    x 3.251500 0.000000 -0.206980 
#    y 0.000000 3.229890 0.000000 
#    z -0.206980 0.000000 3.606580 
# 
# 
# High freq. dielectric constant tensor:
#      x y z
#    x 1.697940 0.000000 -0.006620 
#    y 0.000000 1.702140 0.000000 
#    z -0.006620 0.000000 1.724340 
# 
# From -- ./inp_files/283512.got.cif
#   From: 2010.06.25/outbox.cif.g09.slc.cpg/sg15_142_cif.got.tgz:283512.got - 2010.06.28 07:06:18.
