data_PCOD8131015
_publ_section_title
;
Structure prediction by ZEFSAII (Michael W. Deem and Ramdas Pophale) SiO2 
 PCOD8131015
Probable space group: C 2/C
;
_chemical_formula_sum "Si O2"
_cell_formula_units_Z 64
_cell_length_a 27.078158
_cell_length_b 12.221091
_cell_length_c 11.597031
_cell_angle_alpha 90.000000
_cell_angle_beta 104.219107
_cell_angle_gamma 90.000000
_cell_volume 3720.168172
_symmetry_space_group_name_H-M "C 2/C"
_symmetry_group_IT_number 15
_symmetry_cell_setting 'monoclinic'
loop_
_space_group_symop_operation_xyz
x,y,z
-x,y,1/2-z
-x,-y,-z
x,-y,1/2+z
1/2+x,1/2+y,z
1/2-x,1/2+y,1/2-z
1/2-x,1/2-y,-z
1/2+x,1/2-y,1/2+z
loop_
_atom_site_type_symbol
_atom_site_label
_atom_site_fract_x
_atom_site_fract_y
_atom_site_fract_z
Si Si1 0.668189 0.233002 0.499086
Si Si2 0.326892 0.418103 0.309070
Si Si3 0.468500 0.603385 0.341593
Si Si4 0.854696 0.154959 0.289486
Si Si5 0.260222 0.586619 0.562425
Si Si6 0.001779 0.140005 0.599265
Si Si7 0.790641 0.154475 0.026119
Si Si8 0.586672 0.310183 0.292038
O O1 0.649765 0.246985 0.620425
O O2 0.701614 0.339584 0.489911
O O3 0.701995 0.123960 0.509448
O O4 0.620316 0.220651 0.381826
O O5 0.333329 0.546112 0.339536
O O6 0.275155 0.400499 0.205753
O O7 0.323138 0.348889 0.425308
O O8 0.374762 0.384986 0.257465
O O9 0.500000 0.638293 0.250000
O O10 0.412255 0.642357 0.284450
O O11 0.492577 0.670593 0.462198
O O12 0.468933 0.474953 0.370438
O O13 0.825944 0.181149 0.154696
O O14 0.262831 0.461813 0.523037
O O15 0.041299 0.230267 0.678150
O O16 0.946678 0.125479 0.629997
O O17 0.750000 0.250000 0.000000
#
# Coordination Sequence:
#
# PCOD8131015 Si02
#       8
#     8   8   8   8   8   8   8   8
#     4  10  18  34  52  72  97 136 181 205 251 309
#     4  10  19  32  49  71 104 136 174 206 260 310
#     4  11  20  28  45  71 107 144 163 202 260 323
#     4  11  20  31  52  73 105 146 172 200 262 315
#     4   9  20  34  53  71  97 135 174 219 253 301
#     4  10  19  29  43  70 106 133 173 207 253 311
#     4  11  23  36  52  76 106 137 174 223 263 305
#     4  10  18  31  47  70 100 140 166 215 248 310
#
# _framework density 17.203523000000001
#
# number of rings (size 3 to 8) (size 9 to 14) (size 15 to 20)
#    0.000    1.750    5.000    0.750    1.750    0.000 
#    0.000    0.000    0.000    0.000    0.000    0.000 
#    3.750    6.000    0.000    0.000    0.000    0.000 
#
# Total GULP energy -396460.970654 kJ/mol
# GULP energy per Si atom -12389.405333 kJ/mol
# Density = 1.716437 g / cm^3
# Si number density = 17.203523 Si / 1000 Ang^3
#
#
#
# Elastic Constant Matrix: (Units=GPa)
#
#
# Indices 1 2 3 4 5 6 
#
# 1 114.5374 33.1248 63.8541 0.0000 14.9929 0.0000
# 2 33.1248 43.3145 25.7047 0.0000 6.2077 0.0000
# 3 63.8541 25.7047 139.7485 0.0000 5.6328 0.0000
# 4 0.0000 0.0000 0.0000 14.5654 0.0000 4.9553
# 5 14.9929 6.2077 5.6328 0.0000 33.0680 0.0000
# 6 0.0000 0.0000 0.0000 4.9553 0.0000 20.9975
#
#
#
# Elastic Compliance Matrix: (Units=1/GPa)
#
#
# Indices 1 2 3 4 5 6 
#
# 1 0.014149 -0.007276 -0.004957 0.000000 -0.004205 0.000000
# 2 -0.007276 0.030216 -0.002152 0.000000 -0.002007 0.000000
# 3 -0.004957 -0.002152 0.009777 0.000000 0.000986 0.000000
# 4 0.000000 0.000000 0.000000 0.074649 0.000000 -0.017617
# 5 -0.004205 -0.002007 0.000986 0.000000 0.032356 0.000000
# 6 0.000000 0.000000 0.000000 -0.017617 0.000000 0.051782
#
#
# Mechanical properties :
#
#
# Convention : Reuss Voigt Hill
#
# Bulk Modulus (GPa) = 39.41517 60.32973 49.87245
# Shear Modulus (GPa) = 19.98738 25.38731 22.68734
#
# Velocity S-wave (km/s) = 3.41224 3.84566 3.63542
# Velocity P-wave (km/s) = 6.20366 7.40697 6.83186
#
# Compressibility (1/GPa) = 0.02537094
#
# Stress axis : x y z
#
# Youngs Moduli (GPa) = 70.67590 33.09477 102.28184
#
# Poissons Ratio (x) = 0.24080 0.50703
# Poissons Ratio (y) = 0.51424 0.22015
# Poissons Ratio (z) = 0.35036 0.07123
#
# Static dielectric constant tensor:
#      x y z
#    x 3.277810 0.000000 0.157260 
#    y 0.000000 2.686960 0.000000 
#    z 0.157260 0.000000 3.610680 
# 
# 
# High freq. dielectric constant tensor:
#      x y z
#    x 1.671280 0.000000 0.003010 
#    y 0.000000 1.588100 0.000000 
#    z 0.003010 0.000000 1.690530 
# 
# From -- ./inp_files/117625.got.cif
#   From: 2010.06.25/outbox.cif.g09.slc.cpg/sg15_59_cif.got.tgz:117625.got - 2010.06.28 07:06:18.
