data_PCOD8131158
_publ_section_title
;
Structure prediction by ZEFSAII (Michael W. Deem and Ramdas Pophale) SiO2 
 PCOD8131158
Probable space group: C 2/C
;
_chemical_formula_sum "Si O2"
_cell_formula_units_Z 52
_cell_length_a 11.814648
_cell_length_b 13.779958
_cell_length_c 17.254726
_cell_angle_alpha 90.000000
_cell_angle_beta 62.730003
_cell_angle_gamma 90.000000
_cell_volume 2496.943891
_symmetry_space_group_name_H-M "C 2/C"
_symmetry_group_IT_number 15
_symmetry_cell_setting 'monoclinic'
loop_
_space_group_symop_operation_xyz
x,y,z
-x,y,1/2-z
-x,-y,-z
x,-y,1/2+z
1/2+x,1/2+y,z
1/2-x,1/2+y,1/2-z
1/2-x,1/2-y,-z
1/2+x,1/2-y,1/2+z
loop_
_atom_site_type_symbol
_atom_site_label
_atom_site_fract_x
_atom_site_fract_y
_atom_site_fract_z
Si Si1 0.129369 0.867888 0.802772
Si Si2 0.090621 0.820390 0.122273
Si Si3 0.286458 0.090181 0.860161
Si Si4 0.135138 0.383434 0.673329
Si Si5 0.000000 0.287561 0.250000
Si Si6 0.487922 0.613342 0.500720
Si Si7 0.159714 0.919060 0.243941
O O1 0.273596 0.852972 0.784886
O O2 0.107547 0.779231 0.753199
O O3 0.107978 0.970349 0.765462
O O4 0.028239 0.852204 0.903683
O O5 0.122362 0.706073 0.118050
O O6 0.188616 0.886393 0.145132
O O7 0.089787 0.843935 0.031004
O O8 0.948623 0.843185 0.196172
O O9 0.416924 0.148100 0.836886
O O10 0.160810 0.139635 0.936790
O O11 0.275821 0.088935 0.768427
O O12 0.302177 0.979268 0.886351
O O13 0.000000 0.414167 0.750000
O O14 0.500000 0.500000 0.500000
#
# Coordination Sequence:
#
# PCOD8131158 Si02
#       7
#     8   8   8   8   4   8   8
#     4  11  24  38  61  90 121 160 207 244 306 369
#     4  10  18  31  64  85 117 150 205 248 287 348
#     4  10  22  38  60  84 127 156 195 256 302 356
#     4  11  20  36  60  91 116 154 205 252 295 345
#     4  12  24  38  64  92 118 160 206 246 306 362
#     4  11  21  41  59  87 127 163 195 250 307 358
#     4   9  17  35  56  89 111 155 201 246 287 351
#
# _framework density 20.825458000000001
#
# number of rings (size 3 to 8) (size 9 to 14) (size 15 to 20)
#    0.000    1.538    6.923    1.846    2.154    1.231 
#    0.000    0.000    0.000    0.923    0.000    0.000 
#    0.000    0.000    0.000    0.000    0.000    0.000 
#
# Total GULP energy -322108.333311 kJ/mol
# GULP energy per Si atom -12388.782050 kJ/mol
# Density = 2.077806 g / cm^3
# Si number density = 20.825458 Si / 1000 Ang^3
#
#
#
# Elastic Constant Matrix: (Units=GPa)
#
#
# Indices 1 2 3 4 5 6 
#
# 1 77.5263 36.9513 10.1525 0.0000 -18.7838 0.0000
# 2 36.9513 118.0683 18.2465 0.0000 9.2063 0.0000
# 3 10.1525 18.2465 50.7647 0.0000 -3.0845 0.0000
# 4 0.0000 0.0000 0.0000 18.6553 0.0000 2.4132
# 5 -18.7838 9.2063 -3.0845 0.0000 28.9103 0.0000
# 6 0.0000 0.0000 0.0000 2.4132 0.0000 32.3873
#
#
#
# Elastic Compliance Matrix: (Units=1/GPa)
#
#
# Indices 1 2 3 4 5 6 
#
# 1 0.020287 -0.007495 -0.000420 0.000000 0.015523 0.000000
# 2 -0.007495 0.012045 -0.003381 0.000000 -0.009066 0.000000
# 3 -0.000420 -0.003381 0.021184 0.000000 0.003064 0.000000
# 4 0.000000 0.000000 0.000000 0.054126 0.000000 -0.004033
# 5 0.015523 -0.009066 0.003064 0.000000 0.047889 0.000000
# 6 0.000000 0.000000 0.000000 -0.004033 0.000000 0.031177
#
#
# Mechanical properties :
#
#
# Convention : Reuss Voigt Hill
#
# Bulk Modulus (GPa) = 32.33755 41.89554 37.11654
# Shear Modulus (GPa) = 22.76788 28.05784 25.41286
#
# Velocity S-wave (km/s) = 3.31005 3.67452 3.49704
# Velocity P-wave (km/s) = 5.49274 6.17770 5.84526
#
# Compressibility (1/GPa) = 0.03092380
#
# Stress axis : x y z
#
# Youngs Moduli (GPa) = 49.29268 83.02441 47.20483
#
# Poissons Ratio (x) = 0.62223 0.01984
# Poissons Ratio (y) = 0.36943 0.15961
# Poissons Ratio (z) = 0.02072 0.28072
#
# Static dielectric constant tensor:
#      x y z
#    x 4.006080 0.000000 0.397180 
#    y 0.000000 3.838120 0.000000 
#    z 0.397180 0.000000 3.280480 
# 
# 
# High freq. dielectric constant tensor:
#      x y z
#    x 1.817030 0.000000 -0.003410 
#    y 0.000000 1.822620 0.000000 
#    z -0.003410 0.000000 1.772190 
# 
# From -- ./inp_files/197679.got.cif
#   From: 2010.06.25/outbox.cif.g09.slc.cpg/sg15_99_cif.got.tgz:197679.got - 2010.06.28 07:06:18.
