data_PCOD8131687
_publ_section_title
;
Structure prediction by ZEFSAII (Michael W. Deem and Ramdas Pophale) SiO2 
 PCOD8131687
Probable space group: C 2/C
;
_chemical_formula_sum "Si O2"
_cell_formula_units_Z 64
_cell_length_a 11.726244
_cell_length_b 19.172051
_cell_length_c 20.694464
_cell_angle_alpha 90.000000
_cell_angle_beta 131.810646
_cell_angle_gamma 90.000000
_cell_volume 3467.713326
_symmetry_space_group_name_H-M "C 2/C"
_symmetry_group_IT_number 15
_symmetry_cell_setting 'monoclinic'
loop_
_space_group_symop_operation_xyz
x,y,z
-x,y,1/2-z
-x,-y,-z
x,-y,1/2+z
1/2+x,1/2+y,z
1/2-x,1/2+y,1/2-z
1/2-x,1/2-y,-z
1/2+x,1/2-y,1/2+z
loop_
_atom_site_type_symbol
_atom_site_label
_atom_site_fract_x
_atom_site_fract_y
_atom_site_fract_z
Si Si1 0.537594 0.727343 0.894200
Si Si2 0.978240 0.384167 0.644451
Si Si3 0.661794 0.758439 0.069701
Si Si4 0.985965 0.013804 0.070172
Si Si5 0.844035 0.503465 0.007304
Si Si6 0.617242 0.091188 0.596676
Si Si7 0.093230 0.096971 0.717372
Si Si8 0.739789 0.375846 0.660816
O O1 0.488339 0.807127 0.868519
O O2 0.693034 0.712492 0.914532
O O3 0.417463 0.674635 0.816826
O O4 0.556708 0.715098 0.978752
O O5 0.129957 0.401577 0.741346
O O6 0.959416 0.440146 0.581908
O O7 0.815064 0.390229 0.619331
O O8 0.585865 0.828487 0.066860
O O9 0.702450 0.707239 0.145219
O O10 0.085035 0.083341 0.119973
O O11 0.806004 0.023590 0.013226
O O12 0.042699 0.954629 0.141040
O O13 0.000000 0.000000 0.000000
O O14 0.945118 0.434429 0.041524
O O15 0.797471 0.541126 0.923147
O O16 0.726889 0.086102 0.700666
O O17 0.000000 0.089845 0.750000
#
# Coordination Sequence:
#
# PCOD8131687 Si02
#       8
#     8   8   8   8   8   8   8   8
#     4  10  19  30  58  86 118 144 191 249 305 354
#     4  10  19  35  53  88 116 146 189 246 299 345
#     4  10  18  34  55  87 115 155 190 248 300 352
#     4  12  23  40  58  85 119 161 202 246 293 360
#     4  11  22  38  59  84 119 164 197 240 298 361
#     4  11  22  38  59  86 124 154 197 245 305 357
#     4  12  22  36  59  93 122 152 196 254 306 357
#     4  10  21  32  57  80 115 146 192 241 294 344
#
# _framework density 18.455967000000001
#
# number of rings (size 3 to 8) (size 9 to 14) (size 15 to 20)
#    0.000    1.250    5.000    2.250    3.500    0.000 
#    0.000    0.625    0.000    0.000    0.000    1.750 
#    0.000    0.000    0.000    0.000    0.000    0.000 
#
# Total GULP energy -396465.748569 kJ/mol
# GULP energy per Si atom -12389.554643 kJ/mol
# Density = 1.841396 g / cm^3
# Si number density = 18.455967 Si / 1000 Ang^3
#
#
#
# Elastic Constant Matrix: (Units=GPa)
#
#
# Indices 1 2 3 4 5 6 
#
# 1 82.9317 47.5071 37.0613 0.0000 7.5782 0.0000
# 2 47.5071 119.7219 49.9176 0.0000 8.9809 0.0000
# 3 37.0613 49.9176 103.9042 0.0000 -2.1046 0.0000
# 4 0.0000 0.0000 0.0000 30.6953 0.0000 -2.1856
# 5 7.5782 8.9809 -2.1046 0.0000 19.1792 0.0000
# 6 0.0000 0.0000 0.0000 -2.1856 0.0000 21.7413
#
#
#
# Elastic Compliance Matrix: (Units=1/GPa)
#
#
# Indices 1 2 3 4 5 6 
#
# 1 0.016953 -0.004748 -0.003865 0.000000 -0.004899 0.000000
# 2 -0.004748 0.012377 -0.004341 0.000000 -0.004396 0.000000
# 3 -0.003865 -0.004341 0.013190 0.000000 0.005007 0.000000
# 4 0.000000 0.000000 0.000000 0.032813 0.000000 0.003299
# 5 -0.004899 -0.004396 0.005007 0.000000 0.056684 0.000000
# 6 0.000000 0.000000 0.000000 0.003299 0.000000 0.046327
#
#
# Mechanical properties :
#
#
# Convention : Reuss Voigt Hill
#
# Bulk Modulus (GPa) = 60.20306 63.94776 62.07541
# Shear Modulus (GPa) = 23.83341 25.79462 24.81402
#
# Velocity S-wave (km/s) = 3.59746 3.74255 3.67072
# Velocity P-wave (km/s) = 7.06727 7.30750 7.18839
#
# Compressibility (1/GPa) = 0.01661045
#
# Stress axis : x y z
#
# Youngs Moduli (GPa) = 58.98662 80.79701 75.81495
#
# Poissons Ratio (x) = 0.38363 0.29303
# Poissons Ratio (y) = 0.28007 0.32915
# Poissons Ratio (z) = 0.22799 0.35078
#
# Static dielectric constant tensor:
#      x y z
#    x 3.134070 0.000000 -0.042850 
#    y 0.000000 3.397040 0.000000 
#    z -0.042850 0.000000 3.708680 
# 
# 
# High freq. dielectric constant tensor:
#      x y z
#    x 1.669570 0.000000 -0.000600 
#    y 0.000000 1.718640 0.000000 
#    z -0.000600 0.000000 1.738650 
# 
# From -- ./inp_files/239841.got.cif
#   From: 2010.06.25/outbox.cif.g09.slc.cpg/sg15_120_cif.got.tgz:239841.got - 2010.06.28 07:06:18.
