data_PCOD8131975
_publ_section_title
;
Structure prediction by ZEFSAII (Michael W. Deem and Ramdas Pophale) SiO2 
 PCOD8131975
Probable space group: C 2/C
;
_chemical_formula_sum "Si O2"
_cell_formula_units_Z 60
_cell_length_a 10.300467
_cell_length_b 17.934616
_cell_length_c 16.861978
_cell_angle_alpha 90.000000
_cell_angle_beta 107.113827
_cell_angle_gamma 90.000000
_cell_volume 2977.070446
_symmetry_space_group_name_H-M "C 2/C"
_symmetry_group_IT_number 15
_symmetry_cell_setting 'monoclinic'
loop_
_space_group_symop_operation_xyz
x,y,z
-x,y,1/2-z
-x,-y,-z
x,-y,1/2+z
1/2+x,1/2+y,z
1/2-x,1/2+y,1/2-z
1/2-x,1/2-y,-z
1/2+x,1/2-y,1/2+z
loop_
_atom_site_type_symbol
_atom_site_label
_atom_site_fract_x
_atom_site_fract_y
_atom_site_fract_z
Si Si1 0.655111 0.443936 0.566333
Si Si2 0.896493 0.202167 0.857603
Si Si3 0.500000 0.781050 0.250000
Si Si4 0.226931 0.632779 0.700351
Si Si5 0.215172 0.169947 0.361393
Si Si6 0.204098 0.174073 0.956827
Si Si7 0.153928 0.026881 0.250399
Si Si8 0.654367 0.400343 0.015776
O O1 0.738293 0.380058 0.536621
O O2 0.662838 0.445326 0.662096
O O3 0.502272 0.423343 0.515938
O O4 0.721708 0.519024 0.541545
O O5 0.852153 0.179641 0.760678
O O6 0.857869 0.288294 0.868938
O O7 0.051145 0.182960 0.899450
O O8 0.810044 0.150413 0.902217
O O9 0.412704 0.836456 0.288532
O O10 0.592125 0.726381 0.320078
O O11 0.212277 0.647167 0.604248
O O12 0.251056 0.544920 0.719725
O O13 0.211818 0.095111 0.310283
O O14 0.208745 0.145173 0.451048
O O15 0.250000 0.250000 0.000000
O O16 0.000000 0.007652 0.250000
#
# Coordination Sequence:
#
# PCOD8131975 Si02
#       8
#     8   8   4   8   8   8   8   8
#     4  10  21  35  57  93 122 160 213 269 318 367
#     4  10  22  38  62  93 125 164 207 268 320 381
#     4  10  24  42  64  96 126 170 216 270 324 386
#     4  11  24  43  65  92 131 172 211 265 334 384
#     4  11  21  36  66  92 123 166 220 268 312 385
#     4  11  25  40  64  92 132 167 209 266 328 394
#     4  12  21  38  66  95 125 168 223 269 308 383
#     4  10  18  35  57  90 121 152 206 274 317 358
#
# _framework density 20.154039999999998
#
# number of rings (size 3 to 8) (size 9 to 14) (size 15 to 20)
#    0.000    1.333    3.333    2.400    9.333    0.000 
#    0.000    1.333    0.000    2.400    0.000    0.000 
#    0.000    0.000    0.000    0.000    0.000    0.000 
#
# Total GULP energy -371786.810940 kJ/mol
# GULP energy per Si atom -12392.893698 kJ/mol
# Density = 2.010817 g / cm^3
# Si number density = 20.154040 Si / 1000 Ang^3
#
#
#
# Elastic Constant Matrix: (Units=GPa)
#
#
# Indices 1 2 3 4 5 6 
#
# 1 50.3752 23.4953 18.4380 0.0000 -19.7014 0.0000
# 2 23.4953 126.2396 33.7783 0.0000 -22.1851 0.0000
# 3 18.4380 33.7783 116.9379 0.0000 -31.5776 0.0000
# 4 0.0000 0.0000 0.0000 32.9960 0.0000 -9.3655
# 5 -19.7014 -22.1851 -31.5776 0.0000 24.9566 0.0000
# 6 0.0000 0.0000 0.0000 -9.3655 0.0000 29.7600
#
#
#
# Elastic Compliance Matrix: (Units=1/GPa)
#
#
# Indices 1 2 3 4 5 6 
#
# 1 0.029515 -0.001798 0.002622 0.000000 0.025018 0.000000
# 2 -0.001798 0.009535 -0.000859 0.000000 0.005971 0.000000
# 3 0.002622 -0.000859 0.013275 0.000000 0.018103 0.000000
# 4 0.000000 0.000000 0.000000 0.033279 0.000000 0.010473
# 5 0.025018 0.005971 0.018103 0.000000 0.088033 0.000000
# 6 0.000000 0.000000 0.000000 0.010473 0.000000 0.036898
#
#
# Mechanical properties :
#
#
# Convention : Reuss Voigt Hill
#
# Bulk Modulus (GPa) = 19.13710 49.44177 34.28944
# Shear Modulus (GPa) = 21.92769 32.06526 26.99648
#
# Velocity S-wave (km/s) = 3.30207 3.99307 3.66390
# Velocity P-wave (km/s) = 4.90451 6.77087 5.91181
#
# Compressibility (1/GPa) = 0.05225451
#
# Stress axis : x y z
#
# Youngs Moduli (GPa) = 33.88152 104.87645 75.33186
#
# Poissons Ratio (x) = 0.18856 -0.19749
# Poissons Ratio (y) = 0.06092 0.06467
# Poissons Ratio (z) = -0.08882 0.09004
#
# Static dielectric constant tensor:
#      x y z
#    x 3.413860 0.000000 -0.048890 
#    y 0.000000 4.085100 0.000000 
#    z -0.048890 0.000000 4.035810 
# 
# 
# High freq. dielectric constant tensor:
#      x y z
#    x 1.748280 0.000000 -0.014500 
#    y 0.000000 1.808050 0.000000 
#    z -0.014500 0.000000 1.801730 
# 
# From -- ./inp_files/197897.got.cif
#   From: 2010.06.25/outbox.cif.g09.slc.cpg/sg15_99_cif.got.tgz:197897.got - 2010.06.28 07:06:18.
