data_PCOD8131328
_publ_section_title
;
Structure prediction by ZEFSAII (Michael W. Deem and Ramdas Pophale) SiO2 
 PCOD8131328
Probable space group: C 2/C
;
_chemical_formula_sum "Si O2"
_cell_formula_units_Z 60
_cell_length_a 28.613725
_cell_length_b 6.960223
_cell_length_c 24.344699
_cell_angle_alpha 90.000000
_cell_angle_beta 137.008150
_cell_angle_gamma 90.000000
_cell_volume 3306.123228
_symmetry_space_group_name_H-M "C 2/C"
_symmetry_group_IT_number 15
_symmetry_cell_setting 'monoclinic'
loop_
_space_group_symop_operation_xyz
x,y,z
-x,y,1/2-z
-x,-y,-z
x,-y,1/2+z
1/2+x,1/2+y,z
1/2-x,1/2+y,1/2-z
1/2-x,1/2-y,-z
1/2+x,1/2-y,1/2+z
loop_
_atom_site_type_symbol
_atom_site_label
_atom_site_fract_x
_atom_site_fract_y
_atom_site_fract_z
Si Si1 0.788481 0.521156 0.707400
Si Si2 0.673465 0.267841 0.579918
Si Si3 0.052253 0.737151 0.398981
Si Si4 0.059702 0.447400 0.195504
Si Si5 0.404646 0.417851 0.423807
Si Si6 0.980590 0.066296 0.394570
Si Si7 0.500000 0.075371 0.250000
Si Si8 0.714633 0.880552 0.673608
O O1 0.736529 0.413248 0.620455
O O2 0.865375 0.472526 0.755419
O O3 0.775482 0.751667 0.698992
O O4 0.767776 0.433809 0.748853
O O5 0.629832 0.215007 0.487800
O O6 0.622676 0.374859 0.578794
O O7 0.704398 0.072405 0.630222
O O8 0.050040 0.707143 0.331031
O O9 0.000003 0.581878 0.382226
O O10 0.024316 0.948208 0.388072
O O11 0.055266 0.234949 0.169005
O O12 0.048937 0.446527 0.252670
O O13 0.422044 0.439470 0.374169
O O14 0.471048 0.353516 0.515443
O O15 0.353245 0.244883 0.387131
#
# Coordination Sequence:
#
# PCOD8131328 Si02
#       8
#     8   8   8   8   8   8   4   8
#     4  11  22  33  54  85 118 157 188 223 281 358
#     4  10  20  36  56  81 121 158 182 231 284 341
#     4   9  20  39  60  82 107 147 199 245 293 326
#     4  10  21  37  59  82 112 149 193 250 288 326
#     4   9  20  31  50  90 114 146 186 218 274 362
#     4  10  18  32  57  83 115 143 183 231 290 343
#     4   8  22  42  58  84 106 140 210 256 290 326
#     4  11  20  33  51  78 122 154 184 216 275 350
#
# _framework density 18.148145
#
# number of rings (size 3 to 8) (size 9 to 14) (size 15 to 20)
#    0.800    1.333    1.333    2.400    1.867    1.600 
#    0.000    6.000    0.000    0.800    0.000    0.000 
#    0.000    0.000    0.000    0.000    0.000    0.000 
#
# Total GULP energy -371794.253616 kJ/mol
# GULP energy per Si atom -12393.141787 kJ/mol
# Density = 1.810684 g / cm^3
# Si number density = 18.148145 Si / 1000 Ang^3
#
#
#
# Elastic Constant Matrix: (Units=GPa)
#
#
# Indices 1 2 3 4 5 6 
#
# 1 61.2503 27.2280 44.5959 -0.0005 2.9972 0.0014
# 2 27.2280 79.9795 35.1513 0.0006 0.7845 0.0061
# 3 44.5959 35.1513 99.1535 0.0001 -2.7961 -0.0003
# 4 -0.0005 0.0006 0.0001 32.4681 -0.0002 7.4343
# 5 2.9972 0.7845 -2.7961 -0.0002 28.2352 0.0003
# 6 0.0014 0.0061 -0.0003 7.4343 0.0003 17.0577
#
#
#
# Elastic Compliance Matrix: (Units=1/GPa)
#
#
# Indices 1 2 3 4 5 6 
#
# 1 0.025836 -0.004274 -0.010208 0.000001 -0.003635 -0.000001
# 2 -0.004274 0.015542 -0.003597 0.000001 -0.000334 -0.000006
# 3 -0.010208 -0.003597 0.016030 -0.000001 0.002771 0.000003
# 4 0.000001 0.000001 -0.000001 0.034214 0.000000 -0.014911
# 5 -0.003635 -0.000334 0.002771 0.000000 0.036086 0.000000
# 6 -0.000001 -0.000006 0.000003 -0.014911 0.000000 0.065123
#
#
# Mechanical properties :
#
#
# Convention : Reuss Voigt Hill
#
# Bulk Modulus (GPa) = 47.05601 50.48151 48.76876
# Shear Modulus (GPa) = 21.17990 24.44608 22.81299
#
# Velocity S-wave (km/s) = 3.41993 3.67417 3.54933
# Velocity P-wave (km/s) = 6.44823 6.77319 6.61271
#
# Compressibility (1/GPa) = 0.02125127
#
# Stress axis : x y z
#
# Youngs Moduli (GPa) = 38.70534 64.34008 62.38356
#
# Poissons Ratio (x) = 0.27497 0.63679
# Poissons Ratio (y) = 0.16541 0.22441
# Poissons Ratio (z) = 0.39509 0.23145
#
# Static dielectric constant tensor:
#      x y z
#    x 3.119230 -0.000010 0.176010 
#    y -0.000010 3.324920 0.000000 
#    z 0.176010 0.000000 3.379340 
# 
# 
# High freq. dielectric constant tensor:
#      x y z
#    x 1.673160 0.000000 0.022820 
#    y 0.000000 1.705150 0.000000 
#    z 0.022820 0.000000 1.699960 
# 
# From -- ./inp_files/284089.got.cif
#   From: 2010.06.25/outbox.cif.g09.slc.cpg/sg15_143_cif.got.tgz:284089.got - 2010.06.28 07:06:18.
