data_PCOD8131955
_publ_section_title
;
Structure prediction by ZEFSAII (Michael W. Deem and Ramdas Pophale) SiO2 
 PCOD8131955
Probable space group: C 2/C
;
_chemical_formula_sum "Si O2"
_cell_formula_units_Z 64
_cell_length_a 9.396335
_cell_length_b 19.973801
_cell_length_c 25.043578
_cell_angle_alpha 90.000000
_cell_angle_beta 136.211636
_cell_angle_gamma 90.000000
_cell_volume 3252.516704
_symmetry_space_group_name_H-M "C 2/C"
_symmetry_group_IT_number 15
_symmetry_cell_setting 'monoclinic'
loop_
_space_group_symop_operation_xyz
x,y,z
-x,y,1/2-z
-x,-y,-z
x,-y,1/2+z
1/2+x,1/2+y,z
1/2-x,1/2+y,1/2-z
1/2-x,1/2-y,-z
1/2+x,1/2-y,1/2+z
loop_
_atom_site_type_symbol
_atom_site_label
_atom_site_fract_x
_atom_site_fract_y
_atom_site_fract_z
Si Si1 0.801693 0.312652 0.778884
Si Si2 0.240996 0.572470 0.305916
Si Si3 0.412758 0.655402 0.564664
Si Si4 0.566311 0.202854 0.547034
Si Si5 0.726464 0.652277 0.086087
Si Si6 0.787201 0.263063 0.886036
Si Si7 0.903443 0.312810 0.323944
Si Si8 0.724212 0.923699 0.285690
O O1 0.685749 0.374372 0.719051
O O2 0.714033 0.307213 0.815653
O O3 0.759798 0.245900 0.732585
O O4 0.041851 0.325354 0.841953
O O5 0.340726 0.594153 0.390041
O O6 0.305755 0.499684 0.301248
O O7 0.000000 0.574520 0.250000
O O8 0.251387 0.662866 0.568847
O O9 0.305568 0.624570 0.482721
O O10 0.498382 0.729387 0.575001
O O11 0.605847 0.610027 0.631374
O O12 0.588544 0.282617 0.558753
O O13 0.352696 0.192198 0.455383
O O14 0.547491 0.173487 0.601048
O O15 0.615321 0.207467 0.851820
O O16 0.803021 0.382204 0.276389
O O17 0.500000 0.923793 0.250000
#
# Coordination Sequence:
#
# PCOD8131955 Si02
#       8
#     8   8   8   8   8   8   8   8
#     4  11  18  35  59  85 112 147 194 239 290 335
#     4   9  21  34  59  88 116 151 194 248 284 345
#     4  11  20  35  61  81 121 154 189 242 289 349
#     4  11  21  35  58  90 118 151 194 241 291 349
#     4  10  18  35  56  88 115 147 193 239 287 341
#     4  11  20  36  57  87 120 151 189 244 294 344
#     4  12  22  34  61  87 120 153 193 241 295 343
#     4  11  21  39  56  87 120 151 195 240 299 344
#
# _framework density 19.677068999999999
#
# number of rings (size 3 to 8) (size 9 to 14) (size 15 to 20)
#    0.000    1.250    6.250    1.500    0.000    2.000 
#    0.000    0.000    5.500    0.750    0.000    0.000 
#    0.000    0.000    0.000    0.000    0.000    0.000 
#
# Total GULP energy -396591.305378 kJ/mol
# GULP energy per Si atom -12393.478293 kJ/mol
# Density = 1.963228 g / cm^3
# Si number density = 19.677069 Si / 1000 Ang^3
#
#
#
# Elastic Constant Matrix: (Units=GPa)
#
#
# Indices 1 2 3 4 5 6 
#
# 1 58.2171 29.8203 35.7276 -0.0003 -18.7369 -0.0003
# 2 29.8203 113.6648 46.7744 -0.0001 -27.0163 -0.0002
# 3 35.7276 46.7744 117.3333 -0.0002 -31.7439 -0.0004
# 4 -0.0003 -0.0001 -0.0002 17.5507 -0.0003 -5.7869
# 5 -18.7369 -27.0163 -31.7439 -0.0003 42.6492 -0.0004
# 6 -0.0003 -0.0002 -0.0004 -5.7869 -0.0004 21.0280
#
#
#
# Elastic Compliance Matrix: (Units=1/GPa)
#
#
# Indices 1 2 3 4 5 6 
#
# 1 0.023058 -0.003046 -0.004493 0.000001 0.004856 0.000001
# 2 -0.003046 0.011643 -0.002605 0.000000 0.004098 0.000000
# 3 -0.004493 -0.002605 0.012457 0.000000 0.005648 0.000000
# 4 0.000001 0.000000 0.000000 0.062664 0.000001 0.017245
# 5 0.004856 0.004098 0.005648 0.000001 0.032380 0.000001
# 6 0.000001 0.000000 0.000000 0.017245 0.000001 0.052301
#
#
# Mechanical properties :
#
#
# Convention : Reuss Voigt Hill
#
# Bulk Modulus (GPa) = 37.21667 57.09553 47.15610
# Shear Modulus (GPa) = 22.34653 28.03844 25.19248
#
# Velocity S-wave (km/s) = 3.37362 3.77892 3.58200
# Velocity P-wave (km/s) = 5.84207 6.93683 6.41285
#
# Compressibility (1/GPa) = 0.02686968
#
# Stress axis : x y z
#
# Youngs Moduli (GPa) = 43.36969 85.88789 80.27381
#
# Poissons Ratio (x) = 0.26163 0.36066
# Poissons Ratio (y) = 0.13211 0.20913
# Poissons Ratio (z) = 0.19485 0.22376
#
# Static dielectric constant tensor:
#      x y z
#    x 3.388460 0.000000 -0.258430 
#    y 0.000000 3.645930 0.000000 
#    z -0.258430 0.000000 4.144970 
# 
# 
# High freq. dielectric constant tensor:
#      x y z
#    x 1.747900 0.000000 -0.008470 
#    y 0.000000 1.726060 0.000000 
#    z -0.008470 0.000000 1.792340 
# 
# From -- ./inp_files/266118.got.cif
#   From: 2010.06.25/outbox.cif.g09.slc.cpg/sg15_134_cif.got.tgz:266118.got - 2010.06.28 07:06:18.
