data_PCOD8131833
_publ_section_title
;
Structure prediction by ZEFSAII (Michael W. Deem and Ramdas Pophale) SiO2 
 PCOD8131833
Probable space group: C 2/C
;
_chemical_formula_sum "Si O2"
_cell_formula_units_Z 52
_cell_length_a 16.817302
_cell_length_b 13.625250
_cell_length_c 13.786814
_cell_angle_alpha 90.000000
_cell_angle_beta 48.860245
_cell_angle_gamma 90.000000
_cell_volume 2379.147972
_symmetry_space_group_name_H-M "C 2/C"
_symmetry_group_IT_number 15
_symmetry_cell_setting 'monoclinic'
loop_
_space_group_symop_operation_xyz
x,y,z
-x,y,1/2-z
-x,-y,-z
x,-y,1/2+z
1/2+x,1/2+y,z
1/2-x,1/2+y,1/2-z
1/2-x,1/2-y,-z
1/2+x,1/2-y,1/2+z
loop_
_atom_site_type_symbol
_atom_site_label
_atom_site_fract_x
_atom_site_fract_y
_atom_site_fract_z
Si Si1 0.069035 0.133520 0.389298
Si Si2 0.000000 0.268988 0.750000
Si Si3 0.660359 0.397993 0.127271
Si Si4 0.602325 0.916800 0.543647
Si Si5 0.500000 0.549916 0.250000
Si Si6 0.644707 0.430103 0.362245
Si Si7 0.000000 0.579975 0.750000
Si Si8 0.136016 0.346746 0.309327
O O1 0.132451 0.235337 0.353834
O O2 0.055542 0.117137 0.285328
O O3 0.951850 0.138840 0.528035
O O4 0.130627 0.046653 0.398510
O O5 0.892287 0.208196 0.836328
O O6 0.987450 0.338072 0.854405
O O7 0.589972 0.479788 0.125656
O O8 0.651112 0.434973 0.242970
O O9 0.783210 0.390747 0.000911
O O10 0.603760 0.919400 0.424684
O O11 0.572665 0.019218 0.617168
O O12 0.749263 0.379822 0.321196
O O13 0.934505 0.648257 0.729917
#
# Coordination Sequence:
#
# PCOD8131833 Si02
#       8
#     8   4   8   8   4   8   4   8
#     4  10  20  41  64  93 124 163 213 259 308 376
#     4  10  18  34  60  94 120 164 206 256 316 376
#     4   9  18  35  57  87 124 159 205 257 312 370
#     4  10  22  39  59  89 126 163 207 263 316 371
#     4   9  19  33  59  86 122 156 206 258 298 370
#     4   9  21  40  63  92 126 166 211 258 315 362
#     4  11  25  43  61  88 130 170 210 258 322 376
#     4  11  23  44  64  93 125 168 211 261 317 380
#
# _framework density 21.856563999999999
#
# number of rings (size 3 to 8) (size 9 to 14) (size 15 to 20)
#    0.000    2.154    0.000    2.308    2.154    1.231 
#   22.154    1.538    0.000    0.000    0.000    0.000 
#    0.000    0.000    0.000    0.000    0.000    0.000 
#
# Total GULP energy -322147.176508 kJ/mol
# GULP energy per Si atom -12390.276020 kJ/mol
# Density = 2.180682 g / cm^3
# Si number density = 21.856564 Si / 1000 Ang^3
#
#
#
# Elastic Constant Matrix: (Units=GPa)
#
#
# Indices 1 2 3 4 5 6 
#
# 1 86.3766 28.0196 22.6463 0.0000 -12.3068 0.0000
# 2 28.0196 102.6442 37.2786 0.0000 -20.9968 0.0000
# 3 22.6463 37.2786 89.5789 0.0000 -18.2624 0.0000
# 4 0.0000 0.0000 0.0000 24.6416 0.0000 -3.1448
# 5 -12.3068 -20.9968 -18.2624 0.0000 30.5701 0.0000
# 6 0.0000 0.0000 0.0000 -3.1448 0.0000 26.7603
#
#
#
# Elastic Compliance Matrix: (Units=1/GPa)
#
#
# Indices 1 2 3 4 5 6 
#
# 1 0.013203 -0.002422 -0.001805 0.000000 0.002573 0.000000
# 2 -0.002422 0.012875 -0.003577 0.000000 0.005731 0.000000
# 3 -0.001805 -0.003577 0.014187 0.000000 0.005292 0.000000
# 4 0.000000 0.000000 0.000000 0.041200 0.000000 0.004842
# 5 0.002573 0.005731 0.005292 0.000000 0.040845 0.000000
# 6 0.000000 0.000000 0.000000 0.004842 0.000000 0.037938
#
#
# Mechanical properties :
#
#
# Convention : Reuss Voigt Hill
#
# Bulk Modulus (GPa) = 40.55833 50.49874 45.52853
# Shear Modulus (GPa) = 27.16275 29.10474 28.13375
#
# Velocity S-wave (km/s) = 3.52912 3.65310 3.59165
# Velocity P-wave (km/s) = 5.93322 6.39909 6.17055
#
# Compressibility (1/GPa) = 0.02465585
#
# Stress axis : x y z
#
# Youngs Moduli (GPa) = 75.74135 77.66916 70.48590
#
# Poissons Ratio (x) = 0.18812 0.12724
# Poissons Ratio (y) = 0.18345 0.25215
# Poissons Ratio (z) = 0.13673 0.27785
#
# Static dielectric constant tensor:
#      x y z
#    x 4.191260 0.000000 -0.467250 
#    y 0.000000 3.827800 0.000000 
#    z -0.467250 0.000000 4.289420 
# 
# 
# High freq. dielectric constant tensor:
#      x y z
#    x 1.848300 0.000000 0.000780 
#    y 0.000000 1.849150 0.000000 
#    z 0.000780 0.000000 1.862830 
# 
# From -- ./inp_files/105493.got.cif
#   From: 2010.06.25/outbox.cif.g09.slc.cpg/sg15_53_cif.got.tgz:105493.got - 2010.06.28 07:06:18.
