data_PCOD8131976
_publ_section_title
;
Structure prediction by ZEFSAII (Michael W. Deem and Ramdas Pophale) SiO2 
 PCOD8131976
Probable space group: C 2/C
;
_chemical_formula_sum "Si O2"
_cell_formula_units_Z 52
_cell_length_a 10.646008
_cell_length_b 28.473068
_cell_length_c 9.513639
_cell_angle_alpha 90.000000
_cell_angle_beta 63.692151
_cell_angle_gamma 90.000000
_cell_volume 2585.127887
_symmetry_space_group_name_H-M "C 2/C"
_symmetry_group_IT_number 15
_symmetry_cell_setting 'monoclinic'
loop_
_space_group_symop_operation_xyz
x,y,z
-x,y,1/2-z
-x,-y,-z
x,-y,1/2+z
1/2+x,1/2+y,z
1/2-x,1/2+y,1/2-z
1/2-x,1/2-y,-z
1/2+x,1/2-y,1/2+z
loop_
_atom_site_type_symbol
_atom_site_label
_atom_site_fract_x
_atom_site_fract_y
_atom_site_fract_z
Si Si1 0.336606 0.447037 0.839691
Si Si2 0.000000 0.767783 0.750000
Si Si3 0.357928 0.521666 0.623641
Si Si4 0.000000 0.093830 0.750000
Si Si5 0.000000 0.759159 0.250000
Si Si6 0.769612 0.839982 0.818136
Si Si7 0.294184 0.667415 0.975924
Si Si8 0.489389 0.802901 0.006218
O O1 0.500000 0.459557 0.750000
O O2 0.268514 0.482102 0.755083
O O3 0.318832 0.392988 0.812858
O O4 0.275277 0.459610 0.025739
O O5 0.870377 0.802723 0.847926
O O6 0.957316 0.733548 0.645222
O O7 0.500000 0.500000 0.500000
O O8 0.394194 0.564983 0.706104
O O9 0.104685 0.123564 0.600827
O O10 0.130387 0.787084 0.123130
O O11 0.055996 0.726699 0.346021
O O12 0.767315 0.828138 0.654106
O O13 0.619061 0.837896 0.971820
O O14 0.145612 0.665726 0.967977
#
# Coordination Sequence:
#
# PCOD8131976 Si02
#       8
#     8   4   8   4   4   8   8   8
#     4  10  20  34  59  88 121 147 198 249 306 351
#     4  12  26  39  60  91 126 161 212 257 300 346
#     4  10  18  35  57  91 117 151 190 255 306 360
#     4  11  22  33  64  94 120 148 202 259 308 353
#     4  11  20  40  62  83 116 161 214 254 290 349
#     4  12  23  39  63  91 125 162 207 254 303 364
#     4  11  23  38  63  91 117 161 212 253 297 368
#     4  12  24  42  60  86 125 168 202 251 309 360
#
# _framework density 20.115058999999999
#
# number of rings (size 3 to 8) (size 9 to 14) (size 15 to 20)
#    0.000    0.923    6.154    3.692    0.000    1.231 
#    0.000    0.000    0.000    0.923    4.000    0.000 
#    0.000    0.000    0.000    0.000    0.000    0.000 
#
# Total GULP energy -322203.011597 kJ/mol
# GULP energy per Si atom -12392.423523 kJ/mol
# Density = 2.006928 g / cm^3
# Si number density = 20.115059 Si / 1000 Ang^3
#
#
#
# Elastic Constant Matrix: (Units=GPa)
#
#
# Indices 1 2 3 4 5 6 
#
# 1 62.5789 9.3692 17.6428 0.0000 -2.8607 0.0000
# 2 9.3692 84.6867 35.5664 0.0000 6.4717 0.0000
# 3 17.6428 35.5664 73.7514 0.0000 14.7099 0.0000
# 4 0.0000 0.0000 0.0000 23.2748 0.0000 11.8378
# 5 -2.8607 6.4717 14.7099 0.0000 35.1680 0.0000
# 6 0.0000 0.0000 0.0000 11.8378 0.0000 14.8469
#
#
#
# Elastic Compliance Matrix: (Units=1/GPa)
#
#
# Indices 1 2 3 4 5 6 
#
# 1 0.017517 -0.000191 -0.004789 0.000000 0.003463 0.000000
# 2 -0.000191 0.014812 -0.007147 0.000000 0.000248 0.000000
# 3 -0.004789 -0.007147 0.019602 0.000000 -0.007273 0.000000
# 4 0.000000 0.000000 0.000000 0.072274 0.000000 -0.057625
# 5 0.003463 0.000248 -0.007273 0.000000 0.031713 0.000000
# 6 0.000000 0.000000 0.000000 -0.057625 0.000000 0.113300
#
#
# Mechanical properties :
#
#
# Convention : Reuss Voigt Hill
#
# Bulk Modulus (GPa) = 36.13137 38.46376 37.29756
# Shear Modulus (GPa) = 16.51818 25.22052 20.86935
#
# Velocity S-wave (km/s) = 2.86874 3.54476 3.22452
# Velocity P-wave (km/s) = 5.38277 5.99309 5.69611
#
# Compressibility (1/GPa) = 0.02767678
#
# Stress axis : x y z
#
# Youngs Moduli (GPa) = 57.08769 67.51341 51.01581
#
# Poissons Ratio (x) = 0.01292 0.24431
# Poissons Ratio (y) = 0.01093 0.36459
# Poissons Ratio (z) = 0.27338 0.48249
#
# Static dielectric constant tensor:
#      x y z
#    x 3.541080 0.000000 0.362150 
#    y 0.000000 3.132000 0.000000 
#    z 0.362150 0.000000 4.046190 
# 
# 
# High freq. dielectric constant tensor:
#      x y z
#    x 1.753850 0.000000 0.018880 
#    y 0.000000 1.793710 0.000000 
#    z 0.018880 0.000000 1.791180 
# 
# From -- ./inp_files/35130.got.cif
#   From: 2010.06.25/outbox.cif.g09.slc.cpg/sg15_18_cif.got.tgz:35130.got - 2010.06.28 07:06:18.
