data_PCOD8131755
_publ_section_title
;
Structure prediction by ZEFSAII (Michael W. Deem and Ramdas Pophale) SiO2 
 PCOD8131755
Probable space group: C 2/C
;
_chemical_formula_sum "Si O2"
_cell_formula_units_Z 40
_cell_length_a 11.628651
_cell_length_b 9.688134
_cell_length_c 22.337609
_cell_angle_alpha 90.000000
_cell_angle_beta 129.200432
_cell_angle_gamma 90.000000
_cell_volume 1950.177232
_symmetry_space_group_name_H-M "C 2/C"
_symmetry_group_IT_number 15
_symmetry_cell_setting 'monoclinic'
loop_
_space_group_symop_operation_xyz
x,y,z
-x,y,1/2-z
-x,-y,-z
x,-y,1/2+z
1/2+x,1/2+y,z
1/2-x,1/2+y,1/2-z
1/2-x,1/2-y,-z
1/2+x,1/2-y,1/2+z
loop_
_atom_site_type_symbol
_atom_site_label
_atom_site_fract_x
_atom_site_fract_y
_atom_site_fract_z
Si Si1 0.937228 0.586956 0.295116
Si Si2 0.644630 0.420943 0.927678
Si Si3 0.338521 0.873839 0.103727
Si Si4 0.825289 0.223444 0.588021
Si Si5 0.181030 0.919084 0.634329
O O1 0.758965 0.591844 0.226501
O O2 0.000000 0.613181 0.250000
O O3 0.995557 0.438691 0.338221
O O4 0.008837 0.708937 0.359058
O O5 0.650910 0.291236 0.884331
O O6 0.659956 0.560359 0.894240
O O7 0.493824 0.420718 0.916076
O O8 0.778917 0.411321 0.018464
O O9 0.233486 0.938299 0.120297
O O10 0.750000 0.250000 0.500000
O O11 0.723745 0.290169 0.606121
#
# Coordination Sequence:
#
# PCOD8131755 Si02
#       5
#     8   8   8   8   8
#     4   8  17  36  54  76 115 146 170 226 276 315
#     4  11  20  34  59  82 105 143 186 223 266 325
#     4   9  19  35  54  81 111 136 181 228 265 318
#     4  10  18  34  58  82 107 142 186 225 265 320
#     4  10  21  38  57  77 114 149 175 219 284 319
#
# _framework density 20.510954999999999
#
# number of rings (size 3 to 8) (size 9 to 14) (size 15 to 20)
#    0.000    2.800    4.000    0.600    0.000    1.600 
#    0.000   17.000    0.000    0.000    0.000    0.000 
#    0.000    0.000    0.000    0.000    0.000    0.000 
#
# Total GULP energy -247819.499073 kJ/mol
# GULP energy per Si atom -12390.974954 kJ/mol
# Density = 2.046427 g / cm^3
# Si number density = 20.510955 Si / 1000 Ang^3
#
#
#
# Elastic Constant Matrix: (Units=GPa)
#
#
# Indices 1 2 3 4 5 6 
#
# 1 61.5782 38.0384 8.2954 0.0000 1.5516 0.0000
# 2 38.0384 205.4494 49.4126 0.0000 -3.1738 0.0000
# 3 8.2954 49.4126 122.4488 0.0000 9.9711 0.0000
# 4 0.0000 0.0000 0.0000 36.6312 0.0000 -5.3049
# 5 1.5516 -3.1738 9.9711 0.0000 12.0416 0.0000
# 6 0.0000 0.0000 0.0000 -5.3049 0.0000 16.8635
#
#
#
# Elastic Compliance Matrix: (Units=1/GPa)
#
#
# Indices 1 2 3 4 5 6 
#
# 1 0.018492 -0.003604 0.000507 0.000000 -0.003752 0.000000
# 2 -0.003604 0.006230 -0.002618 0.000000 0.004274 0.000000
# 3 0.000507 -0.002618 0.009919 0.000000 -0.008969 0.000000
# 4 0.000000 0.000000 0.000000 0.028602 0.000000 0.008998
# 5 -0.003752 0.004274 -0.008969 0.000000 0.092083 0.000000
# 6 0.000000 0.000000 0.000000 0.008998 0.000000 0.062130
#
#
# Mechanical properties :
#
#
# Convention : Reuss Voigt Hill
#
# Bulk Modulus (GPa) = 43.08135 64.55212 53.81674
# Shear Modulus (GPa) = 21.13066 32.68926 26.90996
#
# Velocity S-wave (km/s) = 3.21318 3.99651 3.62606
# Velocity P-wave (km/s) = 5.90048 7.26887 6.62012
#
# Compressibility (1/GPa) = 0.02321190
#
# Stress axis : x y z
#
# Youngs Moduli (GPa) = 54.07798 160.50636 100.81472
#
# Poissons Ratio (x) = 0.57840 -0.05111
# Poissons Ratio (y) = 0.19488 0.26394
# Poissons Ratio (z) = -0.02742 0.42022
#
# Static dielectric constant tensor:
#      x y z
#    x 3.296420 0.000000 0.586920 
#    y 0.000000 4.154620 0.000000 
#    z 0.586920 0.000000 4.676770 
# 
# 
# High freq. dielectric constant tensor:
#      x y z
#    x 1.745640 0.000000 0.026260 
#    y 0.000000 1.808780 0.000000 
#    z 0.026260 0.000000 1.819250 
# 
# From -- ./inp_files/241896.got.cif
#   From: 2010.06.25/outbox.cif.g09.slc.cpg/sg15_121_cif.got.tgz:241896.got - 2010.06.28 07:06:18.
