data_PCOD8131505
_publ_section_title
;
Structure prediction by ZEFSAII (Michael W. Deem and Ramdas Pophale) SiO2 
 PCOD8131505
Probable space group: C 2/C
;
_chemical_formula_sum "Si O2"
_cell_formula_units_Z 48
_cell_length_a 9.997492
_cell_length_b 14.477668
_cell_length_c 20.680107
_cell_angle_alpha 90.000000
_cell_angle_beta 62.444725
_cell_angle_gamma 90.000000
_cell_volume 2653.707313
_symmetry_space_group_name_H-M "C 2/C"
_symmetry_group_IT_number 15
_symmetry_cell_setting 'monoclinic'
loop_
_space_group_symop_operation_xyz
x,y,z
-x,y,1/2-z
-x,-y,-z
x,-y,1/2+z
1/2+x,1/2+y,z
1/2-x,1/2+y,1/2-z
1/2-x,1/2-y,-z
1/2+x,1/2-y,1/2+z
loop_
_atom_site_type_symbol
_atom_site_label
_atom_site_fract_x
_atom_site_fract_y
_atom_site_fract_z
Si Si1 0.680755 0.781411 0.827063
Si Si2 0.157135 0.531759 0.144466
Si Si3 0.772847 0.674931 0.682656
Si Si4 0.082736 0.337645 0.162930
Si Si5 0.666653 0.780644 0.582449
Si Si6 0.304874 0.028535 0.222914
O O1 0.681010 0.725668 0.759671
O O2 0.788564 0.737333 0.856811
O O3 0.511508 0.781023 0.891853
O O4 0.757010 0.882381 0.801226
O O5 0.163975 0.427969 0.113287
O O6 0.224732 0.615415 0.086641
O O7 0.252577 0.527528 0.190151
O O8 0.980805 0.551952 0.190879
O O9 0.705537 0.707258 0.629906
O O10 0.758395 0.563874 0.694841
O O11 0.951251 0.700835 0.645773
O O12 0.000000 0.366790 0.250000
O O13 0.750000 0.750000 0.500000
#
# Coordination Sequence:
#
# PCOD8131505 Si02
#       6
#     8   8   8   8   8   8
#     4  10  18  33  56  80 104 137 177 223 264 303
#     4   9  14  30  52  72 103 136 173 207 262 321
#     4  10  18  33  57  80 102 129 179 224 259 308
#     4   9  16  31  55  81  98 125 179 230 266 304
#     4  11  23  35  50  78 113 147 175 207 258 320
#     4   9  15  28  53  82  98 131 175 218 264 309
#
# _framework density 18.087902
#
# number of rings (size 3 to 8) (size 9 to 14) (size 15 to 20)
#    0.000    2.333    6.667    0.500    0.000    0.000 
#    0.000   15.833    0.000    0.000    0.000    0.000 
#    0.000    0.000    0.000    0.000    0.000    0.000 
#
# Total GULP energy -297316.337525 kJ/mol
# GULP energy per Si atom -12388.180730 kJ/mol
# Density = 1.804673 g / cm^3
# Si number density = 18.087902 Si / 1000 Ang^3
#
#
#
# Elastic Constant Matrix: (Units=GPa)
#
#
# Indices 1 2 3 4 5 6 
#
# 1 63.0633 30.5269 10.3140 0.0000 -3.2680 0.0000
# 2 30.5269 113.8616 14.1457 0.0000 -3.7623 0.0000
# 3 10.3140 14.1457 42.5016 0.0000 -6.3307 0.0000
# 4 0.0000 0.0000 0.0000 16.5923 0.0000 3.0971
# 5 -3.2680 -3.7623 -6.3307 0.0000 12.8451 0.0000
# 6 0.0000 0.0000 0.0000 3.0971 0.0000 29.1205
#
#
#
# Elastic Compliance Matrix: (Units=1/GPa)
#
#
# Indices 1 2 3 4 5 6 
#
# 1 0.018626 -0.004592 -0.002683 0.000000 0.002071 0.000000
# 2 -0.004592 0.010313 -0.002204 0.000000 0.000766 0.000000
# 3 -0.002683 -0.002204 0.026673 0.000000 0.011818 0.000000
# 4 0.000000 0.000000 0.000000 0.061490 0.000000 -0.006540
# 5 0.002071 0.000766 0.011818 0.000000 0.084427 0.000000
# 6 0.000000 0.000000 0.000000 -0.006540 0.000000 0.035036
#
#
# Mechanical properties :
#
#
# Convention : Reuss Voigt Hill
#
# Bulk Modulus (GPa) = 27.28194 36.59996 31.94095
# Shear Modulus (GPa) = 18.67480 22.67425 20.67453
#
# Velocity S-wave (km/s) = 3.21666 3.54440 3.38450
# Velocity P-wave (km/s) = 5.37695 6.08513 5.74197
#
# Compressibility (1/GPa) = 0.03665428
#
# Stress axis : x y z
#
# Youngs Moduli (GPa) = 53.68816 96.96647 37.49043
#
# Poissons Ratio (x) = 0.44527 0.10059
# Poissons Ratio (y) = 0.24653 0.08263
# Poissons Ratio (z) = 0.14405 0.21371
#
# Static dielectric constant tensor:
#      x y z
#    x 3.260070 0.000000 0.071850 
#    y 0.000000 3.688250 0.000000 
#    z 0.071850 0.000000 2.819170 
# 
# 
# High freq. dielectric constant tensor:
#      x y z
#    x 1.688310 0.000000 0.008120 
#    y 0.000000 1.722330 0.000000 
#    z 0.008120 0.000000 1.635950 
# 
# From -- ./inp_files/237977.got.cif
#   From: 2010.06.25/outbox.cif.g09.slc.cpg/sg15_119_cif.got.tgz:237977.got - 2010.06.28 07:06:18.
