data_PCOD8131993
_publ_section_title
;
Structure prediction by ZEFSAII (Michael W. Deem and Ramdas Pophale) SiO2 
 PCOD8131993
Probable space group: C 2/C
;
_chemical_formula_sum "Si O2"
_cell_formula_units_Z 44
_cell_length_a 26.527724
_cell_length_b 12.504097
_cell_length_c 8.327158
_cell_angle_alpha 90.000000
_cell_angle_beta 137.845304
_cell_angle_gamma 90.000000
_cell_volume 1853.782479
_symmetry_space_group_name_H-M "C 2/C"
_symmetry_group_IT_number 15
_symmetry_cell_setting 'monoclinic'
loop_
_space_group_symop_operation_xyz
x,y,z
-x,y,1/2-z
-x,-y,-z
x,-y,1/2+z
1/2+x,1/2+y,z
1/2-x,1/2+y,1/2-z
1/2-x,1/2-y,-z
1/2+x,1/2-y,1/2+z
loop_
_atom_site_type_symbol
_atom_site_label
_atom_site_fract_x
_atom_site_fract_y
_atom_site_fract_z
Si Si1 0.649519 0.588497 0.198140
Si Si2 0.271778 0.782498 0.811304
Si Si3 0.000000 0.484546 0.750000
Si Si4 0.893731 0.417175 0.243319
Si Si5 0.053414 0.055279 0.249105
Si Si6 0.732431 0.087589 0.520556
O O1 0.697427 0.684387 0.234608
O O2 0.610014 0.627138 0.273573
O O3 0.701955 0.491065 0.376427
O O4 0.592326 0.543392 0.932464
O O5 0.285260 0.842408 0.676117
O O6 0.260524 0.657629 0.740999
O O7 0.344738 0.810149 0.093160
O O8 0.936431 0.409475 0.515816
O O9 0.960343 0.567409 0.775137
O O10 0.841105 0.522027 0.104700
O O11 0.000000 0.121637 0.250000
O O12 0.000000 0.000000 0.000000
#
# Coordination Sequence:
#
# PCOD8131993 Si02
#       6
#     8   8   4   8   8   8
#     4  10  18  35  58  86 116 162 201 262 311 361
#     4  10  20  35  61  90 122 158 214 261 314 376
#     4  10  20  36  64  82 132 160 212 250 326 390
#     4  10  20  38  62  93 117 173 201 271 318 378
#     4   9  18  32  56  79 113 158 202 238 304 380
#     4  10  20  35  61  90 122 155 214 264 316 376
#
# _framework density 23.735254000000001
#
# number of rings (size 3 to 8) (size 9 to 14) (size 15 to 20)
#    0.000    2.182    3.636    0.000    0.000    0.000 
#    0.000    3.636   20.000    0.000    0.000    0.000 
#    0.000    0.000    0.000    0.000    0.000    0.000 
#
# Total GULP energy -272566.303300 kJ/mol
# GULP energy per Si atom -12389.377423 kJ/mol
# Density = 2.368123 g / cm^3
# Si number density = 23.735254 Si / 1000 Ang^3
#
#
#
# Elastic Constant Matrix: (Units=GPa)
#
#
# Indices 1 2 3 4 5 6 
#
# 1 169.5158 27.0149 10.8597 0.0000 5.9277 0.0000
# 2 27.0149 73.4280 31.0876 0.0000 -0.0383 0.0000
# 3 10.8597 31.0876 158.2268 0.0000 1.2288 0.0000
# 4 0.0000 0.0000 0.0000 26.6630 0.0000 -12.2848
# 5 5.9277 -0.0383 1.2288 0.0000 31.8180 0.0000
# 6 0.0000 0.0000 0.0000 -12.2848 0.0000 14.2197
#
#
#
# Elastic Compliance Matrix: (Units=1/GPa)
#
#
# Indices 1 2 3 4 5 6 
#
# 1 0.006311 -0.002337 0.000035 0.000000 -0.001180 0.000000
# 2 -0.002337 0.015721 -0.002933 0.000000 0.000568 0.000000
# 3 0.000035 -0.002933 0.006896 0.000000 -0.000276 0.000000
# 4 0.000000 0.000000 0.000000 0.062306 0.000000 0.053828
# 5 -0.001180 0.000568 -0.000276 0.000000 0.031660 0.000000
# 6 0.000000 0.000000 0.000000 0.053828 0.000000 0.116828
#
#
# Mechanical properties :
#
#
# Convention : Reuss Voigt Hill
#
# Bulk Modulus (GPa) = 54.17774 59.89946 57.03860
# Shear Modulus (GPa) = 19.50507 36.68735 28.09621
#
# Velocity S-wave (km/s) = 2.86977 3.93579 3.44427
# Velocity P-wave (km/s) = 5.81861 6.77829 6.31670
#
# Compressibility (1/GPa) = 0.01845777
#
# Stress axis : x y z
#
# Youngs Moduli (GPa) = 158.46260 63.61072 145.01222
#
# Poissons Ratio (x) = 0.14868 -0.00511
# Poissons Ratio (y) = 0.37037 0.42528
# Poissons Ratio (z) = -0.00559 0.18655
#
# Static dielectric constant tensor:
#      x y z
#    x 3.750060 0.000000 -0.507560 
#    y 0.000000 3.718790 0.000000 
#    z -0.507560 0.000000 4.502970 
# 
# 
# High freq. dielectric constant tensor:
#      x y z
#    x 1.964590 0.000000 -0.003790 
#    y 0.000000 1.894680 0.000000 
#    z -0.003790 0.000000 1.961780 
# 
# From -- ./inp_files/47138.got.cif
#   From: 2010.06.25/outbox.cif.g09.slc.cpg/sg15_24_cif.got.tgz:47138.got - 2010.06.28 07:06:18.
