data_PCOD8131620
_publ_section_title
;
Structure prediction by ZEFSAII (Michael W. Deem and Ramdas Pophale) SiO2 
 PCOD8131620
Probable space group: C 2/C
;
_chemical_formula_sum "Si O2"
_cell_formula_units_Z 56
_cell_length_a 9.292154
_cell_length_b 19.287355
_cell_length_c 16.976999
_cell_angle_alpha 90.000000
_cell_angle_beta 108.577417
_cell_angle_gamma 90.000000
_cell_volume 2884.096548
_symmetry_space_group_name_H-M "C 2/C"
_symmetry_group_IT_number 15
_symmetry_cell_setting 'monoclinic'
loop_
_space_group_symop_operation_xyz
x,y,z
-x,y,1/2-z
-x,-y,-z
x,-y,1/2+z
1/2+x,1/2+y,z
1/2-x,1/2+y,1/2-z
1/2-x,1/2-y,-z
1/2+x,1/2-y,1/2+z
loop_
_atom_site_type_symbol
_atom_site_label
_atom_site_fract_x
_atom_site_fract_y
_atom_site_fract_z
Si Si1 0.647467 0.811634 0.073767
Si Si2 0.282626 0.061582 0.141863
Si Si3 0.341836 0.114872 0.766844
Si Si4 0.112898 0.166038 0.009325
Si Si5 0.082443 0.426071 0.508785
Si Si6 0.319185 0.583146 0.912020
Si Si7 0.366392 0.037147 0.321666
O O1 0.667798 0.823538 0.171110
O O2 0.568332 0.737077 0.045907
O O3 0.813252 0.815355 0.062115
O O4 0.545187 0.867927 0.012319
O O5 0.235276 0.129204 0.086724
O O6 0.286236 0.078001 0.236071
O O7 0.450744 0.037409 0.148213
O O8 0.164467 0.998830 0.103334
O O9 0.500000 0.113282 0.750000
O O10 0.217226 0.123585 0.676014
O O11 0.317205 0.043455 0.810739
O O12 0.970494 0.115760 0.973751
O O13 0.184387 0.409881 0.451389
O O14 0.185459 0.424795 0.606540
O O15 0.000000 0.500000 0.500000
#
# Coordination Sequence:
#
# PCOD8131620 Si02
#       7
#     8   8   8   8   8   8   8
#     4  11  23  40  61  82 127 163 201 246 304 383
#     4  10  18  37  59  87 119 157 195 256 294 358
#     4  11  18  39  64  92 112 153 210 259 293 351
#     4  11  25  41  54  91 129 163 193 245 325 365
#     4  12  18  36  66  92 108 157 209 251 295 357
#     4  11  22  37  66  91 118 153 208 258 301 359
#     4  10  18  33  65  92 109 150 215 245 291 356
#
# _framework density 19.416826
#
# number of rings (size 3 to 8) (size 9 to 14) (size 15 to 20)
#    0.000    1.143    8.571    0.429    0.000    1.143 
#    2.571    0.714    0.000    0.000    0.000    0.000 
#    0.000    0.000    0.000    0.000    0.000    0.000 
#
# Total GULP energy -347055.743170 kJ/mol
# GULP energy per Si atom -12394.847970 kJ/mol
# Density = 1.937263 g / cm^3
# Si number density = 19.416826 Si / 1000 Ang^3
#
#
#
# Elastic Constant Matrix: (Units=GPa)
#
#
# Indices 1 2 3 4 5 6 
#
# 1 48.3297 26.7590 30.8924 0.0000 0.6369 0.0000
# 2 26.7590 93.1797 52.2370 0.0000 3.5780 0.0000
# 3 30.8924 52.2370 144.8939 0.0000 -16.4104 0.0000
# 4 0.0000 0.0000 0.0000 23.3261 0.0000 -3.0979
# 5 0.6369 3.5780 -16.4104 0.0000 30.8309 0.0000
# 6 0.0000 0.0000 0.0000 -3.0979 0.0000 18.7131
#
#
#
# Elastic Compliance Matrix: (Units=1/GPa)
#
#
# Indices 1 2 3 4 5 6 
#
# 1 0.026113 -0.005230 -0.003910 0.000000 -0.002014 0.000000
# 2 -0.005230 0.015085 -0.004799 0.000000 -0.004197 0.000000
# 3 -0.003910 -0.004799 0.010149 0.000000 0.006040 0.000000
# 4 0.000000 0.000000 0.000000 0.043834 0.000000 0.007257
# 5 -0.002014 -0.004197 0.006040 0.000000 0.036178 0.000000
# 6 0.000000 0.000000 0.000000 0.007257 0.000000 0.054640
#
#
# Mechanical properties :
#
#
# Convention : Reuss Voigt Hill
#
# Bulk Modulus (GPa) = 42.60734 56.24224 49.42479
# Shear Modulus (GPa) = 22.55300 26.34169 24.44734
#
# Velocity S-wave (km/s) = 3.41180 3.68726 3.55220
# Velocity P-wave (km/s) = 6.12468 6.86705 6.50646
#
# Compressibility (1/GPa) = 0.02347013
#
# Stress axis : x y z
#
# Youngs Moduli (GPa) = 38.29574 66.29028 98.52793
#
# Poissons Ratio (x) = 0.34667 0.38525
# Poissons Ratio (y) = 0.20027 0.47282
# Poissons Ratio (z) = 0.14974 0.31812
#
# Static dielectric constant tensor:
#      x y z
#    x 3.230230 0.000000 -0.289630 
#    y 0.000000 3.409530 0.000000 
#    z -0.289630 0.000000 4.457940 
# 
# 
# High freq. dielectric constant tensor:
#      x y z
#    x 1.723780 0.000000 -0.011360 
#    y 0.000000 1.735560 0.000000 
#    z -0.011360 0.000000 1.781370 
# 
# From -- ./inp_files/191058.got.cif
#   From: 2010.06.25/outbox.cif.g09.slc.cpg/sg15_96_cif.got.tgz:191058.got - 2010.06.28 07:06:18.
