data_PCOD8131498
_publ_section_title
;
Structure prediction by ZEFSAII (Michael W. Deem and Ramdas Pophale) SiO2 
 PCOD8131498
Probable space group: C 2/C
;
_chemical_formula_sum "Si O2"
_cell_formula_units_Z 52
_cell_length_a 20.007480
_cell_length_b 9.191814
_cell_length_c 15.097150
_cell_angle_alpha 90.000000
_cell_angle_beta 97.568746
_cell_angle_gamma 90.000000
_cell_volume 2752.252247
_symmetry_space_group_name_H-M "C 2/C"
_symmetry_group_IT_number 15
_symmetry_cell_setting 'monoclinic'
loop_
_space_group_symop_operation_xyz
x,y,z
-x,y,1/2-z
-x,-y,-z
x,-y,1/2+z
1/2+x,1/2+y,z
1/2-x,1/2+y,1/2-z
1/2-x,1/2-y,-z
1/2+x,1/2-y,1/2+z
loop_
_atom_site_type_symbol
_atom_site_label
_atom_site_fract_x
_atom_site_fract_y
_atom_site_fract_z
Si Si1 0.112476 0.699247 0.841710
Si Si2 0.656105 0.492484 0.301356
Si Si3 0.157898 0.278185 0.536253
Si Si4 0.262280 0.488418 0.510313
Si Si5 0.500000 0.002582 0.750000
Si Si6 0.888376 0.284032 0.783497
Si Si7 0.225778 0.469929 0.819210
O O1 0.179366 0.612093 0.825264
O O2 0.044068 0.610180 0.816941
O O3 0.116596 0.854060 0.791943
O O4 0.108355 0.730356 0.944761
O O5 0.686773 0.456412 0.404903
O O6 0.601536 0.365761 0.270125
O O7 0.712273 0.490305 0.233902
O O8 0.193546 0.437945 0.547842
O O9 0.213333 0.153270 0.539044
O O10 0.114362 0.246417 0.614366
O O11 0.248665 0.593129 0.421905
O O12 0.449576 0.896548 0.792047
O O13 0.817669 0.346477 0.735828
#
# Coordination Sequence:
#
# PCOD8131498 Si02
#       7
#     8   8   8   8   4   8   8
#     4   9  21  37  58  76 110 149 190 215 277 328
#     4  11  19  32  59  86 109 145 174 233 277 330
#     4   9  16  32  56  83 107 150 176 223 267 338
#     4   9  17  30  53  85 123 139 173 209 288 343
#     4  10  24  42  54  76 104 150 190 238 262 324
#     4  11  21  34  58  82 114 143 188 227 273 308
#     4  10  18  33  55  89 115 143 173 223 278 337
#
# _framework density 18.893618
#
# number of rings (size 3 to 8) (size 9 to 14) (size 15 to 20)
#    0.000    2.154    3.077    1.846    0.000    1.846 
#    0.000    0.000    3.385    2.769    0.000    0.000 
#    0.000    0.000    0.000    0.000    0.000    0.000 
#
# Total GULP energy -322093.424998 kJ/mol
# GULP energy per Si atom -12388.208654 kJ/mol
# Density = 1.885062 g / cm^3
# Si number density = 18.893618 Si / 1000 Ang^3
#
#
#
# Elastic Constant Matrix: (Units=GPa)
#
#
# Indices 1 2 3 4 5 6 
#
# 1 73.2534 34.0846 34.9261 0.0000 10.3108 0.0000
# 2 34.0846 95.9758 40.0694 0.0000 7.2386 0.0000
# 3 34.9261 40.0694 120.0162 0.0000 -2.0556 0.0000
# 4 0.0000 0.0000 0.0000 24.1320 0.0000 4.1914
# 5 10.3108 7.2386 -2.0556 0.0000 11.0275 0.0000
# 6 0.0000 0.0000 0.0000 4.1914 0.0000 24.5264
#
#
#
# Elastic Compliance Matrix: (Units=1/GPa)
#
#
# Indices 1 2 3 4 5 6 
#
# 1 0.020200 -0.003825 -0.004897 0.000000 -0.017289 0.000000
# 2 -0.003825 0.013731 -0.003576 0.000000 -0.006103 0.000000
# 3 -0.004897 -0.003576 0.011105 0.000000 0.008996 0.000000
# 4 0.000000 0.000000 0.000000 0.042706 0.000000 -0.007298
# 5 -0.017289 -0.006103 0.008996 0.000000 0.112531 0.000000
# 6 0.000000 0.000000 0.000000 -0.007298 0.000000 0.042020
#
#
# Mechanical properties :
#
#
# Convention : Reuss Voigt Hill
#
# Bulk Modulus (GPa) = 48.92485 56.37840 52.65162
# Shear Modulus (GPa) = 18.26802 23.94820 21.10811
#
# Velocity S-wave (km/s) = 3.11286 3.56410 3.34609
# Velocity P-wave (km/s) = 6.23466 6.84410 6.54648
#
# Compressibility (1/GPa) = 0.02043951
#
# Stress axis : x y z
#
# Youngs Moduli (GPa) = 49.50610 72.82869 90.04718
#
# Poissons Ratio (x) = 0.27857 0.44099
# Poissons Ratio (y) = 0.18936 0.32198
# Poissons Ratio (z) = 0.24245 0.26041
#
# Static dielectric constant tensor:
#      x y z
#    x 3.248460 0.000000 0.136910 
#    y 0.000000 3.531530 0.000000 
#    z 0.136910 0.000000 3.642480 
# 
# 
# High freq. dielectric constant tensor:
#      x y z
#    x 1.699390 0.000000 0.006370 
#    y 0.000000 1.727260 0.000000 
#    z 0.006370 0.000000 1.745890 
# 
# From -- ./inp_files/166238.got.cif
#   From: 2010.06.25/outbox.cif.g09.slc.cpg/sg15_84_cif.got.tgz:166238.got - 2010.06.28 07:06:18.
