data_PCOD8131571
_publ_section_title
;
Structure prediction by ZEFSAII (Michael W. Deem and Ramdas Pophale) SiO2 
 PCOD8131571
Probable space group: C 2/C
;
_chemical_formula_sum "Si O2"
_cell_formula_units_Z 60
_cell_length_a 19.991229
_cell_length_b 11.490571
_cell_length_c 13.661815
_cell_angle_alpha 90.000000
_cell_angle_beta 77.498519
_cell_angle_gamma 90.000000
_cell_volume 3063.857264
_symmetry_space_group_name_H-M "C 2/C"
_symmetry_group_IT_number 15
_symmetry_cell_setting 'monoclinic'
loop_
_space_group_symop_operation_xyz
x,y,z
-x,y,1/2-z
-x,-y,-z
x,-y,1/2+z
1/2+x,1/2+y,z
1/2-x,1/2+y,1/2-z
1/2-x,1/2-y,-z
1/2+x,1/2-y,1/2+z
loop_
_atom_site_type_symbol
_atom_site_label
_atom_site_fract_x
_atom_site_fract_y
_atom_site_fract_z
Si Si1 0.377721 0.174880 0.580069
Si Si2 0.823108 0.088680 0.101017
Si Si3 0.096785 0.514524 0.769623
Si Si4 0.000000 0.207035 0.750000
Si Si5 0.285585 0.143334 0.211777
Si Si6 0.467227 0.088779 0.386265
Si Si7 0.239830 0.042666 0.585743
Si Si8 0.138334 0.122855 0.782329
O O1 0.380785 0.313246 0.557777
O O2 0.436254 0.102723 0.503081
O O3 0.304220 0.128254 0.569651
O O4 0.393700 0.144723 0.689338
O O5 0.776279 0.160889 0.192644
O O6 0.857363 0.977718 0.139076
O O7 0.784070 0.040765 0.018579
O O8 0.170026 0.454162 0.747518
O O9 0.069340 0.514091 0.666764
O O10 0.047726 0.440881 0.859513
O O11 0.044693 0.287788 0.663329
O O12 0.057047 0.131506 0.787871
O O13 0.327930 0.261344 0.180941
O O14 0.259968 0.087873 0.116431
O O15 0.178101 0.091696 0.670857
#
# Coordination Sequence:
#
# PCOD8131571 Si02
#       8
#     8   8   8   4   8   8   8   8
#     4  11  20  34  56  85 114 140 192 238 281 339
#     4  11  23  35  58  88 114 154 183 233 289 340
#     4   9  19  33  55  84 109 143 187 236 282 327
#     4  10  20  36  60  78 112 160 190 224 272 352
#     4  10  19  37  58  84 112 146 188 240 280 328
#     4  10  18  33  59  82 105 149 196 231 287 322
#     4  10  22  35  59  86 111 146 193 238 287 333
#     4  11  21  40  60  81 119 151 193 230 284 342
#
# _framework density 19.583158999999998
#
# number of rings (size 3 to 8) (size 9 to 14) (size 15 to 20)
#    0.000    1.867    4.000    2.400    0.000    0.533 
#    0.000    4.000    2.933    0.000    0.000    0.000 
#    0.000    0.000    0.000    0.000    0.000    0.000 
#
# Total GULP energy -371789.931652 kJ/mol
# GULP energy per Si atom -12392.997722 kJ/mol
# Density = 1.953859 g / cm^3
# Si number density = 19.583159 Si / 1000 Ang^3
#
#
#
# Elastic Constant Matrix: (Units=GPa)
#
#
# Indices 1 2 3 4 5 6 
#
# 1 47.7540 24.1821 2.4085 0.0000 0.8672 0.0000
# 2 24.1821 98.8644 34.3787 0.0000 14.7421 0.0000
# 3 2.4085 34.3787 61.2607 0.0000 6.4801 0.0000
# 4 0.0000 0.0000 0.0000 19.6727 0.0000 8.9463
# 5 0.8672 14.7421 6.4801 0.0000 18.9746 0.0000
# 6 0.0000 0.0000 0.0000 8.9463 0.0000 19.6577
#
#
#
# Elastic Compliance Matrix: (Units=1/GPa)
#
#
# Indices 1 2 3 4 5 6 
#
# 1 0.024562 -0.007574 0.002885 0.000000 0.003777 0.000000
# 2 -0.007574 0.016067 -0.007714 0.000000 -0.009502 0.000000
# 3 0.002885 -0.007714 0.020666 0.000000 -0.001197 0.000000
# 4 0.000000 0.000000 0.000000 0.064098 0.000000 -0.029171
# 5 0.003777 -0.009502 -0.001197 0.000000 0.060321 0.000000
# 6 0.000000 0.000000 0.000000 -0.029171 0.000000 0.064146
#
#
# Mechanical properties :
#
#
# Convention : Reuss Voigt Hill
#
# Bulk Modulus (GPa) = 27.40514 36.64641 32.02577
# Shear Modulus (GPa) = 17.43207 21.45498 19.44353
#
# Velocity S-wave (km/s) = 2.98679 3.31355 3.15440
# Velocity P-wave (km/s) = 5.09108 5.77870 5.44575
#
# Compressibility (1/GPa) = 0.03648951
#
# Stress axis : x y z
#
# Youngs Moduli (GPa) = 40.71300 62.24016 48.38979
#
# Poissons Ratio (x) = 0.47144 -0.13963
# Poissons Ratio (y) = 0.30838 0.37326
# Poissons Ratio (z) = -0.11748 0.48009
#
# Static dielectric constant tensor:
#      x y z
#    x 3.532320 0.000000 0.004550 
#    y 0.000000 3.476250 0.000000 
#    z 0.004550 0.000000 3.528360 
# 
# 
# High freq. dielectric constant tensor:
#      x y z
#    x 1.762210 0.000000 -0.002640 
#    y 0.000000 1.747020 0.000000 
#    z -0.002640 0.000000 1.751910 
# 
# From -- ./inp_files/167239.got.cif
#   From: 2010.06.25/outbox.cif.g09.slc.cpg/sg15_84_cif.got.tgz:167239.got - 2010.06.28 07:06:18.
