data_PCOD8131903
_publ_section_title
;
Structure prediction by ZEFSAII (Michael W. Deem and Ramdas Pophale) SiO2 
 PCOD8131903
Probable space group: C 2/C
;
_chemical_formula_sum "Si O2"
_cell_formula_units_Z 48
_cell_length_a 11.158009
_cell_length_b 15.814268
_cell_length_c 17.949518
_cell_angle_alpha 90.000000
_cell_angle_beta 57.517354
_cell_angle_gamma 90.000000
_cell_volume 2671.785308
_symmetry_space_group_name_H-M "C 2/C"
_symmetry_group_IT_number 15
_symmetry_cell_setting 'monoclinic'
loop_
_space_group_symop_operation_xyz
x,y,z
-x,y,1/2-z
-x,-y,-z
x,-y,1/2+z
1/2+x,1/2+y,z
1/2-x,1/2+y,1/2-z
1/2-x,1/2-y,-z
1/2+x,1/2-y,1/2+z
loop_
_atom_site_type_symbol
_atom_site_label
_atom_site_fract_x
_atom_site_fract_y
_atom_site_fract_z
Si Si1 0.899831 0.064804 0.074013
Si Si2 0.932302 0.019038 0.351990
Si Si3 0.556232 0.836467 0.562161
Si Si4 0.094970 0.494151 0.649431
Si Si5 0.878610 0.843873 0.438687
Si Si6 0.112391 0.568331 0.489511
O O1 0.746719 0.022735 0.135512
O O2 0.973365 0.082819 0.128756
O O3 0.887783 0.147280 0.025877
O O4 0.000000 0.000000 0.000000
O O5 0.768932 0.045975 0.408498
O O6 0.000000 0.029341 0.250000
O O7 0.952119 0.921518 0.371381
O O8 0.532568 0.908511 0.632742
O O9 0.712262 0.843372 0.472583
O O10 0.542278 0.744449 0.606527
O O11 0.440238 0.845401 0.533498
O O12 0.108365 0.567849 0.581471
O O13 0.000000 0.525885 0.750000
O O14 0.000000 0.500000 0.500000
#
# Coordination Sequence:
#
# PCOD8131903 Si02
#       6
#     8   8   8   8   8   8
#     4   9  17  34  50  73 104 136 176 213 257 316
#     4  11  21  32  57  79 105 137 179 223 263 311
#     4   9  18  32  56  75 108 133 177 215 269 308
#     4  10  19  30  54  78 102 136 175 219 262 308
#     4   9  17  35  53  77 101 145 168 218 265 313
#     4  10  18  35  50  79 106 138 176 218 258 317
#
# _framework density 17.965516000000001
#
# number of rings (size 3 to 8) (size 9 to 14) (size 15 to 20)
#    0.000    2.333    6.667    0.000    4.667    0.667 
#    0.000    0.833    0.000    1.000    0.000    0.000 
#    0.000    0.000    0.000    0.000    0.000    0.000 
#
# Total GULP energy -297325.541545 kJ/mol
# GULP energy per Si atom -12388.564231 kJ/mol
# Density = 1.792463 g / cm^3
# Si number density = 17.965516 Si / 1000 Ang^3
#
#
#
# Elastic Constant Matrix: (Units=GPa)
#
#
# Indices 1 2 3 4 5 6 
#
# 1 132.7013 28.7142 52.5455 0.0000 1.1228 0.0000
# 2 28.7142 51.4308 17.4520 0.0000 3.4310 0.0000
# 3 52.5455 17.4520 128.2426 0.0000 4.9433 0.0000
# 4 0.0000 0.0000 0.0000 9.0081 0.0000 -1.4215
# 5 1.1228 3.4310 4.9433 0.0000 24.5231 0.0000
# 6 0.0000 0.0000 0.0000 -1.4215 0.0000 19.6392
#
#
#
# Elastic Compliance Matrix: (Units=1/GPa)
#
#
# Indices 1 2 3 4 5 6 
#
# 1 0.009851 -0.004379 -0.003474 0.000000 0.000862 0.000000
# 2 -0.004379 0.022462 -0.001158 0.000000 -0.002709 0.000000
# 3 -0.003474 -0.001158 0.009440 0.000000 -0.001582 0.000000
# 4 0.000000 0.000000 0.000000 0.112294 0.000000 0.008128
# 5 0.000862 -0.002709 -0.001582 0.000000 0.041436 0.000000
# 6 0.000000 0.000000 0.000000 0.008128 0.000000 0.051507
#
#
# Mechanical properties :
#
#
# Convention : Reuss Voigt Hill
#
# Bulk Modulus (GPa) = 42.13821 56.64423 49.39122
# Shear Modulus (GPa) = 18.32024 24.87828 21.59926
#
# Velocity S-wave (km/s) = 3.19681 3.72530 3.47113
# Velocity P-wave (km/s) = 6.09361 7.07825 6.60431
#
# Compressibility (1/GPa) = 0.02373143
#
# Stress axis : x y z
#
# Youngs Moduli (GPa) = 101.50787 44.51955 105.93624
#
# Poissons Ratio (x) = 0.19495 0.36800
# Poissons Ratio (y) = 0.44449 0.12269
# Poissons Ratio (z) = 0.35262 0.05156
#
# Static dielectric constant tensor:
#      x y z
#    x 4.183230 0.000000 0.506950 
#    y 0.000000 3.254290 0.000000 
#    z 0.506950 0.000000 3.311990 
# 
# 
# High freq. dielectric constant tensor:
#      x y z
#    x 1.712630 0.000000 0.001040 
#    y 0.000000 1.657140 0.000000 
#    z 0.001040 0.000000 1.674250 
# 
# From -- ./inp_files/198669.got.cif
#   From: 2010.06.25/outbox.cif.g09.slc.cpg/sg15_100_cif.got.tgz:198669.got - 2010.06.28 07:06:18.
