data_PCOD8131857
_publ_section_title
;
Structure prediction by ZEFSAII (Michael W. Deem and Ramdas Pophale) SiO2 
 PCOD8131857
Probable space group: C 2/C
;
_chemical_formula_sum "Si O2"
_cell_formula_units_Z 48
_cell_length_a 13.205662
_cell_length_b 14.883737
_cell_length_c 29.378610
_cell_angle_alpha 90.000000
_cell_angle_beta 154.026551
_cell_angle_gamma 90.000000
_cell_volume 2528.904897
_symmetry_space_group_name_H-M "C 2/C"
_symmetry_group_IT_number 15
_symmetry_cell_setting 'monoclinic'
loop_
_space_group_symop_operation_xyz
x,y,z
-x,y,1/2-z
-x,-y,-z
x,-y,1/2+z
1/2+x,1/2+y,z
1/2-x,1/2+y,1/2-z
1/2-x,1/2-y,-z
1/2+x,1/2-y,1/2+z
loop_
_atom_site_type_symbol
_atom_site_label
_atom_site_fract_x
_atom_site_fract_y
_atom_site_fract_z
Si Si1 0.902159 0.930924 0.868050
Si Si2 0.236900 0.578285 0.868450
Si Si3 0.251076 0.602272 0.625538
Si Si4 0.929955 0.430923 0.631949
Si Si5 0.835571 0.500000 1.000000
Si Si6 0.379625 0.303980 0.939812
O O1 0.703196 0.934085 0.749999
O O2 0.867959 0.841524 0.883895
O O3 0.887242 0.018904 0.894268
O O4 0.145652 0.928195 0.940306
O O5 0.000000 0.611091 0.750000
O O6 0.189835 0.518902 0.894269
O O7 0.378442 0.666870 0.939221
O O8 0.500000 0.610358 0.750000
O O9 0.273424 0.550156 0.587150
O O10 0.138978 0.697895 0.569490
O O11 0.075178 0.550157 0.587152
O O12 0.884420 0.428196 0.559691
O O13 0.832378 0.341523 0.616105
#
# Coordination Sequence:
#
# PCOD8131857 Si02
#       6
#     8   8   8   8   8   8
#     4  10  18  34  62  89 115 151 192 233 284 344
#     4   9  17  32  58  92 125 149 179 233 292 338
#     4  11  26  42  57  81 118 157 190 239 294 335
#     4  10  18  34  62  89 115 151 192 233 284 344
#     4  11  22  41  60  78 112 157 198 235 278 348
#     4  11  19  38  59  90 121 146 187 237 292 337
#
# _framework density 18.980547999999999
#
# number of rings (size 3 to 8) (size 9 to 14) (size 15 to 20)
#    0.000    1.667    3.333    4.500    0.000    1.333 
#    0.000    5.000    0.000    0.000    0.000    0.000 
#    0.000    0.000    0.000    0.000    0.000    0.000 
#
# Total GULP energy -297642.329186 kJ/mol
# GULP energy per Si atom -12401.763716 kJ/mol
# Density = 1.893735 g / cm^3
# Si number density = 18.980548 Si / 1000 Ang^3
#
#
#
# Elastic Constant Matrix: (Units=GPa)
#
#
# Indices 1 2 3 4 5 6 
#
# 1 109.4744 21.8142 35.2304 0.0001 -0.7390 -0.0009
# 2 21.8142 79.0537 20.0490 -0.0001 -0.0427 0.0004
# 3 35.2304 20.0490 114.2200 0.0009 0.8540 -0.0056
# 4 0.0001 -0.0001 0.0009 28.7528 -0.0001 0.3490
# 5 -0.7390 -0.0427 0.8540 -0.0001 22.0674 0.0007
# 6 -0.0009 0.0004 -0.0056 0.3490 0.0007 14.5745
#
#
#
# Elastic Compliance Matrix: (Units=1/GPa)
#
#
# Indices 1 2 3 4 5 6 
#
# 1 0.010490 -0.002169 -0.002858 0.000000 0.000458 0.000000
# 2 -0.002169 0.013688 -0.001734 0.000000 0.000021 -0.000001
# 3 -0.002858 -0.001734 0.009945 0.000000 -0.000484 0.000004
# 4 0.000000 0.000000 0.000000 0.034789 0.000000 -0.000833
# 5 0.000458 0.000021 -0.000484 0.000000 0.045350 -0.000002
# 6 0.000000 -0.000001 0.000004 -0.000833 -0.000002 0.068633
#
#
# Mechanical properties :
#
#
# Convention : Reuss Voigt Hill
#
# Bulk Modulus (GPa) = 48.54419 50.77061 49.65740
# Shear Modulus (GPa) = 24.59625 28.12259 26.35942
#
# Velocity S-wave (km/s) = 3.60372 3.85340 3.73065
# Velocity P-wave (km/s) = 6.55340 6.82679 6.69149
#
# Compressibility (1/GPa) = 0.02059979
#
# Stress axis : x y z
#
# Youngs Moduli (GPa) = 95.33150 73.05694 100.55794
#
# Poissons Ratio (x) = 0.15849 0.28740
# Poissons Ratio (y) = 0.20682 0.17433
# Poissons Ratio (z) = 0.27247 0.12665
#
# Static dielectric constant tensor:
#      x y z
#    x 3.479020 0.000000 0.003980 
#    y 0.000000 3.060470 0.000000 
#    z 0.003980 0.000000 3.640960 
# 
# 
# High freq. dielectric constant tensor:
#      x y z
#    x 1.736720 0.000000 0.000660 
#    y 0.000000 1.697810 0.000000 
#    z 0.000660 0.000000 1.763470 
# 
# From -- ./inp_files/293137.got.cif
#   From: 2010.06.25/outbox.cif.g09.slc.cpg/sg15_147_cif.got.tgz:293137.got - 2010.06.28 07:06:18.
