data_PCOD8131898
_publ_section_title
;
Structure prediction by ZEFSAII (Michael W. Deem and Ramdas Pophale) SiO2 
 PCOD8131898
Probable space group: C 2/C
;
_chemical_formula_sum "Si O2"
_cell_formula_units_Z 52
_cell_length_a 12.097112
_cell_length_b 28.168564
_cell_length_c 9.384644
_cell_angle_alpha 90.000000
_cell_angle_beta 122.925094
_cell_angle_gamma 90.000000
_cell_volume 2684.255217
_symmetry_space_group_name_H-M "C 2/C"
_symmetry_group_IT_number 15
_symmetry_cell_setting 'monoclinic'
loop_
_space_group_symop_operation_xyz
x,y,z
-x,y,1/2-z
-x,-y,-z
x,-y,1/2+z
1/2+x,1/2+y,z
1/2-x,1/2+y,1/2-z
1/2-x,1/2-y,-z
1/2+x,1/2-y,1/2+z
loop_
_atom_site_type_symbol
_atom_site_label
_atom_site_fract_x
_atom_site_fract_y
_atom_site_fract_z
Si Si1 0.147724 0.763418 0.052697
Si Si2 0.763705 0.617709 0.414992
Si Si3 0.069933 0.932494 0.150875
Si Si4 0.216891 0.352536 0.260165
Si Si5 0.389652 0.535339 0.285836
Si Si6 0.000000 0.175240 0.250000
Si Si7 0.470131 0.831027 0.895613
O O1 0.223236 0.799560 0.209831
O O2 0.086262 0.719414 0.092739
O O3 0.250000 0.750000 0.000000
O O4 0.023146 0.791079 0.901307
O O5 0.829991 0.633202 0.611823
O O6 0.734620 0.561482 0.375966
O O7 0.623792 0.642976 0.302739
O O8 0.855592 0.631365 0.347121
O O9 0.173222 0.890468 0.204440
O O10 0.000000 0.923940 0.250000
O O11 0.150145 0.982513 0.188524
O O12 0.952419 0.931339 0.952310
O O13 0.095454 0.351256 0.067867
O O14 0.500000 0.523687 0.250000
O O15 0.500000 0.828759 0.750000
#
# Coordination Sequence:
#
# PCOD8131898 Si02
#       7
#     8   8   8   8   8   4   8
#     4  11  21  40  66  89 120 169 218 262 300 381
#     4  11  21  40  67  91 122 170 214 261 303 391
#     4  10  22  36  64  99 132 162 201 276 314 371
#     4  11  23  43  64  89 127 171 218 248 329 383
#     4  10  18  38  65  99 125 158 219 258 317 365
#     4  10  18  34  68  92 112 152 228 252 302 350
#     4  12  28  42  58  94 132 169 208 269 326 378
#
# _framework density 19.372226000000001
#
# number of rings (size 3 to 8) (size 9 to 14) (size 15 to 20)
#    0.000    1.231    5.385    2.308    2.154    1.231 
#    0.000    0.769    0.000    0.000    0.000    0.000 
#    0.000    0.000    0.000    0.000    0.000    0.000 
#
# Total GULP energy -322245.675756 kJ/mol
# GULP energy per Si atom -12394.064452 kJ/mol
# Density = 1.932813 g / cm^3
# Si number density = 19.372226 Si / 1000 Ang^3
#
#
#
# Elastic Constant Matrix: (Units=GPa)
#
#
# Indices 1 2 3 4 5 6 
#
# 1 106.8341 46.2084 43.8497 0.0000 -14.0809 0.0000
# 2 46.2084 120.7880 30.5104 0.0000 1.7661 0.0000
# 3 43.8497 30.5104 99.7351 0.0000 -6.4696 0.0000
# 4 0.0000 0.0000 0.0000 24.5543 0.0000 -4.7315
# 5 -14.0809 1.7661 -6.4696 0.0000 31.4433 0.0000
# 6 0.0000 0.0000 0.0000 -4.7315 0.0000 23.4987
#
#
#
# Elastic Compliance Matrix: (Units=1/GPa)
#
#
# Indices 1 2 3 4 5 6 
#
# 1 0.013703 -0.004216 -0.004380 0.000000 0.005472 0.000000
# 2 -0.004216 0.010306 -0.001479 0.000000 -0.002771 0.000000
# 3 -0.004380 -0.001479 0.012449 0.000000 0.000683 0.000000
# 4 0.000000 0.000000 0.000000 0.042370 0.000000 0.008531
# 5 0.005472 -0.002771 0.000683 0.000000 0.034550 0.000000
# 6 0.000000 0.000000 0.000000 0.008531 0.000000 0.044273
#
#
# Mechanical properties :
#
#
# Convention : Reuss Voigt Hill
#
# Bulk Modulus (GPa) = 61.31864 63.16600 62.24232
# Shear Modulus (GPa) = 27.28723 29.68518 28.48621
#
# Velocity S-wave (km/s) = 3.75717 3.91878 3.83883
# Velocity P-wave (km/s) = 7.10938 7.29061 7.20057
#
# Compressibility (1/GPa) = 0.01630826
#
# Stress axis : x y z
#
# Youngs Moduli (GPa) = 72.97867 97.03260 80.32775
#
# Poissons Ratio (x) = 0.40906 0.35183
# Poissons Ratio (y) = 0.30766 0.11880
# Poissons Ratio (z) = 0.31964 0.14351
#
# Static dielectric constant tensor:
#      x y z
#    x 3.409140 0.000000 0.006650 
#    y 0.000000 3.942730 0.000000 
#    z 0.006650 0.000000 3.771150 
# 
# 
# High freq. dielectric constant tensor:
#      x y z
#    x 1.734070 0.000000 -0.002840 
#    y 0.000000 1.768690 0.000000 
#    z -0.002840 0.000000 1.753220 
# 
# From -- ./inp_files/35354.got.cif
#   From: 2010.06.25/outbox.cif.g09.slc.cpg/sg15_18_cif.got.tgz:35354.got - 2010.06.28 07:06:18.
