data_PCOD8131706
_publ_section_title
;
Structure prediction by ZEFSAII (Michael W. Deem and Ramdas Pophale) SiO2 
 PCOD8131706
Probable space group: C 2/C
;
_chemical_formula_sum "Si O2"
_cell_formula_units_Z 56
_cell_length_a 7.341737
_cell_length_b 18.914355
_cell_length_c 22.907891
_cell_angle_alpha 90.000000
_cell_angle_beta 61.866980
_cell_angle_gamma 90.000000
_cell_volume 2805.257824
_symmetry_space_group_name_H-M "C 2/C"
_symmetry_group_IT_number 15
_symmetry_cell_setting 'monoclinic'
loop_
_space_group_symop_operation_xyz
x,y,z
-x,y,1/2-z
-x,-y,-z
x,-y,1/2+z
1/2+x,1/2+y,z
1/2-x,1/2+y,1/2-z
1/2-x,1/2-y,-z
1/2+x,1/2-y,1/2+z
loop_
_atom_site_type_symbol
_atom_site_label
_atom_site_fract_x
_atom_site_fract_y
_atom_site_fract_z
Si Si1 0.519364 0.509067 0.363775
Si Si2 0.284761 0.923524 0.505142
Si Si3 0.641614 0.816398 0.447612
Si Si4 0.340754 0.613645 0.818907
Si Si5 0.663354 0.009761 0.274525
Si Si6 0.844287 0.456242 0.907366
Si Si7 0.074181 0.836399 0.991746
O O1 0.332074 0.557374 0.416456
O O2 0.442196 0.431749 0.356474
O O3 0.630016 0.542146 0.288108
O O4 0.685040 0.500609 0.390337
O O5 0.477348 0.875015 0.493919
O O6 0.135838 0.881305 0.482554
O O7 0.366813 0.995674 0.462172
O O8 0.699378 0.827577 0.370915
O O9 0.853501 0.822477 0.452860
O O10 0.541323 0.738995 0.465837
O O11 0.500000 0.650943 0.750000
O O12 0.203038 0.564185 0.799486
O O13 0.500000 0.992685 0.250000
O O14 0.562157 0.058018 0.340807
O O15 0.759982 0.378605 0.932861
#
# Coordination Sequence:
#
# PCOD8131706 Si02
#       7
#     8   8   8   8   8   8   8
#     4   9  19  31  51  84 112 134 177 245 276 320
#     4  11  20  35  60  82 107 147 190 231 281 335
#     4  11  22  37  56  81 113 156 184 228 282 346
#     4  10  19  34  54  81 110 142 187 227 275 334
#     4   9  18  32  51  80 112 137 176 236 288 324
#     4  10  18  34  56  82 107 146 184 232 287 333
#     4  10  23  37  53  83 119 141 188 236 281 328
#
# _framework density 19.962515
#
# number of rings (size 3 to 8) (size 9 to 14) (size 15 to 20)
#    0.000    2.000    1.429    3.857    2.000    1.143 
#    0.000    3.571    0.000    0.000    0.000    0.000 
#    0.000    0.000    0.000    0.000    0.000    0.000 
#
# Total GULP energy -346935.401784 kJ/mol
# GULP energy per Si atom -12390.550064 kJ/mol
# Density = 1.991708 g / cm^3
# Si number density = 19.962515 Si / 1000 Ang^3
#
#
#
# Elastic Constant Matrix: (Units=GPa)
#
#
# Indices 1 2 3 4 5 6 
#
# 1 27.0943 5.8249 20.3659 0.0000 3.3778 0.0000
# 2 5.8249 85.9846 50.7754 0.0000 -3.3979 0.0000
# 3 20.3659 50.7754 143.6721 0.0000 -11.7212 0.0000
# 4 0.0000 0.0000 0.0000 18.5156 0.0000 2.2801
# 5 3.3778 -3.3979 -11.7212 0.0000 27.0430 0.0000
# 6 0.0000 0.0000 0.0000 2.2801 0.0000 21.3333
#
#
#
# Elastic Compliance Matrix: (Units=1/GPa)
#
#
# Indices 1 2 3 4 5 6 
#
# 1 0.043103 0.000961 -0.007131 0.000000 -0.008354 0.000000
# 2 0.000961 0.014723 -0.005389 0.000000 -0.000606 0.000000
# 3 -0.007131 -0.005389 0.010256 0.000000 0.004659 0.000000
# 4 0.000000 0.000000 0.000000 0.054729 0.000000 -0.005850
# 5 -0.008354 -0.000606 0.004659 0.000000 0.039965 0.000000
# 6 0.000000 0.000000 0.000000 -0.005850 0.000000 0.047500
#
#
# Mechanical properties :
#
#
# Convention : Reuss Voigt Hill
#
# Bulk Modulus (GPa) = 22.24009 45.63150 33.93579
# Shear Modulus (GPa) = 20.13023 25.36401 22.74712
#
# Velocity S-wave (km/s) = 3.17898 3.56839 3.37930
# Velocity P-wave (km/s) = 4.96383 6.31554 5.68004
#
# Compressibility (1/GPa) = 0.04496385
#
# Stress axis : x y z
#
# Youngs Moduli (GPa) = 23.20013 67.91973 97.50608
#
# Poissons Ratio (x) = -0.06527 0.69533
# Poissons Ratio (y) = -0.02229 0.52546
# Poissons Ratio (z) = 0.16544 0.36602
#
# Static dielectric constant tensor:
#      x y z
#    x 3.734280 0.000000 -0.116090 
#    y 0.000000 3.267820 0.000000 
#    z -0.116090 0.000000 4.180260 
# 
# 
# High freq. dielectric constant tensor:
#      x y z
#    x 1.788210 0.000000 0.000010 
#    y 0.000000 1.731030 0.000000 
#    z 0.000010 0.000000 1.792840 
# 
# From -- ./inp_files/289401.got.cif
#   From: 2010.06.25/outbox.cif.g09.slc.cpg/sg15_145_cif.got.tgz:289401.got - 2010.06.28 07:06:18.
