data_PCOD8131260
_publ_section_title
;
Structure prediction by ZEFSAII (Michael W. Deem and Ramdas Pophale) SiO2 
 PCOD8131260
Probable space group: C 2/C
;
_chemical_formula_sum "Si O2"
_cell_formula_units_Z 56
_cell_length_a 15.802283
_cell_length_b 12.175544
_cell_length_c 18.194920
_cell_angle_alpha 90.000000
_cell_angle_beta 53.270440
_cell_angle_gamma 90.000000
_cell_volume 2805.718655
_symmetry_space_group_name_H-M "C 2/C"
_symmetry_group_IT_number 15
_symmetry_cell_setting 'monoclinic'
loop_
_space_group_symop_operation_xyz
x,y,z
-x,y,1/2-z
-x,-y,-z
x,-y,1/2+z
1/2+x,1/2+y,z
1/2-x,1/2+y,1/2-z
1/2-x,1/2-y,-z
1/2+x,1/2-y,1/2+z
loop_
_atom_site_type_symbol
_atom_site_label
_atom_site_fract_x
_atom_site_fract_y
_atom_site_fract_z
Si Si1 0.906517 0.100842 0.492526
Si Si2 0.603398 0.411586 0.658158
Si Si3 0.909413 0.248568 0.631272
Si Si4 0.284399 0.955415 0.675263
Si Si5 0.854612 0.917784 0.616117
Si Si6 0.574984 0.334794 0.147502
Si Si7 0.746318 0.806417 0.343886
O O1 0.866402 0.148245 0.434682
O O2 0.891381 0.191420 0.562706
O O3 0.027675 0.064953 0.415606
O O4 0.841386 0.990528 0.548949
O O5 0.500000 0.357545 0.750000
O O6 0.701892 0.401343 0.661197
O O7 0.571539 0.533858 0.648308
O O8 0.888353 0.378714 0.629079
O O9 0.826508 0.201654 0.733536
O O10 0.029566 0.220907 0.595951
O O11 0.228739 0.964406 0.782760
O O12 0.315278 0.077363 0.631858
O O13 0.839254 0.788962 0.609753
O O14 0.500000 0.288008 0.250000
O O15 0.692996 0.298021 0.109198
#
# Coordination Sequence:
#
# PCOD8131260 Si02
#       7
#     8   8   8   8   8   8   8
#     4  11  20  32  53  84 110 134 189 228 272 305
#     4  10  18  32  54  79 108 140 179 229 269 318
#     4  10  19  32  54  82 112 144 178 229 270 324
#     4  10  19  35  55  81 112 147 180 218 281 332
#     4  10  19  32  56  85 107 139 182 236 265 322
#     4   8  15  29  50  76 105 138 176 220 269 320
#     4   9  18  34  55  81 110 142 184 218 280 328
#
# _framework density 19.959235
#
# number of rings (size 3 to 8) (size 9 to 14) (size 15 to 20)
#    0.000    2.286    2.857    2.571    0.000    0.571 
#    0.000    7.143    0.000    1.714   11.143    0.000 
#    0.000    0.000    0.000    0.000    0.000    0.000 
#
# Total GULP energy -346968.401765 kJ/mol
# GULP energy per Si atom -12391.728634 kJ/mol
# Density = 1.991381 g / cm^3
# Si number density = 19.959235 Si / 1000 Ang^3
#
#
#
# Elastic Constant Matrix: (Units=GPa)
#
#
# Indices 1 2 3 4 5 6 
#
# 1 73.1311 35.3067 17.7100 0.0000 14.9859 0.0000
# 2 35.3067 102.4104 14.7890 0.0000 -1.0939 0.0000
# 3 17.7100 14.7890 69.6841 0.0000 20.0195 0.0000
# 4 0.0000 0.0000 0.0000 10.9057 0.0000 -5.1067
# 5 14.9859 -1.0939 20.0195 0.0000 24.9439 0.0000
# 6 0.0000 0.0000 0.0000 -5.1067 0.0000 29.8030
#
#
#
# Elastic Compliance Matrix: (Units=1/GPa)
#
#
# Indices 1 2 3 4 5 6 
#
# 1 0.019421 -0.006813 -0.000068 0.000000 -0.011912 0.000000
# 2 -0.006813 0.012617 -0.002965 0.000000 0.007026 0.000000
# 3 -0.000068 -0.002965 0.019524 0.000000 -0.015759 0.000000
# 4 0.000000 0.000000 0.000000 0.099694 0.000000 0.017082
# 5 -0.011912 0.007026 -0.015759 0.000000 0.060203 0.000000
# 6 0.000000 0.000000 0.000000 0.017082 0.000000 0.036481
#
#
# Mechanical properties :
#
#
# Convention : Reuss Voigt Hill
#
# Bulk Modulus (GPa) = 31.37596 42.31522 36.84559
# Shear Modulus (GPa) = 17.96926 24.95851 21.46388
#
# Velocity S-wave (km/s) = 3.00375 3.54004 3.28287
# Velocity P-wave (km/s) = 5.27107 6.16085 5.73325
#
# Compressibility (1/GPa) = 0.03187153
#
# Stress axis : x y z
#
# Youngs Moduli (GPa) = 51.49167 79.26086 51.21831
#
# Poissons Ratio (x) = 0.53999 0.00346
# Poissons Ratio (y) = 0.35081 0.15184
# Poissons Ratio (z) = 0.00348 0.23497
#
# Static dielectric constant tensor:
#      x y z
#    x 3.611790 0.000000 0.296600 
#    y 0.000000 3.447830 0.000000 
#    z 0.296600 0.000000 3.631170 
# 
# 
# High freq. dielectric constant tensor:
#      x y z
#    x 1.759690 0.000000 0.025340 
#    y 0.000000 1.751970 0.000000 
#    z 0.025340 0.000000 1.776680 
# 
# From -- ./inp_files/210232.got.cif
#   From: 2010.06.25/outbox.cif.g09.slc.cpg/sg15_106_cif.got.tgz:210232.got - 2010.06.28 07:06:18.
