data_PCOD8131751
_publ_section_title
;
Structure prediction by ZEFSAII (Michael W. Deem and Ramdas Pophale) SiO2 
 PCOD8131751
Probable space group: C 2/C
;
_chemical_formula_sum "Si O2"
_cell_formula_units_Z 44
_cell_length_a 24.841764
_cell_length_b 8.559557
_cell_length_c 17.322650
_cell_angle_alpha 90.000000
_cell_angle_beta 37.872851
_cell_angle_gamma 90.000000
_cell_volume 2261.276294
_symmetry_space_group_name_H-M "C 2/C"
_symmetry_group_IT_number 15
_symmetry_cell_setting 'monoclinic'
loop_
_space_group_symop_operation_xyz
x,y,z
-x,y,1/2-z
-x,-y,-z
x,-y,1/2+z
1/2+x,1/2+y,z
1/2-x,1/2+y,1/2-z
1/2-x,1/2-y,-z
1/2+x,1/2-y,1/2+z
loop_
_atom_site_type_symbol
_atom_site_label
_atom_site_fract_x
_atom_site_fract_y
_atom_site_fract_z
Si Si1 0.558642 0.099978 0.543709
Si Si2 0.500000 0.072937 0.250000
Si Si3 0.292005 0.711426 0.571611
Si Si4 0.877198 0.550857 0.675482
Si Si5 0.361538 0.793428 0.808711
Si Si6 0.226142 0.003521 0.049997
O O1 0.621066 0.255055 0.474692
O O2 0.457902 0.135200 0.630662
O O3 0.561934 0.038688 0.628086
O O4 0.598987 0.967605 0.441245
O O5 0.543409 0.188371 0.262161
O O6 0.211983 0.648879 0.714787
O O7 0.316884 0.591391 0.474917
O O8 0.260693 0.875310 0.572802
O O9 0.861202 0.374266 0.725180
O O10 0.341661 0.609230 0.828074
O O11 0.301708 0.891171 0.934736
#
# Coordination Sequence:
#
# PCOD8131751 Si02
#       6
#     8   4   8   8   8   8
#     4  10  20  37  59  83 112 151 196 229 282 355
#     4  10  18  34  58  80 104 160 186 228 284 344
#     4  10  19  36  57  86 112 149 187 243 291 330
#     4   9  21  37  58  83 114 152 192 233 290 344
#     4   9  17  34  54  77 113 146 182 233 277 339
#     4   9  18  32  54  84 111 139 192 233 277 344
#
# _framework density 19.458037999999998
#
# number of rings (size 3 to 8) (size 9 to 14) (size 15 to 20)
#    0.000    2.545    1.818    0.000    2.545    1.455 
#    6.545    0.000    0.000    4.364    0.000    0.000 
#    0.000    0.000    0.000    0.000    0.000    0.000 
#
# Total GULP energy -272584.385282 kJ/mol
# GULP energy per Si atom -12390.199331 kJ/mol
# Density = 1.941375 g / cm^3
# Si number density = 19.458038 Si / 1000 Ang^3
#
#
#
# Elastic Constant Matrix: (Units=GPa)
#
#
# Indices 1 2 3 4 5 6 
#
# 1 59.2537 29.7464 36.2592 0.0002 -2.3090 -0.0003
# 2 29.7464 98.5489 40.5917 0.0017 -8.8388 -0.0010
# 3 36.2592 40.5917 99.1798 0.0000 3.1438 -0.0011
# 4 0.0002 0.0017 0.0000 30.4840 -0.0012 -5.8349
# 5 -2.3090 -8.8388 3.1438 -0.0012 33.7997 0.0009
# 6 -0.0003 -0.0010 -0.0011 -5.8349 0.0009 20.6351
#
#
#
# Elastic Compliance Matrix: (Units=1/GPa)
#
#
# Indices 1 2 3 4 5 6 
#
# 1 0.023145 -0.004068 -0.006833 0.000000 0.001153 0.000000
# 2 -0.004068 0.013390 -0.004107 -0.000001 0.003606 0.000000
# 3 -0.006833 -0.004107 0.014353 0.000000 -0.002876 0.000001
# 4 0.000000 -0.000001 0.000000 0.034681 0.000001 0.009807
# 5 0.001153 0.003606 -0.002876 0.000001 0.030875 -0.000001
# 6 0.000000 0.000000 0.000001 0.009807 -0.000001 0.051234
#
#
# Mechanical properties :
#
#
# Convention : Reuss Voigt Hill
#
# Bulk Modulus (GPa) = 47.91310 52.24189 50.07750
# Shear Modulus (GPa) = 24.43150 27.00944 25.72047
#
# Velocity S-wave (km/s) = 3.54729 3.72975 3.63966
# Velocity P-wave (km/s) = 6.43855 6.74202 6.59203
#
# Compressibility (1/GPa) = 0.02087112
#
# Stress axis : x y z
#
# Youngs Moduli (GPa) = 43.20524 74.68025 69.67173
#
# Poissons Ratio (x) = 0.30382 0.47608
# Poissons Ratio (y) = 0.17577 0.28616
# Poissons Ratio (z) = 0.29523 0.30673
#
# Static dielectric constant tensor:
#      x y z
#    x 3.410130 -0.000010 -0.095900 
#    y -0.000010 3.505960 0.000010 
#    z -0.095900 0.000010 3.721110 
# 
# 
# High freq. dielectric constant tensor:
#      x y z
#    x 1.748660 0.000000 -0.000800 
#    y 0.000000 1.730230 0.000000 
#    z -0.000800 0.000000 1.760480 
# 
# From -- ./inp_files/166076.got.cif
#   From: 2010.06.25/outbox.cif.g09.slc.cpg/sg15_84_cif.got.tgz:166076.got - 2010.06.28 07:06:18.
