data_PCOD8131674
_publ_section_title
;
Structure prediction by ZEFSAII (Michael W. Deem and Ramdas Pophale) SiO2 
 PCOD8131674
Probable space group: C 2/C
;
_chemical_formula_sum "Si O2"
_cell_formula_units_Z 48
_cell_length_a 18.549445
_cell_length_b 19.748922
_cell_length_c 9.617163
_cell_angle_alpha 90.000000
_cell_angle_beta 133.955175
_cell_angle_gamma 90.000000
_cell_volume 2536.198460
_symmetry_space_group_name_H-M "C 2/C"
_symmetry_group_IT_number 15
_symmetry_cell_setting 'monoclinic'
loop_
_space_group_symop_operation_xyz
x,y,z
-x,y,1/2-z
-x,-y,-z
x,-y,1/2+z
1/2+x,1/2+y,z
1/2-x,1/2+y,1/2-z
1/2-x,1/2-y,-z
1/2+x,1/2-y,1/2+z
loop_
_atom_site_type_symbol
_atom_site_label
_atom_site_fract_x
_atom_site_fract_y
_atom_site_fract_z
Si Si1 0.526782 0.565219 0.126560
Si Si2 0.432573 0.348817 0.283894
Si Si3 0.699759 0.336263 0.831445
Si Si4 0.470996 0.809995 0.858866
Si Si5 0.246399 0.682074 0.405869
Si Si6 0.596851 0.203712 0.782996
O O1 0.500000 0.551551 0.250000
O O2 0.642246 0.591343 0.265884
O O3 0.500000 0.500000 0.000000
O O4 0.456274 0.623285 0.968104
O O5 0.500000 0.380145 0.250000
O O6 0.450941 0.269332 0.319762
O O7 0.318127 0.368226 0.089871
O O8 0.703787 0.308683 0.678901
O O9 0.637224 0.280677 0.834366
O O10 0.812577 0.344203 0.042454
O O11 0.500000 0.841766 0.750000
O O12 0.366328 0.845635 0.763948
O O13 0.560909 0.824640 0.085785
O O14 0.250000 0.750000 0.500000
O O15 0.500000 0.201364 0.750000
#
# Coordination Sequence:
#
# PCOD8131674 Si02
#       6
#     8   8   8   8   8   8
#     4  12  26  41  60  85 115 162 210 260 301 345
#     4  10  18  34  55  77 117 156 195 242 290 355
#     4  11  22  35  57  85 124 161 203 245 306 370
#     4  10  19  32  51  84 124 157 190 229 297 373
#     4  10  19  31  54  84 118 168 188 232 305 374
#     4  11  20  33  55  87 124 156 189 239 310 382
#
# _framework density 18.925962999999999
#
# number of rings (size 3 to 8) (size 9 to 14) (size 15 to 20)
#    0.000    1.333    5.000    3.000    0.000    2.667 
#    0.000    0.000    0.000    0.000    0.000    5.833 
#    0.000    0.000    0.000    0.000    0.000    0.000 
#
# Total GULP energy -297376.566833 kJ/mol
# GULP energy per Si atom -12390.690285 kJ/mol
# Density = 1.888289 g / cm^3
# Si number density = 18.925963 Si / 1000 Ang^3
#
#
#
# Elastic Constant Matrix: (Units=GPa)
#
#
# Indices 1 2 3 4 5 6 
#
# 1 123.6089 40.5038 71.2173 0.0000 1.7317 0.0000
# 2 40.5038 39.8344 29.2140 0.0000 6.0578 0.0000
# 3 71.2173 29.2140 179.6526 0.0000 13.8094 0.0000
# 4 0.0000 0.0000 0.0000 26.9583 0.0000 0.8197
# 5 1.7317 6.0578 13.8094 0.0000 48.8193 0.0000
# 6 0.0000 0.0000 0.0000 0.8197 0.0000 12.7138
#
#
#
# Elastic Compliance Matrix: (Units=1/GPa)
#
#
# Indices 1 2 3 4 5 6 
#
# 1 0.014178 -0.011912 -0.003842 0.000000 0.002062 0.000000
# 2 -0.011912 0.038761 -0.001271 0.000000 -0.004028 0.000000
# 3 -0.003842 -0.001271 0.007435 0.000000 -0.001809 0.000000
# 4 0.000000 0.000000 0.000000 0.037167 0.000000 -0.002396
# 5 0.002062 -0.004028 -0.001809 0.000000 0.021422 0.000000
# 6 0.000000 0.000000 0.000000 -0.002396 0.000000 0.078809
#
#
# Mechanical properties :
#
#
# Convention : Reuss Voigt Hill
#
# Bulk Modulus (GPa) = 37.98880 69.44066 53.71473
# Shear Modulus (GPa) = 20.78158 31.17568 25.97863
#
# Velocity S-wave (km/s) = 3.31727 4.06303 3.70894
# Velocity P-wave (km/s) = 5.89816 7.66689 6.83994
#
# Compressibility (1/GPa) = 0.02632355
#
# Stress axis : x y z
#
# Youngs Moduli (GPa) = 70.53190 25.79892 134.49836
#
# Poissons Ratio (x) = 0.30732 0.51671
# Poissons Ratio (y) = 0.84020 0.17099
# Poissons Ratio (z) = 0.27097 0.03280
#
# Static dielectric constant tensor:
#      x y z
#    x 3.841710 0.000000 0.310140 
#    y 0.000000 3.052960 0.000000 
#    z 0.310140 0.000000 3.851630 
# 
# 
# High freq. dielectric constant tensor:
#      x y z
#    x 1.744540 0.000000 0.001650 
#    y 0.000000 1.651680 0.000000 
#    z 0.001650 0.000000 1.770470 
# 
# From -- ./inp_files/50431.got.cif
#   From: 2010.06.25/outbox.cif.g09.slc.cpg/sg15_26_cif.got.tgz:50431.got - 2010.06.28 07:06:18.
