data_PCOD8131679
_publ_section_title
;
Structure prediction by ZEFSAII (Michael W. Deem and Ramdas Pophale) SiO2 
 PCOD8131679
Probable space group: C 2/C
;
_chemical_formula_sum "Si O2"
_cell_formula_units_Z 64
_cell_length_a 25.149451
_cell_length_b 23.148504
_cell_length_c 12.576427
_cell_angle_alpha 90.000000
_cell_angle_beta 27.870102
_cell_angle_gamma 90.000000
_cell_volume 3422.639386
_symmetry_space_group_name_H-M "C 2/C"
_symmetry_group_IT_number 15
_symmetry_cell_setting 'monoclinic'
loop_
_space_group_symop_operation_xyz
x,y,z
-x,y,1/2-z
-x,-y,-z
x,-y,1/2+z
1/2+x,1/2+y,z
1/2-x,1/2+y,1/2-z
1/2-x,1/2-y,-z
1/2+x,1/2-y,1/2+z
loop_
_atom_site_type_symbol
_atom_site_label
_atom_site_fract_x
_atom_site_fract_y
_atom_site_fract_z
Si Si1 0.249009 0.046426 0.630974
Si Si2 0.558889 0.270163 0.828601
Si Si3 0.911174 0.322465 0.505241
Si Si4 0.093376 0.573580 0.336207
Si Si5 0.015206 0.105296 0.101668
Si Si6 0.791009 0.074031 0.394617
Si Si7 0.251159 0.301287 0.874977
Si Si8 0.628042 0.046946 0.868778
O O1 0.301415 0.070763 0.429985
O O2 0.337925 0.055321 0.569228
O O3 0.226536 0.977573 0.659165
O O4 0.137597 0.084391 0.846660
O O5 0.502453 0.325818 0.873668
O O6 0.615486 0.283451 0.844837
O O7 0.667557 0.247145 0.571387
O O8 0.459410 0.222990 0.006202
O O9 0.884383 0.379539 0.614727
O O10 0.787229 0.303171 0.680061
O O11 0.000000 0.330525 0.250000
O O12 0.081384 0.516879 0.429468
O O13 0.978226 0.587949 0.474054
O O14 0.000000 0.085097 0.250000
O O15 0.924859 0.076588 0.181663
O O16 0.736490 0.133972 0.449294
O O17 0.735105 0.061181 0.606688
#
# Coordination Sequence:
#
# PCOD8131679 Si02
#       8
#     8   8   8   8   8   8   8   8
#     4  11  22  36  54  82 119 151 182 231 290 342
#     4   9  19  32  54  86 109 140 195 237 278 327
#     4  10  18  34  55  80 109 141 185 233 282 325
#     4  10  22  34  54  83 113 148 188 229 283 345
#     4  11  20  36  56  81 112 149 191 235 283 337
#     4  10  20  34  56  83 108 145 193 230 281 340
#     4   9  17  32  56  83 110 141 184 247 277 317
#     4  10  19  35  53  78 112 148 186 230 277 337
#
# _framework density 18.699019
#
# number of rings (size 3 to 8) (size 9 to 14) (size 15 to 20)
#    0.000    2.000    1.250    4.125    0.000    2.000 
#    2.250    0.625    0.000    0.000    0.000    0.000 
#    0.000    0.000    0.000    0.000    0.000    0.000 
#
# Total GULP energy -396530.886284 kJ/mol
# GULP energy per Si atom -12391.590196 kJ/mol
# Density = 1.865646 g / cm^3
# Si number density = 18.699019 Si / 1000 Ang^3
#
#
#
# Elastic Constant Matrix: (Units=GPa)
#
#
# Indices 1 2 3 4 5 6 
#
# 1 123.6501 36.0503 33.4512 -0.0001 -15.2413 0.0001
# 2 36.0503 85.7873 24.1119 0.0000 -4.2322 0.0001
# 3 33.4512 24.1119 58.1499 0.0007 -7.6938 -0.0004
# 4 -0.0001 0.0000 0.0007 21.4353 -0.0003 -3.3509
# 5 -15.2413 -4.2322 -7.6938 -0.0003 21.3890 0.0001
# 6 0.0001 0.0001 -0.0004 -3.3509 0.0001 32.3363
#
#
#
# Elastic Compliance Matrix: (Units=1/GPa)
#
#
# Indices 1 2 3 4 5 6 
#
# 1 0.010812 -0.003087 -0.004201 0.000000 0.005582 0.000000
# 2 -0.003087 0.014085 -0.004186 0.000000 -0.000919 0.000000
# 3 -0.004201 -0.004186 0.021885 -0.000001 0.004051 0.000000
# 4 0.000000 0.000000 -0.000001 0.047420 0.000001 0.004914
# 5 0.005582 -0.000919 0.004051 0.000001 0.052006 0.000000
# 6 0.000000 0.000000 0.000000 0.004914 0.000000 0.031434
#
#
# Mechanical properties :
#
#
# Convention : Reuss Voigt Hill
#
# Bulk Modulus (GPa) = 41.95691 50.53491 46.24591
# Shear Modulus (GPa) = 23.97663 26.63039 25.30351
#
# Velocity S-wave (km/s) = 3.58472 3.77790 3.68258
# Velocity P-wave (km/s) = 6.29447 6.79074 6.54731
#
# Compressibility (1/GPa) = 0.02383398
#
# Stress axis : x y z
#
# Youngs Moduli (GPa) = 92.48949 70.99569 45.69301
#
# Poissons Ratio (x) = 0.21919 0.19195
# Poissons Ratio (y) = 0.28555 0.19127
# Poissons Ratio (z) = 0.38854 0.29719
#
# Static dielectric constant tensor:
#      x y z
#    x 3.907710 0.000000 -0.259730 
#    y 0.000000 3.503610 0.000000 
#    z -0.259730 0.000000 3.049910 
# 
# 
# High freq. dielectric constant tensor:
#      x y z
#    x 1.750930 0.000000 -0.022300 
#    y 0.000000 1.727190 0.000000 
#    z -0.022300 0.000000 1.680520 
# 
# From -- ./inp_files/124255.got.cif
#   From: 2010.06.25/outbox.cif.g09.slc.cpg/sg15_63_cif.got.tgz:124255.got - 2010.06.28 07:06:18.
