data_PCOD8131951
_publ_section_title
;
Structure prediction by ZEFSAII (Michael W. Deem and Ramdas Pophale) SiO2 
 PCOD8131951
Probable space group: C 2/C
;
_chemical_formula_sum "Si O2"
_cell_formula_units_Z 56
_cell_length_a 18.867244
_cell_length_b 13.940392
_cell_length_c 15.564595
_cell_angle_alpha 90.000000
_cell_angle_beta 47.725351
_cell_angle_gamma 90.000000
_cell_volume 3029.083252
_symmetry_space_group_name_H-M "C 2/C"
_symmetry_group_IT_number 15
_symmetry_cell_setting 'monoclinic'
loop_
_space_group_symop_operation_xyz
x,y,z
-x,y,1/2-z
-x,-y,-z
x,-y,1/2+z
1/2+x,1/2+y,z
1/2-x,1/2+y,1/2-z
1/2-x,1/2-y,-z
1/2+x,1/2-y,1/2+z
loop_
_atom_site_type_symbol
_atom_site_label
_atom_site_fract_x
_atom_site_fract_y
_atom_site_fract_z
Si Si1 0.171346 0.717039 0.262344
Si Si2 0.115106 0.942187 0.001316
Si Si3 0.679716 0.123414 0.896334
Si Si4 0.712914 0.448262 0.752337
Si Si5 0.973050 0.102257 0.177949
Si Si6 0.977951 0.233746 0.012540
Si Si7 0.288669 0.147243 0.444668
O O1 0.222307 0.816971 0.197045
O O2 0.246331 0.655622 0.256513
O O3 0.146308 0.658829 0.194445
O O4 0.078794 0.732885 0.394263
O O5 0.069193 0.838991 0.016738
O O6 0.153331 0.990675 0.882081
O O7 0.201334 0.925636 0.997371
O O8 0.037771 0.009871 0.107251
O O9 0.699567 0.018235 0.841960
O O10 0.590062 0.172936 0.922241
O O11 0.654207 0.109287 0.018583
O O12 0.637867 0.431991 0.735538
O O13 0.000000 0.142370 0.250000
O O14 0.993072 0.186370 0.093293
O O15 0.250000 0.250000 0.500000
#
# Coordination Sequence:
#
# PCOD8131951 Si02
#       7
#     8   8   8   8   8   8   8
#     4  10  20  36  55  82 113 148 191 227 287 340
#     4  10  18  35  56  86 110 141 190 238 288 336
#     4  11  19  36  57  80 120 148 184 234 286 336
#     4  10  20  36  57  80 114 151 182 235 288 336
#     4  11  21  36  57  86 111 143 201 241 274 328
#     4  11  21  35  58  79 114 153 188 230 286 341
#     4   9  17  33  52  84 117 138 173 237 285 337
#
# _framework density 18.487441
#
# number of rings (size 3 to 8) (size 9 to 14) (size 15 to 20)
#    0.000    1.714    5.714    4.286    0.000    2.286 
#    0.000    0.714    6.286    0.000    0.000    0.000 
#    0.000    0.000    0.000    0.000    0.000    0.000 
#
# Total GULP energy -347119.027114 kJ/mol
# GULP energy per Si atom -12397.108111 kJ/mol
# Density = 1.844536 g / cm^3
# Si number density = 18.487441 Si / 1000 Ang^3
#
#
#
# Elastic Constant Matrix: (Units=GPa)
#
#
# Indices 1 2 3 4 5 6 
#
# 1 77.1993 33.5005 40.3494 0.0000 12.8630 0.0000
# 2 33.5005 52.2728 29.5021 0.0000 8.3854 0.0000
# 3 40.3494 29.5021 89.8743 0.0000 -2.2902 0.0000
# 4 0.0000 0.0000 0.0000 35.6885 0.0000 -8.9304
# 5 12.8630 8.3854 -2.2902 0.0000 26.2355 0.0000
# 6 0.0000 0.0000 0.0000 -8.9304 0.0000 21.3664
#
#
#
# Elastic Compliance Matrix: (Units=1/GPa)
#
#
# Indices 1 2 3 4 5 6 
#
# 1 0.021888 -0.008559 -0.007237 0.000000 -0.008627 0.000000
# 2 -0.008559 0.028728 -0.005728 0.000000 -0.005486 0.000000
# 3 -0.007237 -0.005728 0.016429 0.000000 0.006813 0.000000
# 4 0.000000 0.000000 0.000000 0.031293 0.000000 0.013079
# 5 -0.008627 -0.005486 0.006813 0.000000 0.044694 0.000000
# 6 0.000000 0.000000 0.000000 0.013079 0.000000 0.052269
#
#
# Mechanical properties :
#
#
# Convention : Reuss Voigt Hill
#
# Bulk Modulus (GPa) = 41.66909 47.33893 44.50401
# Shear Modulus (GPa) = 20.29652 24.39105 22.34378
#
# Velocity S-wave (km/s) = 3.31698 3.63620 3.48025
# Velocity P-wave (km/s) = 6.10393 6.57958 6.34621
#
# Compressibility (1/GPa) = 0.02399860
#
# Stress axis : x y z
#
# Youngs Moduli (GPa) = 45.68814 34.80901 60.86654
#
# Poissons Ratio (x) = 0.29793 0.44048
# Poissons Ratio (y) = 0.39104 0.34862
# Poissons Ratio (z) = 0.33064 0.19937
#
# Static dielectric constant tensor:
#      x y z
#    x 3.644720 0.000000 0.364260 
#    y 0.000000 3.177580 0.000000 
#    z 0.364260 0.000000 3.809240 
# 
# 
# High freq. dielectric constant tensor:
#      x y z
#    x 1.709940 0.000000 0.006220 
#    y 0.000000 1.696750 0.000000 
#    z 0.006220 0.000000 1.711810 
# 
# From -- ./inp_files/162183.got.cif
#   From: 2010.06.25/outbox.cif.g09.slc.cpg/sg15_82_cif.got.tgz:162183.got - 2010.06.28 07:06:18.
