data_PCOD8131509
_publ_section_title
;
Structure prediction by ZEFSAII (Michael W. Deem and Ramdas Pophale) SiO2 
 PCOD8131509
Probable space group: C 2/C
;
_chemical_formula_sum "Si O2"
_cell_formula_units_Z 48
_cell_length_a 9.305769
_cell_length_b 16.795170
_cell_length_c 18.361858
_cell_angle_alpha 90.000000
_cell_angle_beta 124.046991
_cell_angle_gamma 90.000000
_cell_volume 2377.864192
_symmetry_space_group_name_H-M "C 2/C"
_symmetry_group_IT_number 15
_symmetry_cell_setting 'monoclinic'
loop_
_space_group_symop_operation_xyz
x,y,z
-x,y,1/2-z
-x,-y,-z
x,-y,1/2+z
1/2+x,1/2+y,z
1/2-x,1/2+y,1/2-z
1/2-x,1/2-y,-z
1/2+x,1/2-y,1/2+z
loop_
_atom_site_type_symbol
_atom_site_label
_atom_site_fract_x
_atom_site_fract_y
_atom_site_fract_z
Si Si1 0.615654 0.358182 0.217192
Si Si2 0.367098 0.901506 0.646329
Si Si3 0.012297 0.180768 0.050925
Si Si4 0.220623 0.072852 0.597843
Si Si5 0.509503 0.203223 0.672153
Si Si6 0.555525 0.230481 0.425560
O O1 0.500000 0.396989 0.250000
O O2 0.640376 0.420038 0.156904
O O3 0.802012 0.328554 0.299058
O O4 0.509735 0.281448 0.161156
O O5 0.500000 0.914222 0.750000
O O6 0.215713 0.837809 0.621703
O O7 0.466489 0.862473 0.604408
O O8 0.280833 0.983856 0.598707
O O9 0.943701 0.224273 0.103411
O O10 0.956141 0.243125 0.970585
O O11 0.918058 0.097451 0.003986
O O12 0.386635 0.127542 0.634762
O O13 0.500000 0.240048 0.750000
O O14 0.750000 0.250000 0.500000
#
# Coordination Sequence:
#
# PCOD8131509 Si02
#       6
#     8   8   8   8   8   8
#     4  10  18  33  56  82 108 148 197 234 272 336
#     4  11  20  35  57  86 117 150 187 235 286 335
#     4  10  20  36  58  81 110 152 196 232 274 343
#     4  10  22  37  56  84 120 152 181 232 298 339
#     4  10  20  36  58  84 113 150 191 236 285 338
#     4   9  18  31  53  81 107 140 188 233 273 325
#
# _framework density 20.186183
#
# number of rings (size 3 to 8) (size 9 to 14) (size 15 to 20)
#    0.000    2.000    0.000    6.000    0.000    0.000 
#    0.000    1.667    0.000   10.000    0.000    0.000 
#    0.000    0.000    0.000    0.000    0.000    0.000 
#
# Total GULP energy -297411.531479 kJ/mol
# GULP energy per Si atom -12392.147145 kJ/mol
# Density = 2.014024 g / cm^3
# Si number density = 20.186183 Si / 1000 Ang^3
#
#
#
# Elastic Constant Matrix: (Units=GPa)
#
#
# Indices 1 2 3 4 5 6 
#
# 1 76.7643 27.3122 26.5087 0.0000 2.9851 0.0000
# 2 27.3122 118.3742 29.8160 0.0000 -14.9180 0.0000
# 3 26.5087 29.8160 80.0302 0.0000 5.6145 0.0000
# 4 0.0000 0.0000 0.0000 12.1457 0.0000 35.7527
# 5 2.9851 -14.9180 5.6145 0.0000 29.0256 0.0000
# 6 0.0000 0.0000 0.0000 35.7527 0.0000 -35.8738
#
#
#
# Elastic Compliance Matrix: (Units=1/GPa)
#
#
# Indices 1 2 3 4 5 6 
#
# 1 0.015488 -0.002886 -0.003892 0.000000 -0.002323 0.000000
# 2 -0.002886 0.010830 -0.003538 0.000000 0.006547 0.000000
# 3 -0.003892 -0.003538 0.015411 0.000000 -0.004399 0.000000
# 4 0.000000 0.000000 0.000000 0.020930 0.000000 0.020860
# 5 -0.002323 0.006547 -0.004399 0.000000 0.038907 0.000000
# 6 0.000000 0.000000 0.000000 0.020860 0.000000 -0.007086
#
#
# Mechanical properties :
#
#
# Convention : Reuss Voigt Hill
#
# Bulk Modulus (GPa) = 47.40021 49.16027 48.28024
# Shear Modulus (GPa) = 40.93487 13.82829 27.38158
#
# Velocity S-wave (km/s) = 4.50807 2.62016 3.68700
# Velocity P-wave (km/s) = 7.11543 5.79310 6.48804
#
# Compressibility (1/GPa) = 0.02109695
#
# Stress axis : x y z
#
# Youngs Moduli (GPa) = 64.56591 92.33605 64.88760
#
# Poissons Ratio (x) = 0.26648 0.25254
# Poissons Ratio (y) = 0.18634 0.22959
# Poissons Ratio (z) = 0.25129 0.32670
#
# Static dielectric constant tensor:
#      x y z
#    x 3.769120 0.000000 0.055710 
#    y 0.000000 3.570840 0.000000 
#    z 0.055710 0.000000 3.999730 
# 
# 
# High freq. dielectric constant tensor:
#      x y z
#    x 1.778730 0.000000 0.017430 
#    y 0.000000 1.763980 0.000000 
#    z 0.017430 0.000000 1.803120 
# 
# From -- ./inp_files/190610.got.cif
#   From: 2010.06.25/outbox.cif.g09.slc.cpg/sg15_96_cif.got.tgz:190610.got - 2010.06.28 07:06:18.
