data_PCOD8131269
_publ_section_title
;
Structure prediction by ZEFSAII (Michael W. Deem and Ramdas Pophale) SiO2 
 PCOD8131269
Probable space group: C 2/C
;
_chemical_formula_sum "Si O2"
_cell_formula_units_Z 60
_cell_length_a 16.470850
_cell_length_b 8.553908
_cell_length_c 22.054516
_cell_angle_alpha 90.000000
_cell_angle_beta 90.877400
_cell_angle_gamma 90.000000
_cell_volume 3106.899424
_symmetry_space_group_name_H-M "C 2/C"
_symmetry_group_IT_number 15
_symmetry_cell_setting 'monoclinic'
loop_
_space_group_symop_operation_xyz
x,y,z
-x,y,1/2-z
-x,-y,-z
x,-y,1/2+z
1/2+x,1/2+y,z
1/2-x,1/2+y,1/2-z
1/2-x,1/2-y,-z
1/2+x,1/2-y,1/2+z
loop_
_atom_site_type_symbol
_atom_site_label
_atom_site_fract_x
_atom_site_fract_y
_atom_site_fract_z
Si Si1 0.086513 0.124728 0.168495
Si Si2 0.827412 0.425459 0.211085
Si Si3 0.142536 0.898152 0.403322
Si Si4 0.815719 0.881573 0.491056
Si Si5 0.747269 0.381662 0.606029
Si Si6 0.000000 0.638095 0.750000
Si Si7 0.181428 0.054298 0.280099
Si Si8 0.024502 0.086333 0.561243
O O1 0.170760 0.190133 0.141503
O O2 0.027138 0.259650 0.191991
O O3 0.116198 0.019473 0.225901
O O4 0.039767 0.031553 0.116711
O O5 0.804494 0.509326 0.148194
O O6 0.921951 0.463842 0.228199
O O7 0.771142 0.493969 0.263912
O O8 0.815217 0.238944 0.204951
O O9 0.205976 0.765352 0.419878
O O10 0.148137 0.951679 0.334414
O O11 0.054371 0.818966 0.417071
O O12 0.157672 0.052071 0.443800
O O13 0.750000 0.750000 0.500000
O O14 0.894379 0.813937 0.454267
O O15 0.779551 0.022129 0.452286
O O16 0.000000 0.000000 0.500000
#
# Coordination Sequence:
#
# PCOD8131269 Si02
#       8
#     8   8   8   8   8   4   8   8
#     4   9  18  33  53  77 109 145 179 212 265 330
#     4  10  20  35  54  80 111 142 180 221 267 320
#     4  11  20  35  57  81 107 141 180 223 270 318
#     4  10  21  38  58  79 105 142 182 222 268 323
#     4  10  21  38  55  78 109 144 181 221 267 325
#     4  10  18  32  54  82 108 140 176 226 272 306
#     4  10  19  33  56  80 107 145 181 218 266 322
#     4   9  19  34  54  80 108 139 179 221 266 323
#
# _framework density 19.311858000000001
#
# number of rings (size 3 to 8) (size 9 to 14) (size 15 to 20)
#    0.000    2.133    0.000    5.200    0.000    1.067 
#    0.000    8.667    0.000    0.800    0.000    0.000 
#    0.000    0.000    0.000    0.000    0.000    0.000 
#
# Total GULP energy -371744.733739 kJ/mol
# GULP energy per Si atom -12391.491125 kJ/mol
# Density = 1.926790 g / cm^3
# Si number density = 19.311858 Si / 1000 Ang^3
#
#
#
# Elastic Constant Matrix: (Units=GPa)
#
#
# Indices 1 2 3 4 5 6 
#
# 1 142.1614 28.2913 45.5741 0.0000 -22.1358 0.0000
# 2 28.2913 44.6608 10.1475 0.0000 -14.6266 0.0000
# 3 45.5741 10.1475 98.2038 0.0000 -1.6069 0.0000
# 4 0.0000 0.0000 0.0000 21.7175 0.0000 -9.6095
# 5 -22.1358 -14.6266 -1.6069 0.0000 37.3909 0.0000
# 6 0.0000 0.0000 0.0000 -9.6095 0.0000 28.7370
#
#
#
# Elastic Compliance Matrix: (Units=1/GPa)
#
#
# Indices 1 2 3 4 5 6 
#
# 1 0.009746 -0.003923 -0.004051 0.000000 0.004061 0.000000
# 2 -0.003923 0.027884 -0.000921 0.000000 0.008546 0.000000
# 3 -0.004051 -0.000921 0.012121 0.000000 -0.002237 0.000000
# 4 0.000000 0.000000 0.000000 0.054042 0.000000 0.018071
# 5 0.004061 0.008546 -0.002237 0.000000 0.032395 0.000000
# 6 0.000000 0.000000 0.000000 0.018071 0.000000 0.040841
#
#
# Mechanical properties :
#
#
# Convention : Reuss Voigt Hill
#
# Bulk Modulus (GPa) = 31.28775 50.33907 40.81341
# Shear Modulus (GPa) = 24.33393 30.96996 27.65195
#
# Velocity S-wave (km/s) = 3.55357 4.00894 3.78810
# Velocity P-wave (km/s) = 5.75097 6.89578 6.34923
#
# Compressibility (1/GPa) = 0.03196139
#
# Stress axis : x y z
#
# Youngs Moduli (GPa) = 102.60562 35.86253 82.49852
#
# Poissons Ratio (x) = 0.14070 0.33421
# Poissons Ratio (y) = 0.40256 0.07596
# Poissons Ratio (z) = 0.41566 0.03302
#
# Static dielectric constant tensor:
#      x y z
#    x 4.116750 0.000000 -0.239700 
#    y 0.000000 3.089890 0.000000 
#    z -0.239700 0.000000 3.880330 
# 
# 
# High freq. dielectric constant tensor:
#      x y z
#    x 1.775960 0.000000 -0.005870 
#    y 0.000000 1.702570 0.000000 
#    z -0.005870 0.000000 1.770940 
# 
# From -- ./inp_files/272714.got.cif
#   From: 2010.06.25/outbox.cif.g09.slc.cpg/sg15_137_cif.got.tgz:272714.got - 2010.06.28 07:06:18.
