data_PCOD8131795
_publ_section_title
;
Structure prediction by ZEFSAII (Michael W. Deem and Ramdas Pophale) SiO2 
 PCOD8131795
Probable space group: C 2/C
;
_chemical_formula_sum "Si O2"
_cell_formula_units_Z 40
_cell_length_a 18.810149
_cell_length_b 7.655258
_cell_length_c 13.878039
_cell_angle_alpha 90.000000
_cell_angle_beta 76.843323
_cell_angle_gamma 90.000000
_cell_volume 1945.934492
_symmetry_space_group_name_H-M "C 2/C"
_symmetry_group_IT_number 15
_symmetry_cell_setting 'monoclinic'
loop_
_space_group_symop_operation_xyz
x,y,z
-x,y,1/2-z
-x,-y,-z
x,-y,1/2+z
1/2+x,1/2+y,z
1/2-x,1/2+y,1/2-z
1/2-x,1/2-y,-z
1/2+x,1/2-y,1/2+z
loop_
_atom_site_type_symbol
_atom_site_label
_atom_site_fract_x
_atom_site_fract_y
_atom_site_fract_z
Si Si1 0.652837 0.400587 0.009313
Si Si2 0.163834 0.722261 0.535939
Si Si3 0.773944 0.747834 0.336802
Si Si4 0.342236 0.085177 0.754914
Si Si5 0.920738 0.576367 0.540950
O O1 0.623864 0.600222 0.011251
O O2 0.687242 0.385089 0.105020
O O3 0.715776 0.371321 0.911401
O O4 0.587967 0.260318 0.012908
O O5 0.250000 0.750000 0.500000
O O6 0.138825 0.687649 0.653286
O O7 0.140747 0.558239 0.477475
O O8 0.735388 0.850585 0.262574
O O9 0.836007 0.621085 0.276212
O O10 0.407589 0.112385 0.658256
O O11 0.000000 0.500000 0.500000
#
# Coordination Sequence:
#
# PCOD8131795 Si02
#       5
#     8   8   8   8   8
#     4  10  20  38  61  90 130 161 206 272 320 384
#     4  12  21  41  69  97 127 165 215 276 336 382
#     4  10  18  34  58  99 124 150 213 268 321 373
#     4  11  21  35  66  94 126 169 211 265 328 389
#     4  11  26  44  61  90 137 177 218 263 322 398
#
# _framework density 20.555676999999999
#
# number of rings (size 3 to 8) (size 9 to 14) (size 15 to 20)
#    0.000    1.200    4.000    4.800    0.000    1.600 
#    0.000    0.000    4.400    0.000    0.000    0.000 
#    0.000    0.000    0.000    0.000    0.000    0.000 
#
# Total GULP energy -248031.775914 kJ/mol
# GULP energy per Si atom -12401.588796 kJ/mol
# Density = 2.050889 g / cm^3
# Si number density = 20.555677 Si / 1000 Ang^3
#
#
#
# Elastic Constant Matrix: (Units=GPa)
#
#
# Indices 1 2 3 4 5 6 
#
# 1 71.6144 18.6904 16.1936 0.0000 -13.9829 0.0000
# 2 18.6904 124.3627 26.6695 0.0000 -1.0902 0.0000
# 3 16.1936 26.6695 99.6656 0.0000 0.7443 0.0000
# 4 0.0000 0.0000 0.0000 27.0826 0.0000 6.0452
# 5 -13.9829 -1.0902 0.7443 0.0000 20.7143 0.0000
# 6 0.0000 0.0000 0.0000 6.0452 0.0000 27.5031
#
#
#
# Elastic Compliance Matrix: (Units=1/GPa)
#
#
# Indices 1 2 3 4 5 6 
#
# 1 0.017293 -0.001990 -0.002364 0.000000 0.011654 0.000000
# 2 -0.001990 0.008765 -0.002016 0.000000 -0.000809 0.000000
# 3 -0.002364 -0.002016 0.010973 0.000000 -0.002096 0.000000
# 4 0.000000 0.000000 0.000000 0.038829 0.000000 -0.008535
# 5 0.011654 -0.000809 -0.002096 0.000000 0.056175 0.000000
# 6 0.000000 0.000000 0.000000 -0.008535 0.000000 0.038235
#
#
# Mechanical properties :
#
#
# Convention : Reuss Voigt Hill
#
# Bulk Modulus (GPa) = 41.16817 46.52775 43.84796
# Shear Modulus (GPa) = 26.16320 30.66596 28.41458
#
# Velocity S-wave (km/s) = 3.57150 3.86664 3.72199
# Velocity P-wave (km/s) = 6.08922 6.52829 6.31258
#
# Compressibility (1/GPa) = 0.02429061
#
# Stress axis : x y z
#
# Youngs Moduli (GPa) = 57.82693 114.08619 91.13382
#
# Poissons Ratio (x) = 0.22700 0.21547
# Poissons Ratio (y) = 0.11506 0.18374
# Poissons Ratio (z) = 0.13672 0.23002
#
# Static dielectric constant tensor:
#      x y z
#    x 3.232000 0.000000 0.179720 
#    y 0.000000 4.056640 0.000000 
#    z 0.179720 0.000000 3.899010 
# 
# 
# High freq. dielectric constant tensor:
#      x y z
#    x 1.749990 0.000000 0.012190 
#    y 0.000000 1.820120 0.000000 
#    z 0.012190 0.000000 1.814740 
# 
# From -- ./inp_files/109651.got.cif
#   From: 2010.06.25/outbox.cif.g09.slc.cpg/sg15_55_cif.got.tgz:109651.got - 2010.06.28 07:06:18.
