data_PCOD8131630
_publ_section_title
;
Structure prediction by ZEFSAII (Michael W. Deem and Ramdas Pophale) SiO2 
 PCOD8131630
Probable space group: C 2/C
;
_chemical_formula_sum "Si O2"
_cell_formula_units_Z 56
_cell_length_a 19.788223
_cell_length_b 11.935111
_cell_length_c 17.913717
_cell_angle_alpha 90.000000
_cell_angle_beta 132.852956
_cell_angle_gamma 90.000000
_cell_volume 3101.580937
_symmetry_space_group_name_H-M "C 2/C"
_symmetry_group_IT_number 15
_symmetry_cell_setting 'monoclinic'
loop_
_space_group_symop_operation_xyz
x,y,z
-x,y,1/2-z
-x,-y,-z
x,-y,1/2+z
1/2+x,1/2+y,z
1/2-x,1/2+y,1/2-z
1/2-x,1/2-y,-z
1/2+x,1/2-y,1/2+z
loop_
_atom_site_type_symbol
_atom_site_label
_atom_site_fract_x
_atom_site_fract_y
_atom_site_fract_z
Si Si1 0.489324 0.870819 0.967490
Si Si2 0.291350 0.125295 0.694187
Si Si3 0.634779 0.758371 0.518259
Si Si4 0.606334 0.705143 0.331877
Si Si5 0.189954 0.325153 0.123185
Si Si6 0.801241 0.385357 0.741242
Si Si7 0.766537 0.945415 0.650655
O O1 0.462983 0.792631 0.019007
O O2 0.407346 0.859078 0.844476
O O3 0.586852 0.822626 0.009185
O O4 0.500000 0.000000 0.000000
O O5 0.186982 0.173110 0.613991
O O6 0.348314 0.187218 0.672865
O O7 0.331165 0.147459 0.806346
O O8 0.297248 0.992382 0.683384
O O9 0.631780 0.696039 0.437538
O O10 0.690433 0.874341 0.548413
O O11 0.500000 0.723716 0.250000
O O12 0.635053 0.590496 0.310485
O O13 0.251384 0.214436 0.158432
O O14 0.249080 0.423054 0.128006
O O15 0.738569 0.409826 0.766588
#
# Coordination Sequence:
#
# PCOD8131630 Si02
#       7
#     8   8   8   8   8   8   8
#     4  11  18  31  55  83 105 142 184 226 271 326
#     4  10  18  34  50  77 112 140 173 228 275 316
#     4  10  19  33  52  81 108 139 180 228 277 317
#     4  11  21  32  54  80 109 141 184 225 269 331
#     4  11  18  33  54  77 112 140 178 226 277 322
#     4  10  20  33  54  78 114 141 181 228 274 324
#     4   9  18  32  50  76 104 140 175 221 277 309
#
# _framework density 18.055309000000001
#
# number of rings (size 3 to 8) (size 9 to 14) (size 15 to 20)
#    0.000    1.714    8.571    2.571    0.000    0.000 
#    0.000    2.143    0.000    4.286    0.000    0.000 
#    0.000    0.000    0.000    0.000    0.000    0.000 
#
# Total GULP energy -346990.801334 kJ/mol
# GULP energy per Si atom -12392.528619 kJ/mol
# Density = 1.801421 g / cm^3
# Si number density = 18.055309 Si / 1000 Ang^3
#
#
#
# Elastic Constant Matrix: (Units=GPa)
#
#
# Indices 1 2 3 4 5 6 
#
# 1 62.7967 55.4872 30.8066 0.0000 6.8426 0.0000
# 2 55.4872 129.9734 41.4102 0.0000 24.3472 0.0000
# 3 30.8066 41.4102 60.8959 0.0000 16.8950 0.0000
# 4 0.0000 0.0000 0.0000 26.1689 0.0000 7.6102
# 5 6.8426 24.3472 16.8950 0.0000 24.2551 0.0000
# 6 0.0000 0.0000 0.0000 7.6102 0.0000 44.9314
#
#
#
# Elastic Compliance Matrix: (Units=1/GPa)
#
#
# Indices 1 2 3 4 5 6 
#
# 1 0.029900 -0.011420 -0.010165 0.000000 0.010108 0.000000
# 2 -0.011420 0.015072 -0.001448 0.000000 -0.010899 0.000000
# 3 -0.010165 -0.001448 0.026464 0.000000 -0.014112 0.000000
# 4 0.000000 0.000000 0.000000 0.040193 0.000000 -0.006808
# 5 0.010108 -0.010899 -0.014112 0.000000 0.059147 0.000000
# 6 0.000000 0.000000 0.000000 -0.006808 0.000000 0.023409
#
#
# Mechanical properties :
#
#
# Convention : Reuss Voigt Hill
#
# Bulk Modulus (GPa) = 39.41660 56.56376 47.99018
# Shear Modulus (GPa) = 20.10390 27.46856 23.78623
#
# Velocity S-wave (km/s) = 3.34048 3.90469 3.63355
# Velocity P-wave (km/s) = 6.06274 7.19200 6.65138
#
# Compressibility (1/GPa) = 0.02537002
#
# Stress axis : x y z
#
# Youngs Moduli (GPa) = 33.44477 66.34756 37.78708
#
# Poissons Ratio (x) = 0.75766 0.38411
# Poissons Ratio (y) = 0.38192 0.05473
# Poissons Ratio (z) = 0.33997 0.09610
#
# Static dielectric constant tensor:
#      x y z
#    x 3.553660 0.000000 -0.189360 
#    y 0.000000 3.500860 0.000000 
#    z -0.189360 0.000000 3.814460 
# 
# 
# High freq. dielectric constant tensor:
#      x y z
#    x 1.675440 0.000000 0.020290 
#    y 0.000000 1.691730 0.000000 
#    z 0.020290 0.000000 1.683640 
# 
# From -- ./inp_files/214859.got.cif
#   From: 2010.06.25/outbox.cif.g09.slc.cpg/sg15_108_cif.got.tgz:214859.got - 2010.06.28 07:06:18.
