data_PCOD8131871
_publ_section_title
;
Structure prediction by ZEFSAII (Michael W. Deem and Ramdas Pophale) SiO2 
 PCOD8131871
Probable space group: C 2/C
;
_chemical_formula_sum "Si O2"
_cell_formula_units_Z 52
_cell_length_a 12.280901
_cell_length_b 14.758744
_cell_length_c 22.318238
_cell_angle_alpha 90.000000
_cell_angle_beta 38.775602
_cell_angle_gamma 90.000000
_cell_volume 2533.392354
_symmetry_space_group_name_H-M "C 2/C"
_symmetry_group_IT_number 15
_symmetry_cell_setting 'monoclinic'
loop_
_space_group_symop_operation_xyz
x,y,z
-x,y,1/2-z
-x,-y,-z
x,-y,1/2+z
1/2+x,1/2+y,z
1/2-x,1/2+y,1/2-z
1/2-x,1/2-y,-z
1/2+x,1/2-y,1/2+z
loop_
_atom_site_type_symbol
_atom_site_label
_atom_site_fract_x
_atom_site_fract_y
_atom_site_fract_z
Si Si1 0.967816 0.280388 0.533942
Si Si2 0.547996 0.065723 0.374288
Si Si3 0.810855 0.649232 0.804243
Si Si4 0.000000 0.192609 0.750000
Si Si5 0.304172 0.949343 0.810097
Si Si6 0.150573 0.363277 0.347869
Si Si7 0.712725 0.176160 0.082743
O O1 0.906670 0.376984 0.586420
O O2 0.802546 0.215888 0.606697
O O3 0.034170 0.294850 0.437664
O O4 0.122445 0.236654 0.510167
O O5 0.690188 0.084559 0.261241
O O6 0.356489 0.100881 0.434548
O O7 0.550461 0.959453 0.388838
O O8 0.722140 0.549811 0.847361
O O9 0.824848 0.678476 0.728662
O O10 0.000000 0.649574 0.750000
O O11 0.159002 0.128556 0.702980
O O12 0.057054 0.257578 0.670593
O O13 0.500000 0.955702 0.750000
O O14 0.205088 0.877626 0.894582
#
# Coordination Sequence:
#
# PCOD8131871 Si02
#       7
#     8   8   8   4   8   8   8
#     4  11  23  34  60  91 119 160 209 250 309 371
#     4  10  18  36  57  85 125 160 194 246 323 359
#     4  10  22  41  60  84 121 164 205 248 312 372
#     4  10  18  36  62  94 118 158 214 252 300 350
#     4   8  16  33  59  80 110 155 194 253 296 339
#     4  10  23  39  62  88 127 161 201 264 305 363
#     4  10  18  34  63  90 115 158 215 264 287 353
#
# _framework density 20.525836999999999
#
# number of rings (size 3 to 8) (size 9 to 14) (size 15 to 20)
#    0.000    2.154    2.308    2.769    2.154    2.462 
#    1.385    0.000    3.385    0.000    0.000    0.000 
#    0.000    0.000    0.000    0.000    0.000    0.000 
#
# Total GULP energy -322217.401482 kJ/mol
# GULP energy per Si atom -12392.976980 kJ/mol
# Density = 2.047912 g / cm^3
# Si number density = 20.525837 Si / 1000 Ang^3
#
#
#
# Elastic Constant Matrix: (Units=GPa)
#
#
# Indices 1 2 3 4 5 6 
#
# 1 68.4002 30.7372 23.8275 0.0000 2.2479 0.0000
# 2 30.7372 105.4045 50.8460 0.0067 0.3530 0.0022
# 3 23.8275 50.8460 82.1872 0.0096 2.8058 0.0034
# 4 0.0000 0.0067 0.0096 326.0487 -0.0048 79.8181
# 5 2.2479 0.3530 2.8058 -0.0048 23.8362 -0.0016
# 6 0.0000 0.0022 0.0034 79.8181 -0.0016 59.0092
#
#
#
# Elastic Compliance Matrix: (Units=1/GPa)
#
#
# Indices 1 2 3 4 5 6 
#
# 1 0.017270 -0.003759 -0.002638 0.000000 -0.001262 0.000000
# 2 -0.003759 0.014356 -0.007828 0.000000 0.001063 0.000000
# 3 -0.002638 -0.007828 0.017834 0.000000 -0.001735 0.000000
# 4 0.000000 0.000000 0.000000 0.004585 0.000001 -0.006202
# 5 -0.001262 0.001063 -0.001735 0.000001 0.042261 0.000001
# 6 0.000000 0.000000 0.000000 -0.006202 0.000001 0.025336
#
#
# Mechanical properties :
#
#
# Convention : Reuss Voigt Hill
#
# Bulk Modulus (GPa) = 47.59752 51.86815 49.73284
# Shear Modulus (GPa) = 31.82778 91.81756 61.82267
#
# Velocity S-wave (km/s) = 3.94206 6.69550 5.49407
# Velocity P-wave (km/s) = 6.63018 9.22484 8.03296
#
# Compressibility (1/GPa) = 0.02100950
#
# Stress axis : x y z
#
# Youngs Moduli (GPa) = 57.90528 69.65692 56.07200
#
# Poissons Ratio (x) = 0.26186 0.14792
# Poissons Ratio (y) = 0.21768 0.43893
# Poissons Ratio (z) = 0.15275 0.54527
#
# Static dielectric constant tensor:
#      x y z
#    x 3.666170 0.000000 0.326100 
#    y 0.000000 3.931520 0.000000 
#    z 0.326100 0.000000 3.650390 
# 
# 
# High freq. dielectric constant tensor:
#      x y z
#    x 1.779080 0.000000 0.025980 
#    y 0.000000 1.807660 0.000000 
#    z 0.025980 0.000000 1.786990 
# 
# From -- ./inp_files/269887.got.cif
#   From: 2010.06.25/outbox.cif.g09.slc.cpg/sg15_135_cif.got.tgz:269887.got - 2010.06.28 07:06:18.
