data_PCOD8131756
_publ_section_title
;
Structure prediction by ZEFSAII (Michael W. Deem and Ramdas Pophale) SiO2 
 PCOD8131756
Probable space group: C 2/C
;
_chemical_formula_sum "Si O2"
_cell_formula_units_Z 60
_cell_length_a 16.569036
_cell_length_b 11.929464
_cell_length_c 17.718050
_cell_angle_alpha 90.000000
_cell_angle_beta 62.028976
_cell_angle_gamma 90.000000
_cell_volume 3093.041398
_symmetry_space_group_name_H-M "C 2/C"
_symmetry_group_IT_number 15
_symmetry_cell_setting 'monoclinic'
loop_
_space_group_symop_operation_xyz
x,y,z
-x,y,1/2-z
-x,-y,-z
x,-y,1/2+z
1/2+x,1/2+y,z
1/2-x,1/2+y,1/2-z
1/2-x,1/2-y,-z
1/2+x,1/2-y,1/2+z
loop_
_atom_site_type_symbol
_atom_site_label
_atom_site_fract_x
_atom_site_fract_y
_atom_site_fract_z
Si Si1 0.106049 0.997741 0.372326
Si Si2 0.000000 0.299896 0.750000
Si Si3 0.546430 0.060260 0.367735
Si Si4 0.336580 0.654846 0.782472
Si Si5 0.257166 0.137481 0.241398
Si Si6 0.427261 0.873158 0.479685
Si Si7 0.912646 0.885483 0.964462
Si Si8 0.768894 0.046645 0.402212
O O1 0.188118 0.086374 0.332420
O O2 0.012733 0.065300 0.411910
O O3 0.104534 0.921259 0.299292
O O4 0.123910 0.921794 0.437776
O O5 0.991506 0.374501 0.828144
O O6 0.091308 0.227217 0.702789
O O7 0.652908 0.057420 0.297353
O O8 0.536677 0.128996 0.450177
O O9 0.502808 0.936552 0.395300
O O10 0.272939 0.735004 0.759532
O O11 0.276597 0.580014 0.865969
O O12 0.218123 0.135031 0.172744
O O13 0.415327 0.748078 0.454802
O O14 0.330611 0.938723 0.516495
O O15 0.847159 0.933796 0.928913
#
# Coordination Sequence:
#
# PCOD8131756 Si02
#       8
#     8   4   8   8   8   8   8   8
#     4  10  22  37  57  84 113 145 186 223 276 340
#     4  10  18  34  58  82 108 140 184 232 270 322
#     4   9  20  37  58  83 108 145 188 224 277 335
#     4  10  20  38  58  80 111 145 179 228 278 324
#     4   9  20  38  58  80 110 148 183 228 277 325
#     4  10  21  39  56  78 117 150 179 229 282 326
#     4  11  22  37  57  84 114 148 183 230 278 324
#     4  10  21  36  58  84 110 146 190 225 271 334
#
# _framework density 19.398382000000002
#
# number of rings (size 3 to 8) (size 9 to 14) (size 15 to 20)
#    0.000    2.133    0.000    3.600    0.000    9.067 
#    0.000    8.000    0.000    0.000    0.000    0.000 
#    0.000    0.000    0.000    0.000    0.000    0.000 
#
# Total GULP energy -371984.555202 kJ/mol
# GULP energy per Si atom -12399.485173 kJ/mol
# Density = 1.935423 g / cm^3
# Si number density = 19.398382 Si / 1000 Ang^3
#
#
#
# Elastic Constant Matrix: (Units=GPa)
#
#
# Indices 1 2 3 4 5 6 
#
# 1 94.2163 47.0918 51.5924 0.0000 9.9207 0.0000
# 2 47.0918 103.3792 48.4246 0.0000 -0.6209 0.0000
# 3 51.5924 48.4246 74.9932 0.0000 -0.3518 0.0000
# 4 0.0000 0.0000 0.0000 29.0260 0.0000 -1.3669
# 5 9.9207 -0.6209 -0.3518 0.0000 29.6691 0.0000
# 6 0.0000 0.0000 0.0000 -1.3669 0.0000 30.3228
#
#
#
# Elastic Compliance Matrix: (Units=1/GPa)
#
#
# Indices 1 2 3 4 5 6 
#
# 1 0.019027 -0.003671 -0.010750 0.000000 -0.006567 0.000000
# 2 -0.003671 0.014577 -0.006880 0.000000 0.001451 0.000000
# 3 -0.010750 -0.006880 0.025190 0.000000 0.003749 0.000000
# 4 0.000000 0.000000 0.000000 0.034525 0.000000 0.001556
# 5 -0.006567 0.001451 0.003749 0.000000 0.035976 0.000000
# 6 0.000000 0.000000 0.000000 0.001556 0.000000 0.033049
#
#
# Mechanical properties :
#
#
# Convention : Reuss Voigt Hill
#
# Bulk Modulus (GPa) = 61.76090 62.97850 62.36970
# Shear Modulus (GPa) = 23.77061 26.16890 24.96975
#
# Velocity S-wave (km/s) = 3.50436 3.67689 3.59166
# Velocity P-wave (km/s) = 6.94848 7.11072 7.03007
#
# Compressibility (1/GPa) = 0.01619147
#
# Stress axis : x y z
#
# Youngs Moduli (GPa) = 52.55707 68.60146 39.69758
#
# Poissons Ratio (x) = 0.25185 0.42675
# Poissons Ratio (y) = 0.19295 0.27313
# Poissons Ratio (z) = 0.56499 0.47199
#
# Static dielectric constant tensor:
#      x y z
#    x 3.602600 0.000000 0.039250 
#    y 0.000000 3.582640 0.000000 
#    z 0.039250 0.000000 3.587030 
# 
# 
# High freq. dielectric constant tensor:
#      x y z
#    x 1.759950 0.000000 0.001360 
#    y 0.000000 1.753870 0.000000 
#    z 0.001360 0.000000 1.751830 
# 
# From -- ./inp_files/161302.got.cif
#   From: 2010.06.25/outbox.cif.g09.slc.cpg/sg15_81_cif.got.tgz:161302.got - 2010.06.28 07:06:18.
