data_PCOD8131718
_publ_section_title
;
Structure prediction by ZEFSAII (Michael W. Deem and Ramdas Pophale) SiO2 
 PCOD8131718
Probable space group: C 2/C
;
_chemical_formula_sum "Si O2"
_cell_formula_units_Z 52
_cell_length_a 31.628889
_cell_length_b 8.374395
_cell_length_c 15.966206
_cell_angle_alpha 90.000000
_cell_angle_beta 140.759271
_cell_angle_gamma 90.000000
_cell_volume 2675.189648
_symmetry_space_group_name_H-M "C 2/C"
_symmetry_group_IT_number 15
_symmetry_cell_setting 'monoclinic'
loop_
_space_group_symop_operation_xyz
x,y,z
-x,y,1/2-z
-x,-y,-z
x,-y,1/2+z
1/2+x,1/2+y,z
1/2-x,1/2+y,1/2-z
1/2-x,1/2-y,-z
1/2+x,1/2-y,1/2+z
loop_
_atom_site_type_symbol
_atom_site_label
_atom_site_fract_x
_atom_site_fract_y
_atom_site_fract_z
Si Si1 0.109401 0.906308 0.471790
Si Si2 0.394661 0.173737 0.694169
Si Si3 0.287167 0.416949 0.115577
Si Si4 0.854703 0.323290 0.611063
Si Si5 0.784777 0.115789 0.946040
Si Si6 0.653453 0.292973 0.709736
Si Si7 0.000000 0.140139 0.250000
O O1 0.099918 0.785985 0.379336
O O2 0.112484 0.800016 0.560502
O O3 0.177145 0.008771 0.563755
O O4 0.047612 0.028003 0.378974
O O5 0.328843 0.233830 0.544226
O O6 0.394666 0.231412 0.790395
O O7 0.460248 0.246802 0.752573
O O8 0.396626 0.982238 0.694699
O O9 0.337791 0.271924 0.171168
O O10 0.323837 0.525927 0.238841
O O11 0.216776 0.354918 0.044645
O O12 0.267184 0.513306 0.000819
O O13 0.717322 0.177377 0.799523
#
# Coordination Sequence:
#
# PCOD8131718 Si02
#       7
#     8   8   8   8   8   8   4
#     4  10  24  35  58  84 122 158 192 245 287 344
#     4  10  19  37  62  78 114 156 205 234 283 355
#     4   9  17  31  55  85 124 142 182 224 304 365
#     4  10  18  34  56  89 110 159 180 237 297 350
#     4   9  17  34  53  84 119 152 181 231 304 358
#     4  11  19  34  58  92 116 151 188 249 293 350
#     4  10  24  46  56  76 112 174 208 228 286 348
#
# _framework density 19.437874000000001
#
# number of rings (size 3 to 8) (size 9 to 14) (size 15 to 20)
#    0.000    2.154    3.077    1.846    2.154    1.231 
#    0.000    3.077    0.000    2.769    0.000    0.000 
#    0.000    0.000    0.000    0.000    0.000    0.000 
#
# Total GULP energy -322396.678506 kJ/mol
# GULP energy per Si atom -12399.872250 kJ/mol
# Density = 1.939363 g / cm^3
# Si number density = 19.437874 Si / 1000 Ang^3
#
#
#
# Elastic Constant Matrix: (Units=GPa)
#
#
# Indices 1 2 3 4 5 6 
#
# 1 103.4977 35.0201 30.2366 0.0000 7.2825 0.0000
# 2 35.0201 109.3300 13.6921 0.0000 7.3333 0.0000
# 3 30.2366 13.6921 46.9827 0.0000 -0.6603 0.0000
# 4 0.0000 0.0000 0.0000 20.0100 0.0000 8.9392
# 5 7.2825 7.3333 -0.6603 0.0000 22.9445 0.0000
# 6 0.0000 0.0000 0.0000 8.9392 0.0000 30.6929
#
#
#
# Elastic Compliance Matrix: (Units=1/GPa)
#
#
# Indices 1 2 3 4 5 6 
#
# 1 0.013158 -0.003029 -0.007634 0.000000 -0.003428 0.000000
# 2 -0.003029 0.010418 -0.001121 0.000000 -0.002401 0.000000
# 3 -0.007634 -0.001121 0.026574 0.000000 0.003546 0.000000
# 4 0.000000 0.000000 0.000000 0.057450 0.000000 -0.016732
# 5 -0.003428 -0.002401 0.003546 0.000000 0.045541 0.000000
# 6 0.000000 0.000000 0.000000 -0.016732 0.000000 0.037454
#
#
# Mechanical properties :
#
#
# Convention : Reuss Voigt Hill
#
# Bulk Modulus (GPa) = 37.61701 46.41198 42.01450
# Shear Modulus (GPa) = 22.41927 26.78693 24.60310
#
# Velocity S-wave (km/s) = 3.39983 3.71628 3.56157
# Velocity P-wave (km/s) = 5.89968 6.50717 6.21085
#
# Compressibility (1/GPa) = 0.02658372
#
# Stress axis : x y z
#
# Youngs Moduli (GPa) = 75.99763 95.98607 37.63118
#
# Poissons Ratio (x) = 0.29073 0.28727
# Poissons Ratio (y) = 0.23019 0.04217
# Poissons Ratio (z) = 0.58015 0.10756
#
# Static dielectric constant tensor:
#      x y z
#    x 3.553680 0.000000 0.030730 
#    y 0.000000 3.754310 0.000000 
#    z 0.030730 0.000000 2.960020 
# 
# 
# High freq. dielectric constant tensor:
#      x y z
#    x 1.756520 0.000000 0.001380 
#    y 0.000000 1.774720 0.000000 
#    z 0.001380 0.000000 1.701600 
# 
# From -- ./inp_files/180477.got.cif
#   From: 2010.06.25/outbox.cif.g09.slc.cpg/sg15_91_cif.got.tgz:180477.got - 2010.06.28 07:06:18.
