data_PCOD8131122
_publ_section_title
;
Structure prediction by ZEFSAII (Michael W. Deem and Ramdas Pophale) SiO2 
 PCOD8131122
Probable space group: C 2/C
;
_chemical_formula_sum "Si O2"
_cell_formula_units_Z 64
_cell_length_a 28.115903
_cell_length_b 9.397387
_cell_length_c 19.160387
_cell_angle_alpha 90.000000
_cell_angle_beta 47.631930
_cell_angle_gamma 90.000000
_cell_volume 3740.318081
_symmetry_space_group_name_H-M "C 2/C"
_symmetry_group_IT_number 15
_symmetry_cell_setting 'monoclinic'
loop_
_space_group_symop_operation_xyz
x,y,z
-x,y,1/2-z
-x,-y,-z
x,-y,1/2+z
1/2+x,1/2+y,z
1/2-x,1/2+y,1/2-z
1/2-x,1/2-y,-z
1/2+x,1/2-y,1/2+z
loop_
_atom_site_type_symbol
_atom_site_label
_atom_site_fract_x
_atom_site_fract_y
_atom_site_fract_z
Si Si1 0.750905 0.767915 0.623021
Si Si2 0.824172 0.496008 0.011641
Si Si3 0.157533 0.174371 0.828004
Si Si4 0.653286 0.636142 0.363723
Si Si5 0.327254 0.986965 0.352802
Si Si6 0.070837 0.576988 0.359843
Si Si7 0.428934 0.110755 0.508575
Si Si8 0.258018 0.261348 0.842506
O O1 0.797028 0.664353 0.534407
O O2 0.704057 0.667456 0.715112
O O3 0.787859 0.873653 0.639774
O O4 0.713905 0.868054 0.605871
O O5 0.883695 0.491933 0.006744
O O6 0.767113 0.601343 0.090957
O O7 0.849433 0.541845 0.910265
O O8 0.102307 0.288328 0.867289
O O9 0.197454 0.210228 0.857573
O O10 0.125782 0.019891 0.872810
O O11 0.598203 0.730305 0.454545
O O12 0.680342 0.705090 0.266131
O O13 0.282468 0.857834 0.371898
O O14 0.389636 0.014401 0.243941
O O15 0.065613 0.450338 0.419599
O O16 0.999573 0.620362 0.403751
#
# Coordination Sequence:
#
# PCOD8131122 Si02
#       8
#     8   8   8   8   8   8   8   8
#     4   9  19  30  50  80 108 136 168 212 270 320
#     4  11  21  34  53  79 109 139 171 216 267 317
#     4  10  18  31  55  78 106 137 170 221 266 311
#     4  10  18  31  55  78 106 137 170 221 266 311
#     4  11  21  34  53  79 109 139 171 216 267 317
#     4  10  21  37  55  77 103 138 183 218 252 308
#     4  10  21  37  55  77 103 138 183 218 252 308
#     4  11  19  32  50  84 108 136 172 212 272 326
#
# _framework density 17.110845000000001
#
# number of rings (size 3 to 8) (size 9 to 14) (size 15 to 20)
#    0.000    1.750    5.000    0.750    0.000    1.000 
#    0.000    0.000    0.000    0.000    0.000    0.000 
#    0.000    0.000    0.000    0.000    0.000    0.000 
#
# Total GULP energy -396701.312413 kJ/mol
# GULP energy per Si atom -12396.916013 kJ/mol
# Density = 1.707190 g / cm^3
# Si number density = 17.110845 Si / 1000 Ang^3
#
#
#
# Elastic Constant Matrix: (Units=GPa)
#
#
# Indices 1 2 3 4 5 6 
#
# 1 50.0287 15.0771 33.0744 -0.0136 -4.2397 0.0184
# 2 15.0771 75.4237 19.9297 0.0100 -5.3019 -0.0128
# 3 33.0744 19.9297 60.1744 -0.0104 -6.1540 0.0089
# 4 -0.0136 0.0100 -0.0104 15.4996 -0.0115 -0.8680
# 5 -4.2397 -5.3019 -6.1540 -0.0115 31.8450 0.0100
# 6 0.0184 -0.0128 0.0089 -0.8680 0.0100 21.4751
#
#
#
# Elastic Compliance Matrix: (Units=1/GPa)
#
#
# Indices 1 2 3 4 5 6 
#
# 1 0.031657 -0.001864 -0.016714 0.000017 0.000674 -0.000021
# 2 -0.001864 0.014712 -0.003696 -0.000012 0.001487 0.000011
# 3 -0.016714 -0.003696 0.027278 0.000008 0.002431 0.000000
# 4 0.000017 -0.000012 0.000008 0.064664 0.000024 0.002613
# 5 0.000674 0.001487 0.002431 0.000024 0.032209 -0.000015
# 6 -0.000021 0.000011 0.000000 0.002613 -0.000015 0.046671
#
#
# Mechanical properties :
#
#
# Convention : Reuss Voigt Hill
#
# Bulk Modulus (GPa) = 34.36536 35.75437 35.05987
# Shear Modulus (GPa) = 18.42034 21.60032 20.01033
#
# Velocity S-wave (km/s) = 3.28461 3.55685 3.42344
# Velocity P-wave (km/s) = 5.87473 6.14893 6.01339
#
# Compressibility (1/GPa) = 0.02909907
#
# Stress axis : x y z
#
# Youngs Moduli (GPa) = 31.58842 67.97065 36.66017
#
# Poissons Ratio (x) = 0.12673 0.61273
# Poissons Ratio (y) = 0.05890 0.13549
# Poissons Ratio (z) = 0.52796 0.25121
#
# Static dielectric constant tensor:
#      x y z
#    x 3.089590 -0.000010 -0.041340 
#    y -0.000010 3.142230 0.000010 
#    z -0.041340 0.000010 3.081860 
# 
# 
# High freq. dielectric constant tensor:
#      x y z
#    x 1.644880 0.000000 0.005110 
#    y 0.000000 1.664400 0.000000 
#    z 0.005110 0.000000 1.646620 
# 
# From -- ./inp_files/257004.got.cif
#   From: 2010.06.25/outbox.cif.g09.slc.cpg/sg15_129_cif.got.tgz:257004.got - 2010.06.28 07:06:18.
