data_PCOD8131560
_publ_section_title
;
Structure prediction by ZEFSAII (Michael W. Deem and Ramdas Pophale) SiO2 
 PCOD8131560
Probable space group: C 2/C
;
_chemical_formula_sum "Si O2"
_cell_formula_units_Z 56
_cell_length_a 9.304307
_cell_length_b 16.755259
_cell_length_c 31.364407
_cell_angle_alpha 90.000000
_cell_angle_beta 144.372022
_cell_angle_gamma 90.000000
_cell_volume 2848.282473
_symmetry_space_group_name_H-M "C 2/C"
_symmetry_group_IT_number 15
_symmetry_cell_setting 'monoclinic'
loop_
_space_group_symop_operation_xyz
x,y,z
-x,y,1/2-z
-x,-y,-z
x,-y,1/2+z
1/2+x,1/2+y,z
1/2-x,1/2+y,1/2-z
1/2-x,1/2-y,-z
1/2+x,1/2-y,1/2+z
loop_
_atom_site_type_symbol
_atom_site_label
_atom_site_fract_x
_atom_site_fract_y
_atom_site_fract_z
Si Si1 0.395537 0.037832 0.103458
Si Si2 0.868938 0.937271 0.097240
Si Si3 0.491987 0.293455 0.429736
Si Si4 0.100614 0.881289 0.008860
Si Si5 0.741604 0.138557 0.129727
Si Si6 0.671350 0.900374 0.518628
Si Si7 0.619741 0.487512 0.736185
O O1 0.537825 0.075927 0.097526
O O2 0.270694 0.957137 0.058799
O O3 0.585901 0.021416 0.188087
O O4 0.185947 0.098533 0.068326
O O5 0.985676 0.868636 0.096090
O O6 0.063062 0.959105 0.181240
O O7 0.810489 0.013698 0.053625
O O8 0.619552 0.909748 0.060485
O O9 0.750000 0.250000 0.500000
O O10 0.375853 0.320042 0.446737
O O11 0.305120 0.228050 0.363626
O O12 0.208213 0.847366 0.990213
O O13 0.706363 0.146639 0.070761
O O14 0.009843 0.102980 0.205389
O O15 0.500000 0.527036 0.750000
#
# Coordination Sequence:
#
# PCOD8131560 Si02
#       7
#     8   8   8   8   8   8   8
#     4  10  19  37  57  85 113 154 200 246 291 344
#     4  10  19  35  60  85 119 154 197 247 292 361
#     4  12  22  38  57  92 124 152 190 247 306 352
#     4  11  21  33  60  86 120 147 200 257 284 341
#     4  10  20  38  60  84 121 157 193 237 302 369
#     4  10  18  33  58  88 111 152 202 241 291 342
#     4   9  19  36  62  84 111 159 205 238 289 361
#
# _framework density 19.660971
#
# number of rings (size 3 to 8) (size 9 to 14) (size 15 to 20)
#    0.000    1.714    2.857    5.143    0.000    0.571 
#    0.000   10.714    0.000    0.000    0.000    0.000 
#    0.000    0.000    0.000    0.000    0.000    0.000 
#
# Total GULP energy -347081.349556 kJ/mol
# GULP energy per Si atom -12395.762484 kJ/mol
# Density = 1.961622 g / cm^3
# Si number density = 19.660971 Si / 1000 Ang^3
#
#
#
# Elastic Constant Matrix: (Units=GPa)
#
#
# Indices 1 2 3 4 5 6 
#
# 1 104.1770 26.6162 35.0046 -0.0001 -15.9643 0.0000
# 2 26.6162 83.2402 22.8917 0.0002 -8.5866 0.0000
# 3 35.0046 22.8917 118.4465 0.0007 1.2484 0.0000
# 4 -0.0001 0.0002 0.0007 20.2975 -0.0001 -1.5826
# 5 -15.9643 -8.5866 1.2484 -0.0001 31.3318 -0.0002
# 6 0.0000 0.0000 0.0000 -1.5826 -0.0002 29.8909
#
#
#
# Elastic Compliance Matrix: (Units=1/GPa)
#
#
# Indices 1 2 3 4 5 6 
#
# 1 0.012155 -0.002428 -0.003183 0.000000 0.005655 0.000000
# 2 -0.002428 0.013586 -0.001935 0.000000 0.002563 0.000000
# 3 -0.003183 -0.001935 0.009784 0.000000 -0.002542 0.000000
# 4 0.000000 0.000000 0.000000 0.049471 0.000000 0.002619
# 5 0.005655 0.002563 -0.002542 0.000000 0.035602 0.000000
# 6 0.000000 0.000000 0.000000 0.002619 0.000000 0.033594
#
#
# Mechanical properties :
#
#
# Convention : Reuss Voigt Hill
#
# Bulk Modulus (GPa) = 48.93841 52.76544 50.85192
# Shear Modulus (GPa) = 28.39367 31.06078 29.72722
#
# Velocity S-wave (km/s) = 3.80434 3.97901 3.89265
# Velocity P-wave (km/s) = 6.65150 6.92863 6.79148
#
# Compressibility (1/GPa) = 0.02043385
#
# Stress axis : x y z
#
# Youngs Moduli (GPa) = 82.26821 73.60271 102.20775
#
# Poissons Ratio (x) = 0.17872 0.32529
# Poissons Ratio (y) = 0.19976 0.19780
# Poissons Ratio (z) = 0.26183 0.14244
#
# Static dielectric constant tensor:
#      x y z
#    x 3.779990 0.000000 -0.000250 
#    y 0.000000 3.532380 0.000000 
#    z -0.000250 0.000000 3.608840 
# 
# 
# High freq. dielectric constant tensor:
#      x y z
#    x 1.769790 0.000000 -0.003680 
#    y 0.000000 1.746800 0.000000 
#    z -0.003680 0.000000 1.754170 
# 
# From -- ./inp_files/308646.got.cif
#   From: 2010.06.25/outbox.cif.g09.slc.cpg/sg15_155_cif.got.tgz:308646.got - 2010.06.28 07:06:18.
