data_PCOD8131607
_publ_section_title
;
Structure prediction by ZEFSAII (Michael W. Deem and Ramdas Pophale) SiO2 
 PCOD8131607
Probable space group: C 2/C
;
_chemical_formula_sum "Si O2"
_cell_formula_units_Z 56
_cell_length_a 11.765450
_cell_length_b 13.359625
_cell_length_c 25.848270
_cell_angle_alpha 90.000000
_cell_angle_beta 133.960193
_cell_angle_gamma 90.000000
_cell_volume 2924.553419
_symmetry_space_group_name_H-M "C 2/C"
_symmetry_group_IT_number 15
_symmetry_cell_setting 'monoclinic'
loop_
_space_group_symop_operation_xyz
x,y,z
-x,y,1/2-z
-x,-y,-z
x,-y,1/2+z
1/2+x,1/2+y,z
1/2-x,1/2+y,1/2-z
1/2-x,1/2-y,-z
1/2+x,1/2-y,1/2+z
loop_
_atom_site_type_symbol
_atom_site_label
_atom_site_fract_x
_atom_site_fract_y
_atom_site_fract_z
Si Si1 0.828138 0.963363 0.432055
Si Si2 0.830943 0.687482 0.952462
Si Si3 0.386852 0.566956 0.351430
Si Si4 0.402094 0.807010 0.771236
Si Si5 0.514597 0.407596 0.312248
Si Si6 0.640302 0.877613 0.925856
Si Si7 0.603131 0.289603 0.984539
O O1 0.827816 0.843653 0.441621
O O2 0.791048 0.994813 0.361103
O O3 0.701940 0.012608 0.431149
O O4 0.000000 0.000000 0.500000
O O5 0.694352 0.626678 0.880104
O O6 0.771207 0.798086 0.948291
O O7 0.981294 0.701566 0.962140
O O8 0.886147 0.628672 0.021074
O O9 0.271899 0.648287 0.289326
O O10 0.466175 0.496319 0.334370
O O11 0.522458 0.627497 0.423078
O O12 0.500000 0.828431 0.750000
O O13 0.397344 0.687843 0.780671
O O14 0.476796 0.860332 0.844678
O O15 0.500000 0.450918 0.250000
O O16 0.750000 0.250000 0.000000
#
# Coordination Sequence:
#
# PCOD8131607 Si02
#       7
#     8   8   8   8   8   8   8
#     4  10  18  34  59  86 114 153 199 252 304 353
#     4  10  19  36  63  90 115 155 204 252 302 363
#     4  11  21  41  61  87 125 159 208 258 304 373
#     4  10  19  38  61  88 120 157 205 257 302 363
#     4  10  22  39  62  87 119 166 206 250 314 369
#     4  10  18  33  62  93 112 149 210 256 295 361
#     4  11  23  39  60  90 129 160 197 262 322 367
#
# _framework density 19.148222000000001
#
# number of rings (size 3 to 8) (size 9 to 14) (size 15 to 20)
#    0.000    1.714    4.286    3.429    4.000    0.000 
#    7.714    1.429    0.000    0.000    0.000    0.000 
#    0.000    0.000    0.000    0.000    0.000    0.000 
#
# Total GULP energy -347125.486587 kJ/mol
# GULP energy per Si atom -12397.338807 kJ/mol
# Density = 1.910464 g / cm^3
# Si number density = 19.148222 Si / 1000 Ang^3
#
#
#
# Elastic Constant Matrix: (Units=GPa)
#
#
# Indices 1 2 3 4 5 6 
#
# 1 127.4181 57.8694 50.0342 0.0000 -3.6717 0.0000
# 2 57.8694 69.3734 38.9181 0.0000 -0.6537 0.0000
# 3 50.0342 38.9181 102.9239 0.0000 -17.6796 0.0000
# 4 0.0000 0.0000 0.0000 20.0148 0.0000 -5.7683
# 5 -3.6717 -0.6537 -17.6796 0.0000 29.4142 0.0000
# 6 0.0000 0.0000 0.0000 -5.7683 0.0000 34.7636
#
#
#
# Elastic Compliance Matrix: (Units=1/GPa)
#
#
# Indices 1 2 3 4 5 6 
#
# 1 0.013276 -0.009425 -0.002945 0.000000 -0.000323 0.000000
# 2 -0.009425 0.025461 -0.005743 0.000000 -0.004063 0.000000
# 3 -0.002945 -0.005743 0.014758 0.000000 0.008375 0.000000
# 4 0.000000 0.000000 0.000000 0.052472 0.000000 0.008707
# 5 -0.000323 -0.004063 0.008375 0.000000 0.038901 0.000000
# 6 0.000000 0.000000 0.000000 0.008707 0.000000 0.030210
#
#
# Mechanical properties :
#
#
# Convention : Reuss Voigt Hill
#
# Bulk Modulus (GPa) = 57.91400 65.92875 61.92138
# Shear Modulus (GPa) = 23.03490 27.03143 25.03317
#
# Velocity S-wave (km/s) = 3.47216 3.76133 3.61963
# Velocity P-wave (km/s) = 6.81068 7.30540 7.06237
#
# Compressibility (1/GPa) = 0.01726698
#
# Stress axis : x y z
#
# Youngs Moduli (GPa) = 75.32313 39.27617 67.75960
#
# Poissons Ratio (x) = 0.37019 0.19958
# Poissons Ratio (y) = 0.70994 0.38916
# Poissons Ratio (z) = 0.22186 0.22558
#
# Static dielectric constant tensor:
#      x y z
#    x 3.384980 0.000000 -0.309660 
#    y 0.000000 3.641690 0.000000 
#    z -0.309660 0.000000 3.677120 
# 
# 
# High freq. dielectric constant tensor:
#      x y z
#    x 1.724910 0.000000 -0.013730 
#    y 0.000000 1.729300 0.000000 
#    z -0.013730 0.000000 1.747770 
# 
# From -- ./inp_files/292885.got.cif
#   From: 2010.06.25/outbox.cif.g09.slc.cpg/sg15_147_cif.got.tgz:292885.got - 2010.06.28 07:06:18.
