data_PCOD8131279
_publ_section_title
;
Structure prediction by ZEFSAII (Michael W. Deem and Ramdas Pophale) SiO2 
 PCOD8131279
Probable space group: C 2/C
;
_chemical_formula_sum "Si O2"
_cell_formula_units_Z 64
_cell_length_a 24.813607
_cell_length_b 17.471476
_cell_length_c 15.147174
_cell_angle_alpha 90.000000
_cell_angle_beta 151.627633
_cell_angle_gamma 90.000000
_cell_volume 3120.523520
_symmetry_space_group_name_H-M "C 2/C"
_symmetry_group_IT_number 15
_symmetry_cell_setting 'monoclinic'
loop_
_space_group_symop_operation_xyz
x,y,z
-x,y,1/2-z
-x,-y,-z
x,-y,1/2+z
1/2+x,1/2+y,z
1/2-x,1/2+y,1/2-z
1/2-x,1/2-y,-z
1/2+x,1/2-y,1/2+z
loop_
_atom_site_type_symbol
_atom_site_label
_atom_site_fract_x
_atom_site_fract_y
_atom_site_fract_z
Si Si1 0.124232 0.844043 0.921614
Si Si2 0.393471 0.287734 0.787912
Si Si3 0.312795 0.193301 0.395918
Si Si4 0.378401 0.731198 0.820170
Si Si5 0.679842 0.116812 0.508675
Si Si6 0.503337 0.856491 0.615140
Si Si7 0.139557 0.387482 0.248550
Si Si8 0.374855 0.958139 0.084029
O O1 0.158840 0.834009 0.868870
O O2 0.000000 0.884509 0.750000
O O3 0.115526 0.761980 0.956493
O O4 0.233545 0.891437 0.114823
O O5 0.319041 0.304314 0.767250
O O6 0.389747 0.197804 0.760495
O O7 0.523617 0.315859 0.986667
O O8 0.320502 0.205344 0.301249
O O9 0.363971 0.113226 0.501940
O O10 0.289852 0.669855 0.653736
O O11 0.448715 0.773619 0.844881
O O12 0.602750 0.156896 0.472087
O O13 0.610536 0.105422 0.317091
O O14 0.709838 0.027025 0.570643
O O15 0.455334 0.906993 0.463124
O O16 0.138380 0.441700 0.331193
O O17 0.500000 0.992411 0.250000
#
# Coordination Sequence:
#
# PCOD8131279 Si02
#       8
#     8   8   8   8   8   8   8   8
#     4  11  17  30  54  90 124 153 197 245 304 350
#     4  10  18  32  54  90 121 150 205 242 297 351
#     4  11  20  34  60  93 124 158 197 250 309 367
#     4  11  21  37  64  85 115 164 214 246 292 356
#     4  11  24  43  58  88 123 160 204 255 308 351
#     4  10  22  42  59  85 115 162 209 252 292 355
#     4  10  20  34  59  90 120 158 198 250 295 368
#     4  12  21  37  59  89 132 156 188 252 322 367
#
# _framework density 20.509378000000002
#
# number of rings (size 3 to 8) (size 9 to 14) (size 15 to 20)
#    0.000    1.250    5.000    5.250    0.000    0.500 
#    2.250    0.625    0.000    0.000    6.500    0.000 
#    0.000    0.000    0.000    0.000    0.000    0.000 
#
# Total GULP energy -396455.820973 kJ/mol
# GULP energy per Si atom -12389.244405 kJ/mol
# Density = 2.046270 g / cm^3
# Si number density = 20.509378 Si / 1000 Ang^3
#
#
#
# Elastic Constant Matrix: (Units=GPa)
#
#
# Indices 1 2 3 4 5 6 
#
# 1 83.7756 35.0607 41.2210 0.0000 4.3829 0.0000
# 2 35.0607 80.2072 35.2722 0.0000 1.8760 0.0000
# 3 41.2210 35.2722 112.0110 0.0000 11.9206 0.0000
# 4 0.0000 0.0000 0.0000 21.0779 0.0000 2.4160
# 5 4.3829 1.8760 11.9206 0.0000 32.5933 0.0000
# 6 0.0000 0.0000 0.0000 2.4160 0.0000 17.6250
#
#
#
# Elastic Compliance Matrix: (Units=1/GPa)
#
#
# Indices 1 2 3 4 5 6 
#
# 1 0.016250 -0.005201 -0.004309 0.000000 -0.000310 0.000000
# 2 -0.005201 0.016160 -0.003278 0.000000 0.000968 0.000000
# 3 -0.004309 -0.003278 0.011928 0.000000 -0.003594 0.000000
# 4 0.000000 0.000000 0.000000 0.048200 0.000000 -0.006607
# 5 -0.000310 0.000968 -0.003594 0.000000 0.031982 0.000000
# 6 0.000000 0.000000 0.000000 -0.006607 0.000000 0.057643
#
#
# Mechanical properties :
#
#
# Convention : Reuss Voigt Hill
#
# Bulk Modulus (GPa) = 53.29932 55.45574 54.37753
# Shear Modulus (GPa) = 23.36519 25.22190 24.29354
#
# Velocity S-wave (km/s) = 3.37893 3.51062 3.44540
# Velocity P-wave (km/s) = 6.42395 6.59776 6.51144
#
# Compressibility (1/GPa) = 0.01876196
#
# Stress axis : x y z
#
# Youngs Moduli (GPa) = 61.53904 61.88118 83.83423
#
# Poissons Ratio (x) = 0.32184 0.36127
# Poissons Ratio (y) = 0.32006 0.27479
# Poissons Ratio (z) = 0.26519 0.20284
#
# Static dielectric constant tensor:
#      x y z
#    x 3.811330 0.000000 -0.031180 
#    y 0.000000 3.302160 0.000000 
#    z -0.031180 0.000000 3.984890 
# 
# 
# High freq. dielectric constant tensor:
#      x y z
#    x 1.807120 0.000000 0.006310 
#    y 0.000000 1.751460 0.000000 
#    z 0.006310 0.000000 1.803600 
# 
# From -- ./inp_files/174239.got.cif
#   From: 2010.06.25/outbox.cif.g09.slc.cpg/sg15_88_cif.got.tgz:174239.got - 2010.06.28 07:06:18.
