data_PCOD8131070
_publ_section_title
;
Structure prediction by ZEFSAII (Michael W. Deem and Ramdas Pophale) SiO2 
 PCOD8131070
Probable space group: C 2/C
;
_chemical_formula_sum "Si O2"
_cell_formula_units_Z 60
_cell_length_a 11.191346
_cell_length_b 20.310661
_cell_length_c 28.666476
_cell_angle_alpha 90.000000
_cell_angle_beta 151.316453
_cell_angle_gamma 90.000000
_cell_volume 3127.492139
_symmetry_space_group_name_H-M "C 2/C"
_symmetry_group_IT_number 15
_symmetry_cell_setting 'monoclinic'
loop_
_space_group_symop_operation_xyz
x,y,z
-x,y,1/2-z
-x,-y,-z
x,-y,1/2+z
1/2+x,1/2+y,z
1/2-x,1/2+y,1/2-z
1/2-x,1/2-y,-z
1/2+x,1/2-y,1/2+z
loop_
_atom_site_type_symbol
_atom_site_label
_atom_site_fract_x
_atom_site_fract_y
_atom_site_fract_z
Si Si1 0.321486 0.680396 0.394812
Si Si2 0.457493 0.761085 0.891559
Si Si3 0.987778 0.391611 0.631094
Si Si4 0.263328 0.062015 0.197389
Si Si5 0.000000 0.796417 0.250000
Si Si6 0.526021 0.437383 0.424263
Si Si7 0.686189 0.344323 0.222624
Si Si8 0.744120 0.662777 0.604036
O O1 0.172559 0.649983 0.386996
O O2 0.300264 0.635491 0.341520
O O3 0.608965 0.682248 0.509349
O O4 0.220004 0.752306 0.347536
O O5 0.390313 0.838618 0.863109
O O6 0.388573 0.728746 0.818767
O O7 0.289795 0.726128 0.873753
O O8 0.750000 0.750000 0.000000
O O9 0.812451 0.438415 0.539605
O O10 0.185048 0.434672 0.728782
O O11 0.500000 0.034482 0.250000
O O12 0.040191 0.012957 0.108664
O O13 0.873554 0.846377 0.243238
O O14 0.485922 0.397324 0.362773
O O15 0.363325 0.403315 0.409086
O O16 0.974156 0.356158 0.310078
#
# Coordination Sequence:
#
# PCOD8131070 Si02
#       8
#     8   8   8   8   4   8   8   8
#     4  10  18  33  51  79 113 145 177 220 277 334
#     4  11  15  32  55  77 112 146 179 221 270 335
#     4  10  18  31  52  80 103 150 184 216 275 329
#     4  10  19  31  50  79 113 148 182 226 268 329
#     4  12  20  36  56  76 114 146 188 222 282 340
#     4  10  20  33  52  80 109 143 185 227 274 318
#     4  11  21  33  52  82 111 144 179 236 274 329
#     4  10  21  31  52  84 117 140 179 230 278 327
#
# _framework density 19.184701
#
# number of rings (size 3 to 8) (size 9 to 14) (size 15 to 20)
#    0.000    1.600    7.333    2.400    0.000    6.400 
#    0.000    0.000    0.000    0.000    6.933    1.867 
#    0.000    0.000    0.000    0.000    0.000    0.000 
#
# Total GULP energy -371836.925601 kJ/mol
# GULP energy per Si atom -12394.564187 kJ/mol
# Density = 1.914104 g / cm^3
# Si number density = 19.184701 Si / 1000 Ang^3
#
#
#
# Elastic Constant Matrix: (Units=GPa)
#
#
# Indices 1 2 3 4 5 6 
#
# 1 69.7013 18.5789 25.3471 0.0000 -10.3837 0.0018
# 2 18.5789 54.4071 11.6984 -0.0012 -4.5864 0.0007
# 3 25.3471 11.6984 87.8969 -0.0124 -22.2293 -0.0003
# 4 0.0000 -0.0012 -0.0124 35.2226 -0.0019 -3.4457
# 5 -10.3837 -4.5864 -22.2293 -0.0019 17.4774 0.0010
# 6 0.0018 0.0007 -0.0003 -3.4457 0.0010 11.3695
#
#
#
# Elastic Compliance Matrix: (Units=1/GPa)
#
#
# Indices 1 2 3 4 5 6 
#
# 1 0.017551 -0.004889 -0.003093 -0.000001 0.005211 -0.000003
# 2 -0.004889 0.020364 -0.001008 0.000000 0.001158 0.000000
# 3 -0.003093 -0.001008 0.017501 0.000007 0.020157 0.000002
# 4 -0.000001 0.000000 0.000007 0.029258 0.000011 0.008867
# 5 0.005211 0.001158 0.020157 0.000011 0.086254 -0.000004
# 6 -0.000003 0.000000 0.000002 0.008867 -0.000004 0.090642
#
#
# Mechanical properties :
#
#
# Convention : Reuss Voigt Hill
#
# Bulk Modulus (GPa) = 26.71185 35.91715 31.31450
# Shear Modulus (GPa) = 17.12166 23.23928 20.18047
#
# Velocity S-wave (km/s) = 2.99065 3.48421 3.24683
# Velocity P-wave (km/s) = 5.08715 5.91175 5.51488
#
# Compressibility (1/GPa) = 0.03743657
#
# Stress axis : x y z
#
# Youngs Moduli (GPa) = 56.97657 49.10699 57.14059
#
# Poissons Ratio (x) = 0.24009 0.17672
# Poissons Ratio (y) = 0.27856 0.05758
# Poissons Ratio (z) = 0.17621 0.04948
#
# Static dielectric constant tensor:
#      x y z
#    x 3.237940 0.000000 -0.364670 
#    y 0.000000 3.384650 -0.000010 
#    z -0.364670 -0.000010 3.901200 
# 
# 
# High freq. dielectric constant tensor:
#      x y z
#    x 1.696550 0.000000 -0.028600 
#    y 0.000000 1.723450 0.000000 
#    z -0.028600 0.000000 1.762530 
# 
# From -- ./inp_files/311759.got.cif
#   From: 2010.06.25/outbox.cif.g09.slc.cpg/sg15_156_cif.got.tgz:311759.got - 2010.06.28 07:06:18.
