data_PCOD8131798
_publ_section_title
;
Structure prediction by ZEFSAII (Michael W. Deem and Ramdas Pophale) SiO2 
 PCOD8131798
Probable space group: C 2/C
;
_chemical_formula_sum "Si O2"
_cell_formula_units_Z 64
_cell_length_a 10.693717
_cell_length_b 9.891823
_cell_length_c 29.168007
_cell_angle_alpha 90.000000
_cell_angle_beta 92.652657
_cell_angle_gamma 90.000000
_cell_volume 3082.096019
_symmetry_space_group_name_H-M "C 2/C"
_symmetry_group_IT_number 15
_symmetry_cell_setting 'monoclinic'
loop_
_space_group_symop_operation_xyz
x,y,z
-x,y,1/2-z
-x,-y,-z
x,-y,1/2+z
1/2+x,1/2+y,z
1/2-x,1/2+y,1/2-z
1/2-x,1/2-y,-z
1/2+x,1/2-y,1/2+z
loop_
_atom_site_type_symbol
_atom_site_label
_atom_site_fract_x
_atom_site_fract_y
_atom_site_fract_z
Si Si1 0.231123 0.897203 0.281562
Si Si2 0.333441 0.526478 0.383377
Si Si3 0.624161 0.261813 0.446612
Si Si4 0.086210 0.538933 0.917216
Si Si5 0.021045 0.162144 0.849737
Si Si6 0.086201 0.234773 0.046078
Si Si7 0.733695 0.904472 0.790112
Si Si8 0.020338 0.540752 0.178673
O O1 0.126926 0.898191 0.318947
O O2 0.253333 0.741723 0.266644
O O3 0.184371 0.984991 0.236694
O O4 0.355019 0.972005 0.301056
O O5 0.234569 0.434202 0.410114
O O6 0.408034 0.441327 0.347619
O O7 0.424646 0.611539 0.418149
O O8 0.257982 0.621414 0.345481
O O9 0.565611 0.339238 0.403157
O O10 0.772786 0.291928 0.447184
O O11 0.567749 0.317651 0.493535
O O12 0.586617 0.103848 0.443641
O O13 0.021499 0.654376 0.946568
O O14 0.013320 0.539020 0.868117
O O15 0.961061 0.301615 0.832344
O O16 0.591068 0.962435 0.785392
#
# Coordination Sequence:
#
# PCOD8131798 Si02
#       8
#     8   8   8   8   8   8   8   8
#     4  11  22  41  63  86 116 155 201 248 303 362
#     4  10  22  37  52  84 121 151 187 248 295 359
#     4   9  19  34  57  86 109 151 201 242 290 357
#     4   9  17  34  57  80 111 150 195 238 289 353
#     4  10  22  38  57  83 122 157 191 241 307 357
#     4  10  18  34  59  82 114 150 198 247 291 347
#     4  10  23  40  60  88 114 151 204 245 298 360
#     4   9  19  38  61  79 113 155 191 243 297 351
#
# _framework density 20.765090000000001
#
# number of rings (size 3 to 8) (size 9 to 14) (size 15 to 20)
#    0.000    2.250    0.000    4.500    1.750    2.000 
#    6.750    0.625    0.000    0.000    0.000    0.000 
#    0.000    0.000    0.000    0.000    0.000    0.000 
#
# Total GULP energy -396499.036224 kJ/mol
# GULP energy per Si atom -12390.594882 kJ/mol
# Density = 2.071783 g / cm^3
# Si number density = 20.765090 Si / 1000 Ang^3
#
#
#
# Elastic Constant Matrix: (Units=GPa)
#
#
# Indices 1 2 3 4 5 6 
#
# 1 78.3895 43.8241 27.5358 0.0000 -15.7915 0.0000
# 2 43.8241 84.2755 45.9436 0.0000 -29.2001 0.0000
# 3 27.5358 45.9436 108.2040 0.0000 -14.6070 0.0000
# 4 0.0000 0.0000 0.0000 30.9668 0.0000 -8.1413
# 5 -15.7915 -29.2001 -14.6070 0.0000 25.6205 0.0000
# 6 0.0000 0.0000 0.0000 -8.1413 0.0000 33.7913
#
#
#
# Elastic Compliance Matrix: (Units=1/GPa)
#
#
# Indices 1 2 3 4 5 6 
#
# 1 0.018047 -0.008678 -0.000803 0.000000 0.000775 0.000000
# 2 -0.008678 0.027757 -0.006531 0.000000 0.022562 0.000000
# 3 -0.000803 -0.006531 0.012077 0.000000 -0.001053 0.000000
# 4 0.000000 0.000000 0.000000 0.034476 0.000000 0.008306
# 5 0.000775 0.022562 -0.001053 0.000000 0.064623 0.000000
# 6 0.000000 0.000000 0.000000 0.008306 0.000000 0.031595
#
#
# Mechanical properties :
#
#
# Convention : Reuss Voigt Hill
#
# Bulk Modulus (GPa) = 38.67700 56.16401 47.42051
# Shear Modulus (GPa) = 21.81332 28.31340 25.06336
#
# Velocity S-wave (km/s) = 3.24463 3.69658 3.47795
# Velocity P-wave (km/s) = 5.71867 6.73243 6.24615
#
# Compressibility (1/GPa) = 0.02585516
#
# Stress axis : x y z
#
# Youngs Moduli (GPa) = 55.41225 36.02755 82.80055
#
# Poissons Ratio (x) = 0.31265 0.06650
# Poissons Ratio (y) = 0.48087 0.54080
# Poissons Ratio (z) = 0.04451 0.23531
#
# Static dielectric constant tensor:
#      x y z
#    x 3.638630 0.000000 -0.052090 
#    y 0.000000 3.541210 0.000000 
#    z -0.052090 0.000000 4.026690 
# 
# 
# High freq. dielectric constant tensor:
#      x y z
#    x 1.803530 0.000000 -0.001620 
#    y 0.000000 1.790620 0.000000 
#    z -0.001620 0.000000 1.834360 
# 
# From -- ./inp_files/310310.got.cif
#   From: 2010.06.25/outbox.cif.g09.slc.cpg/sg15_156_cif.got.tgz:310310.got - 2010.06.28 07:06:18.
