data_PCOD8131367
_publ_section_title
;
Structure prediction by ZEFSAII (Michael W. Deem and Ramdas Pophale) SiO2 
 PCOD8131367
Probable space group: C 2/C
;
_chemical_formula_sum "Si O2"
_cell_formula_units_Z 60
_cell_length_a 16.173387
_cell_length_b 10.715094
_cell_length_c 17.484472
_cell_angle_alpha 90.000000
_cell_angle_beta 85.980878
_cell_angle_gamma 90.000000
_cell_volume 3022.596088
_symmetry_space_group_name_H-M "C 2/C"
_symmetry_group_IT_number 15
_symmetry_cell_setting 'monoclinic'
loop_
_space_group_symop_operation_xyz
x,y,z
-x,y,1/2-z
-x,-y,-z
x,-y,1/2+z
1/2+x,1/2+y,z
1/2-x,1/2+y,1/2-z
1/2-x,1/2-y,-z
1/2+x,1/2-y,1/2+z
loop_
_atom_site_type_symbol
_atom_site_label
_atom_site_fract_x
_atom_site_fract_y
_atom_site_fract_z
Si Si1 0.559367 0.198629 0.871299
Si Si2 0.960572 0.476585 0.920267
Si Si3 0.223725 0.565145 0.057095
Si Si4 0.326017 0.346250 0.003750
Si Si5 0.761480 0.679850 0.609913
Si Si6 0.500000 0.387570 0.750000
Si Si7 0.109543 0.981158 0.126584
Si Si8 0.505040 0.716146 0.541604
O O1 0.653629 0.155032 0.850404
O O2 0.540579 0.304311 0.812149
O O3 0.502724 0.075874 0.860211
O O4 0.547761 0.257588 0.956782
O O5 0.863108 0.504941 0.924029
O O6 0.976122 0.330346 0.900744
O O7 0.000000 0.500000 0.000000
O O8 0.241149 0.672668 0.117728
O O9 0.295401 0.461966 0.057205
O O10 0.222967 0.633146 0.976325
O O11 0.355479 0.396559 0.919129
O O12 0.250000 0.250000 0.000000
O O13 0.405517 0.288514 0.040846
O O14 0.684736 0.605352 0.650468
O O15 0.432629 0.477142 0.792599
O O16 0.045646 0.908587 0.074140
#
# Coordination Sequence:
#
# PCOD8131367 Si02
#       8
#     8   8   8   8   8   4   8   8
#     4  11  22  40  65  91 126 165 203 260 322 375
#     4  10  18  34  61  94 123 149 195 254 319 365
#     4  10  18  32  58  99 125 146 197 268 313 356
#     4  11  22  32  60 103 131 151 204 269 319 356
#     4  10  19  37  62  88 118 159 204 256 310 360
#     4  12  28  44  60  84 132 180 206 244 330 402
#     4  11  24  42  63  90 128 168 213 261 312 386
#     4  11  20  39  67  98 119 164 213 268 310 365
#
# _framework density 19.850484999999999
#
# number of rings (size 3 to 8) (size 9 to 14) (size 15 to 20)
#    0.000    1.333    5.333    3.600    3.733    0.000 
#    0.000    3.333    0.000    0.000    0.000    0.000 
#    0.000    0.000    0.000    0.000    0.000    0.000 
#
# Total GULP energy -371913.242601 kJ/mol
# GULP energy per Si atom -12397.108087 kJ/mol
# Density = 1.980530 g / cm^3
# Si number density = 19.850485 Si / 1000 Ang^3
#
#
#
# Elastic Constant Matrix: (Units=GPa)
#
#
# Indices 1 2 3 4 5 6 
#
# 1 158.5291 49.6906 37.4264 0.0000 -25.5322 0.0000
# 2 49.6906 109.2725 51.6915 0.0000 -17.1763 0.0000
# 3 37.4264 51.6915 62.7097 0.0000 -18.1106 0.0000
# 4 0.0000 0.0000 0.0000 9.3647 0.0000 3.9756
# 5 -25.5322 -17.1763 -18.1106 0.0000 19.1002 0.0000
# 6 0.0000 0.0000 0.0000 3.9756 0.0000 42.9438
#
#
#
# Elastic Compliance Matrix: (Units=1/GPa)
#
#
# Indices 1 2 3 4 5 6 
#
# 1 0.008585 -0.002131 -0.000835 0.000000 0.008768 0.000000
# 2 -0.002131 0.015612 -0.011520 0.000000 0.000268 0.000000
# 3 -0.000835 -0.011520 0.031159 0.000000 0.018069 0.000000
# 4 0.000000 0.000000 0.000000 0.111152 0.000000 -0.010290
# 5 0.008768 0.000268 0.018069 0.000000 0.081451 0.000000
# 6 0.000000 0.000000 0.000000 -0.010290 0.000000 0.024239
#
#
# Mechanical properties :
#
#
# Convention : Reuss Voigt Hill
#
# Bulk Modulus (GPa) = 37.90063 67.56980 52.73521
# Shear Modulus (GPa) = 16.13089 27.06192 21.59640
#
# Velocity S-wave (km/s) = 2.85374 3.69628 3.30199
# Velocity P-wave (km/s) = 5.47658 7.23394 6.41572
#
# Compressibility (1/GPa) = 0.02638479
#
# Stress axis : x y z
#
# Youngs Moduli (GPa) = 116.47911 64.05345 32.09343
#
# Poissons Ratio (x) = 0.13648 0.02680
# Poissons Ratio (y) = 0.24818 0.36971
# Poissons Ratio (z) = 0.09729 0.73788
#
# Static dielectric constant tensor:
#      x y z
#    x 3.944360 0.000000 -0.228450 
#    y 0.000000 4.300410 0.000000 
#    z -0.228450 0.000000 3.108340 
# 
# 
# High freq. dielectric constant tensor:
#      x y z
#    x 1.797040 0.000000 -0.012740 
#    y 0.000000 1.794480 0.000000 
#    z -0.012740 0.000000 1.702300 
# 
# From -- ./inp_files/204032.got.cif
#   From: 2010.06.25/outbox.cif.g09.slc.cpg/sg15_103_cif.got.tgz:204032.got - 2010.06.28 07:06:18.
