data_PCOD8131209
_publ_section_title
;
Structure prediction by ZEFSAII (Michael W. Deem and Ramdas Pophale) SiO2 
 PCOD8131209
Probable space group: C 2/C
;
_chemical_formula_sum "Si O2"
_cell_formula_units_Z 60
_cell_length_a 9.131016
_cell_length_b 14.997997
_cell_length_c 24.147941
_cell_angle_alpha 90.000000
_cell_angle_beta 106.167874
_cell_angle_gamma 90.000000
_cell_volume 3176.195440
_symmetry_space_group_name_H-M "C 2/C"
_symmetry_group_IT_number 15
_symmetry_cell_setting 'monoclinic'
loop_
_space_group_symop_operation_xyz
x,y,z
-x,y,1/2-z
-x,-y,-z
x,-y,1/2+z
1/2+x,1/2+y,z
1/2-x,1/2+y,1/2-z
1/2-x,1/2-y,-z
1/2+x,1/2-y,1/2+z
loop_
_atom_site_type_symbol
_atom_site_label
_atom_site_fract_x
_atom_site_fract_y
_atom_site_fract_z
Si Si1 0.571535 0.650274 0.147590
Si Si2 0.061403 0.991441 0.067588
Si Si3 0.000000 0.068669 0.250000
Si Si4 0.881259 0.519742 0.644108
Si Si5 0.629118 0.846623 0.147667
Si Si6 0.705348 0.578992 0.734066
Si Si7 0.945955 0.846431 0.134959
Si Si8 0.070815 0.337729 0.816152
O O1 0.505841 0.577071 0.097406
O O2 0.481538 0.631900 0.194867
O O3 0.546396 0.752234 0.126927
O O4 0.751751 0.640345 0.175005
O O5 0.244693 0.995290 0.086343
O O6 0.005524 0.895379 0.085906
O O7 0.000000 0.000000 0.000000
O O8 0.156925 0.011526 0.260619
O O9 0.816805 0.560020 0.694511
O O10 0.986881 0.432467 0.666674
O O11 0.995353 0.584454 0.624861
O O12 0.705321 0.851666 0.217151
O O13 0.766121 0.867853 0.119836
O O14 0.542417 0.616814 0.696808
O O15 0.961392 0.738415 0.140773
O O16 0.000000 0.309920 0.750000
#
# Coordination Sequence:
#
# PCOD8131209 Si02
#       8
#     8   8   4   8   8   8   8   8
#     4  10  22  33  53  86 111 151 185 222 283 336
#     4  10  21  45  62  73 105 153 201 240 276 339
#     4  12  18  34  52  78 120 152 190 210 264 356
#     4  10  22  35  51  85 112 146 191 228 284 325
#     4  11  20  34  53  84 124 139 176 239 280 336
#     4  11  18  33  50  77 118 157 179 206 275 346
#     4  10  19  34  55  80 103 149 190 216 274 340
#     4  10  18  32  51  82 122 143 177 220 275 343
#
# _framework density 18.890525
#
# number of rings (size 3 to 8) (size 9 to 14) (size 15 to 20)
#    0.000    1.600    5.333    2.800    1.867    0.000 
#    0.000    7.333    0.000    0.000    0.000    0.000 
#    0.000    0.000    0.000    0.000    0.000    0.000 
#
# Total GULP energy -371726.419333 kJ/mol
# GULP energy per Si atom -12390.880644 kJ/mol
# Density = 1.884753 g / cm^3
# Si number density = 18.890525 Si / 1000 Ang^3
#
#
#
# Elastic Constant Matrix: (Units=GPa)
#
#
# Indices 1 2 3 4 5 6 
#
# 1 59.3983 40.7602 20.3889 0.0000 2.1197 0.0000
# 2 40.7602 125.2158 30.4901 0.0000 -5.5751 0.0000
# 3 20.3889 30.4901 100.6945 0.0000 -0.8331 0.0000
# 4 0.0000 0.0000 0.0000 12.0056 0.0000 3.0792
# 5 2.1197 -5.5751 -0.8331 0.0000 12.8001 0.0000
# 6 0.0000 0.0000 0.0000 3.0792 0.0000 28.2585
#
#
#
# Elastic Compliance Matrix: (Units=1/GPa)
#
#
# Indices 1 2 3 4 5 6 
#
# 1 0.022852 -0.007139 -0.002524 0.000000 -0.007058 0.000000
# 2 -0.007139 0.011020 -0.001843 0.000000 0.005862 0.000000
# 3 -0.002524 -0.001843 0.011003 0.000000 0.000332 0.000000
# 4 0.000000 0.000000 0.000000 0.085689 0.000000 -0.009337
# 5 -0.007058 0.005862 0.000332 0.000000 0.081868 0.000000
# 6 0.000000 0.000000 0.000000 -0.009337 0.000000 0.036405
#
#
# Mechanical properties :
#
#
# Convention : Reuss Voigt Hill
#
# Bulk Modulus (GPa) = 45.73714 52.06523 48.90118
# Shear Modulus (GPa) = 17.91241 23.52413 20.71827
#
# Velocity S-wave (km/s) = 3.08266 3.53269 3.31532
# Velocity P-wave (km/s) = 6.07739 6.65291 6.37165
#
# Compressibility (1/GPa) = 0.02186407
#
# Stress axis : x y z
#
# Youngs Moduli (GPa) = 43.75911 90.74698 90.88556
#
# Poissons Ratio (x) = 0.64780 0.22940
# Poissons Ratio (y) = 0.31238 0.16748
# Poissons Ratio (z) = 0.11045 0.16723
#
# Static dielectric constant tensor:
#      x y z
#    x 3.423850 0.000000 0.065070 
#    y 0.000000 3.964180 0.000000 
#    z 0.065070 0.000000 2.988060 
# 
# 
# High freq. dielectric constant tensor:
#      x y z
#    x 1.729620 0.000000 0.005740 
#    y 0.000000 1.750400 0.000000 
#    z 0.005740 0.000000 1.678610 
# 
# From -- ./inp_files/264765.got.cif
#   From: 2010.06.25/outbox.cif.g09.slc.cpg/sg15_133_cif.got.tgz:264765.got - 2010.06.28 07:06:18.
