data_PCOD8131659
_publ_section_title
;
Structure prediction by ZEFSAII (Michael W. Deem and Ramdas Pophale) SiO2 
 PCOD8131659
Probable space group: C 2/C
;
_chemical_formula_sum "Si O2"
_cell_formula_units_Z 44
_cell_length_a 14.880250
_cell_length_b 8.689588
_cell_length_c 17.511606
_cell_angle_alpha 90.000000
_cell_angle_beta 76.108913
_cell_angle_gamma 90.000000
_cell_volume 2198.085128
_symmetry_space_group_name_H-M "C 2/C"
_symmetry_group_IT_number 15
_symmetry_cell_setting 'monoclinic'
loop_
_space_group_symop_operation_xyz
x,y,z
-x,y,1/2-z
-x,-y,-z
x,-y,1/2+z
1/2+x,1/2+y,z
1/2-x,1/2+y,1/2-z
1/2-x,1/2-y,-z
1/2+x,1/2-y,1/2+z
loop_
_atom_site_type_symbol
_atom_site_label
_atom_site_fract_x
_atom_site_fract_y
_atom_site_fract_z
Si Si1 0.978637 0.923457 0.873744
Si Si2 0.345430 0.000778 0.366087
Si Si3 0.600131 0.691131 0.704117
Si Si4 0.349420 0.368336 0.141936
Si Si5 0.145333 0.285377 0.004656
Si Si6 0.500000 0.175369 0.750000
O O1 0.910010 0.026200 0.834644
O O2 0.061797 0.024248 0.889202
O O3 0.917534 0.856189 0.954103
O O4 0.023655 0.784345 0.816735
O O5 0.240469 0.956915 0.369411
O O6 0.377816 0.942770 0.444355
O O7 0.410405 0.927413 0.287396
O O8 0.354487 0.185474 0.362594
O O9 0.500000 0.753421 0.750000
O O10 0.663415 0.677096 0.767065
O O11 0.366253 0.214489 0.085510
O O12 0.250000 0.250000 0.000000
#
# Coordination Sequence:
#
# PCOD8131659 Si02
#       6
#     8   8   8   8   8   4
#     4  10  19  36  59  77 112 149 184 223 285 329
#     4  10  21  34  58  80 114 142 189 227 277 325
#     4  10  20  37  56  83 113 141 185 231 273 320
#     4  10  20  34  58  82 109 145 187 226 276 332
#     4   9  20  37  56  79 113 151 184 225 279 334
#     4  10  18  34  54  78 108 150 178 224 278 330
#
# _framework density 20.017423000000001
#
# number of rings (size 3 to 8) (size 9 to 14) (size 15 to 20)
#    0.000    2.182    3.636    0.545    2.545    1.455 
#    0.000    7.273    4.000    0.000    0.000    0.000 
#    0.000    0.000    0.000    0.000    0.000    0.000 
#
# Total GULP energy -272608.574267 kJ/mol
# GULP energy per Si atom -12391.298830 kJ/mol
# Density = 1.997186 g / cm^3
# Si number density = 20.017423 Si / 1000 Ang^3
#
#
#
# Elastic Constant Matrix: (Units=GPa)
#
#
# Indices 1 2 3 4 5 6 
#
# 1 64.1870 6.1766 10.7459 0.0000 2.3698 0.0000
# 2 6.1766 63.1172 11.8682 0.0000 -0.1543 0.0000
# 3 10.7459 11.8682 56.8590 0.0000 5.7541 0.0000
# 4 0.0000 0.0000 0.0000 22.7517 0.0000 -5.4160
# 5 2.3698 -0.1543 5.7541 0.0000 29.8386 0.0000
# 6 0.0000 0.0000 0.0000 -5.4160 0.0000 17.9464
#
#
#
# Elastic Compliance Matrix: (Units=1/GPa)
#
#
# Indices 1 2 3 4 5 6 
#
# 1 0.016172 -0.001066 -0.002757 0.000000 -0.000758 0.000000
# 2 -0.001066 0.016578 -0.003341 0.000000 0.000815 0.000000
# 3 -0.002757 -0.003341 0.019159 0.000000 -0.003493 0.000000
# 4 0.000000 0.000000 0.000000 0.047355 0.000000 0.014291
# 5 -0.000758 0.000815 -0.003493 0.000000 0.034252 0.000000
# 6 0.000000 0.000000 0.000000 0.014291 0.000000 0.060034
#
#
# Mechanical properties :
#
#
# Convention : Reuss Voigt Hill
#
# Bulk Modulus (GPa) = 26.60968 26.86052 26.73510
# Shear Modulus (GPa) = 22.68546 24.46550 23.57548
#
# Velocity S-wave (km/s) = 3.37008 3.49980 3.43556
# Velocity P-wave (km/s) = 5.33530 5.45703 5.39651
#
# Compressibility (1/GPa) = 0.03758031
#
# Stress axis : x y z
#
# Youngs Moduli (GPa) = 61.83668 60.32037 52.19378
#
# Poissons Ratio (x) = 0.06430 0.14390
# Poissons Ratio (y) = 0.06592 0.17440
# Poissons Ratio (z) = 0.17049 0.20155
#
# Static dielectric constant tensor:
#      x y z
#    x 3.505790 0.000000 -0.025420 
#    y 0.000000 3.588300 0.000000 
#    z -0.025420 0.000000 4.041050 
# 
# 
# High freq. dielectric constant tensor:
#      x y z
#    x 1.772680 0.000000 -0.006650 
#    y 0.000000 1.765200 0.000000 
#    z -0.006650 0.000000 1.783880 
# 
# From -- ./inp_files/202619.got.cif
#   From: 2010.06.25/outbox.cif.g09.slc.cpg/sg15_102_cif.got.tgz:202619.got - 2010.06.28 07:06:18.
