data_PCOD8131110
_publ_section_title
;
Structure prediction by ZEFSAII (Michael W. Deem and Ramdas Pophale) SiO2 
 PCOD8131110
Probable space group: C 2/C
;
_chemical_formula_sum "Si O2"
_cell_formula_units_Z 60
_cell_length_a 33.840298
_cell_length_b 13.456170
_cell_length_c 17.380621
_cell_angle_alpha 90.000000
_cell_angle_beta 154.687242
_cell_angle_gamma 90.000000
_cell_volume 3383.897135
_symmetry_space_group_name_H-M "C 2/C"
_symmetry_group_IT_number 15
_symmetry_cell_setting 'monoclinic'
loop_
_space_group_symop_operation_xyz
x,y,z
-x,y,1/2-z
-x,-y,-z
x,-y,1/2+z
1/2+x,1/2+y,z
1/2-x,1/2+y,1/2-z
1/2-x,1/2-y,-z
1/2+x,1/2-y,1/2+z
loop_
_atom_site_type_symbol
_atom_site_label
_atom_site_fract_x
_atom_site_fract_y
_atom_site_fract_z
Si Si1 0.202977 0.148116 0.439434
Si Si2 0.694175 0.577143 0.590446
Si Si3 0.691396 0.033344 0.430877
Si Si4 0.007173 0.437127 0.088680
Si Si5 0.495011 0.286605 0.904904
Si Si6 0.807445 0.401546 0.741971
Si Si7 0.200331 0.827248 0.263814
Si Si8 0.500000 0.648062 0.250000
O O1 0.250000 0.250000 0.500000
O O2 0.229248 0.134284 0.575743
O O3 0.092739 0.145387 0.228711
O O4 0.240158 0.060188 0.451473
O O5 0.731367 0.465267 0.652725
O O6 0.724044 0.630576 0.721373
O O7 0.584084 0.571367 0.394870
O O8 0.685330 0.082001 0.336430
O O9 0.731116 0.116614 0.557629
O O10 0.591390 0.989586 0.283998
O O11 0.027606 0.322438 0.101429
O O12 0.000000 0.500000 0.000000
O O13 0.907157 0.432706 0.955070
O O14 0.503134 0.276675 0.826923
O O15 0.592742 0.336018 0.103873
O O16 0.777153 0.288904 0.702079
#
# Coordination Sequence:
#
# PCOD8131110 Si02
#       8
#     8   8   8   8   8   8   8   4
#     4  10  18  31  54  79 105 131 175 221 261 306
#     4   9  19  34  53  74 102 135 170 213 267 304
#     4  10  19  32  52  78 103 137 173 215 262 313
#     4   9  17  31  50  72 101 135 171 212 260 306
#     4   9  17  32  50  76 101 134 173 213 262 310
#     4   9  19  35  54  71 103 142 172 213 262 317
#     4  10  20  34  53  77 105 137 177 215 262 323
#     4   8  16  32  54  72  94 132 172 212 252 318
#
# _framework density 17.731036
#
# number of rings (size 3 to 8) (size 9 to 14) (size 15 to 20)
#    0.000    2.667    1.333    0.400    0.000    1.600 
#    4.800    0.000    2.933    0.000    0.000    0.000 
#    0.000    0.000    0.000    0.000    0.000    0.000 
#
# Total GULP energy -371642.480291 kJ/mol
# GULP energy per Si atom -12388.082676 kJ/mol
# Density = 1.769068 g / cm^3
# Si number density = 17.731036 Si / 1000 Ang^3
#
#
#
# Elastic Constant Matrix: (Units=GPa)
#
#
# Indices 1 2 3 4 5 6 
#
# 1 65.1154 55.3638 37.6413 0.0000 5.8196 0.0000
# 2 55.3638 133.1424 65.2507 0.0000 8.5551 0.0000
# 3 37.6413 65.2507 107.9706 0.0000 8.6406 0.0000
# 4 0.0000 0.0000 0.0000 34.9070 0.0000 4.0644
# 5 5.8196 8.5551 8.6406 0.0000 14.9209 0.0000
# 6 0.0000 0.0000 0.0000 4.0644 0.0000 24.9178
#
#
#
# Elastic Compliance Matrix: (Units=1/GPa)
#
#
# Indices 1 2 3 4 5 6 
#
# 1 0.024723 -0.008502 -0.003250 0.000000 -0.002886 0.000000
# 2 -0.008502 0.013685 -0.005184 0.000000 -0.001528 0.000000
# 3 -0.003250 -0.005184 0.013829 0.000000 -0.003769 0.000000
# 4 0.000000 0.000000 0.000000 0.029202 0.000000 -0.004763
# 5 -0.002886 -0.001528 -0.003769 0.000000 0.071205 0.000000
# 6 0.000000 0.000000 0.000000 -0.004763 0.000000 0.040909
#
#
# Mechanical properties :
#
#
# Convention : Reuss Voigt Hill
#
# Bulk Modulus (GPa) = 54.45147 69.19332 61.82239
# Shear Modulus (GPa) = 21.40903 24.81396 23.11150
#
# Velocity S-wave (km/s) = 3.47858 3.74500 3.61425
# Velocity P-wave (km/s) = 6.84912 7.60320 7.23599
#
# Compressibility (1/GPa) = 0.01836498
#
# Stress axis : x y z
#
# Youngs Moduli (GPa) = 40.44841 73.07310 72.31085
#
# Poissons Ratio (x) = 0.62128 0.23500
# Poissons Ratio (y) = 0.34390 0.37485
# Poissons Ratio (z) = 0.13145 0.37880
#
# Static dielectric constant tensor:
#      x y z
#    x 3.217810 0.000000 0.246630 
#    y 0.000000 3.285870 0.000000 
#    z 0.246630 0.000000 3.654960 
# 
# 
# High freq. dielectric constant tensor:
#      x y z
#    x 1.664840 0.000000 0.015830 
#    y 0.000000 1.682030 0.000000 
#    z 0.015830 0.000000 1.692350 
# 
# From -- ./inp_files/182337.got.cif
#   From: 2010.06.25/outbox.cif.g09.slc.cpg/sg15_92_cif.got.tgz:182337.got - 2010.06.28 07:06:18.
