data_PCOD8131887
_publ_section_title
;
Structure prediction by ZEFSAII (Michael W. Deem and Ramdas Pophale) SiO2 
 PCOD8131887
Probable space group: C 2/C
;
_chemical_formula_sum "Si O2"
_cell_formula_units_Z 64
_cell_length_a 27.921139
_cell_length_b 9.467149
_cell_length_c 14.327527
_cell_angle_alpha 90.000000
_cell_angle_beta 117.879131
_cell_angle_gamma 90.000000
_cell_volume 3347.683592
_symmetry_space_group_name_H-M "C 2/C"
_symmetry_group_IT_number 15
_symmetry_cell_setting 'monoclinic'
loop_
_space_group_symop_operation_xyz
x,y,z
-x,y,1/2-z
-x,-y,-z
x,-y,1/2+z
1/2+x,1/2+y,z
1/2-x,1/2+y,1/2-z
1/2-x,1/2-y,-z
1/2+x,1/2-y,1/2+z
loop_
_atom_site_type_symbol
_atom_site_label
_atom_site_fract_x
_atom_site_fract_y
_atom_site_fract_z
Si Si1 0.266402 0.547844 0.200836
Si Si2 0.850948 0.259835 0.232816
Si Si3 0.029640 0.969392 0.369341
Si Si4 0.144915 0.898373 0.950610
Si Si5 0.942777 0.088242 0.408282
Si Si6 0.250303 0.917828 0.501350
Si Si7 0.362049 0.345973 0.347348
Si Si8 0.325850 0.937223 0.734600
O O1 0.291493 0.703948 0.208401
O O2 0.315054 0.439263 0.260222
O O3 0.226529 0.564553 0.248910
O O4 0.234083 0.487301 0.083018
O O5 0.855914 0.224026 0.127831
O O6 0.896264 0.191866 0.337647
O O7 0.860508 0.420854 0.271990
O O8 0.037336 0.868792 0.468243
O O9 0.000000 0.902108 0.250000
O O10 0.088158 0.020557 0.388939
O O11 0.991290 0.095012 0.376301
O O12 0.150806 0.820211 0.055144
O O13 0.193194 0.013246 0.983118
O O14 0.919177 0.926683 0.388561
O O15 0.250000 0.750000 0.500000
O O16 0.302291 0.951252 0.610047
O O17 0.363605 0.197400 0.292530
#
# Coordination Sequence:
#
# PCOD8131887 Si02
#       8
#     8   8   8   8   8   8   8   8
#     4  10  21  36  51  75 116 153 198 231 275 326
#     4  10  22  36  55  84 114 152 195 236 277 346
#     4  10  18  34  65  90 103 145 193 247 286 334
#     4  10  21  37  59  84 113 151 198 238 280 342
#     4   9  20  37  58  91 113 139 191 248 288 332
#     4  11  23  35  55  86 119 157 191 242 280 337
#     4  10  20  37  56  81 118 152 189 238 280 340
#     4  12  23  35  56  82 119 161 186 228 289 344
#
# _framework density 19.117698000000001
#
# number of rings (size 3 to 8) (size 9 to 14) (size 15 to 20)
#    0.000    1.750    3.750    0.750    1.750    1.000 
#    0.000    0.000    0.000    6.750    3.250    0.000 
#    0.000    0.000    0.000    0.000    0.000    0.000 
#
# Total GULP energy -396453.529825 kJ/mol
# GULP energy per Si atom -12389.172807 kJ/mol
# Density = 1.907419 g / cm^3
# Si number density = 19.117698 Si / 1000 Ang^3
#
#
#
# Elastic Constant Matrix: (Units=GPa)
#
#
# Indices 1 2 3 4 5 6 
#
# 1 32.8302 8.9761 0.9601 0.0000 2.2139 0.0000
# 2 8.9761 86.6528 22.1480 0.0000 7.3262 0.0000
# 3 0.9601 22.1480 132.8413 0.0000 0.1626 0.0000
# 4 0.0000 0.0000 0.0000 18.0856 0.0000 -5.9155
# 5 2.2139 7.3262 0.1626 0.0000 24.7805 0.0000
# 6 0.0000 0.0000 0.0000 -5.9155 0.0000 6.8878
#
#
#
# Elastic Compliance Matrix: (Units=1/GPa)
#
#
# Indices 1 2 3 4 5 6 
#
# 1 0.031446 -0.003177 0.000305 0.000000 -0.001872 0.000000
# 2 -0.003177 0.012696 -0.002089 0.000000 -0.003456 0.000000
# 3 0.000305 -0.002089 0.007873 0.000000 0.000539 0.000000
# 4 0.000000 0.000000 0.000000 0.076893 0.000000 0.066038
# 5 -0.001872 -0.003456 0.000539 0.000000 0.041540 0.000000
# 6 0.000000 0.000000 0.000000 0.066038 0.000000 0.201900
#
#
# Mechanical properties :
#
#
# Convention : Reuss Voigt Hill
#
# Bulk Modulus (GPa) = 23.75796 35.16583 29.46190
# Shear Modulus (GPa) = 12.61667 24.63346 18.62506
#
# Velocity S-wave (km/s) = 2.57173 3.59348 3.12465
# Velocity P-wave (km/s) = 4.61222 5.97092 5.33500
#
# Compressibility (1/GPa) = 0.04209116
#
# Stress axis : x y z
#
# Youngs Moduli (GPa) = 31.80085 78.76723 127.01170
#
# Poissons Ratio (x) = 0.25024 -0.03870
# Poissons Ratio (y) = 0.10103 0.26539
# Poissons Ratio (z) = -0.00969 0.16458
#
# Static dielectric constant tensor:
#      x y z
#    x 3.492650 0.000000 -0.065770 
#    y 0.000000 3.291580 0.000000 
#    z -0.065770 0.000000 3.898240 
# 
# 
# High freq. dielectric constant tensor:
#      x y z
#    x 1.734750 0.000000 -0.006390 
#    y 0.000000 1.705980 0.000000 
#    z -0.006390 0.000000 1.772500 
# 
# From -- ./inp_files/180834.got.cif
#   From: 2010.06.25/outbox.cif.g09.slc.cpg/sg15_91_cif.got.tgz:180834.got - 2010.06.28 07:06:18.
