data_PCOD8131422
_publ_section_title
;
Structure prediction by ZEFSAII (Michael W. Deem and Ramdas Pophale) SiO2 
 PCOD8131422
Probable space group: C 2/C
;
_chemical_formula_sum "Si O2"
_cell_formula_units_Z 56
_cell_length_a 32.188185
_cell_length_b 17.120331
_cell_length_c 19.614679
_cell_angle_alpha 90.000000
_cell_angle_beta 17.587006
_cell_angle_gamma 90.000000
_cell_volume 3266.012052
_symmetry_space_group_name_H-M "C 2/C"
_symmetry_group_IT_number 15
_symmetry_cell_setting 'monoclinic'
loop_
_space_group_symop_operation_xyz
x,y,z
-x,y,1/2-z
-x,-y,-z
x,-y,1/2+z
1/2+x,1/2+y,z
1/2-x,1/2+y,1/2-z
1/2-x,1/2-y,-z
1/2+x,1/2-y,1/2+z
loop_
_atom_site_type_symbol
_atom_site_label
_atom_site_fract_x
_atom_site_fract_y
_atom_site_fract_z
Si Si1 0.614387 0.940359 0.521222
Si Si2 0.378105 0.817560 0.493791
Si Si3 0.545877 0.937513 0.017280
Si Si4 0.822366 0.137995 0.605270
Si Si5 0.046350 0.031675 0.320067
Si Si6 0.220821 0.531676 0.645595
Si Si7 0.672194 0.562488 0.264650
O O1 0.500000 0.903112 0.750000
O O2 0.697969 0.870993 0.354059
O O3 0.537860 0.993511 0.585152
O O4 0.716104 0.993516 0.406905
O O5 0.417683 0.855819 0.504264
O O6 0.351274 0.727604 0.547454
O O7 0.238421 0.855816 0.683530
O O8 0.500000 0.832535 0.250000
O O9 0.665208 0.958319 0.776100
O O10 0.400480 0.928536 0.207910
O O11 0.782801 0.098783 0.596029
O O12 0.959543 0.098788 0.419295
O O13 0.117270 0.071459 0.274337
O O14 0.161195 0.999244 0.088805
O O15 0.952176 0.958318 0.489131
#
# Coordination Sequence:
#
# PCOD8131422 Si02
#       7
#     8   8   8   8   8   8   8
#     4   9  16  33  52  69  92 125 163 203 232 271
#     4  11  20  34  49  70 100 128 155 195 235 281
#     4   9  19  31  52  75  92 121 167 197 231 283
#     4  10  22  31  45  73 102 127 158 188 237 294
#     4  10  18  33  51  72  97 125 156 200 240 274
#     4  10  18  33  51  72  97 125 156 200 240 274
#     4   9  19  31  52  75  92 121 167 197 231 283
#
# _framework density 17.146294000000001
#
# number of rings (size 3 to 8) (size 9 to 14) (size 15 to 20)
#    0.000    2.286    0.000    5.571    0.000    1.143 
#    0.000    4.286    0.000    0.000    0.000   12.000 
#    0.000    0.000    0.000    0.000    0.000    0.000 
#
# Total GULP energy -347229.834229 kJ/mol
# GULP energy per Si atom -12401.065508 kJ/mol
# Density = 1.710727 g / cm^3
# Si number density = 17.146294 Si / 1000 Ang^3
#
#
#
# Elastic Constant Matrix: (Units=GPa)
#
#
# Indices 1 2 3 4 5 6 
#
# 1 128.4629 51.0399 69.3482 -0.0002 -20.9216 -0.0006
# 2 51.0399 82.4356 45.9627 0.0039 -2.3015 0.0090
# 3 69.3482 45.9627 138.5503 0.0007 25.5671 0.0131
# 4 -0.0002 0.0039 0.0007 12.1027 0.0009 12.4792
# 5 -20.9216 -2.3015 25.5671 0.0009 27.8743 -0.0057
# 6 -0.0006 0.0090 0.0131 12.4792 -0.0057 -15.2596
#
#
#
# Elastic Compliance Matrix: (Units=1/GPa)
#
#
# Indices 1 2 3 4 5 6 
#
# 1 0.023693 -0.004700 -0.016262 0.000017 0.032311 -0.000016
# 2 -0.004700 0.017018 -0.003492 -0.000007 0.001081 0.000001
# 3 -0.016262 -0.003492 0.022656 -0.000016 -0.033275 0.000017
# 4 0.000017 -0.000007 -0.000016 0.044827 0.000033 0.036659
# 5 0.032311 0.001081 -0.033275 0.000033 0.090737 -0.000036
# 6 -0.000016 0.000001 0.000017 0.036659 -0.000036 -0.035553
#
#
# Mechanical properties :
#
#
# Convention : Reuss Voigt Hill
#
# Bulk Modulus (GPa) = 69.16765 75.79449 72.48107
# Shear Modulus (GPa) = 23.03007 17.15001 20.09004
#
# Velocity S-wave (km/s) = 3.66888 3.16605 3.42670
# Velocity P-wave (km/s) = 7.64034 7.59380 7.61710
#
# Compressibility (1/GPa) = 0.01445763
#
# Stress axis : x y z
#
# Youngs Moduli (GPa) = 42.20680 58.76046 44.13802
#
# Poissons Ratio (x) = 0.27619 0.71778
# Poissons Ratio (y) = 0.19838 0.15415
# Poissons Ratio (z) = 0.68637 0.20522
#
# Static dielectric constant tensor:
#      x y z
#    x 3.487820 0.000000 -0.026190 
#    y 0.000000 2.800670 0.000000 
#    z -0.026190 0.000000 3.430450 
# 
# 
# High freq. dielectric constant tensor:
#      x y z
#    x 1.681530 0.000000 -0.002070 
#    y 0.000000 1.619580 0.000000 
#    z -0.002070 0.000000 1.676990 
# 
# From -- ./inp_files/225653.got.cif
#   From: 2010.06.25/outbox.cif.g09.slc.cpg/sg15_113_cif.got.tgz:225653.got - 2010.06.28 07:06:18.
