data_PCOD8131318
_publ_section_title
;
Structure prediction by ZEFSAII (Michael W. Deem and Ramdas Pophale) SiO2 
 PCOD8131318
Probable space group: C 2/C
;
_chemical_formula_sum "Si O2"
_cell_formula_units_Z 60
_cell_length_a 12.319383
_cell_length_b 15.084230
_cell_length_c 18.373313
_cell_angle_alpha 90.000000
_cell_angle_beta 65.632655
_cell_angle_gamma 90.000000
_cell_volume 3110.135544
_symmetry_space_group_name_H-M "C 2/C"
_symmetry_group_IT_number 15
_symmetry_cell_setting 'monoclinic'
loop_
_space_group_symop_operation_xyz
x,y,z
-x,y,1/2-z
-x,-y,-z
x,-y,1/2+z
1/2+x,1/2+y,z
1/2-x,1/2+y,1/2-z
1/2-x,1/2-y,-z
1/2+x,1/2-y,1/2+z
loop_
_atom_site_type_symbol
_atom_site_label
_atom_site_fract_x
_atom_site_fract_y
_atom_site_fract_z
Si Si1 0.473539 0.090017 0.101415
Si Si2 0.000000 0.601147 0.250000
Si Si3 0.136708 0.139634 0.587800
Si Si4 0.391494 0.713029 0.651510
Si Si5 0.838857 0.087373 0.543048
Si Si6 0.282667 0.774937 0.823743
Si Si7 0.898674 0.106574 0.064709
Si Si8 0.689583 0.006894 0.470193
O O1 0.464409 0.047641 0.186374
O O2 0.454626 0.195720 0.108921
O O3 0.365620 0.050317 0.085493
O O4 0.599445 0.064862 0.030558
O O5 0.106345 0.661798 0.191442
O O6 0.221619 0.205507 0.608983
O O7 0.139950 0.154071 0.500018
O O8 0.998042 0.148380 0.650493
O O9 0.188408 0.041329 0.588114
O O10 0.318675 0.666580 0.606210
O O11 0.296500 0.727174 0.742072
O O12 0.726320 0.082502 0.519082
O O13 0.959392 0.106763 0.464263
O O14 0.850225 0.993876 0.582268
O O15 0.162099 0.833667 0.855780
#
# Coordination Sequence:
#
# PCOD8131318 Si02
#       8
#     8   4   8   8   8   8   8   8
#     4  10  21  38  58  87 112 157 191 242 287 358
#     4  10  18  34  58  80 114 144 188 236 294 332
#     4  10  18  32  56  87 111 146 190 250 275 340
#     4  10  21  35  58  85 118 150 199 233 301 338
#     4   9  19  36  55  88 115 152 191 245 284 350
#     4  11  18  32  55  89 113 150 190 244 289 344
#     4   9  19  31  57  85 121 147 191 237 302 331
#     4  10  22  37  59  87 118 149 204 233 294 339
#
# _framework density 19.291763
#
# number of rings (size 3 to 8) (size 9 to 14) (size 15 to 20)
#    0.000    2.133    2.667    2.800    3.733    0.533 
#    7.200    0.000    0.000    0.000    0.000    0.000 
#    0.000    0.000    0.000    0.000    0.000    0.000 
#
# Total GULP energy -371779.997124 kJ/mol
# GULP energy per Si atom -12392.666571 kJ/mol
# Density = 1.924785 g / cm^3
# Si number density = 19.291763 Si / 1000 Ang^3
#
#
#
# Elastic Constant Matrix: (Units=GPa)
#
#
# Indices 1 2 3 4 5 6 
#
# 1 110.3853 47.0443 48.9930 0.0000 17.8234 0.0000
# 2 47.0443 71.2116 56.7368 0.0000 5.7369 0.0000
# 3 48.9930 56.7368 95.4188 0.0000 9.4633 0.0000
# 4 0.0000 0.0000 0.0000 26.6170 0.0000 -1.9857
# 5 17.8234 5.7369 9.4633 0.0000 28.6869 0.0000
# 6 0.0000 0.0000 0.0000 -1.9857 0.0000 28.0217
#
#
#
# Elastic Compliance Matrix: (Units=1/GPa)
#
#
# Indices 1 2 3 4 5 6 
#
# 1 0.014152 -0.006745 -0.002603 0.000000 -0.006585 0.000000
# 2 -0.006745 0.029899 -0.014616 0.000000 0.003033 0.000000
# 3 -0.002603 -0.014616 0.020735 0.000000 -0.002300 0.000000
# 4 0.000000 0.000000 0.000000 0.037770 0.000000 0.002676
# 5 -0.006585 0.003033 -0.002300 0.000000 0.039103 0.000000
# 6 0.000000 0.000000 0.000000 0.002676 0.000000 0.035876
#
#
# Mechanical properties :
#
#
# Convention : Reuss Voigt Hill
#
# Bulk Modulus (GPa) = 59.31374 64.72932 62.02153
# Shear Modulus (GPa) = 21.63721 24.94790 23.29256
#
# Velocity S-wave (km/s) = 3.35263 3.60000 3.47851
# Velocity P-wave (km/s) = 6.76751 7.13482 6.95359
#
# Compressibility (1/GPa) = 0.01685950
#
# Stress axis : x y z
#
# Youngs Moduli (GPa) = 70.65965 33.44545 48.22692
#
# Poissons Ratio (x) = 0.22560 0.12552
# Poissons Ratio (y) = 0.47662 0.70488
# Poissons Ratio (z) = 0.18390 0.48884
#
# Static dielectric constant tensor:
#      x y z
#    x 3.532140 0.000000 0.030350 
#    y 0.000000 3.431390 0.000000 
#    z 0.030350 0.000000 3.483610 
# 
# 
# High freq. dielectric constant tensor:
#      x y z
#    x 1.739020 0.000000 0.000790 
#    y 0.000000 1.731990 0.000000 
#    z 0.000790 0.000000 1.737830 
# 
# From -- ./inp_files/238711.got.cif
#   From: 2010.06.25/outbox.cif.g09.slc.cpg/sg15_120_cif.got.tgz:238711.got - 2010.06.28 07:06:18.
