data_PCOD8131437
_publ_section_title
;
Structure prediction by ZEFSAII (Michael W. Deem and Ramdas Pophale) SiO2 
 PCOD8131437
Probable space group: C 2/C
;
_chemical_formula_sum "Si O2"
_cell_formula_units_Z 56
_cell_length_a 8.430660
_cell_length_b 16.111167
_cell_length_c 22.621056
_cell_angle_alpha 90.000000
_cell_angle_beta 107.907971
_cell_angle_gamma 90.000000
_cell_volume 2923.706741
_symmetry_space_group_name_H-M "C 2/C"
_symmetry_group_IT_number 15
_symmetry_cell_setting 'monoclinic'
loop_
_space_group_symop_operation_xyz
x,y,z
-x,y,1/2-z
-x,-y,-z
x,-y,1/2+z
1/2+x,1/2+y,z
1/2-x,1/2+y,1/2-z
1/2-x,1/2-y,-z
1/2+x,1/2-y,1/2+z
loop_
_atom_site_type_symbol
_atom_site_label
_atom_site_fract_x
_atom_site_fract_y
_atom_site_fract_z
Si Si1 0.125059 0.860325 0.913574
Si Si2 0.443066 0.796232 0.901826
Si Si3 0.912814 0.818554 0.177707
Si Si4 0.552260 0.803242 0.106018
Si Si5 0.110540 0.417627 0.002874
Si Si6 0.299471 0.643168 0.945392
Si Si7 0.044977 0.041508 0.911434
O O1 0.256802 0.836185 0.876932
O O2 0.976149 0.795036 0.903781
O O3 0.041902 0.947489 0.888150
O O4 0.229708 0.862016 0.987422
O O5 0.514394 0.762587 0.847889
O O6 0.427966 0.718176 0.945328
O O7 0.566340 0.869924 0.937203
O O8 0.713100 0.813401 0.166630
O O9 0.951986 0.901352 0.145863
O O10 0.000000 0.825478 0.250000
O O11 0.593960 0.846979 0.049847
O O12 0.377839 0.843729 0.108564
O O13 0.301927 0.445558 0.025742
O O14 0.000000 0.500000 0.000000
O O15 0.378019 0.558068 0.930190
#
# Coordination Sequence:
#
# PCOD8131437 Si02
#       7
#     8   8   8   8   8   8   8
#     4  11  18  35  54  95 120 144 174 232 299 370
#     4  10  19  34  57  81 117 148 191 226 292 345
#     4  10  24  43  57  74 107 156 211 247 272 330
#     4  10  20  35  58  79 117 151 185 236 293 345
#     4  11  18  32  54  92 117 150 180 231 293 364
#     4  10  18  33  52  89 126 144 173 224 294 373
#     4  10  22  32  58  85 120 151 181 229 297 345
#
# _framework density 19.153766999999998
#
# number of rings (size 3 to 8) (size 9 to 14) (size 15 to 20)
#    0.000    1.714    4.286    1.286    2.000    1.714 
#    0.000    7.857    0.000    0.000    0.000    0.000 
#    0.000    0.000    0.000    0.000    0.000    0.000 
#
# Total GULP energy -346985.714296 kJ/mol
# GULP energy per Si atom -12392.346939 kJ/mol
# Density = 1.911017 g / cm^3
# Si number density = 19.153767 Si / 1000 Ang^3
#
#
#
# Elastic Constant Matrix: (Units=GPa)
#
#
# Indices 1 2 3 4 5 6 
#
# 1 105.7680 42.0370 41.2420 0.0000 19.5162 0.0000
# 2 42.0370 129.7937 33.0362 0.0000 8.6871 0.0000
# 3 41.2420 33.0362 94.4437 0.0000 16.4241 0.0000
# 4 0.0000 0.0000 0.0000 11.9484 0.0000 1.6949
# 5 19.5162 8.6871 16.4241 0.0000 22.1811 0.0000
# 6 0.0000 0.0000 0.0000 1.6949 0.0000 33.6196
#
#
#
# Elastic Compliance Matrix: (Units=1/GPa)
#
#
# Indices 1 2 3 4 5 6 
#
# 1 0.013468 -0.002942 -0.003434 0.000000 -0.008155 0.000000
# 2 -0.002942 0.009132 -0.001995 0.000000 0.000489 0.000000
# 3 -0.003434 -0.001995 0.013916 0.000000 -0.006502 0.000000
# 4 0.000000 0.000000 0.000000 0.084296 0.000000 -0.004250
# 5 -0.008155 0.000489 -0.006502 0.000000 0.056881 0.000000
# 6 0.000000 0.000000 0.000000 -0.004250 0.000000 0.029959
#
#
# Mechanical properties :
#
#
# Convention : Reuss Voigt Hill
#
# Bulk Modulus (GPa) = 50.56889 62.51510 56.54199
# Shear Modulus (GPa) = 21.64636 27.79582 24.72109
#
# Velocity S-wave (km/s) = 3.36540 3.81359 3.59648
# Velocity P-wave (km/s) = 6.44671 7.21808 6.84327
#
# Compressibility (1/GPa) = 0.01977500
#
# Stress axis : x y z
#
# Youngs Moduli (GPa) = 74.25223 109.50038 71.85822
#
# Poissons Ratio (x) = 0.32215 0.24675
# Poissons Ratio (y) = 0.21845 0.14334
# Poissons Ratio (z) = 0.25497 0.21843
#
# Static dielectric constant tensor:
#      x y z
#    x 3.811020 0.000000 0.243640 
#    y 0.000000 3.781980 0.000000 
#    z 0.243640 0.000000 3.007940 
# 
# 
# High freq. dielectric constant tensor:
#      x y z
#    x 1.755840 0.000000 0.016310 
#    y 0.000000 1.761970 0.000000 
#    z 0.016310 0.000000 1.675500 
# 
# From -- ./inp_files/264785.got.cif
#   From: 2010.06.25/outbox.cif.g09.slc.cpg/sg15_133_cif.got.tgz:264785.got - 2010.06.28 07:06:18.
