data_PCOD8131020
_publ_section_title
;
Structure prediction by ZEFSAII (Michael W. Deem and Ramdas Pophale) SiO2 
 PCOD8131020
Probable space group: C 2/C
;
_chemical_formula_sum "Si O2"
_cell_formula_units_Z 60
_cell_length_a 15.586618
_cell_length_b 22.596244
_cell_length_c 21.609146
_cell_angle_alpha 90.000000
_cell_angle_beta 152.416951
_cell_angle_gamma 90.000000
_cell_volume 3524.020892
_symmetry_space_group_name_H-M "C 2/C"
_symmetry_group_IT_number 15
_symmetry_cell_setting 'monoclinic'
loop_
_space_group_symop_operation_xyz
x,y,z
-x,y,1/2-z
-x,-y,-z
x,-y,1/2+z
1/2+x,1/2+y,z
1/2-x,1/2+y,1/2-z
1/2-x,1/2-y,-z
1/2+x,1/2-y,1/2+z
loop_
_atom_site_type_symbol
_atom_site_label
_atom_site_fract_x
_atom_site_fract_y
_atom_site_fract_z
Si Si1 0.756229 0.622748 0.317029
Si Si2 0.500000 0.033687 0.250000
Si Si3 0.683081 0.504010 0.830632
Si Si4 0.169358 0.944503 0.061362
Si Si5 0.219669 0.211338 0.397242
Si Si6 0.996793 0.560048 0.112283
Si Si7 0.334777 0.480682 0.311871
Si Si8 0.358237 0.332601 0.524217
O O1 0.754838 0.559129 0.350846
O O2 0.810974 0.672316 0.401881
O O3 0.568303 0.646244 0.166136
O O4 0.912462 0.617585 0.363183
O O5 0.317679 0.994930 0.143058
O O6 0.465849 0.073245 0.166067
O O7 0.500000 0.488390 0.750000
O O8 0.648886 0.545455 0.747510
O O9 0.810237 0.540253 0.958801
O O10 0.127982 0.934539 0.108619
O O11 0.244167 0.883612 0.080392
O O12 0.975897 0.963744 0.906303
O O13 0.339477 0.271276 0.474909
O O14 0.246526 0.174400 0.477565
O O15 0.000000 0.224909 0.250000
O O16 0.127825 0.503449 0.189938
#
# Coordination Sequence:
#
# PCOD8131020 Si02
#       8
#     8   4   8   8   8   8   8   8
#     4  10  19  34  50  71 102 138 174 204 250 299
#     4  10  22  30  46  80 102 134 168 212 254 314
#     4  11  19  31  50  73 104 141 169 201 255 306
#     4  10  18  31  48  68 109 135 167 205 254 294
#     4   9  20  32  49  74 101 131 181 209 240 296
#     4  10  20  33  49  74 102 132 177 206 251 312
#     4   9  18  31  45  71 100 135 174 202 240 310
#     4  10  18  33  49  71 101 143 164 206 248 297
#
# _framework density 17.026005999999999
#
# number of rings (size 3 to 8) (size 9 to 14) (size 15 to 20)
#    0.000    2.133    2.667    3.600    2.800    0.000 
#    0.000    0.000    0.000    0.000    0.000    0.933 
#    2.000    0.000    0.000    0.000    0.000    0.000 
#
# Total GULP energy -371668.368909 kJ/mol
# GULP energy per Si atom -12388.945630 kJ/mol
# Density = 1.698725 g / cm^3
# Si number density = 17.026006 Si / 1000 Ang^3
#
#
#
# Elastic Constant Matrix: (Units=GPa)
#
#
# Indices 1 2 3 4 5 6 
#
# 1 127.2971 47.0461 37.6270 0.0013 -29.6899 0.0056
# 2 47.0461 78.8225 27.5632 0.0171 -12.5016 0.0026
# 3 37.6270 27.5632 62.7405 0.0275 -18.2488 -0.0221
# 4 0.0013 0.0171 0.0275 15.4259 0.0036 -5.6927
# 5 -29.6899 -12.5016 -18.2488 0.0036 32.1081 -0.0030
# 6 0.0056 0.0026 -0.0221 -5.6927 -0.0030 14.0064
#
#
#
# Elastic Compliance Matrix: (Units=1/GPa)
#
#
# Indices 1 2 3 4 5 6 
#
# 1 0.012460 -0.005172 -0.002917 0.000007 0.007850 -0.000004
# 2 -0.005172 0.017307 -0.004711 -0.000016 -0.000722 -0.000015
# 3 -0.002917 -0.004711 0.022092 -0.000025 0.008024 0.000028
# 4 0.000007 -0.000016 -0.000025 0.076265 -0.000020 0.030997
# 5 0.007850 -0.000722 0.008024 -0.000020 0.042683 0.000011
# 6 -0.000004 -0.000015 0.000028 0.030997 0.000011 0.083995
#
#
# Mechanical properties :
#
#
# Convention : Reuss Voigt Hill
#
# Bulk Modulus (GPa) = 38.08393 54.81476 46.44934
# Shear Modulus (GPa) = 17.29173 22.74966 20.02069
#
# Velocity S-wave (km/s) = 3.19032 3.65933 3.43284
# Velocity P-wave (km/s) = 5.99896 7.07947 6.56149
#
# Compressibility (1/GPa) = 0.02625780
#
# Stress axis : x y z
#
# Youngs Moduli (GPa) = 80.25534 57.78123 45.26527
#
# Poissons Ratio (x) = 0.29883 0.13205
# Poissons Ratio (y) = 0.41507 0.21326
# Poissons Ratio (z) = 0.23413 0.27223
#
# Static dielectric constant tensor:
#      x y z
#    x 3.636180 0.000010 -0.342110 
#    y 0.000010 2.914160 -0.000030 
#    z -0.342110 -0.000030 3.360220 
# 
# 
# High freq. dielectric constant tensor:
#      x y z
#    x 1.662990 0.000000 -0.021980 
#    y 0.000000 1.602670 0.000000 
#    z -0.021980 0.000000 1.666070 
# 
# From -- ./inp_files/245595.got.cif
#   From: 2010.06.25/outbox.cif.g09.slc.cpg/sg15_123_cif.got.tgz:245595.got - 2010.06.28 07:06:18.
