data_PCOD8131002
_publ_section_title
;
Structure prediction by ZEFSAII (Michael W. Deem and Ramdas Pophale) SiO2 
 PCOD8131002
Probable space group: C 2/C
;
_chemical_formula_sum "Si O2"
_cell_formula_units_Z 60
_cell_length_a 13.268567
_cell_length_b 8.035116
_cell_length_c 22.857486
_cell_angle_alpha 90.000000
_cell_angle_beta 96.975522
_cell_angle_gamma 90.000000
_cell_volume 2418.900956
_symmetry_space_group_name_H-M "C 2/C"
_symmetry_group_IT_number 15
_symmetry_cell_setting 'monoclinic'
loop_
_space_group_symop_operation_xyz
x,y,z
-x,y,1/2-z
-x,-y,-z
x,-y,1/2+z
1/2+x,1/2+y,z
1/2-x,1/2+y,1/2-z
1/2-x,1/2-y,-z
1/2+x,1/2-y,1/2+z
loop_
_atom_site_type_symbol
_atom_site_label
_atom_site_fract_x
_atom_site_fract_y
_atom_site_fract_z
Si Si1 0.093029 0.255033 0.872820
Si Si2 0.005375 0.560078 0.933781
Si Si3 0.698679 0.067941 0.114617
Si Si4 0.209254 0.143227 0.165086
Si Si5 0.154069 0.848451 0.967722
Si Si6 0.313789 0.953745 0.267296
Si Si7 0.500000 0.846577 0.750000
Si Si8 0.918606 0.087338 0.917287
O O1 0.215610 0.253735 0.873920
O O2 0.050314 0.231958 0.803538
O O3 0.068602 0.434421 0.898161
O O4 0.038954 0.115428 0.910769
O O5 0.888558 0.574609 0.902558
O O6 0.065689 0.733239 0.934325
O O7 0.000000 0.500000 0.000000
O O8 0.744100 0.045707 0.182796
O O9 0.796151 0.038087 0.079444
O O10 0.644071 0.246415 0.102963
O O11 0.263434 0.984759 0.200419
O O12 0.115732 0.072039 0.122086
O O13 0.176676 0.258427 0.217362
O O14 0.250000 0.750000 0.000000
O O15 0.100306 0.954191 0.015664
O O16 0.424054 0.032801 0.277693
#
# Coordination Sequence:
#
# PCOD8131002 Si02
#       8
#     8   8   8   8   8   8   4   8
#     4  10  20  36  63  89 126 162 214 264 319 374
#     4  11  17  31  59  94 118 165 215 263 306 380
#     4  10  20  36  61  89 128 158 216 269 315 379
#     4  11  25  39  67  88 128 167 215 263 338 389
#     4  10  18  30  59  94 125 157 215 262 312 378
#     4  11  23  45  59  93 118 167 210 268 323 392
#     4  10  20  40  62  84 120 162 204 274 314 366
#     4  10  19  37  61  95 123 164 211 264 313 391
#
# _framework density 24.804652000000001
#
# number of rings (size 3 to 8) (size 9 to 14) (size 15 to 20)
#    0.000    1.600    6.667    2.400    1.867    1.067 
#    2.400    0.667    0.000    1.600    0.000    0.000 
#    0.000    0.000    0.000    0.000    0.000    0.000 
#
# Total GULP energy -371815.494009 kJ/mol
# GULP energy per Si atom -12393.849800 kJ/mol
# Density = 2.474820 g / cm^3
# Si number density = 24.804652 Si / 1000 Ang^3
#
#
#
# Elastic Constant Matrix: (Units=GPa)
#
#
# Indices 1 2 3 4 5 6 
#
# 1 131.7368 21.9923 28.8146 0.0000 -23.6856 0.0000
# 2 21.9923 54.7394 13.7194 0.0000 -19.6000 0.0000
# 3 28.8146 13.7194 119.2203 0.0000 -29.3823 0.0000
# 4 0.0000 0.0000 0.0000 27.2290 0.0000 2.2645
# 5 -23.6856 -19.6000 -29.3823 0.0000 27.1975 0.0000
# 6 0.0000 0.0000 0.0000 2.2645 0.0000 30.8918
#
#
#
# Elastic Compliance Matrix: (Units=1/GPa)
#
#
# Indices 1 2 3 4 5 6 
#
# 1 0.009065 -0.001179 -0.000435 0.000000 0.006575 0.000000
# 2 -0.001179 0.025166 0.002188 0.000000 0.019474 0.000000
# 3 -0.000435 0.002188 0.011634 0.000000 0.013767 0.000000
# 4 0.000000 0.000000 0.000000 0.036951 0.000000 -0.002709
# 5 0.006575 0.019474 0.013767 0.000000 0.071401 0.000000
# 6 0.000000 0.000000 0.000000 -0.002709 0.000000 0.032570
#
#
# Mechanical properties :
#
#
# Convention : Reuss Voigt Hill
#
# Bulk Modulus (GPa) = 21.26987 48.30545 34.78766
# Shear Modulus (GPa) = 24.83747 33.14168 28.98957
#
# Velocity S-wave (km/s) = 3.16780 3.65925 3.42236
# Velocity P-wave (km/s) = 4.68759 6.11311 5.44718
#
# Compressibility (1/GPa) = 0.04701487
#
# Stress axis : x y z
#
# Youngs Moduli (GPa) = 110.31475 39.73573 85.95484
#
# Poissons Ratio (x) = 0.04683 0.03737
# Poissons Ratio (y) = 0.13002 -0.18809
# Poissons Ratio (z) = 0.04796 -0.08695
#
# Static dielectric constant tensor:
#      x y z
#    x 4.737090 0.000000 -0.332370 
#    y 0.000000 4.211790 0.000000 
#    z -0.332370 0.000000 5.015230 
# 
# 
# High freq. dielectric constant tensor:
#      x y z
#    x 1.990200 0.000000 -0.010290 
#    y 0.000000 1.970460 0.000000 
#    z -0.010290 0.000000 2.002430 
# 
# From -- ./inp_files/272718.got.cif
#   From: 2010.06.25/outbox.cif.g09.slc.cpg/sg15_137_cif.got.tgz:272718.got - 2010.06.28 07:06:18.
