data_PCOD8131465
_publ_section_title
;
Structure prediction by ZEFSAII (Michael W. Deem and Ramdas Pophale) SiO2 
 PCOD8131465
Probable space group: C 2/C
;
_chemical_formula_sum "Si O2"
_cell_formula_units_Z 60
_cell_length_a 23.162670
_cell_length_b 25.986352
_cell_length_c 14.336108
_cell_angle_alpha 90.000000
_cell_angle_beta 22.429986
_cell_angle_gamma 90.000000
_cell_volume 3292.466973
_symmetry_space_group_name_H-M "C 2/C"
_symmetry_group_IT_number 15
_symmetry_cell_setting 'monoclinic'
loop_
_space_group_symop_operation_xyz
x,y,z
-x,y,1/2-z
-x,-y,-z
x,-y,1/2+z
1/2+x,1/2+y,z
1/2-x,1/2+y,1/2-z
1/2-x,1/2-y,-z
1/2+x,1/2-y,1/2+z
loop_
_atom_site_type_symbol
_atom_site_label
_atom_site_fract_x
_atom_site_fract_y
_atom_site_fract_z
Si Si1 0.755477 0.565019 0.977707
Si Si2 0.167743 0.634356 0.960861
Si Si3 0.525546 0.105038 0.992868
Si Si4 0.055970 0.806794 0.493739
Si Si5 0.135948 0.461187 0.615744
Si Si6 0.000000 0.119441 0.250000
Si Si7 0.263714 0.839586 0.579555
Si Si8 0.962894 0.311410 0.449852
O O1 0.751903 0.506870 0.021767
O O2 0.912715 0.573915 0.688582
O O3 0.624715 0.579539 0.100475
O O4 0.741906 0.600474 0.089078
O O5 0.297483 0.676490 0.786449
O O6 0.226373 0.581985 0.922495
O O7 0.000000 0.650213 0.250000
O O8 0.156834 0.624553 0.866355
O O9 0.416697 0.066347 0.210258
O O10 0.446480 0.157272 0.071378
O O11 0.054404 0.842246 0.587731
O O12 0.084187 0.747513 0.472624
O O13 0.899045 0.811854 0.671781
O O14 0.000000 0.480606 0.750000
O O15 0.344402 0.837422 0.557459
O O16 0.365097 0.813938 0.346085
#
# Coordination Sequence:
#
# PCOD8131465 Si02
#       8
#     8   8   8   8   8   4   8   8
#     4  10  18  33  54  78 112 138 176 223 281 321
#     4   9  20  39  56  79 110 145 193 225 259 328
#     4   9  18  34  56  80 103 138 194 222 256 329
#     4  11  20  35  58  77 117 148 174 223 285 316
#     4   9  20  35  56  75 105 145 184 225 269 309
#     4  10  20  32  52  88 108 138 178 218 272 352
#     4   9  21  33  49  88 115 138 171 228 281 337
#     4  10  20  33  55  82 114 140 181 224 272 329
#
# _framework density 18.223417000000001
#
# number of rings (size 3 to 8) (size 9 to 14) (size 15 to 20)
#    0.000    2.667    1.333    1.600    5.600    0.000 
#    0.000    6.667    0.000    0.000    0.000    0.000 
#    0.000    0.000    0.000    0.000    0.000    0.000 
#
# Total GULP energy -371749.680276 kJ/mol
# GULP energy per Si atom -12391.656009 kJ/mol
# Density = 1.818194 g / cm^3
# Si number density = 18.223417 Si / 1000 Ang^3
#
#
#
# Elastic Constant Matrix: (Units=GPa)
#
#
# Indices 1 2 3 4 5 6 
#
# 1 93.6685 53.3161 29.6681 -0.0292 -5.9165 0.0306
# 2 53.3161 121.0404 40.8154 -0.0236 -13.3329 0.0278
# 3 29.6681 40.8154 68.9603 -0.0579 -14.0579 0.0327
# 4 -0.0292 -0.0236 -0.0579 20.9731 0.0205 0.5012
# 5 -5.9165 -13.3329 -14.0579 0.0205 21.5829 -0.0256
# 6 0.0306 0.0278 0.0327 0.5012 -0.0256 22.0098
#
#
#
# Elastic Compliance Matrix: (Units=1/GPa)
#
#
# Indices 1 2 3 4 5 6 
#
# 1 0.014816 -0.005550 -0.003413 0.000007 -0.001591 -0.000011
# 2 -0.005550 0.012546 -0.004345 -0.000009 0.003399 0.000002
# 3 -0.003413 -0.004345 0.020529 0.000038 0.009752 -0.000010
# 4 0.000007 -0.000009 0.000038 0.047706 -0.000026 -0.001086
# 5 -0.001591 0.003399 0.009752 -0.000026 0.054348 0.000047
# 6 -0.000011 0.000002 -0.000010 -0.001086 0.000047 0.045459
#
#
# Mechanical properties :
#
#
# Convention : Reuss Voigt Hill
#
# Bulk Modulus (GPa) = 47.00549 59.02982 53.01766
# Shear Modulus (GPa) = 21.82332 23.57116 22.69724
#
# Velocity S-wave (km/s) = 3.46431 3.60036 3.53299
# Velocity P-wave (km/s) = 6.46930 7.05309 6.76750
#
# Compressibility (1/GPa) = 0.02127411
#
# Stress axis : x y z
#
# Youngs Moduli (GPa) = 67.49537 79.70652 48.71136
#
# Poissons Ratio (x) = 0.44240 0.16626
# Poissons Ratio (y) = 0.37462 0.21164
# Poissons Ratio (z) = 0.23038 0.34631
#
# Static dielectric constant tensor:
#      x y z
#    x 3.348900 -0.000030 -0.029930 
#    y -0.000030 3.310530 0.000060 
#    z -0.029930 0.000060 3.174640 
# 
# 
# High freq. dielectric constant tensor:
#      x y z
#    x 1.705040 0.000000 -0.004160 
#    y 0.000000 1.703170 0.000010 
#    z -0.004160 0.000010 1.680130 
# 
# From -- ./inp_files/174905.got.cif
#   From: 2010.06.25/outbox.cif.g09.slc.cpg/sg15_88_cif.got.tgz:174905.got - 2010.06.28 07:06:18.
