data_PCOD8131395
_publ_section_title
;
Structure prediction by ZEFSAII (Michael W. Deem and Ramdas Pophale) SiO2 
 PCOD8131395
Probable space group: C 2/C
;
_chemical_formula_sum "Si O2"
_cell_formula_units_Z 64
_cell_length_a 14.213117
_cell_length_b 14.503450
_cell_length_c 14.899394
_cell_angle_alpha 90.000000
_cell_angle_beta 103.707885
_cell_angle_gamma 90.000000
_cell_volume 2983.866899
_symmetry_space_group_name_H-M "C 2/C"
_symmetry_group_IT_number 15
_symmetry_cell_setting 'monoclinic'
loop_
_space_group_symop_operation_xyz
x,y,z
-x,y,1/2-z
-x,-y,-z
x,-y,1/2+z
1/2+x,1/2+y,z
1/2-x,1/2+y,1/2-z
1/2-x,1/2-y,-z
1/2+x,1/2-y,1/2+z
loop_
_atom_site_type_symbol
_atom_site_label
_atom_site_fract_x
_atom_site_fract_y
_atom_site_fract_z
Si Si1 0.709849 0.032234 0.028009
Si Si2 0.245341 0.789386 0.634372
Si Si3 0.837139 0.396146 0.328160
Si Si4 0.908607 0.228345 0.552176
Si Si5 0.530332 0.157980 0.943376
Si Si6 0.049779 0.924678 0.073536
Si Si7 0.266078 0.510943 0.338544
Si Si8 0.661057 0.687289 0.455879
O O1 0.743423 0.996571 0.938883
O O2 0.607124 0.083448 0.995748
O O3 0.793515 0.100919 0.089220
O O4 0.703124 0.945451 0.091620
O O5 0.211371 0.704624 0.688622
O O6 0.171390 0.806406 0.536264
O O7 0.354967 0.773475 0.624877
O O8 0.244167 0.882433 0.693587
O O9 0.811950 0.451601 0.233282
O O10 0.953459 0.389073 0.359421
O O11 0.976352 0.304398 0.520183
O O12 0.967393 0.138327 0.601684
O O13 0.579821 0.243039 0.897084
O O14 0.115220 0.852665 0.035187
O O15 0.123851 0.976206 0.158363
O O16 0.000000 0.000000 0.000000
O O17 0.750000 0.750000 0.500000
#
# Coordination Sequence:
#
# PCOD8131395 Si02
#       8
#     8   8   8   8   8   8   8   8
#     4  10  20  39  66  90 126 167 208 256 318 374
#     4  10  20  38  59  89 123 161 204 262 319 368
#     4  11  24  39  63  92 126 165 215 260 314 386
#     4   9  17  34  66  92 118 158 209 253 315 378
#     4   9  18  36  61  94 122 165 210 249 305 384
#     4  10  18  32  63  90 118 159 207 254 311 370
#     4  11  23  41  62  91 127 165 207 269 318 371
#     4   8  17  33  57  90 119 158 199 245 307 367
#
# _framework density 21.448678000000001
#
# number of rings (size 3 to 8) (size 9 to 14) (size 15 to 20)
#    0.000    2.250    1.250    2.625    1.750    0.500 
#   13.500    0.625    0.000    0.000    0.000    0.000 
#    0.000    0.000    0.000    0.000    0.000    0.000 
#
# Total GULP energy -396499.211038 kJ/mol
# GULP energy per Si atom -12390.600345 kJ/mol
# Density = 2.139986 g / cm^3
# Si number density = 21.448678 Si / 1000 Ang^3
#
#
#
# Elastic Constant Matrix: (Units=GPa)
#
#
# Indices 1 2 3 4 5 6 
#
# 1 95.9959 47.0864 14.3842 0.0000 21.8334 0.0000
# 2 47.0864 149.1724 34.2860 0.0000 15.3504 0.0000
# 3 14.3842 34.2860 55.4371 0.0000 10.3648 0.0000
# 4 0.0000 0.0000 0.0000 23.1131 0.0000 10.4414
# 5 21.8334 15.3504 10.3648 0.0000 19.7778 0.0000
# 6 0.0000 0.0000 0.0000 10.4414 0.0000 40.7712
#
#
#
# Elastic Compliance Matrix: (Units=1/GPa)
#
#
# Indices 1 2 3 4 5 6 
#
# 1 0.015361 -0.003557 0.000963 0.000000 -0.014702 0.000000
# 2 -0.003557 0.008922 -0.004473 0.000000 -0.000654 0.000000
# 3 0.000963 -0.004473 0.022288 0.000000 -0.009272 0.000000
# 4 0.000000 0.000000 0.000000 0.048926 0.000000 -0.012530
# 5 -0.014702 -0.000654 -0.009272 0.000000 0.072158 0.000000
# 6 0.000000 0.000000 0.000000 -0.012530 0.000000 0.027736
#
#
# Mechanical properties :
#
#
# Convention : Reuss Voigt Hill
#
# Bulk Modulus (GPa) = 30.82837 54.67984 42.75410
# Shear Modulus (GPa) = 22.69245 30.38902 26.54074
#
# Velocity S-wave (km/s) = 3.25620 3.76816 3.52150
# Velocity P-wave (km/s) = 5.34242 6.66938 6.04244
#
# Compressibility (1/GPa) = 0.03243766
#
# Stress axis : x y z
#
# Youngs Moduli (GPa) = 65.09786 112.08540 44.86657
#
# Poissons Ratio (x) = 0.39872 -0.04321
# Poissons Ratio (y) = 0.23157 0.20067
# Poissons Ratio (z) = -0.06269 0.50131
#
# Static dielectric constant tensor:
#      x y z
#    x 4.365330 0.000000 0.416680 
#    y 0.000000 4.432390 0.000000 
#    z 0.416680 0.000000 3.245720 
# 
# 
# High freq. dielectric constant tensor:
#      x y z
#    x 1.857800 0.000000 0.026470 
#    y 0.000000 1.870270 0.000000 
#    z 0.026470 0.000000 1.771190 
# 
# From -- ./inp_files/205428.got.cif
#   From: 2010.06.25/outbox.cif.g09.slc.cpg/sg15_103_cif.got.tgz:205428.got - 2010.06.28 07:06:18.
