data_PCOD8131851
_publ_section_title
;
Structure prediction by ZEFSAII (Michael W. Deem and Ramdas Pophale) SiO2 
 PCOD8131851
Probable space group: C 2/C
;
_chemical_formula_sum "Si O2"
_cell_formula_units_Z 56
_cell_length_a 9.954476
_cell_length_b 16.928792
_cell_length_c 20.315918
_cell_angle_alpha 90.000000
_cell_angle_beta 121.033632
_cell_angle_gamma 90.000000
_cell_volume 2933.547619
_symmetry_space_group_name_H-M "C 2/C"
_symmetry_group_IT_number 15
_symmetry_cell_setting 'monoclinic'
loop_
_space_group_symop_operation_xyz
x,y,z
-x,y,1/2-z
-x,-y,-z
x,-y,1/2+z
1/2+x,1/2+y,z
1/2-x,1/2+y,1/2-z
1/2-x,1/2-y,-z
1/2+x,1/2-y,1/2+z
loop_
_atom_site_type_symbol
_atom_site_label
_atom_site_fract_x
_atom_site_fract_y
_atom_site_fract_z
Si Si1 0.927565 0.536459 0.546274
Si Si2 0.363194 0.833749 0.441411
Si Si3 0.441689 0.528154 0.056133
Si Si4 0.846668 0.826390 0.879577
Si Si5 0.372599 0.762350 0.775065
Si Si6 0.433093 0.118366 0.106344
Si Si7 0.521235 0.607015 0.828598
O O1 0.742153 0.544343 0.491880
O O2 0.972619 0.475577 0.616450
O O3 0.000000 0.500000 0.500000
O O4 0.012109 0.620996 0.574614
O O5 0.403118 0.741133 0.444621
O O6 0.367827 0.857679 0.518591
O O7 0.188197 0.848855 0.371812
O O8 0.516486 0.610872 0.097458
O O9 0.490230 0.461905 0.121053
O O10 0.500000 0.500000 0.000000
O O11 0.797729 0.784062 0.798058
O O12 0.699160 0.872140 0.872329
O O13 0.500000 0.764590 0.750000
O O14 0.413925 0.829337 0.839536
O O15 0.386385 0.673815 0.809466
O O16 0.500000 0.570710 0.750000
#
# Coordination Sequence:
#
# PCOD8131851 Si02
#       7
#     8   8   8   8   8   8   8
#     4  10  21  38  59  92 123 161 209 244 311 376
#     4  11  20  36  63  85 122 168 208 253 302 382
#     4  12  24  39  64 100 129 159 212 268 316 365
#     4  11  21  37  58  93 126 153 209 270 308 364
#     4   9  19  34  58  91 118 157 215 259 303 368
#     4  10  18  34  62  87 119 159 211 257 305 366
#     4  11  20  38  65  93 121 165 217 252 307 388
#
# _framework density 19.089514000000001
#
# number of rings (size 3 to 8) (size 9 to 14) (size 15 to 20)
#    0.000    1.429    8.571    0.429    2.000    1.714 
#    0.000    0.000    0.000    0.000    0.000    0.000 
#    0.000    0.000    0.000    0.000    0.000    0.000 
#
# Total GULP energy -347025.450845 kJ/mol
# GULP energy per Si atom -12393.766102 kJ/mol
# Density = 1.904607 g / cm^3
# Si number density = 19.089514 Si / 1000 Ang^3
#
#
#
# Elastic Constant Matrix: (Units=GPa)
#
#
# Indices 1 2 3 4 5 6 
#
# 1 79.0468 39.4426 21.8562 0.0000 6.9947 0.0000
# 2 39.4426 116.5371 26.1902 0.0000 1.0658 0.0000
# 3 21.8562 26.1902 84.6168 0.0000 4.7365 0.0000
# 4 0.0000 0.0000 0.0000 36.2143 0.0000 1.1360
# 5 6.9947 1.0658 4.7365 0.0000 18.2786 0.0000
# 6 0.0000 0.0000 0.0000 1.1360 0.0000 30.6566
#
#
#
# Elastic Compliance Matrix: (Units=1/GPa)
#
#
# Indices 1 2 3 4 5 6 
#
# 1 0.016227 -0.004910 -0.002375 0.000000 -0.005308 0.000000
# 2 -0.004910 0.010709 -0.002148 0.000000 0.001811 0.000000
# 3 -0.002375 -0.002148 0.013230 0.000000 -0.002394 0.000000
# 4 0.000000 0.000000 0.000000 0.027646 0.000000 -0.001024
# 5 -0.005308 0.001811 -0.002394 0.000000 0.057255 0.000000
# 6 0.000000 0.000000 0.000000 -0.001024 0.000000 0.032657
#
#
# Mechanical properties :
#
#
# Convention : Reuss Voigt Hill
#
# Bulk Modulus (GPa) = 46.94494 50.57540 48.76017
# Shear Modulus (GPa) = 27.21999 29.87734 28.54867
#
# Velocity S-wave (km/s) = 3.78022 3.96045 3.87139
# Velocity P-wave (km/s) = 6.61051 6.88948 6.75143
#
# Compressibility (1/GPa) = 0.02130155
#
# Stress axis : x y z
#
# Youngs Moduli (GPa) = 61.62611 93.38080 75.58521
#
# Poissons Ratio (x) = 0.45849 0.17948
# Poissons Ratio (y) = 0.30258 0.16234
# Poissons Ratio (z) = 0.14633 0.20056
#
# Static dielectric constant tensor:
#      x y z
#    x 3.339000 0.000000 0.068920 
#    y 0.000000 4.393470 0.000000 
#    z 0.068920 0.000000 3.706780 
# 
# 
# High freq. dielectric constant tensor:
#      x y z
#    x 1.702440 0.000000 0.011060 
#    y 0.000000 1.757260 0.000000 
#    z 0.011060 0.000000 1.741460 
# 
# From -- ./inp_files/191068.got.cif
#   From: 2010.06.25/outbox.cif.g09.slc.cpg/sg15_96_cif.got.tgz:191068.got - 2010.06.28 07:06:18.
