data_PCOD8131591
_publ_section_title
;
Structure prediction by ZEFSAII (Michael W. Deem and Ramdas Pophale) SiO2 
 PCOD8131591
Probable space group: C 2/C
;
_chemical_formula_sum "Si O2"
_cell_formula_units_Z 48
_cell_length_a 11.403742
_cell_length_b 9.165659
_cell_length_c 22.650886
_cell_angle_alpha 90.000000
_cell_angle_beta 111.040510
_cell_angle_gamma 90.000000
_cell_volume 2209.683215
_symmetry_space_group_name_H-M "C 2/C"
_symmetry_group_IT_number 15
_symmetry_cell_setting 'monoclinic'
loop_
_space_group_symop_operation_xyz
x,y,z
-x,y,1/2-z
-x,-y,-z
x,-y,1/2+z
1/2+x,1/2+y,z
1/2-x,1/2+y,1/2-z
1/2-x,1/2-y,-z
1/2+x,1/2-y,1/2+z
loop_
_atom_site_type_symbol
_atom_site_label
_atom_site_fract_x
_atom_site_fract_y
_atom_site_fract_z
Si Si1 0.177546 0.612304 0.619672
Si Si2 0.347564 0.118147 0.017555
Si Si3 0.539286 0.399562 0.321801
Si Si4 0.820929 0.903741 0.452596
Si Si5 0.504562 0.376881 0.585697
Si Si6 0.398554 0.192157 0.376007
O O1 0.142624 0.561435 0.547303
O O2 0.320232 0.668872 0.652809
O O3 0.080655 0.736297 0.622538
O O4 0.156694 0.464063 0.654002
O O5 0.478358 0.183576 0.061296
O O6 0.308550 0.983507 0.052720
O O7 0.250000 0.250000 0.000000
O O8 0.500000 0.452269 0.250000
O O9 0.541616 0.538531 0.364932
O O10 0.437151 0.279616 0.324027
O O11 0.797236 0.780313 0.398274
O O12 0.883471 0.836161 0.523609
O O13 0.907223 0.027563 0.439690
#
# Coordination Sequence:
#
# PCOD8131591 Si02
#       6
#     8   8   8   8   8   8
#     4  12  23  38  62  92 123 153 196 249 300 357
#     4  12  18  35  61  92 126 156 185 239 309 362
#     4  11  25  45  62  80 117 166 208 246 293 352
#     4  10  18  33  60  89 125 155 184 232 301 365
#     4  10  19  36  60  89 117 154 194 240 293 351
#     4  11  24  38  60  95 123 154 197 247 307 357
#
# _framework density 21.722570999999999
#
# number of rings (size 3 to 8) (size 9 to 14) (size 15 to 20)
#    0.000    1.000    6.667    1.500    0.000    3.333 
#    0.000    0.833    0.000    0.000    0.000    0.000 
#    0.000    0.000    0.000    0.000    0.000    0.000 
#
# Total GULP energy -297620.995272 kJ/mol
# GULP energy per Si atom -12400.874803 kJ/mol
# Density = 2.167313 g / cm^3
# Si number density = 21.722571 Si / 1000 Ang^3
#
#
#
# Elastic Constant Matrix: (Units=GPa)
#
#
# Indices 1 2 3 4 5 6 
#
# 1 46.0581 24.4310 13.3465 0.0000 -8.8833 0.0000
# 2 24.4310 117.7190 7.3585 0.0000 -11.2211 0.0000
# 3 13.3465 7.3585 79.3083 0.0000 -12.9515 0.0000
# 4 0.0000 0.0000 0.0000 14.3888 0.0000 2.0933
# 5 -8.8833 -11.2211 -12.9515 0.0000 17.2435 0.0000
# 6 0.0000 0.0000 0.0000 2.0933 0.0000 32.9727
#
#
#
# Elastic Compliance Matrix: (Units=1/GPa)
#
#
# Indices 1 2 3 4 5 6 
#
# 1 0.026556 -0.004511 -0.002617 0.000000 0.008780 0.000000
# 2 -0.004511 0.009824 0.000584 0.000000 0.004508 0.000000
# 3 -0.002617 0.000584 0.014632 0.000000 0.010022 0.000000
# 4 0.000000 0.000000 0.000000 0.070146 0.000000 -0.004453
# 5 0.008780 0.004508 0.010022 0.000000 0.072977 0.000000
# 6 0.000000 0.000000 0.000000 -0.004453 0.000000 0.030611
#
#
# Mechanical properties :
#
#
# Convention : Reuss Voigt Hill
#
# Bulk Modulus (GPa) = 26.36824 37.03973 31.70399
# Shear Modulus (GPa) = 19.96207 26.11762 23.03985
#
# Velocity S-wave (km/s) = 3.03472 3.47122 3.26028
# Velocity P-wave (km/s) = 4.94412 5.75796 5.36649
#
# Compressibility (1/GPa) = 0.03792441
#
# Stress axis : x y z
#
# Youngs Moduli (GPa) = 37.65614 101.78988 68.34428
#
# Poissons Ratio (x) = 0.45916 0.17883
# Poissons Ratio (y) = 0.16986 -0.03989
# Poissons Ratio (z) = 0.09853 -0.05942
#
# Static dielectric constant tensor:
#      x y z
#    x 4.131520 0.000000 -0.227810 
#    y 0.000000 3.996920 0.000000 
#    z -0.227810 0.000000 3.530470 
# 
# 
# High freq. dielectric constant tensor:
#      x y z
#    x 1.860340 0.000000 -0.011650 
#    y 0.000000 1.860060 0.000000 
#    z -0.011650 0.000000 1.802120 
# 
# From -- ./inp_files/268102.got.cif
#   From: 2010.06.25/outbox.cif.g09.slc.cpg/sg15_135_cif.got.tgz:268102.got - 2010.06.28 07:06:18.
