data_PCOD8131707
_publ_section_title
;
Structure prediction by ZEFSAII (Michael W. Deem and Ramdas Pophale) SiO2 
 PCOD8131707
Probable space group: C 2/C
;
_chemical_formula_sum "Si O2"
_cell_formula_units_Z 64
_cell_length_a 16.660417
_cell_length_b 10.136522
_cell_length_c 27.910427
_cell_angle_alpha 90.000000
_cell_angle_beta 138.255050
_cell_angle_gamma 90.000000
_cell_volume 3138.307407
_symmetry_space_group_name_H-M "C 2/C"
_symmetry_group_IT_number 15
_symmetry_cell_setting 'monoclinic'
loop_
_space_group_symop_operation_xyz
x,y,z
-x,y,1/2-z
-x,-y,-z
x,-y,1/2+z
1/2+x,1/2+y,z
1/2-x,1/2+y,1/2-z
1/2-x,1/2-y,-z
1/2+x,1/2-y,1/2+z
loop_
_atom_site_type_symbol
_atom_site_label
_atom_site_fract_x
_atom_site_fract_y
_atom_site_fract_z
Si Si1 0.512286 0.650484 0.639494
Si Si2 0.384850 0.249089 0.168818
Si Si3 0.182688 0.699038 0.147172
Si Si4 0.895849 0.688938 0.798189
Si Si5 0.783296 0.747726 0.443873
Si Si6 0.235828 0.099072 0.806349
Si Si7 0.920715 0.549790 0.671836
Si Si8 0.410655 0.378044 0.584230
O O1 0.403578 0.716534 0.621418
O O2 0.563735 0.752963 0.623082
O O3 0.614213 0.602327 0.721438
O O4 0.449582 0.525061 0.586360
O O5 0.500000 0.292904 0.250000
O O6 0.277673 0.332058 0.147054
O O7 0.369074 0.091815 0.164282
O O8 0.294123 0.793287 0.211712
O O9 0.155450 0.707184 0.078581
O O10 0.216424 0.549009 0.172072
O O11 0.835822 0.684077 0.823474
O O12 0.977511 0.556683 0.825244
O O13 0.982627 0.815543 0.836624
O O14 0.709887 0.626605 0.435999
O O15 0.889026 0.794912 0.526253
O O16 0.693702 0.868224 0.394822
O O17 0.000000 0.614586 0.750000
#
# Coordination Sequence:
#
# PCOD8131707 Si02
#       8
#     8   8   8   8   8   8   8   8
#     4  10  20  34  55  81 115 149 184 239 284 335
#     4   9  19  33  53  81 113 145 184 238 287 332
#     4  11  20  34  57  86 110 146 194 233 280 342
#     4  10  20  34  57  83 113 147 184 237 284 334
#     4  10  22  36  58  84 111 153 192 230 282 352
#     4  10  20  34  55  86 111 147 191 237 285 337
#     4  10  18  34  56  83 111 143 184 235 284 332
#     4  10  21  39  55  80 119 151 187 232 290 340
#
# _framework density 20.393158
#
# number of rings (size 3 to 8) (size 9 to 14) (size 15 to 20)
#    0.000    2.000    2.500    1.500    0.000    2.500 
#    0.000    1.250    0.000    0.000    0.000    0.000 
#    0.000    0.000    0.000    0.000    0.000    0.000 
#
# Total GULP energy -396513.451925 kJ/mol
# GULP energy per Si atom -12391.045373 kJ/mol
# Density = 2.034674 g / cm^3
# Si number density = 20.393158 Si / 1000 Ang^3
#
#
#
# Elastic Constant Matrix: (Units=GPa)
#
#
# Indices 1 2 3 4 5 6 
#
# 1 117.4636 32.8185 10.4278 0.0000 -16.4948 0.0000
# 2 32.8185 80.5787 -3.8573 0.0000 2.0282 0.0000
# 3 10.4278 -3.8573 42.0731 0.0000 -10.0401 0.0000
# 4 0.0000 0.0000 0.0000 19.2991 0.0000 1.1923
# 5 -16.4948 2.0282 -10.0401 0.0000 26.1654 0.0000
# 6 0.0000 0.0000 0.0000 1.1923 0.0000 36.6685
#
#
#
# Elastic Compliance Matrix: (Units=1/GPa)
#
#
# Indices 1 2 3 4 5 6 
#
# 1 0.010888 -0.004676 -0.001544 0.000000 0.006634 0.000000
# 2 -0.004676 0.014481 0.001668 0.000000 -0.003430 0.000000
# 3 -0.001544 0.001668 0.026464 0.000000 0.009052 0.000000
# 4 0.000000 0.000000 0.000000 0.051920 0.000000 -0.001688
# 5 0.006634 -0.003430 0.009052 0.000000 0.046140 0.000000
# 6 0.000000 0.000000 0.000000 -0.001688 0.000000 0.027326
#
#
# Mechanical properties :
#
#
# Convention : Reuss Voigt Hill
#
# Bulk Modulus (GPa) = 23.40318 35.43259 29.41788
# Shear Modulus (GPa) = 24.92949 29.80835 27.36892
#
# Velocity S-wave (km/s) = 3.50014 3.82735 3.66739
# Velocity P-wave (km/s) = 5.27594 6.07815 5.69120
#
# Compressibility (1/GPa) = 0.04272923
#
# Stress axis : x y z
#
# Youngs Moduli (GPa) = 91.84227 69.05763 37.78728
#
# Poissons Ratio (x) = 0.32288 0.05835
# Poissons Ratio (y) = 0.42941 -0.06303
# Poissons Ratio (z) = 0.14183 -0.11518
#
# Static dielectric constant tensor:
#      x y z
#    x 3.982250 0.000000 -0.092930 
#    y 0.000000 3.487080 0.000000 
#    z -0.092930 0.000000 3.397410 
# 
# 
# High freq. dielectric constant tensor:
#      x y z
#    x 1.806080 0.000000 -0.006530 
#    y 0.000000 1.785730 0.000000 
#    z -0.006530 0.000000 1.763080 
# 
# From -- ./inp_files/315755.got.cif
#   From: 2010.06.25/outbox.cif.g09.slc.cpg/sg15_158_cif.got.tgz:315755.got - 2010.06.28 07:06:18.
