data_PCOD8131693
_publ_section_title
;
Structure prediction by ZEFSAII (Michael W. Deem and Ramdas Pophale) SiO2 
 PCOD8131693
Probable space group: C 2/C
;
_chemical_formula_sum "Si O2"
_cell_formula_units_Z 40
_cell_length_a 7.329536
_cell_length_b 17.403443
_cell_length_c 15.939518
_cell_angle_alpha 90.000000
_cell_angle_beta 101.388675
_cell_angle_gamma 90.000000
_cell_volume 1993.197685
_symmetry_space_group_name_H-M "C 2/C"
_symmetry_group_IT_number 15
_symmetry_cell_setting 'monoclinic'
loop_
_space_group_symop_operation_xyz
x,y,z
-x,y,1/2-z
-x,-y,-z
x,-y,1/2+z
1/2+x,1/2+y,z
1/2-x,1/2+y,1/2-z
1/2-x,1/2-y,-z
1/2+x,1/2-y,1/2+z
loop_
_atom_site_type_symbol
_atom_site_label
_atom_site_fract_x
_atom_site_fract_y
_atom_site_fract_z
Si Si1 0.439170 0.154739 0.510974
Si Si2 0.539981 0.271264 0.661348
Si Si3 0.075748 0.920163 0.924947
Si Si4 0.332531 0.416158 0.059054
Si Si5 0.617233 0.253631 0.406163
O O1 0.432773 0.218981 0.583520
O O2 0.253010 0.105108 0.497159
O O3 0.611276 0.097292 0.542217
O O4 0.450240 0.196796 0.418807
O O5 0.500000 0.238073 0.750000
O O6 0.463217 0.358336 0.650947
O O7 0.763858 0.272581 0.664185
O O8 0.116652 0.004306 0.888518
O O9 0.895368 0.924543 0.968114
O O10 0.440480 0.343262 0.111123
O O11 0.750000 0.250000 0.500000
#
# Coordination Sequence:
#
# PCOD8131693 Si02
#       5
#     8   8   8   8   8
#     4  10  18  34  56  75  97 136 177 212 239 309
#     4  10  19  33  54  74 107 135 166 216 265 294
#     4  11  18  30  58  79  96 136 178 204 255 308
#     4   9  18  31  52  80 103 123 168 224 248 282
#     4   8  15  33  51  68 103 129 163 213 247 286
#
# _framework density 20.068256000000002
#
# number of rings (size 3 to 8) (size 9 to 14) (size 15 to 20)
#    0.000    2.800    6.000    1.200    0.000    0.000 
#    0.000    1.000   17.600    0.000    0.000    0.000 
#    0.000    0.000    0.000    0.000    0.000    0.000 
#
# Total GULP energy -247779.732953 kJ/mol
# GULP energy per Si atom -12388.986648 kJ/mol
# Density = 2.002258 g / cm^3
# Si number density = 20.068256 Si / 1000 Ang^3
#
#
#
# Elastic Constant Matrix: (Units=GPa)
#
#
# Indices 1 2 3 4 5 6 
#
# 1 44.7860 28.9476 17.0300 0.0000 -14.8482 0.0000
# 2 28.9476 150.9193 21.3435 0.0000 -7.1097 0.0000
# 3 17.0300 21.3435 78.9347 0.0000 -28.2668 0.0000
# 4 0.0000 0.0000 0.0000 12.1234 0.0000 -0.7549
# 5 -14.8482 -7.1097 -28.2668 0.0000 18.4004 0.0000
# 6 0.0000 0.0000 0.0000 -0.7549 0.0000 32.1740
#
#
#
# Elastic Compliance Matrix: (Units=1/GPa)
#
#
# Indices 1 2 3 4 5 6 
#
# 1 0.036247 -0.006221 0.007725 0.000000 0.038713 0.000000
# 2 -0.006221 0.007959 -0.003348 0.000000 -0.007089 0.000000
# 3 0.007725 -0.003348 0.030400 0.000000 0.051641 0.000000
# 4 0.000000 0.000000 0.000000 0.082606 0.000000 0.001938
# 5 0.038713 -0.007089 0.051641 0.000000 0.162179 0.000000
# 6 0.000000 0.000000 0.000000 0.001938 0.000000 0.031126
#
#
# Mechanical properties :
#
#
# Convention : Reuss Voigt Hill
#
# Bulk Modulus (GPa) = 14.10086 45.47580 29.78833
# Shear Modulus (GPa) = 13.23295 26.36084 19.79690
#
# Velocity S-wave (km/s) = 2.57066 3.62824 3.14423
# Velocity P-wave (km/s) = 3.98155 6.34523 5.29692
#
# Compressibility (1/GPa) = 0.07091766
#
# Stress axis : x y z
#
# Youngs Moduli (GPa) = 27.58869 125.64507 32.89442
#
# Poissons Ratio (x) = 0.78167 -0.25412
# Poissons Ratio (y) = 0.17164 0.11014
# Poissons Ratio (z) = -0.21313 0.42070
#
# Static dielectric constant tensor:
#      x y z
#    x 3.795930 0.000000 -0.509660 
#    y 0.000000 4.254880 0.000000 
#    z -0.509660 0.000000 3.148940 
# 
# 
# High freq. dielectric constant tensor:
#      x y z
#    x 1.778790 0.000000 -0.040060 
#    y 0.000000 1.796570 0.000000 
#    z -0.040060 0.000000 1.716130 
# 
# From -- ./inp_files/133821.got.cif
#   From: 2010.06.25/outbox.cif.g09.slc.cpg/sg15_67_cif.got.tgz:133821.got - 2010.06.28 07:06:18.
