data_PCOD8131590
_publ_section_title
;
Structure prediction by ZEFSAII (Michael W. Deem and Ramdas Pophale) SiO2 
 PCOD8131590
Probable space group: C 2/C
;
_chemical_formula_sum "Si O2"
_cell_formula_units_Z 44
_cell_length_a 17.740403
_cell_length_b 17.188918
_cell_length_c 8.257461
_cell_angle_alpha 90.000000
_cell_angle_beta 124.922578
_cell_angle_gamma 90.000000
_cell_volume 2064.587991
_symmetry_space_group_name_H-M "C 2/C"
_symmetry_group_IT_number 15
_symmetry_cell_setting 'monoclinic'
loop_
_space_group_symop_operation_xyz
x,y,z
-x,y,1/2-z
-x,-y,-z
x,-y,1/2+z
1/2+x,1/2+y,z
1/2-x,1/2+y,1/2-z
1/2-x,1/2-y,-z
1/2+x,1/2-y,1/2+z
loop_
_atom_site_type_symbol
_atom_site_label
_atom_site_fract_x
_atom_site_fract_y
_atom_site_fract_z
Si Si1 0.000000 0.888270 0.750000
Si Si2 0.856429 0.041619 0.844259
Si Si3 0.188422 0.432851 0.343088
Si Si4 0.894863 0.426443 0.592549
Si Si5 0.333346 0.627800 0.223735
Si Si6 0.731380 0.660871 0.008143
O O1 0.951012 0.941079 0.552439
O O2 0.921037 0.833537 0.738246
O O3 0.772776 0.020149 0.864291
O O4 0.828958 0.117291 0.702822
O O5 0.864206 0.963532 0.749284
O O6 0.129557 0.483697 0.398239
O O7 0.237436 0.362323 0.504644
O O8 0.123478 0.403451 0.117684
O O9 0.832770 0.376963 0.639860
O O10 0.000000 0.407285 0.750000
O O11 0.323709 0.658568 0.391612
O O12 0.750000 0.750000 0.000000
#
# Coordination Sequence:
#
# PCOD8131590 Si02
#       6
#     4   8   8   8   8   8
#     4  10  22  32  58  96 116 160 212 260 290 352
#     4  10  19  37  60  88 125 160 209 248 307 364
#     4  10  18  33  60  88 118 159 198 263 314 355
#     4  11  20  36  59  90 120 154 214 255 309 370
#     4  11  19  38  61  89 127 157 210 250 308 372
#     4  11  23  41  63  88 124 173 198 252 323 370
#
# _framework density 21.311755999999999
#
# number of rings (size 3 to 8) (size 9 to 14) (size 15 to 20)
#    0.000    1.455    5.455    2.182    0.000    0.727 
#    3.273    8.182    0.000    0.000    9.455    0.000 
#    0.000    0.000    0.000    0.000    0.000    0.000 
#
# Total GULP energy -272552.644194 kJ/mol
# GULP energy per Si atom -12388.756554 kJ/mol
# Density = 2.126325 g / cm^3
# Si number density = 21.311756 Si / 1000 Ang^3
#
#
#
# Elastic Constant Matrix: (Units=GPa)
#
#
# Indices 1 2 3 4 5 6 
#
# 1 123.8820 27.7933 63.8188 0.0000 1.1396 0.0000
# 2 27.7933 60.2618 20.6520 0.0000 -4.0529 0.0000
# 3 63.8188 20.6520 162.0032 0.0000 10.5655 0.0000
# 4 0.0000 0.0000 0.0000 13.5868 0.0000 -3.7375
# 5 1.1396 -4.0529 10.5655 0.0000 46.3558 0.0000
# 6 0.0000 0.0000 0.0000 -3.7375 0.0000 12.6574
#
#
#
# Elastic Compliance Matrix: (Units=1/GPa)
#
#
# Indices 1 2 3 4 5 6 
#
# 1 0.010869 -0.003681 -0.003831 0.000000 0.000284 0.000000
# 2 -0.003681 0.018793 -0.001075 0.000000 0.001979 0.000000
# 3 -0.003831 -0.001075 0.007937 0.000000 -0.001809 0.000000
# 4 0.000000 0.000000 0.000000 0.080108 0.000000 0.023654
# 5 0.000284 0.001979 -0.001809 0.000000 0.022151 0.000000
# 6 0.000000 0.000000 0.000000 0.023654 0.000000 0.085990
#
#
# Mechanical properties :
#
#
# Convention : Reuss Voigt Hill
#
# Bulk Modulus (GPa) = 48.95744 63.40837 56.18291
# Shear Modulus (GPa) = 20.01367 30.11219 25.06293
#
# Velocity S-wave (km/s) = 3.06778 3.76298 3.43303
# Velocity P-wave (km/s) = 5.96408 6.97835 6.49106
#
# Compressibility (1/GPa) = 0.02042590
#
# Stress axis : x y z
#
# Youngs Moduli (GPa) = 92.00524 53.21046 125.99472
#
# Poissons Ratio (x) = 0.19586 0.48268
# Poissons Ratio (y) = 0.33866 0.13541
# Poissons Ratio (z) = 0.35247 0.05719
#
# Static dielectric constant tensor:
#      x y z
#    x 3.961360 0.000000 -0.052920 
#    y 0.000000 3.256610 0.000000 
#    z -0.052920 0.000000 4.101310 
# 
# 
# High freq. dielectric constant tensor:
#      x y z
#    x 1.849280 0.000000 -0.008220 
#    y 0.000000 1.763830 0.000000 
#    z -0.008220 0.000000 1.854040 
# 
# From -- ./inp_files/39738.got.cif
#   From: 2010.06.25/outbox.cif.g09.slc.cpg/sg15_20_cif.got.tgz:39738.got - 2010.06.28 07:06:18.
