data_PCOD8131285
_publ_section_title
;
Structure prediction by ZEFSAII (Michael W. Deem and Ramdas Pophale) SiO2 
 PCOD8131285
Probable space group: C 2/C
;
_chemical_formula_sum "Si O2"
_cell_formula_units_Z 48
_cell_length_a 5.334907
_cell_length_b 25.311891
_cell_length_c 13.210834
_cell_angle_alpha 90.000000
_cell_angle_beta 69.501182
_cell_angle_gamma 90.000000
_cell_volume 1670.985401
_symmetry_space_group_name_H-M "C 2/C"
_symmetry_group_IT_number 15
_symmetry_cell_setting 'monoclinic'
loop_
_space_group_symop_operation_xyz
x,y,z
-x,y,1/2-z
-x,-y,-z
x,-y,1/2+z
1/2+x,1/2+y,z
1/2-x,1/2+y,1/2-z
1/2-x,1/2-y,-z
1/2+x,1/2-y,1/2+z
loop_
_atom_site_type_symbol
_atom_site_label
_atom_site_fract_x
_atom_site_fract_y
_atom_site_fract_z
Si Si1 0.582477 0.424857 0.875439
Si Si2 0.582854 0.455810 0.125719
Si Si3 0.581898 0.904523 0.121454
Si Si4 0.598447 0.882664 0.862521
Si Si5 0.442306 0.238409 0.129299
Si Si6 0.461088 0.214703 0.610478
O O1 0.497642 0.485193 0.891862
O O2 0.305305 0.389955 0.928018
O O3 0.741666 0.412787 0.748840
O O4 0.808785 0.409704 0.927151
O O5 0.500000 0.440137 0.250000
O O6 0.903297 0.445276 0.079188
O O7 0.402160 0.420269 0.071903
O O8 0.500000 0.907224 0.250000
O O9 0.504967 0.847253 0.087227
O O10 0.563268 0.822317 0.836239
O O11 0.651996 0.268360 0.175649
O O12 0.150186 0.265843 0.176540
O O13 0.500845 0.245193 0.001446
#
# Coordination Sequence:
#
# PCOD8131285 Si02
#       6
#     8   8   8   8   8   8
#     4  10  19  32  53  83 110 137 175 226 273 323
#     4  10  18  32  55  79 106 146 175 212 276 328
#     4  10  21  34  55  83 107 142 182 226 266 315
#     4  10  19  32  53  83 104 142 179 224 265 326
#     4  10  21  38  61  76 109 152 183 222 277 324
#     4  10  21  40  57  80 108 149 188 221 271 335
#
# _framework density 28.725567000000002
#
# number of rings (size 3 to 8) (size 9 to 14) (size 15 to 20)
#    0.000    2.000    1.667    3.000    4.667    0.000 
#    9.000    0.000    0.000    6.000    0.000    0.000 
#    0.000    0.000    0.000    0.000    0.000    0.000 
#
# Total GULP energy -297468.304357 kJ/mol
# GULP energy per Si atom -12394.512682 kJ/mol
# Density = 2.866019 g / cm^3
# Si number density = 28.725567 Si / 1000 Ang^3
#
#
#
# Elastic Constant Matrix: (Units=GPa)
#
#
# Indices 1 2 3 4 5 6 
#
# 1 329.2160 114.9949 54.0195 0.0000 6.6349 0.0000
# 2 114.9949 185.2379 3.8271 0.0000 9.9317 0.0000
# 3 54.0195 3.8271 65.1590 0.0000 18.7335 0.0000
# 4 0.0000 0.0000 0.0000 16.4223 0.0000 9.0779
# 5 6.6349 9.9317 18.7335 0.0000 38.9278 0.0000
# 6 0.0000 0.0000 0.0000 9.0779 0.0000 64.5560
#
#
#
# Elastic Compliance Matrix: (Units=1/GPa)
#
#
# Indices 1 2 3 4 5 6 
#
# 1 0.004745 -0.002965 -0.004346 0.000000 0.002039 0.000000
# 2 -0.002965 0.007327 0.002809 0.000000 -0.002716 0.000000
# 3 -0.004346 0.002809 0.021794 0.000000 -0.010464 0.000000
# 4 0.000000 0.000000 0.000000 0.066025 0.000000 -0.009285
# 5 0.002039 -0.002716 -0.010464 0.000000 0.031069 0.000000
# 6 0.000000 0.000000 0.000000 -0.009285 0.000000 0.016796
#
#
# Mechanical properties :
#
#
# Convention : Reuss Voigt Hill
#
# Bulk Modulus (GPa) = 40.22452 102.81065 71.51759
# Shear Modulus (GPa) = 30.29399 51.09931 40.69665
#
# Velocity S-wave (km/s) = 3.25098 4.22225 3.76804
# Velocity P-wave (km/s) = 5.30333 7.72258 6.62433
#
# Compressibility (1/GPa) = 0.02486046
#
# Stress axis : x y z
#
# Youngs Moduli (GPa) = 210.72925 136.48160 45.88470
#
# Poissons Ratio (x) = 0.40473 0.19943
# Poissons Ratio (y) = 0.62492 -0.12889
# Poissons Ratio (z) = 0.91589 -0.38337
#
# Static dielectric constant tensor:
#      x y z
#    x 4.914300 0.000000 0.043350 
#    y 0.000000 4.617080 0.000000 
#    z 0.043350 0.000000 5.802820 
# 
# 
# High freq. dielectric constant tensor:
#      x y z
#    x 2.211250 0.000000 0.006390 
#    y 0.000000 2.127720 0.000000 
#    z 0.006390 0.000000 2.237630 
# 
# From -- ./inp_files/227327.got.cif
#   From: 2010.06.25/outbox.cif.g09.slc.cpg/sg15_114_cif.got.tgz:227327.got - 2010.06.28 07:06:18.
