data_PCOD8131916
_publ_section_title
;
Structure prediction by ZEFSAII (Michael W. Deem and Ramdas Pophale) SiO2 
 PCOD8131916
Probable space group: C 2/C
;
_chemical_formula_sum "Si O2"
_cell_formula_units_Z 48
_cell_length_a 14.925643
_cell_length_b 20.107501
_cell_length_c 8.776629
_cell_angle_alpha 90.000000
_cell_angle_beta 113.390389
_cell_angle_gamma 90.000000
_cell_volume 2417.558484
_symmetry_space_group_name_H-M "C 2/C"
_symmetry_group_IT_number 15
_symmetry_cell_setting 'monoclinic'
loop_
_space_group_symop_operation_xyz
x,y,z
-x,y,1/2-z
-x,-y,-z
x,-y,1/2+z
1/2+x,1/2+y,z
1/2-x,1/2+y,1/2-z
1/2-x,1/2-y,-z
1/2+x,1/2-y,1/2+z
loop_
_atom_site_type_symbol
_atom_site_label
_atom_site_fract_x
_atom_site_fract_y
_atom_site_fract_z
Si Si1 0.782848 0.584153 0.354985
Si Si2 0.202381 0.816687 0.590645
Si Si3 0.699780 0.525446 0.587027
Si Si4 0.405339 0.199302 0.081578
Si Si5 0.005859 0.571701 0.080203
Si Si6 0.110866 0.918984 0.315737
O O1 0.705202 0.640206 0.248316
O O2 0.767912 0.569994 0.523406
O O3 0.769530 0.519303 0.239390
O O4 0.894012 0.607446 0.403048
O O5 0.313508 0.795477 0.633932
O O6 0.121996 0.757725 0.558399
O O7 0.175706 0.860142 0.425199
O O8 0.627040 0.485275 0.427106
O O9 0.636241 0.571378 0.655227
O O10 0.500000 0.213860 0.250000
O O11 0.420634 0.128599 0.000758
O O12 0.000000 0.552316 0.250000
O O13 0.000000 0.500000 0.000000
O O14 0.000000 0.896856 0.250000
#
# Coordination Sequence:
#
# PCOD8131916 Si02
#       6
#     8   8   8   8   8   8
#     4  10  18  35  53  90 120 158 189 251 302 357
#     4  10  20  35  59  82 115 155 203 243 297 357
#     4   9  20  31  56  84 126 150 196 242 309 353
#     4  10  20  37  58  86 113 154 207 246 288 367
#     4  11  21  34  59  89 120 151 200 250 304 356
#     4  10  19  34  55  85 114 158 197 243 294 359
#
# _framework density 19.854741000000001
#
# number of rings (size 3 to 8) (size 9 to 14) (size 15 to 20)
#    0.000    2.000    3.333    2.000    4.667    0.000 
#    0.000    0.000    0.000   10.000    0.000    0.000 
#    0.000    0.000    0.000    0.000    0.000    0.000 
#
# Total GULP energy -297332.992114 kJ/mol
# GULP energy per Si atom -12388.874671 kJ/mol
# Density = 1.980955 g / cm^3
# Si number density = 19.854741 Si / 1000 Ang^3
#
#
#
# Elastic Constant Matrix: (Units=GPa)
#
#
# Indices 1 2 3 4 5 6 
#
# 1 107.7735 37.5781 45.5689 0.0000 0.1096 0.0000
# 2 37.5781 131.6000 41.6057 0.0000 -2.1102 0.0000
# 3 45.5689 41.6057 80.7456 0.0000 -17.2035 0.0000
# 4 0.0000 0.0000 0.0000 -13.6077 0.0000 14.1085
# 5 0.1096 -2.1102 -17.2035 0.0000 37.0603 0.0000
# 6 0.0000 0.0000 0.0000 14.1085 0.0000 32.2162
#
#
#
# Elastic Compliance Matrix: (Units=1/GPa)
#
#
# Indices 1 2 3 4 5 6 
#
# 1 0.012850 -0.001431 -0.007258 0.000000 -0.003489 0.000000
# 2 -0.001431 0.009351 -0.004324 0.000000 -0.001471 0.000000
# 3 -0.007258 -0.004324 0.020709 0.000000 0.009388 0.000000
# 4 0.000000 0.000000 0.000000 -0.050540 0.000000 0.022133
# 5 -0.003489 -0.001471 0.009388 0.000000 0.031268 0.000000
# 6 0.000000 0.000000 0.000000 0.022133 0.000000 0.021347
#
#
# Mechanical properties :
#
#
# Convention : Reuss Voigt Hill
#
# Bulk Modulus (GPa) = 59.22684 63.29165 61.25925
# Shear Modulus (GPa) = 65.24123 24.15818 44.69971
#
# Velocity S-wave (km/s) = 5.73852 3.49197 4.74997
# Velocity P-wave (km/s) = 8.59083 6.94299 7.81049
#
# Compressibility (1/GPa) = 0.01688424
#
# Stress axis : x y z
#
# Youngs Moduli (GPa) = 77.82147 106.94277 48.28802
#
# Poissons Ratio (x) = 0.15299 0.35048
# Poissons Ratio (y) = 0.11133 0.20881
# Poissons Ratio (z) = 0.56483 0.46244
#
# Static dielectric constant tensor:
#      x y z
#    x 3.599940 0.000000 0.117180 
#    y 0.000000 3.851990 0.000000 
#    z 0.117180 0.000000 3.528170 
# 
# 
# High freq. dielectric constant tensor:
#      x y z
#    x 1.770300 0.000000 0.013030 
#    y 0.000000 1.767970 0.000000 
#    z 0.013030 0.000000 1.756360 
# 
# From -- ./inp_files/40939.got.cif
#   From: 2010.06.25/outbox.cif.g09.slc.cpg/sg15_21_cif.got.tgz:40939.got - 2010.06.28 07:06:18.
