data_PCOD8131592
_publ_section_title
;
Structure prediction by ZEFSAII (Michael W. Deem and Ramdas Pophale) SiO2 
 PCOD8131592
Probable space group: C 2/C
;
_chemical_formula_sum "Si O2"
_cell_formula_units_Z 36
_cell_length_a 16.650597
_cell_length_b 21.404584
_cell_length_c 8.202614
_cell_angle_alpha 90.000000
_cell_angle_beta 143.141946
_cell_angle_gamma 90.000000
_cell_volume 1753.559082
_symmetry_space_group_name_H-M "C 2/C"
_symmetry_group_IT_number 15
_symmetry_cell_setting 'monoclinic'
loop_
_space_group_symop_operation_xyz
x,y,z
-x,y,1/2-z
-x,-y,-z
x,-y,1/2+z
1/2+x,1/2+y,z
1/2-x,1/2+y,1/2-z
1/2-x,1/2-y,-z
1/2+x,1/2-y,1/2+z
loop_
_atom_site_type_symbol
_atom_site_label
_atom_site_fract_x
_atom_site_fract_y
_atom_site_fract_z
Si Si1 0.797299 0.913950 0.130708
Si Si2 0.500000 0.744740 0.250000
Si Si3 0.154439 0.956544 0.950107
Si Si4 0.417074 0.649880 0.379373
Si Si5 0.720814 0.804715 0.826150
O O1 0.761521 0.932039 0.258050
O O2 0.935647 0.875379 0.341526
O O3 0.686193 0.866945 0.876021
O O4 0.797574 0.975308 0.020694
O O5 0.416555 0.701120 0.235719
O O6 0.597728 0.789279 0.509862
O O7 0.172327 0.908784 0.828701
O O8 0.000000 0.959684 0.750000
O O9 0.352331 0.681122 0.432146
O O10 0.750000 0.750000 0.000000
#
# Coordination Sequence:
#
# PCOD8131592 Si02
#       5
#     8   4   8   8   8
#     4  11  20  35  60  92 120 155 194 254 314 356
#     4  12  24  40  58  86 124 164 206 240 290 370
#     4  10  18  33  60  93 122 145 194 260 320 352
#     4  11  20  39  59  89 120 152 202 256 307 355
#     4  12  24  38  58  84 125 167 200 243 296 363
#
# _framework density 20.529675000000001
#
# number of rings (size 3 to 8) (size 9 to 14) (size 15 to 20)
#    0.000    0.889    5.556    6.667    0.000    0.000 
#    0.000    0.000    0.000    5.333    0.000    0.000 
#    0.000    0.000    0.000    0.000    0.000    0.000 
#
# Total GULP energy -223172.911103 kJ/mol
# GULP energy per Si atom -12398.495061 kJ/mol
# Density = 2.048295 g / cm^3
# Si number density = 20.529675 Si / 1000 Ang^3
#
#
#
# Elastic Constant Matrix: (Units=GPa)
#
#
# Indices 1 2 3 4 5 6 
#
# 1 84.2291 52.6481 22.8891 0.0000 -31.1570 0.0000
# 2 52.6481 174.8051 71.0035 0.0000 -27.7336 0.0000
# 3 22.8891 71.0035 109.6291 0.0000 -30.9117 0.0000
# 4 0.0000 0.0000 0.0000 47.4444 0.0000 -15.9895
# 5 -31.1570 -27.7336 -30.9117 0.0000 28.6907 0.0000
# 6 0.0000 0.0000 0.0000 -15.9895 0.0000 48.2202
#
#
#
# Elastic Compliance Matrix: (Units=1/GPa)
#
#
# Indices 1 2 3 4 5 6 
#
# 1 0.023506 -0.005283 0.006136 0.000000 0.027030 0.000000
# 2 -0.005283 0.009134 -0.005661 0.000000 -0.003007 0.000000
# 3 0.006136 -0.005661 0.017010 0.000000 0.019519 0.000000
# 4 0.000000 0.000000 0.000000 0.023729 0.000000 0.007868
# 5 0.027030 -0.003007 0.019519 0.000000 0.082331 0.000000
# 6 0.000000 0.000000 0.000000 0.007868 0.000000 0.023347
#
#
# Mechanical properties :
#
#
# Convention : Reuss Voigt Hill
#
# Bulk Modulus (GPa) = 24.97871 73.52721 49.25296
# Shear Modulus (GPa) = 24.75005 39.67924 32.21465
#
# Velocity S-wave (km/s) = 3.47591 4.40110 3.96558
# Velocity P-wave (km/s) = 5.32003 7.85615 6.70902
#
# Compressibility (1/GPa) = 0.04003410
#
# Stress axis : x y z
#
# Youngs Moduli (GPa) = 42.54202 109.47935 58.78745
#
# Poissons Ratio (x) = 0.57842 -0.36071
# Poissons Ratio (y) = 0.22477 0.33278
# Poissons Ratio (z) = -0.26103 0.61973
#
# Static dielectric constant tensor:
#      x y z
#    x 3.770900 0.000000 -0.643970 
#    y 0.000000 4.140720 0.000000 
#    z -0.643970 0.000000 3.728910 
# 
# 
# High freq. dielectric constant tensor:
#      x y z
#    x 1.786460 0.000000 -0.059860 
#    y 0.000000 1.825540 0.000000 
#    z -0.059860 0.000000 1.773140 
# 
# From -- ./inp_files/28684.got.cif
#   From: 2010.06.25/outbox.cif.g09.slc.cpg/sg15_15_cif.got.tgz:28684.got - 2010.06.28 07:06:18.
