data_PCOD8131667
_publ_section_title
;
Structure prediction by ZEFSAII (Michael W. Deem and Ramdas Pophale) SiO2 
 PCOD8131667
Probable space group: C 2/C
;
_chemical_formula_sum "Si O2"
_cell_formula_units_Z 52
_cell_length_a 28.286310
_cell_length_b 17.661450
_cell_length_c 12.235416
_cell_angle_alpha 90.000000
_cell_angle_beta 153.188195
_cell_angle_gamma 90.000000
_cell_volume 2757.129029
_symmetry_space_group_name_H-M "C 2/C"
_symmetry_group_IT_number 15
_symmetry_cell_setting 'monoclinic'
loop_
_space_group_symop_operation_xyz
x,y,z
-x,y,1/2-z
-x,-y,-z
x,-y,1/2+z
1/2+x,1/2+y,z
1/2-x,1/2+y,1/2-z
1/2-x,1/2-y,-z
1/2+x,1/2-y,1/2+z
loop_
_atom_site_type_symbol
_atom_site_label
_atom_site_fract_x
_atom_site_fract_y
_atom_site_fract_z
Si Si1 0.614464 0.618219 0.956809
Si Si2 0.793528 0.866537 0.623979
Si Si3 0.622227 0.481417 0.267349
Si Si4 0.881253 0.262360 0.667877
Si Si5 0.415956 0.778631 0.301812
Si Si6 0.500000 0.729221 0.250000
Si Si7 0.825457 0.157364 0.756245
O O1 0.500000 0.588438 0.750000
O O2 0.653636 0.564222 0.940893
O O3 0.611071 0.706741 0.919101
O O4 0.689851 0.611487 0.215667
O O5 0.675128 0.838967 0.366756
O O6 0.877274 0.805568 0.753297
O O7 0.810781 0.941876 0.588731
O O8 0.659097 0.430446 0.240981
O O9 0.500000 0.500000 0.000000
O O10 0.854085 0.211940 0.716229
O O11 0.795613 0.326479 0.462698
O O12 0.992274 0.301952 0.924031
O O13 0.459083 0.780955 0.266179
O O14 0.597899 0.676501 0.485209
#
# Coordination Sequence:
#
# PCOD8131667 Si02
#       7
#     8   8   8   8   8   4   8
#     4  11  19  34  58  79 111 151 179 223 286 340
#     4  11  22  37  55  86 114 149 187 237 285 328
#     4  11  21  35  53  83 114 147 183 232 286 336
#     4   9  17  35  54  79 103 145 187 227 270 330
#     4  10  21  36  58  81 113 145 192 236 278 331
#     4  10  18  34  54  86 110 144 184 236 278 334
#     4   9  19  31  54  79 109 138 184 229 275 328
#
# _framework density 18.860199000000001
#
# number of rings (size 3 to 8) (size 9 to 14) (size 15 to 20)
#    0.000    1.846    3.077    2.769    0.000    3.692 
#    1.385    0.769    0.000    0.000    0.000    0.000 
#    0.000    0.000    0.000    0.000    0.000    0.000 
#
# Total GULP energy -322386.638161 kJ/mol
# GULP energy per Si atom -12399.486083 kJ/mol
# Density = 1.881727 g / cm^3
# Si number density = 18.860199 Si / 1000 Ang^3
#
#
#
# Elastic Constant Matrix: (Units=GPa)
#
#
# Indices 1 2 3 4 5 6 
#
# 1 68.3429 32.5784 31.2689 0.0000 4.1887 0.0000
# 2 32.5784 105.2425 54.8957 0.0000 14.0735 0.0000
# 3 31.2689 54.8957 136.1191 0.0000 17.9434 0.0000
# 4 0.0000 0.0000 0.0000 7.0192 0.0000 17.5434
# 5 4.1887 14.0735 17.9434 0.0000 29.2675 0.0000
# 6 0.0000 0.0000 0.0000 17.5434 0.0000 22.0045
#
#
#
# Elastic Compliance Matrix: (Units=1/GPa)
#
#
# Indices 1 2 3 4 5 6 
#
# 1 0.017772 -0.004358 -0.002465 0.000000 0.001063 0.000000
# 2 -0.004358 0.013359 -0.003940 0.000000 -0.003384 0.000000
# 3 -0.002465 -0.003940 0.010015 0.000000 -0.003892 0.000000
# 4 0.000000 0.000000 0.000000 -0.143524 0.000000 0.114426
# 5 0.001063 -0.003384 -0.003892 0.000000 0.038029 0.000000
# 6 0.000000 0.000000 0.000000 0.114426 0.000000 -0.045783
#
#
# Mechanical properties :
#
#
# Convention : Reuss Voigt Hill
#
# Bulk Modulus (GPa) = 50.97042 60.79893 55.88467
# Shear Modulus (GPa) = -60.92699 24.38904 -18.26898
#
# Velocity S-wave (km/s) = -5.68987 3.59994 -3.11569
# Velocity P-wave (km/s) = 4.01026 7.04173 4.09291
#
# Compressibility (1/GPa) = 0.01961922
#
# Stress axis : x y z
#
# Youngs Moduli (GPa) = 56.26782 74.85777 99.85003
#
# Poissons Ratio (x) = 0.32621 0.24616
# Poissons Ratio (y) = 0.24520 0.39344
# Poissons Ratio (z) = 0.13872 0.29496
#
# Static dielectric constant tensor:
#      x y z
#    x 3.571100 0.000000 0.005800 
#    y 0.000000 3.302670 0.000000 
#    z 0.005800 0.000000 3.660300 
# 
# 
# High freq. dielectric constant tensor:
#      x y z
#    x 1.733320 0.000000 -0.004890 
#    y 0.000000 1.703810 0.000000 
#    z -0.004890 0.000000 1.732780 
# 
# From -- ./inp_files/123870.got.cif
#   From: 2010.06.25/outbox.cif.g09.slc.cpg/sg15_62_cif.got.tgz:123870.got - 2010.06.28 07:06:18.
