data_PCOD8131551
_publ_section_title
;
Structure prediction by ZEFSAII (Michael W. Deem and Ramdas Pophale) SiO2 
 PCOD8131551
Probable space group: C 2/C
;
_chemical_formula_sum "Si O2"
_cell_formula_units_Z 48
_cell_length_a 8.735675
_cell_length_b 16.073512
_cell_length_c 19.353870
_cell_angle_alpha 90.000000
_cell_angle_beta 119.284663
_cell_angle_gamma 90.000000
_cell_volume 2370.234244
_symmetry_space_group_name_H-M "C 2/C"
_symmetry_group_IT_number 15
_symmetry_cell_setting 'monoclinic'
loop_
_space_group_symop_operation_xyz
x,y,z
-x,y,1/2-z
-x,-y,-z
x,-y,1/2+z
1/2+x,1/2+y,z
1/2-x,1/2+y,1/2-z
1/2-x,1/2-y,-z
1/2+x,1/2-y,1/2+z
loop_
_atom_site_type_symbol
_atom_site_label
_atom_site_fract_x
_atom_site_fract_y
_atom_site_fract_z
Si Si1 0.042287 0.729181 0.580881
Si Si2 0.330474 0.224231 0.665519
Si Si3 0.089887 0.932251 0.108941
Si Si4 0.114113 0.840785 0.339099
Si Si5 0.011505 0.302451 0.914783
Si Si6 0.180104 0.898356 0.572060
O O1 0.182077 0.658519 0.638153
O O2 0.990953 0.707970 0.491896
O O3 0.131566 0.819815 0.608431
O O4 0.875958 0.726861 0.594219
O O5 0.500000 0.235594 0.750000
O O6 0.239450 0.135484 0.657337
O O7 0.192449 0.298503 0.655420
O O8 0.960018 0.928921 0.147825
O O9 0.185707 0.020801 0.122528
O O10 0.974690 0.910533 0.016927
O O11 0.110505 0.777264 0.404100
O O12 0.000000 0.807878 0.250000
O O13 0.125041 0.384369 0.919278
#
# Coordination Sequence:
#
# PCOD8131551 Si02
#       6
#     8   8   8   8   8   8
#     4  11  18  35  59  87 110 151 200 248 278 343
#     4  11  23  37  55  84 122 156 193 245 302 348
#     4  10  20  37  56  86 117 149 189 239 302 358
#     4  10  18  33  58  84 116 155 193 235 293 361
#     4  10  19  36  58  88 110 153 205 242 284 348
#     4  10  19  36  61  85 111 146 197 249 288 341
#
# _framework density 20.251162999999998
#
# number of rings (size 3 to 8) (size 9 to 14) (size 15 to 20)
#    0.000    1.667    5.000    3.500    0.000    0.000 
#    0.000    8.333    0.000    0.000    0.000    0.000 
#    0.000    0.000    0.000    0.000    0.000    0.000 
#
# Total GULP energy -297330.581005 kJ/mol
# GULP energy per Si atom -12388.774209 kJ/mol
# Density = 2.020507 g / cm^3
# Si number density = 20.251163 Si / 1000 Ang^3
#
#
#
# Elastic Constant Matrix: (Units=GPa)
#
#
# Indices 1 2 3 4 5 6 
#
# 1 114.5347 54.9867 6.2771 0.0000 14.3446 0.0000
# 2 54.9867 91.1596 22.5501 0.0000 4.0785 0.0000
# 3 6.2771 22.5501 57.9363 0.0000 14.8154 0.0000
# 4 0.0000 0.0000 0.0000 14.2177 0.0000 0.4402
# 5 14.3446 4.0785 14.8154 0.0000 39.9054 0.0000
# 6 0.0000 0.0000 0.0000 0.4402 0.0000 34.8401
#
#
#
# Elastic Compliance Matrix: (Units=1/GPa)
#
#
# Indices 1 2 3 4 5 6 
#
# 1 0.013324 -0.008603 0.003209 0.000000 -0.005102 0.000000
# 2 -0.008603 0.017704 -0.006946 0.000000 0.003862 0.000000
# 3 0.003209 -0.006946 0.021799 0.000000 -0.008537 0.000000
# 4 0.000000 0.000000 0.000000 0.070362 0.000000 -0.000889
# 5 -0.005102 0.003862 -0.008537 0.000000 0.029668 0.000000
# 6 0.000000 0.000000 0.000000 -0.000889 0.000000 0.028714
#
#
# Mechanical properties :
#
#
# Convention : Reuss Voigt Hill
#
# Bulk Modulus (GPa) = 35.52592 47.91760 41.72176
# Shear Modulus (GPa) = 23.18743 29.78040 26.48392
#
# Velocity S-wave (km/s) = 3.38744 3.83894 3.62024
# Velocity P-wave (km/s) = 5.73415 6.58506 6.17428
#
# Compressibility (1/GPa) = 0.02814846
#
# Stress axis : x y z
#
# Youngs Moduli (GPa) = 75.05223 56.48332 45.87286
#
# Poissons Ratio (x) = 0.48590 -0.14722
# Poissons Ratio (y) = 0.64564 0.31865
# Poissons Ratio (z) = -0.24087 0.39236
#
# Static dielectric constant tensor:
#      x y z
#    x 4.243520 0.000000 -0.020940 
#    y 0.000000 3.629100 0.000000 
#    z -0.020940 0.000000 3.501490 
# 
# 
# High freq. dielectric constant tensor:
#      x y z
#    x 1.810320 0.000000 0.002630 
#    y 0.000000 1.741260 0.000000 
#    z 0.002630 0.000000 1.786210 
# 
# From -- ./inp_files/190642.got.cif
#   From: 2010.06.25/outbox.cif.g09.slc.cpg/sg15_96_cif.got.tgz:190642.got - 2010.06.28 07:06:18.
