data_PCOD8131542
_publ_section_title
;
Structure prediction by ZEFSAII (Michael W. Deem and Ramdas Pophale) SiO2 
 PCOD8131542
Probable space group: C 2/C
;
_chemical_formula_sum "Si O2"
_cell_formula_units_Z 44
_cell_length_a 20.388504
_cell_length_b 15.042109
_cell_length_c 18.105392
_cell_angle_alpha 90.000000
_cell_angle_beta 25.634532
_cell_angle_gamma 90.000000
_cell_volume 2402.248080
_symmetry_space_group_name_H-M "C 2/C"
_symmetry_group_IT_number 15
_symmetry_cell_setting 'monoclinic'
loop_
_space_group_symop_operation_xyz
x,y,z
-x,y,1/2-z
-x,-y,-z
x,-y,1/2+z
1/2+x,1/2+y,z
1/2-x,1/2+y,1/2-z
1/2-x,1/2-y,-z
1/2+x,1/2-y,1/2+z
loop_
_atom_site_type_symbol
_atom_site_label
_atom_site_fract_x
_atom_site_fract_y
_atom_site_fract_z
Si Si1 0.284115 0.168561 0.222430
Si Si2 0.448223 0.023913 0.382818
Si Si3 0.733241 0.849127 0.929029
Si Si4 0.000000 0.227372 0.250000
Si Si5 0.122431 0.336603 0.424051
Si Si6 0.346429 0.985525 0.202816
O O1 0.234745 0.177684 0.187797
O O2 0.203314 0.242787 0.354819
O O3 0.237176 0.070550 0.301107
O O4 0.461905 0.183747 0.050180
O O5 0.500000 0.055528 0.250000
O O6 0.392304 0.111435 0.483385
O O7 0.312961 0.952483 0.517562
O O8 0.598113 0.979007 0.268718
O O9 0.888585 0.835520 0.816153
O O10 0.596939 0.789197 0.097608
O O11 0.221628 0.394670 0.262714
O O12 0.500000 0.000000 0.000000
#
# Coordination Sequence:
#
# PCOD8131542 Si02
#       6
#     8   8   8   4   8   8
#     4  10  18  33  58  74 108 140 186 221 258 314
#     4  10  18  33  58  77 105 146 183 215 269 326
#     4  11  18  35  50  81 112 148 168 226 265 333
#     4  10  24  26  50  86 116 136 180 210 294 322
#     4  10  19  35  56  82 103 143 185 223 263 324
#     4   8  16  32  50  80  95 139 182 209 254 325
#
# _framework density 18.316175999999999
#
# number of rings (size 3 to 8) (size 9 to 14) (size 15 to 20)
#    0.000    2.545    6.364    1.091    0.000    0.000 
#    0.000    4.545    8.000    0.000    0.000    0.000 
#    0.000    0.000    0.000    0.000    0.000    0.000 
#
# Total GULP energy -272620.803807 kJ/mol
# GULP energy per Si atom -12391.854719 kJ/mol
# Density = 1.827449 g / cm^3
# Si number density = 18.316176 Si / 1000 Ang^3
#
#
#
# Elastic Constant Matrix: (Units=GPa)
#
#
# Indices 1 2 3 4 5 6 
#
# 1 127.0209 42.0681 40.6278 0.0057 5.4942 -0.0019
# 2 42.0681 95.9850 36.4695 0.0236 -9.8742 -0.0091
# 3 40.6278 36.4695 46.3870 0.0208 -3.5639 -0.0088
# 4 0.0057 0.0236 0.0208 28.5744 -0.0076 -3.7457
# 5 5.4942 -9.8742 -3.5639 -0.0076 26.4997 0.0022
# 6 -0.0019 -0.0091 -0.0088 -3.7457 0.0022 27.3697
#
#
#
# Elastic Compliance Matrix: (Units=1/GPa)
#
#
# Indices 1 2 3 4 5 6 
#
# 1 0.011596 -0.002207 -0.008759 0.000004 -0.004405 -0.000002
# 2 -0.002207 0.015709 -0.010036 -0.000004 0.004961 0.000001
# 3 -0.008759 -0.010036 0.037358 -0.000016 0.003101 0.000006
# 4 0.000004 -0.000004 -0.000016 0.035636 0.000005 0.004877
# 5 -0.004405 0.004961 0.003101 0.000005 0.040915 0.000000
# 6 -0.000002 0.000001 0.000006 0.004877 0.000000 0.037204
#
#
# Mechanical properties :
#
#
# Convention : Reuss Voigt Hill
#
# Bulk Modulus (GPa) = 44.13474 56.41375 50.27424
# Shear Modulus (GPa) = 21.93202 26.50391 24.21797
#
# Velocity S-wave (km/s) = 3.46412 3.80810 3.64018
# Velocity P-wave (km/s) = 6.33629 7.08536 6.72127
#
# Compressibility (1/GPa) = 0.02265789
#
# Stress axis : x y z
#
# Youngs Moduli (GPa) = 86.23699 63.65621 26.76781
#
# Poissons Ratio (x) = 0.14051 0.23447
# Poissons Ratio (y) = 0.19035 0.26865
# Poissons Ratio (z) = 0.75538 0.63887
#
# Static dielectric constant tensor:
#      x y z
#    x 3.590880 0.000010 -0.025870 
#    y 0.000010 3.976680 0.000000 
#    z -0.025870 0.000000 2.946630 
# 
# 
# High freq. dielectric constant tensor:
#      x y z
#    x 1.714350 0.000000 0.001970 
#    y 0.000000 1.716610 0.000000 
#    z 0.001970 0.000000 1.662700 
# 
# From -- ./inp_files/47186.got.cif
#   From: 2010.06.25/outbox.cif.g09.slc.cpg/sg15_24_cif.got.tgz:47186.got - 2010.06.28 07:06:18.
