data_PCOD8131967
_publ_section_title
;
Structure prediction by ZEFSAII (Michael W. Deem and Ramdas Pophale) SiO2 
 PCOD8131967
Probable space group: C 2/C
;
_chemical_formula_sum "Si O2"
_cell_formula_units_Z 40
_cell_length_a 23.909920
_cell_length_b 10.816469
_cell_length_c 13.546007
_cell_angle_alpha 90.000000
_cell_angle_beta 145.441701
_cell_angle_gamma 90.000000
_cell_volume 1987.216672
_symmetry_space_group_name_H-M "C 2/C"
_symmetry_group_IT_number 15
_symmetry_cell_setting 'monoclinic'
loop_
_space_group_symop_operation_xyz
x,y,z
-x,y,1/2-z
-x,-y,-z
x,-y,1/2+z
1/2+x,1/2+y,z
1/2-x,1/2+y,1/2-z
1/2-x,1/2-y,-z
1/2+x,1/2-y,1/2+z
loop_
_atom_site_type_symbol
_atom_site_label
_atom_site_fract_x
_atom_site_fract_y
_atom_site_fract_z
Si Si1 0.270841 0.421907 0.586532
Si Si2 0.788370 0.482397 0.801205
Si Si3 0.394734 0.480959 0.586926
Si Si4 0.865065 0.326112 0.267601
Si Si5 0.552091 0.783027 0.423434
O O1 0.249790 0.519461 0.644113
O O2 0.364128 0.457538 0.655593
O O3 0.173150 0.411206 0.378153
O O4 0.293480 0.291358 0.673081
O O5 0.692442 0.446350 0.595283
O O6 0.853301 0.594454 0.850881
O O7 0.854466 0.360955 0.906831
O O8 0.500000 0.552896 0.750000
O O9 0.412076 0.354488 0.551435
O O10 0.976910 0.285538 0.407353
O O11 0.500000 0.840117 0.250000
#
# Coordination Sequence:
#
# PCOD8131967 Si02
#       5
#     8   8   8   8   8
#     4  10  18  35  57  84 113 142 189 233 273 331
#     4  11  21  30  58  91 110 140 191 236 276 324
#     4  10  21  38  59  82 111 150 186 234 279 325
#     4  10  19  34  58  84 113 147 184 232 277 329
#     4  11  18  37  60  83 113 144 187 233 276 330
#
# _framework density 20.128655999999999
#
# number of rings (size 3 to 8) (size 9 to 14) (size 15 to 20)
#    0.000    1.600    6.000    3.000    0.000    0.800 
#    0.000    0.000    0.000   24.000    0.000    0.000 
#    0.000    0.000    0.000    0.000    0.000    0.000 
#
# Total GULP energy -247823.009976 kJ/mol
# GULP energy per Si atom -12391.150499 kJ/mol
# Density = 2.008284 g / cm^3
# Si number density = 20.128656 Si / 1000 Ang^3
#
#
#
# Elastic Constant Matrix: (Units=GPa)
#
#
# Indices 1 2 3 4 5 6 
#
# 1 151.0728 30.2294 39.2738 0.0000 -6.9230 0.0000
# 2 30.2294 33.4764 34.5101 0.0000 -7.9158 0.0000
# 3 39.2738 34.5101 103.8895 0.0000 10.6437 0.0000
# 4 0.0000 0.0000 0.0000 33.4778 0.0000 -10.7419
# 5 -6.9230 -7.9158 10.6437 0.0000 39.5303 0.0000
# 6 0.0000 0.0000 0.0000 -10.7419 0.0000 25.0325
#
#
#
# Elastic Compliance Matrix: (Units=1/GPa)
#
#
# Indices 1 2 3 4 5 6 
#
# 1 0.008151 -0.006100 -0.001106 0.000000 0.000504 0.000000
# 2 -0.006100 0.058325 -0.018671 0.000000 0.015638 0.000000
# 3 -0.001106 -0.018671 0.017121 0.000000 -0.008542 0.000000
# 4 0.000000 0.000000 0.000000 0.034640 0.000000 0.014865
# 5 0.000504 0.015638 -0.008542 0.000000 0.030817 0.000000
# 6 0.000000 0.000000 0.000000 0.014865 0.000000 0.046327
#
#
# Mechanical properties :
#
#
# Convention : Reuss Voigt Hill
#
# Bulk Modulus (GPa) = 31.40474 55.16279 43.28377
# Shear Modulus (GPa) = 19.39866 31.90315 25.65091
#
# Velocity S-wave (km/s) = 3.10777 3.98548 3.57367
# Velocity P-wave (km/s) = 5.33981 6.97447 6.21115
#
# Compressibility (1/GPa) = 0.03184232
#
# Stress axis : x y z
#
# Youngs Moduli (GPa) = 122.68843 17.14520 58.40762
#
# Poissons Ratio (x) = 0.10459 0.06462
# Poissons Ratio (y) = 0.74846 1.09050
# Poissons Ratio (z) = 0.13574 0.32011
#
# Static dielectric constant tensor:
#      x y z
#    x 4.095300 0.000000 0.090080 
#    y 0.000000 3.152790 0.000000 
#    z 0.090080 0.000000 3.733320 
# 
# 
# High freq. dielectric constant tensor:
#      x y z
#    x 1.817320 0.000000 0.014820 
#    y 0.000000 1.723810 0.000000 
#    z 0.014820 0.000000 1.773990 
# 
# From -- ./inp_files/94672.got.cif
#   From: 2010.06.25/outbox.cif.g09.slc.cpg/sg15_48_cif.got.tgz:94672.got - 2010.06.28 07:06:18.
