data_PCOD8131908
_publ_section_title
;
Structure prediction by ZEFSAII (Michael W. Deem and Ramdas Pophale) SiO2 
 PCOD8131908
Probable space group: C 2/C
;
_chemical_formula_sum "Si O2"
_cell_formula_units_Z 56
_cell_length_a 26.357096
_cell_length_b 12.954665
_cell_length_c 9.461960
_cell_angle_alpha 90.000000
_cell_angle_beta 74.754857
_cell_angle_gamma 90.000000
_cell_volume 3117.069439
_symmetry_space_group_name_H-M "C 2/C"
_symmetry_group_IT_number 15
_symmetry_cell_setting 'monoclinic'
loop_
_space_group_symop_operation_xyz
x,y,z
-x,y,1/2-z
-x,-y,-z
x,-y,1/2+z
1/2+x,1/2+y,z
1/2-x,1/2+y,1/2-z
1/2-x,1/2-y,-z
1/2+x,1/2-y,1/2+z
loop_
_atom_site_type_symbol
_atom_site_label
_atom_site_fract_x
_atom_site_fract_y
_atom_site_fract_z
Si Si1 0.127277 0.395228 0.678526
Si Si2 0.805925 0.929381 0.080976
Si Si3 0.325684 0.383193 0.753115
Si Si4 0.377018 0.186442 0.615354
Si Si5 0.308448 0.082021 0.878782
Si Si6 0.462654 0.968370 0.151926
Si Si7 0.208476 0.298630 0.837420
O O1 0.120870 0.313348 0.556895
O O2 0.151218 0.498178 0.589047
O O3 0.071911 0.429457 0.786802
O O4 0.167201 0.354602 0.766744
O O5 0.747681 0.973225 0.094063
O O6 0.798854 0.823640 0.175141
O O7 0.835623 0.013260 0.154467
O O8 0.835035 0.911390 0.910449
O O9 0.371421 0.304288 0.671318
O O10 0.268055 0.334659 0.763268
O O11 0.326946 0.123293 0.712428
O O12 0.429146 0.132878 0.637930
O O13 0.305549 0.177462 0.989170
O O14 0.500000 0.933335 0.250000
O O15 0.500000 0.000000 0.000000
#
# Coordination Sequence:
#
# PCOD8131908 Si02
#       7
#     8   8   8   8   8   8   8
#     4  11  23  33  60  88 121 154 196 240 302 357
#     4  11  22  35  53  79 118 167 208 237 282 340
#     4  11  23  37  55  81 122 164 207 246 279 356
#     4  11  22  37  56  85 121 154 194 244 304 349
#     4  10  18  35  51  79 119 163 200 239 278 350
#     4  11  23  42  63  93 120 148 193 252 310 363
#     4  11  21  36  53  83 122 168 200 237 295 346
#
# _framework density 17.965592999999998
#
# number of rings (size 3 to 8) (size 9 to 14) (size 15 to 20)
#    0.000    1.143    5.714    2.571    6.000    0.571 
#    0.000    0.000    0.000    0.000    0.000    5.000 
#    0.000    0.000    0.000    0.000    0.000    0.000 
#
# Total GULP energy -347138.920030 kJ/mol
# GULP energy per Si atom -12397.818572 kJ/mol
# Density = 1.792470 g / cm^3
# Si number density = 17.965593 Si / 1000 Ang^3
#
#
#
# Elastic Constant Matrix: (Units=GPa)
#
#
# Indices 1 2 3 4 5 6 
#
# 1 69.4467 24.1415 35.7590 0.0000 -0.8126 0.0000
# 2 24.1415 108.9018 44.0271 0.0000 -6.2862 0.0000
# 3 35.7590 44.0271 101.5473 0.0000 -4.6318 0.0000
# 4 0.0000 0.0000 0.0000 29.7908 0.0000 -0.3177
# 5 -0.8126 -6.2862 -4.6318 0.0000 27.2581 0.0000
# 6 0.0000 0.0000 0.0000 -0.3177 0.0000 28.1303
#
#
#
# Elastic Compliance Matrix: (Units=1/GPa)
#
#
# Indices 1 2 3 4 5 6 
#
# 1 0.017868 -0.001757 -0.005567 0.000000 -0.000819 0.000000
# 2 -0.001757 0.011392 -0.004236 0.000000 0.001855 0.000000
# 3 -0.005567 -0.004236 0.013699 0.000000 0.001185 0.000000
# 4 0.000000 0.000000 0.000000 0.033571 0.000000 0.000379
# 5 -0.000819 0.001855 0.001185 0.000000 0.037291 0.000000
# 6 0.000000 0.000000 0.000000 0.000379 0.000000 0.035553
#
#
# Mechanical properties :
#
#
# Convention : Reuss Voigt Hill
#
# Bulk Modulus (GPa) = 50.41022 54.19456 52.30239
# Shear Modulus (GPa) = 27.91642 28.76707 28.34174
#
# Velocity S-wave (km/s) = 3.94621 4.00588 3.97616
# Velocity P-wave (km/s) = 6.99168 7.18522 7.08911
#
# Compressibility (1/GPa) = 0.01983725
#
# Stress axis : x y z
#
# Youngs Moduli (GPa) = 55.96738 87.78414 73.00063
#
# Poissons Ratio (x) = 0.15427 0.40642
# Poissons Ratio (y) = 0.09836 0.30919
# Poissons Ratio (z) = 0.31159 0.37181
#
# Static dielectric constant tensor:
#      x y z
#    x 3.122090 0.000000 -0.029850 
#    y 0.000000 3.440010 0.000000 
#    z -0.029850 0.000000 3.369870 
# 
# 
# High freq. dielectric constant tensor:
#      x y z
#    x 1.661110 0.000000 0.006810 
#    y 0.000000 1.687810 0.000000 
#    z 0.006810 0.000000 1.706300 
# 
# From -- ./inp_files/65417.got.cif
#   From: 2010.06.25/outbox.cif.g09.slc.cpg/sg15_33_cif.got.tgz:65417.got - 2010.06.28 07:06:18.
