data_PCOD8131281
_publ_section_title
;
Structure prediction by ZEFSAII (Michael W. Deem and Ramdas Pophale) SiO2 
 PCOD8131281
Probable space group: C 2/C
;
_chemical_formula_sum "Si O2"
_cell_formula_units_Z 64
_cell_length_a 20.496245
_cell_length_b 23.549613
_cell_length_c 11.448819
_cell_angle_alpha 90.000000
_cell_angle_beta 37.830829
_cell_angle_gamma 90.000000
_cell_volume 3389.334857
_symmetry_space_group_name_H-M "C 2/C"
_symmetry_group_IT_number 15
_symmetry_cell_setting 'monoclinic'
loop_
_space_group_symop_operation_xyz
x,y,z
-x,y,1/2-z
-x,-y,-z
x,-y,1/2+z
1/2+x,1/2+y,z
1/2-x,1/2+y,1/2-z
1/2-x,1/2-y,-z
1/2+x,1/2-y,1/2+z
loop_
_atom_site_type_symbol
_atom_site_label
_atom_site_fract_x
_atom_site_fract_y
_atom_site_fract_z
Si Si1 0.672354 0.621930 0.714396
Si Si2 0.299656 0.659389 0.154826
Si Si3 0.990963 0.779670 0.102384
Si Si4 0.123120 0.076641 0.039320
Si Si5 0.124811 0.948735 0.070009
Si Si6 0.765242 0.166429 0.475557
Si Si7 0.576158 0.762056 0.244779
Si Si8 0.323532 0.803132 0.885420
O O1 0.588434 0.666776 0.779681
O O2 0.668788 0.566456 0.636895
O O3 0.790436 0.650673 0.532282
O O4 0.644492 0.605770 0.884868
O O5 0.264026 0.666906 0.337367
O O6 0.200268 0.671833 0.210691
O O7 0.399774 0.702321 0.986685
O O8 0.334662 0.594399 0.086138
O O9 0.943744 0.721355 0.226527
O O10 0.008299 0.765194 0.943276
O O11 0.199728 0.105610 0.025908
O O12 0.000000 0.083939 0.250000
O O13 0.161028 0.011700 0.982054
O O14 0.000000 0.946916 0.250000
O O15 0.646596 0.183571 0.685870
O O16 0.845504 0.213182 0.414992
O O17 0.500000 0.782624 0.250000
O O18 0.250000 0.750000 0.000000
#
# Coordination Sequence:
#
# PCOD8131281 Si02
#       8
#     8   8   8   8   8   8   8   8
#     4  10  20  35  50  78 111 142 178 223 265 327
#     4  10  19  34  53  78 114 143 179 220 264 325
#     4  10  18  32  55  76 110 144 175 217 270 321
#     4  11  23  34  53  77 113 145 180 223 269 326
#     4  10  21  33  53  76 108 144 184 217 269 328
#     4  10  21  34  52  82 114 147 184 220 268 334
#     4  10  19  32  53  79 115 148 180 216 273 327
#     4   9  20  32  51  78 107 142 179 216 270 318
#
# _framework density 18.882760000000001
#
# number of rings (size 3 to 8) (size 9 to 14) (size 15 to 20)
#    0.000    2.000    1.250    3.375    1.750    6.000 
#    0.000    0.000    0.000    0.000    0.000    7.875 
#    0.000    0.000    0.000    0.000    0.000    0.000 
#
# Total GULP energy -396602.448692 kJ/mol
# GULP energy per Si atom -12393.826522 kJ/mol
# Density = 1.883978 g / cm^3
# Si number density = 18.882760 Si / 1000 Ang^3
#
#
#
# Elastic Constant Matrix: (Units=GPa)
#
#
# Indices 1 2 3 4 5 6 
#
# 1 58.7958 35.0880 33.2056 0.0000 9.4993 0.0000
# 2 35.0880 107.1045 32.9812 0.0000 0.0433 0.0000
# 3 33.2056 32.9812 54.5681 0.0001 7.8501 -0.0001
# 4 0.0000 0.0000 0.0001 41.4565 0.0000 -0.1217
# 5 9.4993 0.0433 7.8501 0.0000 23.5454 0.0000
# 6 0.0000 0.0000 -0.0001 -0.1217 0.0000 25.4428
#
#
#
# Elastic Compliance Matrix: (Units=1/GPa)
#
#
# Indices 1 2 3 4 5 6 
#
# 1 0.028884 -0.005365 -0.013296 0.000000 -0.007210 0.000000
# 2 -0.005365 0.012600 -0.004893 0.000000 0.003773 0.000000
# 3 -0.013296 -0.004893 0.030042 0.000000 -0.004643 0.000000
# 4 0.000000 0.000000 0.000000 0.024122 0.000000 0.000115
# 5 -0.007210 0.003773 -0.004643 0.000000 0.046921 0.000000
# 6 0.000000 0.000000 0.000000 0.000115 0.000000 0.039304
#
#
# Mechanical properties :
#
#
# Convention : Reuss Voigt Hill
#
# Bulk Modulus (GPa) = 40.95644 47.00202 43.97923
# Shear Modulus (GPa) = 21.08623 26.03519 23.56071
#
# Velocity S-wave (km/s) = 3.34532 3.71722 3.53616
# Velocity P-wave (km/s) = 6.05463 6.58553 6.32565
#
# Compressibility (1/GPa) = 0.02441618
#
# Stress axis : x y z
#
# Youngs Moduli (GPa) = 34.62118 79.36763 33.28655
#
# Poissons Ratio (x) = 0.42582 0.44259
# Poissons Ratio (y) = 0.18575 0.16288
# Poissons Ratio (z) = 0.46034 0.38836
#
# Static dielectric constant tensor:
#      x y z
#    x 3.450030 0.000000 -0.174210 
#    y 0.000000 3.782810 0.000000 
#    z -0.174210 0.000000 3.711690 
# 
# 
# High freq. dielectric constant tensor:
#      x y z
#    x 1.723210 0.000000 0.017530 
#    y 0.000000 1.719700 0.000000 
#    z 0.017530 0.000000 1.726680 
# 
# From -- ./inp_files/114600.got.cif
#   From: 2010.06.25/outbox.cif.g09.slc.cpg/sg15_58_cif.got.tgz:114600.got - 2010.06.28 07:06:18.
