data_PCOD8131378
_publ_section_title
;
Structure prediction by ZEFSAII (Michael W. Deem and Ramdas Pophale) SiO2 
 PCOD8131378
Probable space group: C 2/C
;
_chemical_formula_sum "Si O2"
_cell_formula_units_Z 32
_cell_length_a 21.258237
_cell_length_b 9.362363
_cell_length_c 9.547432
_cell_angle_alpha 90.000000
_cell_angle_beta 128.760155
_cell_angle_gamma 90.000000
_cell_volume 1481.725601
_symmetry_space_group_name_H-M "C 2/C"
_symmetry_group_IT_number 15
_symmetry_cell_setting 'monoclinic'
loop_
_space_group_symop_operation_xyz
x,y,z
-x,y,1/2-z
-x,-y,-z
x,-y,1/2+z
1/2+x,1/2+y,z
1/2-x,1/2+y,1/2-z
1/2-x,1/2-y,-z
1/2+x,1/2-y,1/2+z
loop_
_atom_site_type_symbol
_atom_site_label
_atom_site_fract_x
_atom_site_fract_y
_atom_site_fract_z
Si Si1 0.604835 0.424641 0.694471
Si Si2 0.028519 0.787353 0.142199
Si Si3 0.795745 0.083532 0.901978
Si Si4 0.698741 0.182201 0.303382
O O1 0.546366 0.291831 0.572131
O O2 0.555297 0.549157 0.703372
O O3 0.643126 0.490471 0.607048
O O4 0.669438 0.371545 0.898152
O O5 0.102589 0.693499 0.188341
O O6 0.000000 0.721483 0.250000
O O7 0.772493 0.231278 0.794296
O O8 0.716877 0.985334 0.813960
O O9 0.750000 0.250000 0.500000
#
# Coordination Sequence:
#
# PCOD8131378 Si02
#       4
#     8   8   8   8
#     4  10  19  33  59  92 115 158 213 256 291 365
#     4  10  18  32  60  88 122 155 208 258 305 352
#     4  11  21  39  62  94 123 163 205 260 314 365
#     4  11  22  38  60  94 128 161 204 262 313 368
#
# _framework density 21.596440999999999
#
# number of rings (size 3 to 8) (size 9 to 14) (size 15 to 20)
#    0.000    1.500    7.500    0.000    0.000    1.000 
#    0.000    0.000    0.000    6.000    6.500    0.000 
#    0.000    0.000    0.000    0.000    0.000    0.000 
#
# Total GULP energy -198359.496262 kJ/mol
# GULP energy per Si atom -12397.468516 kJ/mol
# Density = 2.154729 g / cm^3
# Si number density = 21.596441 Si / 1000 Ang^3
#
#
#
# Elastic Constant Matrix: (Units=GPa)
#
#
# Indices 1 2 3 4 5 6 
#
# 1 85.0245 26.1541 38.1418 0.0000 1.1266 0.0000
# 2 26.1541 55.1758 45.2885 0.0000 8.3040 0.0000
# 3 38.1418 45.2885 159.1646 0.0000 -1.5893 0.0000
# 4 0.0000 0.0000 0.0000 21.2486 0.0000 3.1121
# 5 1.1266 8.3040 -1.5893 0.0000 32.7021 0.0000
# 6 0.0000 0.0000 0.0000 3.1121 0.0000 24.1815
#
#
#
# Elastic Compliance Matrix: (Units=1/GPa)
#
#
# Indices 1 2 3 4 5 6 
#
# 1 0.014233 -0.005308 -0.001893 0.000000 0.000766 0.000000
# 2 -0.005308 0.027015 -0.006485 0.000000 -0.006992 0.000000
# 3 -0.001893 -0.006485 0.008603 0.000000 0.002130 0.000000
# 4 0.000000 0.000000 0.000000 0.047966 0.000000 -0.006173
# 5 0.000766 -0.006992 0.002130 0.000000 0.032432 0.000000
# 6 0.000000 0.000000 0.000000 -0.006173 0.000000 0.042148
#
#
# Mechanical properties :
#
#
# Convention : Reuss Voigt Hill
#
# Bulk Modulus (GPa) = 44.48478 57.61484 51.04981
# Shear Modulus (GPa) = 24.12412 28.27847 26.20129
#
# Velocity S-wave (km/s) = 3.34584 3.62249 3.48691
# Velocity P-wave (km/s) = 5.96399 6.65075 6.31671
#
# Compressibility (1/GPa) = 0.02247960
#
# Stress axis : x y z
#
# Youngs Moduli (GPa) = 70.25862 37.01648 116.24199
#
# Poissons Ratio (x) = 0.19650 0.22001
# Poissons Ratio (y) = 0.37296 0.75378
# Poissons Ratio (z) = 0.13298 0.24004
#
# Static dielectric constant tensor:
#      x y z
#    x 3.993460 0.000000 0.088120 
#    y 0.000000 3.453700 0.000000 
#    z 0.088120 0.000000 4.107760 
# 
# 
# High freq. dielectric constant tensor:
#      x y z
#    x 1.853290 0.000000 -0.005270 
#    y 0.000000 1.792700 0.000000 
#    z -0.005270 0.000000 1.859460 
# 
# From -- ./inp_files/36578.got.cif
#   From: 2010.06.25/outbox.cif.g09.slc.cpg/sg15_19_cif.got.tgz:36578.got - 2010.06.28 07:06:18.
