data_PCOD8131901
_publ_section_title
;
Structure prediction by ZEFSAII (Michael W. Deem and Ramdas Pophale) SiO2 
 PCOD8131901
Probable space group: C 2/C
;
_chemical_formula_sum "Si O2"
_cell_formula_units_Z 52
_cell_length_a 27.697615
_cell_length_b 24.726813
_cell_length_c 9.637316
_cell_angle_alpha 90.000000
_cell_angle_beta 152.683053
_cell_angle_gamma 90.000000
_cell_volume 3028.979840
_symmetry_space_group_name_H-M "C 2/C"
_symmetry_group_IT_number 15
_symmetry_cell_setting 'monoclinic'
loop_
_space_group_symop_operation_xyz
x,y,z
-x,y,1/2-z
-x,-y,-z
x,-y,1/2+z
1/2+x,1/2+y,z
1/2-x,1/2+y,1/2-z
1/2-x,1/2-y,-z
1/2+x,1/2-y,1/2+z
loop_
_atom_site_type_symbol
_atom_site_label
_atom_site_fract_x
_atom_site_fract_y
_atom_site_fract_z
Si Si1 0.400135 0.469445 0.799320
Si Si2 0.866235 0.751904 0.627771
Si Si3 0.000000 0.116965 0.750000
Si Si4 0.374195 0.559594 0.936702
Si Si5 0.300151 0.677494 0.703687
Si Si6 0.150067 0.208150 0.108825
Si Si7 0.403187 0.764353 0.784707
O O1 0.337321 0.509702 0.743375
O O2 0.335032 0.452269 0.495209
O O3 0.500000 0.500000 0.000000
O O4 0.441173 0.417167 0.983619
O O5 0.837206 0.798276 0.444652
O O6 0.879202 0.781888 0.806701
O O7 0.776516 0.705491 0.408210
O O8 0.976196 0.723333 0.864841
O O9 0.907958 0.153111 0.585298
O O10 0.318121 0.613720 0.740918
O O11 0.500000 0.566990 0.250000
O O12 0.365746 0.706543 0.750316
O O13 0.174868 0.688558 0.360740
O O14 0.105260 0.258030 0.903417
#
# Coordination Sequence:
#
# PCOD8131901 Si02
#       7
#     8   8   4   8   8   8   8
#     4  10  20  31  46  68  99 121 163 203 253 292
#     4  10  18  35  45  73 105 132 167 198 231 302
#     4  12  18  32  48  74 102 128 160 206 246 300
#     4  10  19  32  46  69  97 128 156 207 248 297
#     4  10  21  30  51  72 100 138 166 191 258 284
#     4  10  21  28  52  72  98 139 164 194 249 284
#     4  10  19  33  47  74 102 134 167 202 226 311
#
# _framework density 17.167497000000001
#
# number of rings (size 3 to 8) (size 9 to 14) (size 15 to 20)
#    0.000    1.846    3.846    2.308    4.308    0.000 
#    0.000    0.000    0.000    0.000    0.000    1.077 
#    4.615    0.000    0.000    0.000    0.000    0.000 
#
# Total GULP energy -322215.534105 kJ/mol
# GULP energy per Si atom -12392.905158 kJ/mol
# Density = 1.712842 g / cm^3
# Si number density = 17.167497 Si / 1000 Ang^3
#
#
#
# Elastic Constant Matrix: (Units=GPa)
#
#
# Indices 1 2 3 4 5 6 
#
# 1 71.0474 29.1668 36.5997 0.0000 -1.0405 0.0000
# 2 29.1668 101.2137 41.9691 0.0000 7.0610 0.0000
# 3 36.5997 41.9691 73.1431 0.0000 23.7480 0.0000
# 4 0.0000 0.0000 0.0000 29.3419 0.0000 -2.1209
# 5 -1.0405 7.0610 23.7480 0.0000 39.9054 0.0000
# 6 0.0000 0.0000 0.0000 -2.1209 0.0000 20.8632
#
#
#
# Elastic Compliance Matrix: (Units=1/GPa)
#
#
# Indices 1 2 3 4 5 6 
#
# 1 0.021212 -0.001548 -0.012388 0.000000 0.008199 0.000000
# 2 -0.001548 0.013307 -0.007540 0.000000 0.002092 0.000000
# 3 -0.012388 -0.007540 0.029585 0.000000 -0.016595 0.000000
# 4 0.000000 0.000000 0.000000 0.034333 0.000000 0.003490
# 5 0.008199 0.002092 -0.016595 0.000000 0.034779 0.000000
# 6 0.000000 0.000000 0.000000 0.003490 0.000000 0.048286
#
#
# Mechanical properties :
#
#
# Convention : Reuss Voigt Hill
#
# Bulk Modulus (GPa) = 47.27720 51.20838 49.24279
# Shear Modulus (GPa) = 21.59768 27.20000 24.39884
#
# Velocity S-wave (km/s) = 3.55076 3.98476 3.77400
# Velocity P-wave (km/s) = 6.66401 7.14594 6.90918
#
# Compressibility (1/GPa) = 0.02115185
#
# Stress axis : x y z
#
# Youngs Moduli (GPa) = 47.14212 75.14986 33.80040
#
# Poissons Ratio (x) = 0.11632 0.41873
# Poissons Ratio (y) = 0.07297 0.25486
# Poissons Ratio (z) = 0.58402 0.56664
#
# Static dielectric constant tensor:
#      x y z
#    x 3.551180 0.000000 -0.258240 
#    y 0.000000 3.088280 0.000000 
#    z -0.258240 0.000000 3.338860 
# 
# 
# High freq. dielectric constant tensor:
#      x y z
#    x 1.675340 0.000000 -0.025790 
#    y 0.000000 1.630980 0.000000 
#    z -0.025790 0.000000 1.646820 
# 
# From -- ./inp_files/67779.got.cif
#   From: 2010.06.25/outbox.cif.g09.slc.cpg/sg15_34_cif.got.tgz:67779.got - 2010.06.28 07:06:18.
