data_PCOD8131720
_publ_section_title
;
Structure prediction by ZEFSAII (Michael W. Deem and Ramdas Pophale) SiO2 
 PCOD8131720
Probable space group: C 2/C
;
_chemical_formula_sum "Si O2"
_cell_formula_units_Z 64
_cell_length_a 12.061610
_cell_length_b 14.051138
_cell_length_c 30.060800
_cell_angle_alpha 90.000000
_cell_angle_beta 37.507929
_cell_angle_gamma 90.000000
_cell_volume 3102.006880
_symmetry_space_group_name_H-M "C 2/C"
_symmetry_group_IT_number 15
_symmetry_cell_setting 'monoclinic'
loop_
_space_group_symop_operation_xyz
x,y,z
-x,y,1/2-z
-x,-y,-z
x,-y,1/2+z
1/2+x,1/2+y,z
1/2-x,1/2+y,1/2-z
1/2-x,1/2-y,-z
1/2+x,1/2-y,1/2+z
loop_
_atom_site_type_symbol
_atom_site_label
_atom_site_fract_x
_atom_site_fract_y
_atom_site_fract_z
Si Si1 0.656327 0.263744 0.234447
Si Si2 0.320554 0.976841 0.288510
Si Si3 0.908303 0.659689 0.151028
Si Si4 0.923033 0.137320 0.104476
Si Si5 0.773886 0.387817 0.448201
Si Si6 0.191220 0.901235 0.957148
Si Si7 0.837715 0.816664 0.104922
Si Si8 0.338334 0.049348 0.682407
O O1 0.500000 0.230801 0.250000
O O2 0.628708 0.221202 0.292569
O O3 0.851960 0.227807 0.154392
O O4 0.668364 0.379272 0.229035
O O5 0.500000 0.031617 0.250000
O O6 0.293123 0.879589 0.323238
O O7 0.380834 0.949595 0.220512
O O8 0.144069 0.043935 0.347466
O O9 0.853071 0.714641 0.123844
O O10 0.795052 0.560105 0.183240
O O11 0.119940 0.634159 0.082530
O O12 0.837046 0.140752 0.082780
O O13 0.144208 0.142027 0.031249
O O14 0.684364 0.484255 0.456305
O O15 0.753985 0.309097 0.415071
O O16 0.978912 0.408022 0.399429
O O17 0.037808 0.862925 0.039281
#
# Coordination Sequence:
#
# PCOD8131720 Si02
#       8
#     8   8   8   8   8   8   8   8
#     4  12  24  39  59  84 115 159 198 237 284 345
#     4  12  18  31  58  92 118 142 186 246 293 342
#     4  11  22  36  59  87 116 151 197 238 288 340
#     4  11  19  34  60  86 118 149 193 237 294 344
#     4  10  20  36  60  88 119 149 186 243 300 338
#     4  10  18  34  56  91 118 145 186 244 289 342
#     4  11  19  32  57  92 117 146 185 244 295 343
#     4  11  24  39  57  86 121 152 191 241 290 342
#
# _framework density 20.631805
#
# number of rings (size 3 to 8) (size 9 to 14) (size 15 to 20)
#    0.000    1.000    7.500    2.250    0.000    0.500 
#    0.000    1.875    0.000    3.000    0.000    0.000 
#    0.000    0.000    0.000    0.000    0.000    0.000 
#
# Total GULP energy -396630.272125 kJ/mol
# GULP energy per Si atom -12394.696004 kJ/mol
# Density = 2.058485 g / cm^3
# Si number density = 20.631805 Si / 1000 Ang^3
#
#
#
# Elastic Constant Matrix: (Units=GPa)
#
#
# Indices 1 2 3 4 5 6 
#
# 1 31.6012 21.8115 11.5463 -0.0003 3.1267 0.0009
# 2 21.8115 102.8429 31.8721 0.0010 -3.1623 0.0004
# 3 11.5463 31.8721 98.7555 0.0035 3.2212 0.0041
# 4 -0.0003 0.0010 0.0035 31.4406 -0.0010 -3.0259
# 5 3.1267 -3.1623 3.2212 -0.0010 15.6355 -0.0024
# 6 0.0009 0.0004 0.0041 -3.0259 -0.0024 20.2442
#
#
#
# Elastic Compliance Matrix: (Units=1/GPa)
#
#
# Indices 1 2 3 4 5 6 
#
# 1 0.038631 -0.007956 -0.001655 0.000000 -0.008993 -0.000002
# 2 -0.007956 0.012577 -0.003286 0.000000 0.004812 0.000001
# 3 -0.001655 -0.003286 0.011468 -0.000002 -0.002696 -0.000003
# 4 0.000000 0.000000 -0.000002 0.032270 0.000003 0.004823
# 5 -0.008993 0.004812 -0.002696 0.000003 0.067284 0.000009
# 6 -0.000002 0.000001 -0.000003 0.004823 0.000009 0.050118
#
#
# Mechanical properties :
#
#
# Convention : Reuss Voigt Hill
#
# Bulk Modulus (GPa) = 27.11468 40.40659 33.76063
# Shear Modulus (GPa) = 19.96508 24.66204 22.31356
#
# Velocity S-wave (km/s) = 3.11414 3.46112 3.29220
# Velocity P-wave (km/s) = 5.10893 5.96654 5.55431
#
# Compressibility (1/GPa) = 0.03688039
#
# Stress axis : x y z
#
# Youngs Moduli (GPa) = 25.88616 79.50827 87.19929
#
# Poissons Ratio (x) = 0.63261 0.14435
# Poissons Ratio (y) = 0.20596 0.28652
# Poissons Ratio (z) = 0.04285 0.26125
#
# Static dielectric constant tensor:
#      x y z
#    x 3.213490 0.000000 -0.042440 
#    y 0.000000 3.807840 0.000000 
#    z -0.042440 0.000000 4.080360 
# 
# 
# High freq. dielectric constant tensor:
#      x y z
#    x 1.759580 0.000000 -0.004340 
#    y 0.000000 1.802740 0.000000 
#    z -0.004340 0.000000 1.828430 
# 
# From -- ./inp_files/311186.got.cif
#   From: 2010.06.25/outbox.cif.g09.slc.cpg/sg15_156_cif.got.tgz:311186.got - 2010.06.28 07:06:18.
