data_PCOD8131646
_publ_section_title
;
Structure prediction by ZEFSAII (Michael W. Deem and Ramdas Pophale) SiO2 
 PCOD8131646
Probable space group: C 2/C
;
_chemical_formula_sum "Si O2"
_cell_formula_units_Z 60
_cell_length_a 12.413600
_cell_length_b 25.352330
_cell_length_c 9.575226
_cell_angle_alpha 90.000000
_cell_angle_beta 73.126927
_cell_angle_gamma 90.000000
_cell_volume 2883.725720
_symmetry_space_group_name_H-M "C 2/C"
_symmetry_group_IT_number 15
_symmetry_cell_setting 'monoclinic'
loop_
_space_group_symop_operation_xyz
x,y,z
-x,y,1/2-z
-x,-y,-z
x,-y,1/2+z
1/2+x,1/2+y,z
1/2-x,1/2+y,1/2-z
1/2-x,1/2-y,-z
1/2+x,1/2-y,1/2+z
loop_
_atom_site_type_symbol
_atom_site_label
_atom_site_fract_x
_atom_site_fract_y
_atom_site_fract_z
Si Si1 0.557109 0.359015 0.598902
Si Si2 0.553408 0.773353 0.591652
Si Si3 0.592346 0.657141 0.603656
Si Si4 0.951321 0.568119 0.017277
Si Si5 0.500000 0.005501 0.250000
Si Si6 0.907998 0.742974 0.890957
Si Si7 0.168381 0.630032 0.909697
Si Si8 0.706574 0.859317 0.078419
O O1 0.500000 0.390589 0.750000
O O2 0.455584 0.354203 0.530268
O O3 0.608034 0.304071 0.644448
O O4 0.669150 0.384568 0.490402
O O5 0.500000 0.800283 0.750000
O O6 0.619815 0.719666 0.610098
O O7 0.450099 0.756306 0.533702
O O8 0.634113 0.812677 0.479429
O O9 0.500000 0.638848 0.750000
O O10 0.704247 0.621919 0.584143
O O11 0.932853 0.529680 0.889968
O O12 0.875580 0.619304 0.013398
O O13 0.081727 0.585237 0.993380
O O14 0.918212 0.540864 0.178734
O O15 0.796856 0.705349 0.925435
O O16 0.000000 0.717381 0.750000
O O17 0.162835 0.624183 0.745592
#
# Coordination Sequence:
#
# PCOD8131646 Si02
#       8
#     8   8   8   8   4   8   8   8
#     4  10  23  36  53  82 120 164 203 244 280 325
#     4  10  21  33  51  81 120 157 203 247 284 327
#     4  10  21  38  53  80 120 169 205 239 283 330
#     4  11  23  41  67  97 116 152 182 245 317 363
#     4  10  24  44  62  94 132 132 182 248 324 384
#     4  10  18  34  53  78 117 157 202 242 287 334
#     4  12  21  36  61  84 116 157 206 242 288 359
#     4  12  20  37  61  84 115 158 207 241 289 360
#
# _framework density 20.806415999999999
#
# number of rings (size 3 to 8) (size 9 to 14) (size 15 to 20)
#    0.000    1.333    5.333    0.800    0.933    2.133 
#    0.000    0.000    0.000    0.000    0.000   18.667 
#    0.000    0.000    0.000    0.000    0.000    0.000 
#
# Total GULP energy -371697.017756 kJ/mol
# GULP energy per Si atom -12389.900592 kJ/mol
# Density = 2.075906 g / cm^3
# Si number density = 20.806416 Si / 1000 Ang^3
#
#
#
# Elastic Constant Matrix: (Units=GPa)
#
#
# Indices 1 2 3 4 5 6 
#
# 1 103.4670 20.4447 26.4336 0.0000 -0.4872 0.0000
# 2 20.4447 45.6784 11.4886 0.0000 6.7259 0.0000
# 3 26.4336 11.4886 123.9076 0.0000 8.1258 0.0000
# 4 0.0000 0.0000 0.0000 25.1762 0.0000 10.9659
# 5 -0.4872 6.7259 8.1258 0.0000 30.3495 0.0000
# 6 0.0000 0.0000 0.0000 10.9659 0.0000 10.5302
#
#
#
# Elastic Compliance Matrix: (Units=1/GPa)
#
#
# Indices 1 2 3 4 5 6 
#
# 1 0.011132 -0.004728 -0.002053 0.000000 0.001776 0.000000
# 2 -0.004728 0.025040 -0.000961 0.000000 -0.005368 0.000000
# 3 -0.002053 -0.000961 0.008739 0.000000 -0.002160 0.000000
# 4 0.000000 0.000000 0.000000 0.072693 0.000000 -0.075701
# 5 0.001776 -0.005368 -0.002160 0.000000 0.034746 0.000000
# 6 0.000000 0.000000 0.000000 -0.075701 0.000000 0.173799
#
#
# Mechanical properties :
#
#
# Convention : Reuss Voigt Hill
#
# Bulk Modulus (GPa) = 33.98112 43.30963 38.64537
# Shear Modulus (GPa) = 14.22712 27.52360 20.87536
#
# Velocity S-wave (km/s) = 2.61777 3.64104 3.17095
# Velocity P-wave (km/s) = 5.05019 6.20781 5.65868
#
# Compressibility (1/GPa) = 0.02942811
#
# Stress axis : x y z
#
# Youngs Moduli (GPa) = 89.83185 39.93565 114.42634
#
# Poissons Ratio (x) = 0.18880 0.23491
# Poissons Ratio (y) = 0.42469 0.10998
# Poissons Ratio (z) = 0.18442 0.03838
#
# Static dielectric constant tensor:
#      x y z
#    x 3.585380 0.000000 -0.015470 
#    y 0.000000 3.468000 0.000000 
#    z -0.015470 0.000000 4.031760 
# 
# 
# High freq. dielectric constant tensor:
#      x y z
#    x 1.795400 0.000000 0.005160 
#    y 0.000000 1.763690 0.000000 
#    z 0.005160 0.000000 1.833660 
# 
# From -- ./inp_files/35197.got.cif
#   From: 2010.06.25/outbox.cif.g09.slc.cpg/sg15_18_cif.got.tgz:35197.got - 2010.06.28 07:06:18.
