data_PCOD8131602
_publ_section_title
;
Structure prediction by ZEFSAII (Michael W. Deem and Ramdas Pophale) SiO2 
 PCOD8131602
Probable space group: C 2/C
;
_chemical_formula_sum "Si O2"
_cell_formula_units_Z 48
_cell_length_a 5.822367
_cell_length_b 16.235533
_cell_length_c 18.702147
_cell_angle_alpha 90.000000
_cell_angle_beta 66.997960
_cell_angle_gamma 90.000000
_cell_volume 1627.335552
_symmetry_space_group_name_H-M "C 2/C"
_symmetry_group_IT_number 15
_symmetry_cell_setting 'monoclinic'
loop_
_space_group_symop_operation_xyz
x,y,z
-x,y,1/2-z
-x,-y,-z
x,-y,1/2+z
1/2+x,1/2+y,z
1/2-x,1/2+y,1/2-z
1/2-x,1/2-y,-z
1/2+x,1/2-y,1/2+z
loop_
_atom_site_type_symbol
_atom_site_label
_atom_site_fract_x
_atom_site_fract_y
_atom_site_fract_z
Si Si1 0.730368 0.463603 0.174484
Si Si2 0.736577 0.692670 0.758575
Si Si3 0.077823 0.609887 0.162893
Si Si4 0.492623 0.357475 0.070470
Si Si5 0.412957 0.549319 0.443875
Si Si6 0.532916 0.811698 0.965966
O O1 0.500000 0.497166 0.250000
O O2 0.818188 0.373063 0.187708
O O3 0.662652 0.467270 0.096385
O O4 0.965097 0.521919 0.156101
O O5 0.500000 0.743389 0.750000
O O6 0.626950 0.636312 0.836143
O O7 0.000000 0.739170 0.750000
O O8 0.374436 0.599508 0.122887
O O9 0.000000 0.639439 0.250000
O O10 0.988203 0.680314 0.118980
O O11 0.352465 0.282118 0.041949
O O12 0.467436 0.445444 0.026805
O O13 0.770897 0.320271 0.038403
O O14 0.181571 0.609741 0.474480
#
# Coordination Sequence:
#
# PCOD8131602 Si02
#       6
#     8   8   8   8   8   8
#     4  10  20  38  65  91 128 175 226 288 339 403
#     4  11  27  47  70  98 138 187 231 287 350 413
#     4  10  18  33  61  97 130 169 227 284 348 400
#     4  10  22  44  65  96 139 181 229 284 345 415
#     4  10  20  37  68  97 128 175 229 283 340 411
#     4   9  21  38  66  99 133 180 225 285 342 414
#
# _framework density 29.496068000000001
#
# number of rings (size 3 to 8) (size 9 to 14) (size 15 to 20)
#    0.000    2.000    1.667    1.000    4.667    0.667 
#    3.000    4.167    0.000    0.000    0.000    0.000 
#    0.000    0.000    0.000    0.000    0.000    0.000 
#
# Total GULP energy -297361.679081 kJ/mol
# GULP energy per Si atom -12390.069962 kJ/mol
# Density = 2.942893 g / cm^3
# Si number density = 29.496068 Si / 1000 Ang^3
#
#
#
# Elastic Constant Matrix: (Units=GPa)
#
#
# Indices 1 2 3 4 5 6 
#
# 1 135.9609 16.3827 35.4438 0.0000 0.0060 0.0000
# 2 16.3827 137.5829 28.1251 0.0000 26.3436 0.0000
# 3 35.4438 28.1251 160.4378 0.0000 26.4927 0.0000
# 4 0.0000 0.0000 0.0000 -4.0436 0.0000 12.9716
# 5 0.0060 26.3436 26.4927 0.0000 46.4979 0.0000
# 6 0.0000 0.0000 0.0000 12.9716 0.0000 33.9468
#
#
#
# Elastic Compliance Matrix: (Units=1/GPa)
#
#
# Indices 1 2 3 4 5 6 
#
# 1 0.007944 -0.000862 -0.001859 0.000000 0.001547 0.000000
# 2 -0.000862 0.008326 -0.000541 0.000000 -0.004409 0.000000
# 3 -0.001859 -0.000541 0.007382 0.000000 -0.003899 0.000000
# 4 0.000000 0.000000 0.000000 -0.111107 0.000000 0.042456
# 5 0.001547 -0.004409 -0.003899 0.000000 0.026226 0.000000
# 6 0.000000 0.000000 0.000000 0.042456 0.000000 0.013235
#
#
# Mechanical properties :
#
#
# Convention : Reuss Voigt Hill
#
# Bulk Modulus (GPa) = 58.38667 65.98721 62.18694
# Shear Modulus (GPa) = -139.81517 38.88221 -50.46648
#
# Velocity S-wave (km/s) = -6.89233 3.63466 -4.14086
# Velocity P-wave (km/s) = 6.59555 6.32728 1.31658
#
# Compressibility (1/GPa) = 0.01712720
#
# Stress axis : x y z
#
# Youngs Moduli (GPa) = 125.88880 120.10966 135.45681
#
# Poissons Ratio (x) = 0.10353 0.25184
# Poissons Ratio (y) = 0.10851 0.07330
# Poissons Ratio (z) = 0.23405 0.06499
#
# Static dielectric constant tensor:
#      x y z
#    x 5.874160 0.000000 0.573450 
#    y 0.000000 5.515520 0.000000 
#    z 0.573450 0.000000 5.928090 
# 
# 
# High freq. dielectric constant tensor:
#      x y z
#    x 2.212960 0.000000 0.029500 
#    y 0.000000 2.235960 0.000000 
#    z 0.029500 0.000000 2.226680 
# 
# From -- ./inp_files/185483.got.cif
#   From: 2010.06.25/outbox.cif.g09.slc.cpg/sg15_93_cif.got.tgz:185483.got - 2010.06.28 07:06:18.
