data_PCOD8131889
_publ_section_title
;
Structure prediction by ZEFSAII (Michael W. Deem and Ramdas Pophale) SiO2 
 PCOD8131889
Probable space group: C 2/C
;
_chemical_formula_sum "Si O2"
_cell_formula_units_Z 48
_cell_length_a 8.612903
_cell_length_b 21.383657
_cell_length_c 23.972026
_cell_angle_alpha 90.000000
_cell_angle_beta 149.615860
_cell_angle_gamma 90.000000
_cell_volume 2233.113524
_symmetry_space_group_name_H-M "C 2/C"
_symmetry_group_IT_number 15
_symmetry_cell_setting 'monoclinic'
loop_
_space_group_symop_operation_xyz
x,y,z
-x,y,1/2-z
-x,-y,-z
x,-y,1/2+z
1/2+x,1/2+y,z
1/2-x,1/2+y,1/2-z
1/2-x,1/2-y,-z
1/2+x,1/2-y,1/2+z
loop_
_atom_site_type_symbol
_atom_site_label
_atom_site_fract_x
_atom_site_fract_y
_atom_site_fract_z
Si Si1 0.792005 0.125247 0.031927
Si Si2 0.658181 0.923254 0.739688
Si Si3 0.187370 0.537401 0.900675
Si Si4 0.179658 0.852250 0.139497
Si Si5 0.850857 0.175922 0.644611
Si Si6 0.261702 0.313664 0.914612
O O1 0.978942 0.090581 0.139802
O O2 0.025741 0.171627 0.072894
O O3 0.643868 0.075543 0.943930
O O4 0.513459 0.164583 0.970984
O O5 0.500000 0.929268 0.750000
O O6 0.495269 0.866986 0.655518
O O7 0.601432 0.989829 0.692006
O O8 0.220076 0.582490 0.857687
O O9 0.500000 0.500000 0.000000
O O10 0.500000 0.815329 0.250000
O O11 0.013191 0.865404 0.147030
O O12 0.966800 0.810225 0.033854
O O13 0.910207 0.248646 0.649100
O O14 0.000000 0.158148 0.750000
#
# Coordination Sequence:
#
# PCOD8131889 Si02
#       6
#     8   8   8   8   8   8
#     4  10  22  37  63  97 124 168 208 262 325 369
#     4  10  18  34  65  92 115 162 215 257 304 373
#     4  11  19  38  68  86 121 165 219 252 305 384
#     4  11  24  40  67  92 123 173 216 260 317 379
#     4  12  24  42  62  95 135 162 209 268 320 377
#     4  10  21  40  65  92 124 171 214 253 309 384
#
# _framework density 21.494651999999999
#
# number of rings (size 3 to 8) (size 9 to 14) (size 15 to 20)
#    0.000    1.333    5.000    5.000    0.000    1.333 
#    0.000    1.667    3.667    0.000    0.000    0.000 
#    0.000    0.000    0.000    0.000    0.000    0.000 
#
# Total GULP energy -297600.926729 kJ/mol
# GULP energy per Si atom -12400.038614 kJ/mol
# Density = 2.144573 g / cm^3
# Si number density = 21.494652 Si / 1000 Ang^3
#
#
#
# Elastic Constant Matrix: (Units=GPa)
#
#
# Indices 1 2 3 4 5 6 
#
# 1 78.3009 23.0122 40.7348 0.0087 -0.5611 -0.0047
# 2 23.0122 98.3806 39.2921 -0.0207 -0.3886 0.0114
# 3 40.7348 39.2921 140.4885 -0.0677 -12.0243 0.0260
# 4 0.0087 -0.0207 -0.0677 34.9339 -0.0041 -4.8053
# 5 -0.5611 -0.3886 -12.0243 -0.0041 29.1277 0.0010
# 6 -0.0047 0.0114 0.0260 -4.8053 0.0010 9.9694
#
#
#
# Elastic Compliance Matrix: (Units=1/GPa)
#
#
# Indices 1 2 3 4 5 6 
#
# 1 0.015452 -0.002007 -0.004039 -0.000011 -0.001396 0.000015
# 2 -0.002007 0.011745 -0.002791 0.000001 -0.001034 -0.000007
# 3 -0.004039 -0.002791 0.009392 0.000016 0.003762 -0.000016
# 4 -0.000011 0.000001 0.000016 0.030658 0.000010 0.014778
# 5 -0.001396 -0.001034 0.003762 0.000010 0.035844 -0.000008
# 6 0.000015 -0.000007 -0.000016 0.014778 -0.000008 0.107430
#
#
# Mechanical properties :
#
#
# Convention : Reuss Voigt Hill
#
# Bulk Modulus (GPa) = 52.86879 58.13867 55.50373
# Shear Modulus (GPa) = 21.32200 29.08160 25.20180
#
# Velocity S-wave (km/s) = 3.15297 3.68226 3.42785
# Velocity P-wave (km/s) = 6.15667 6.72201 6.44554
#
# Compressibility (1/GPa) = 0.01891475
#
# Stress axis : x y z
#
# Youngs Moduli (GPa) = 64.71632 85.14383 106.47700
#
# Poissons Ratio (x) = 0.17088 0.43001
# Poissons Ratio (y) = 0.12988 0.29722
# Poissons Ratio (z) = 0.26136 0.23767
#
# Static dielectric constant tensor:
#      x y z
#    x 3.623060 0.000070 -0.398600 
#    y 0.000070 4.267740 -0.000230 
#    z -0.398600 -0.000230 4.699050 
# 
# 
# High freq. dielectric constant tensor:
#      x y z
#    x 1.804270 0.000000 -0.016740 
#    y 0.000000 1.835730 0.000000 
#    z -0.016740 0.000000 1.866930 
# 
# From -- ./inp_files/191941.got.cif
#   From: 2010.06.25/outbox.cif.g09.slc.cpg/sg15_96_cif.got.tgz:191941.got - 2010.06.28 07:06:18.
