data_PCOD8131611
_publ_section_title
;
Structure prediction by ZEFSAII (Michael W. Deem and Ramdas Pophale) SiO2 
 PCOD8131611
Probable space group: C 2/C
;
_chemical_formula_sum "Si O2"
_cell_formula_units_Z 64
_cell_length_a 12.057201
_cell_length_b 22.586455
_cell_length_c 11.797389
_cell_angle_alpha 90.000000
_cell_angle_beta 106.380982
_cell_angle_gamma 90.000000
_cell_volume 3082.362023
_symmetry_space_group_name_H-M "C 2/C"
_symmetry_group_IT_number 15
_symmetry_cell_setting 'monoclinic'
loop_
_space_group_symop_operation_xyz
x,y,z
-x,y,1/2-z
-x,-y,-z
x,-y,1/2+z
1/2+x,1/2+y,z
1/2-x,1/2+y,1/2-z
1/2-x,1/2-y,-z
1/2+x,1/2-y,1/2+z
loop_
_atom_site_type_symbol
_atom_site_label
_atom_site_fract_x
_atom_site_fract_y
_atom_site_fract_z
Si Si1 0.380772 0.645419 0.392739
Si Si2 0.414068 0.739167 0.824320
Si Si3 0.782062 0.090779 0.155881
Si Si4 0.469740 0.868972 0.871181
Si Si5 0.884046 0.881469 0.447840
Si Si6 0.794038 0.260403 0.388187
Si Si7 0.864405 0.039265 0.731064
Si Si8 0.704701 0.883563 0.032786
O O1 0.356497 0.634951 0.253940
O O2 0.485132 0.606277 0.472038
O O3 0.405815 0.716869 0.407625
O O4 0.264691 0.633483 0.431411
O O5 0.500000 0.714545 0.750000
O O6 0.464679 0.798084 0.901353
O O7 0.382568 0.685602 0.900087
O O8 0.297411 0.761668 0.731630
O O9 0.645514 0.095298 0.134085
O O10 0.828526 0.028448 0.216078
O O11 0.801975 0.108013 0.031367
O O12 0.500000 0.874371 0.750000
O O13 0.572744 0.902180 0.968984
O O14 0.840892 0.930051 0.345259
O O15 0.750000 0.250000 0.500000
O O16 0.811538 0.330364 0.380479
O O17 0.783948 0.067203 0.611715
O O18 0.000000 0.048767 0.750000
#
# Coordination Sequence:
#
# PCOD8131611 Si02
#       8
#     8   8   8   8   8   8   8   8
#     4  11  20  41  65  99 133 165 221 276 335 394
#     4  11  19  38  67 101 132 175 218 271 332 398
#     4  12  28  43  64  98 135 181 224 275 339 390
#     4  11  22  44  69  96 133 173 224 271 325 409
#     4  12  25  41  68 100 140 170 217 285 341 394
#     4  10  18  33  63 100 128 161 219 274 320 388
#     4  12  26  45  68  97 132 177 230 272 330 397
#     4  11  21  39  71  97 122 172 226 276 318 391
#
# _framework density 20.763297000000001
#
# number of rings (size 3 to 8) (size 9 to 14) (size 15 to 20)
#    0.000    0.750    5.000    6.000    1.750    2.000 
#    0.000    0.625    0.000    0.000    0.000    0.000 
#    0.000    0.000    0.000    0.000    0.000    0.000 
#
# Total GULP energy -396510.823956 kJ/mol
# GULP energy per Si atom -12390.963249 kJ/mol
# Density = 2.071604 g / cm^3
# Si number density = 20.763297 Si / 1000 Ang^3
#
#
#
# Elastic Constant Matrix: (Units=GPa)
#
#
# Indices 1 2 3 4 5 6 
#
# 1 93.5342 36.1346 54.4639 0.0000 11.5411 0.0000
# 2 36.1346 84.7547 41.4743 0.0000 -5.4410 0.0000
# 3 54.4639 41.4743 110.4458 0.0000 -0.2879 0.0000
# 4 0.0000 0.0000 0.0000 24.9602 0.0000 5.5960
# 5 11.5411 -5.4410 -0.2879 0.0000 39.0181 0.0000
# 6 0.0000 0.0000 0.0000 5.5960 0.0000 27.1710
#
#
#
# Elastic Compliance Matrix: (Units=1/GPa)
#
#
# Indices 1 2 3 4 5 6 
#
# 1 0.017002 -0.004292 -0.006787 0.000000 -0.005678 0.000000
# 2 -0.004292 0.015692 -0.003767 0.000000 0.003430 0.000000
# 3 -0.006787 -0.003767 0.013820 0.000000 0.001584 0.000000
# 4 0.000000 0.000000 0.000000 0.042003 0.000000 -0.008651
# 5 -0.005678 0.003430 0.001584 0.000000 0.027798 0.000000
# 6 0.000000 0.000000 0.000000 -0.008651 0.000000 0.038586
#
#
# Mechanical properties :
#
#
# Convention : Reuss Voigt Hill
#
# Bulk Modulus (GPa) = 59.44822 61.43113 60.43967
# Shear Modulus (GPa) = 26.28785 28.67398 27.48091
#
# Velocity S-wave (km/s) = 3.56205 3.72020 3.64199
# Velocity P-wave (km/s) = 6.75360 6.93569 6.84525
#
# Compressibility (1/GPa) = 0.01682136
#
# Stress axis : x y z
#
# Youngs Moduli (GPa) = 58.81643 63.72554 72.35854
#
# Poissons Ratio (x) = 0.27350 0.49112
# Poissons Ratio (y) = 0.25243 0.27260
# Poissons Ratio (z) = 0.39921 0.24008
#
# Static dielectric constant tensor:
#      x y z
#    x 3.688340 0.000000 0.207420 
#    y 0.000000 3.971410 0.000000 
#    z 0.207420 0.000000 3.877700 
# 
# 
# High freq. dielectric constant tensor:
#      x y z
#    x 1.790820 0.000000 0.022870 
#    y 0.000000 1.807400 0.000000 
#    z 0.022870 0.000000 1.822470 
# 
# From -- ./inp_files/91292.got.cif
#   From: 2010.06.25/outbox.cif.g09.slc.cpg/sg15_46_cif.got.tgz:91292.got - 2010.06.28 07:06:18.
