data_PCOD8131563
_publ_section_title
;
Structure prediction by ZEFSAII (Michael W. Deem and Ramdas Pophale) SiO2 
 PCOD8131563
Probable space group: C 2/C
;
_chemical_formula_sum "Si O2"
_cell_formula_units_Z 40
_cell_length_a 5.182812
_cell_length_b 23.653707
_cell_length_c 15.950514
_cell_angle_alpha 90.000000
_cell_angle_beta 91.493611
_cell_angle_gamma 90.000000
_cell_volume 1954.752464
_symmetry_space_group_name_H-M "C 2/C"
_symmetry_group_IT_number 15
_symmetry_cell_setting 'monoclinic'
loop_
_space_group_symop_operation_xyz
x,y,z
-x,y,1/2-z
-x,-y,-z
x,-y,1/2+z
1/2+x,1/2+y,z
1/2-x,1/2+y,1/2-z
1/2-x,1/2-y,-z
1/2+x,1/2-y,1/2+z
loop_
_atom_site_type_symbol
_atom_site_label
_atom_site_fract_x
_atom_site_fract_y
_atom_site_fract_z
Si Si1 0.090964 0.802140 0.404751
Si Si2 0.254925 0.578722 0.306344
Si Si3 0.816454 0.319684 0.574699
Si Si4 0.741581 0.013461 0.945678
Si Si5 0.095580 0.640388 0.923730
O O1 0.116756 0.737490 0.373006
O O2 0.091004 0.802845 0.507028
O O3 0.322283 0.844468 0.375015
O O4 0.809286 0.823078 0.376072
O O5 0.500000 0.572250 0.250000
O O6 0.291485 0.634023 0.363082
O O7 0.236535 0.523235 0.362283
O O8 0.000000 0.585409 0.250000
O O9 0.059845 0.344309 0.522671
O O10 0.705812 0.077544 0.915960
O O11 0.500000 0.000000 0.000000
O O12 0.000000 0.000000 0.000000
#
# Coordination Sequence:
#
# PCOD8131563 Si02
#       5
#     8   8   8   8   8
#     4   9  19  31  61  92 111 140 198 259 303 341
#     4  12  27  40  59  91 134 167 198 259 344 383
#     4   9  20  35  59  86 123 147 200 253 305 365
#     4  12  22  40  65  87 119 165 226 260 299 379
#     4  10  18  33  58  90 109 147 203 270 282 338
#
# _framework density 20.462951
#
# number of rings (size 3 to 8) (size 9 to 14) (size 15 to 20)
#    1.200    0.400    2.000    4.200    2.800    0.000 
#    0.000    0.000    0.000    7.200    0.000    0.000 
#    0.000    0.000    0.000    0.000    0.000    0.000 
#
# Total GULP energy -247785.105947 kJ/mol
# GULP energy per Si atom -12389.255297 kJ/mol
# Density = 2.041638 g / cm^3
# Si number density = 20.462951 Si / 1000 Ang^3
#
#
#
# Elastic Constant Matrix: (Units=GPa)
#
#
# Indices 1 2 3 4 5 6 
#
# 1 132.5427 22.9144 20.2193 0.0000 -25.8302 0.0000
# 2 22.9144 154.0441 26.1133 0.0000 -23.6743 0.0000
# 3 20.2193 26.1133 39.7624 0.0000 -8.5649 0.0000
# 4 0.0000 0.0000 0.0000 25.4925 0.0000 -2.6420
# 5 -25.8302 -23.6743 -8.5649 0.0000 24.7881 0.0000
# 6 0.0000 0.0000 0.0000 -2.6420 0.0000 26.2115
#
#
#
# Elastic Compliance Matrix: (Units=1/GPa)
#
#
# Indices 1 2 3 4 5 6 
#
# 1 0.009830 0.000582 -0.003300 0.000000 0.009658 0.000000
# 2 0.000582 0.008185 -0.004167 0.000000 0.006983 0.000000
# 3 -0.003300 -0.004167 0.030215 0.000000 0.003022 0.000000
# 4 0.000000 0.000000 0.000000 0.039641 0.000000 0.003996
# 5 0.009658 0.006983 0.003022 0.000000 0.058120 0.000000
# 6 0.000000 0.000000 0.000000 0.003996 0.000000 0.038554
#
#
# Mechanical properties :
#
#
# Convention : Reuss Voigt Hill
#
# Bulk Modulus (GPa) = 29.02003 51.64925 40.33464
# Shear Modulus (GPa) = 23.83211 32.43856 28.13533
#
# Velocity S-wave (km/s) = 3.41639 3.98582 3.71204
# Velocity P-wave (km/s) = 5.45663 6.81744 6.17464
#
# Compressibility (1/GPa) = 0.03445896
#
# Stress axis : x y z
#
# Youngs Moduli (GPa) = 101.73108 122.17933 33.09649
#
# Poissons Ratio (x) = -0.07105 0.10922
# Poissons Ratio (y) = -0.05916 0.13790
# Poissons Ratio (z) = 0.33571 0.50908
#
# Static dielectric constant tensor:
#      x y z
#    x 3.705490 0.000000 -0.036180 
#    y 0.000000 3.866280 0.000000 
#    z -0.036180 0.000000 3.263040 
# 
# 
# High freq. dielectric constant tensor:
#      x y z
#    x 1.809860 0.000000 -0.010140 
#    y 0.000000 1.818880 0.000000 
#    z -0.010140 0.000000 1.745600 
# 
# From -- ./inp_files/129124.got.cif
#   From: 2010.06.25/outbox.cif.g09.slc.cpg/sg15_65_cif.got.tgz:129124.got - 2010.06.28 07:06:18.
