data_PCOD8131470
_publ_section_title
;
Structure prediction by ZEFSAII (Michael W. Deem and Ramdas Pophale) SiO2 
 PCOD8131470
Probable space group: C 2/C
;
_chemical_formula_sum "Si O2"
_cell_formula_units_Z 56
_cell_length_a 20.553655
_cell_length_b 15.488927
_cell_length_c 19.630240
_cell_angle_alpha 90.000000
_cell_angle_beta 155.510176
_cell_angle_gamma 90.000000
_cell_volume 2590.560094
_symmetry_space_group_name_H-M "C 2/C"
_symmetry_group_IT_number 15
_symmetry_cell_setting 'monoclinic'
loop_
_space_group_symop_operation_xyz
x,y,z
-x,y,1/2-z
-x,-y,-z
x,-y,1/2+z
1/2+x,1/2+y,z
1/2-x,1/2+y,1/2-z
1/2-x,1/2-y,-z
1/2+x,1/2-y,1/2+z
loop_
_atom_site_type_symbol
_atom_site_label
_atom_site_fract_x
_atom_site_fract_y
_atom_site_fract_z
Si Si1 0.707925 0.988976 0.504745
Si Si2 0.288645 0.366855 0.691860
Si Si3 0.654201 0.172966 0.440974
Si Si4 0.852016 0.533314 0.701952
Si Si5 0.016281 0.729319 0.447374
Si Si6 0.055523 0.306466 0.135315
Si Si7 0.287134 0.378778 0.843829
O O1 0.763176 0.087583 0.545241
O O2 0.823994 0.939129 0.667637
O O3 0.711785 0.944607 0.434221
O O4 0.533689 0.994553 0.371654
O O5 0.412214 0.289146 0.804924
O O6 0.289669 0.411378 0.767741
O O7 0.121924 0.326073 0.513978
O O8 0.500000 0.153558 0.250000
O O9 0.750000 0.250000 0.500000
O O10 0.616283 0.191073 0.482135
O O11 0.830299 0.621361 0.723699
O O12 0.753894 0.457207 0.645305
O O13 0.083876 0.689379 0.581644
O O14 0.045307 0.834056 0.476871
O O15 0.835301 0.701857 0.266393
#
# Coordination Sequence:
#
# PCOD8131470 Si02
#       7
#     8   8   8   8   8   8   8
#     4  10  19  33  54  81 111 140 188 224 269 327
#     4   9  20  35  58  82 108 144 184 232 276 325
#     4  12  22  35  57  83 115 149 179 222 272 328
#     4  10  18  33  54  81 106 142 186 228 264 327
#     4  10  19  33  53  79 110 141 182 222 269 331
#     4   9  20  34  58  79 106 141 187 227 277 317
#     4  10  19  34  57  81 110 143 185 227 274 325
#
# _framework density 21.616947
#
# number of rings (size 3 to 8) (size 9 to 14) (size 15 to 20)
#    0.000    2.000    2.857    1.714    2.000    2.286 
#    0.000    0.000    9.429    3.429    0.000    0.000 
#    0.000    0.000    0.000    0.000    0.000    0.000 
#
# Total GULP energy -347050.350227 kJ/mol
# GULP energy per Si atom -12394.655365 kJ/mol
# Density = 2.156775 g / cm^3
# Si number density = 21.616947 Si / 1000 Ang^3
#
#
#
# Elastic Constant Matrix: (Units=GPa)
#
#
# Indices 1 2 3 4 5 6 
#
# 1 74.3467 43.1602 23.5533 0.0208 -29.1073 0.0070
# 2 43.1602 110.4995 30.0203 0.0244 -19.6736 0.0108
# 3 23.5533 30.0203 47.8301 0.0317 -22.4737 0.0153
# 4 0.0208 0.0244 0.0317 28.1671 0.0115 -8.2757
# 5 -29.1073 -19.6736 -22.4737 0.0115 30.5069 0.0034
# 6 0.0070 0.0108 0.0153 -8.2757 0.0034 38.5131
#
#
#
# Elastic Compliance Matrix: (Units=1/GPa)
#
#
# Indices 1 2 3 4 5 6 
#
# 1 0.024761 -0.006414 0.001514 -0.000026 0.020604 -0.000011
# 2 -0.006414 0.012760 -0.005902 0.000001 -0.002239 0.000000
# 3 0.001514 -0.005902 0.034803 -0.000052 0.023277 -0.000026
# 4 -0.000026 0.000001 -0.000052 0.037895 -0.000078 0.008143
# 5 0.020604 -0.002239 0.023277 -0.000078 0.068141 -0.000035
# 6 -0.000011 0.000000 -0.000026 0.008143 -0.000035 0.027715
#
#
# Mechanical properties :
#
#
# Convention : Reuss Voigt Hill
#
# Bulk Modulus (GPa) = 19.71664 47.34933 33.53299
# Shear Modulus (GPa) = 20.44251 28.50025 24.47138
#
# Velocity S-wave (km/s) = 3.07851 3.63495 3.36824
# Velocity P-wave (km/s) = 4.66659 6.29035 5.53830
#
# Compressibility (1/GPa) = 0.05071858
#
# Stress axis : x y z
#
# Youngs Moduli (GPa) = 40.38562 78.36955 28.73274
#
# Poissons Ratio (x) = 0.50270 -0.04349
# Poissons Ratio (y) = 0.25905 0.16959
# Poissons Ratio (z) = -0.06113 0.46256
#
# Static dielectric constant tensor:
#      x y z
#    x 3.941500 -0.000100 -0.282560 
#    y -0.000100 4.220820 -0.000070 
#    z -0.282560 -0.000070 3.896390 
# 
# 
# High freq. dielectric constant tensor:
#      x y z
#    x 1.846070 0.000000 -0.028680 
#    y 0.000000 1.845200 0.000000 
#    z -0.028680 0.000000 1.827650 
# 
# From -- ./inp_files/215787.got.cif
#   From: 2010.06.25/outbox.cif.g09.slc.cpg/sg15_108_cif.got.tgz:215787.got - 2010.06.28 07:06:18.
