data_PCOD8131104
_publ_section_title
;
Structure prediction by ZEFSAII (Michael W. Deem and Ramdas Pophale) SiO2 
 PCOD8131104
Probable space group: C 2/C
;
_chemical_formula_sum "Si O2"
_cell_formula_units_Z 48
_cell_length_a 23.205046
_cell_length_b 12.447093
_cell_length_c 10.300545
_cell_angle_alpha 90.000000
_cell_angle_beta 116.963392
_cell_angle_gamma 90.000000
_cell_volume 2651.750927
_symmetry_space_group_name_H-M "C 2/C"
_symmetry_group_IT_number 15
_symmetry_cell_setting 'monoclinic'
loop_
_space_group_symop_operation_xyz
x,y,z
-x,y,1/2-z
-x,-y,-z
x,-y,1/2+z
1/2+x,1/2+y,z
1/2-x,1/2+y,1/2-z
1/2-x,1/2-y,-z
1/2+x,1/2-y,1/2+z
loop_
_atom_site_type_symbol
_atom_site_label
_atom_site_fract_x
_atom_site_fract_y
_atom_site_fract_z
Si Si1 0.500398 0.593641 0.396967
Si Si2 0.862166 0.191427 0.962382
Si Si3 0.136993 0.811909 0.743014
Si Si4 0.277343 0.507680 0.283059
Si Si5 0.806795 0.342665 0.413361
Si Si6 0.803530 0.315477 0.683011
O O1 0.500000 0.545387 0.250000
O O2 0.500000 0.500000 0.500000
O O3 0.563149 0.665468 0.483726
O O4 0.438585 0.668472 0.356156
O O5 0.847988 0.294077 0.854985
O O6 0.818559 0.086295 0.892143
O O7 0.848962 0.228580 0.096662
O O8 0.176424 0.922487 0.763180
O O9 0.156214 0.717752 0.663851
O O10 0.212386 0.463703 0.145498
O O11 0.247575 0.587477 0.358991
O O12 0.844711 0.335989 0.591309
O O13 0.736308 0.294052 0.370891
#
# Coordination Sequence:
#
# PCOD8131104 Si02
#       6
#     8   8   8   8   8   8
#     4  10  20  34  52  75 100 133 170 205 250 300
#     4  10  20  33  51  75 103 133 167 206 250 299
#     4  10  20  33  51  75 103 133 167 206 250 299
#     4  10  18  31  54  75 102 132 168 204 252 300
#     4   9  19  32  48  73 103 134 167 204 247 299
#     4   9  19  32  48  73 103 134 167 204 247 299
#
# _framework density 18.101248999999999
#
# number of rings (size 3 to 8) (size 9 to 14) (size 15 to 20)
#    0.000    2.333    1.667    1.000    0.000   10.000 
#    0.000    0.000    0.000    1.000    0.000    0.000 
#    0.000    0.000    0.000    0.000    0.000    0.000 
#
# Total GULP energy -297357.012255 kJ/mol
# GULP energy per Si atom -12389.875511 kJ/mol
# Density = 1.806005 g / cm^3
# Si number density = 18.101249 Si / 1000 Ang^3
#
#
#
# Elastic Constant Matrix: (Units=GPa)
#
#
# Indices 1 2 3 4 5 6 
#
# 1 95.3138 38.1088 61.1228 0.0000 -10.6525 0.0000
# 2 38.1088 58.4941 33.9458 0.0000 0.0359 0.0000
# 3 61.1228 33.9458 136.3758 0.0000 -15.2323 0.0000
# 4 0.0000 0.0000 0.0000 21.6824 0.0000 1.3486
# 5 -10.6525 0.0359 -15.2323 0.0000 28.1020 0.0000
# 6 0.0000 0.0000 0.0000 1.3486 0.0000 16.3948
#
#
#
# Elastic Compliance Matrix: (Units=1/GPa)
#
#
# Indices 1 2 3 4 5 6 
#
# 1 0.017777 -0.008423 -0.005447 0.000000 0.003797 0.000000
# 2 -0.008423 0.024197 -0.002776 0.000000 -0.004728 0.000000
# 3 -0.005447 -0.002776 0.010894 0.000000 0.003844 0.000000
# 4 0.000000 0.000000 0.000000 0.046358 0.000000 -0.003813
# 5 0.003797 -0.004728 0.003844 0.000000 0.039113 0.000000
# 6 0.000000 0.000000 0.000000 -0.003813 0.000000 0.061309
#
#
# Mechanical properties :
#
#
# Convention : Reuss Voigt Hill
#
# Bulk Modulus (GPa) = 51.08117 61.83760 56.45939
# Shear Modulus (GPa) = 20.87994 23.70292 22.29143
#
# Velocity S-wave (km/s) = 3.40002 3.62258 3.51306
# Velocity P-wave (km/s) = 6.61018 7.19261 6.90754
#
# Compressibility (1/GPa) = 0.01957668
#
# Stress axis : x y z
#
# Youngs Moduli (GPa) = 56.25395 41.32720 91.79201
#
# Poissons Ratio (x) = 0.34809 0.49996
# Poissons Ratio (y) = 0.47382 0.25482
# Poissons Ratio (z) = 0.30640 0.11473
#
# Static dielectric constant tensor:
#      x y z
#    x 3.259470 0.000000 -0.102370 
#    y 0.000000 3.284600 0.000000 
#    z -0.102370 0.000000 3.770680 
# 
# 
# High freq. dielectric constant tensor:
#      x y z
#    x 1.681730 0.000000 -0.017200 
#    y 0.000000 1.681160 0.000000 
#    z -0.017200 0.000000 1.716030 
# 
# From -- ./inp_files/60537.got.cif
#   From: 2010.06.25/outbox.cif.g09.slc.cpg/sg15_31_cif.got.tgz:60537.got - 2010.06.28 07:06:18.
