data_PCOD8131205
_publ_section_title
;
Structure prediction by ZEFSAII (Michael W. Deem and Ramdas Pophale) SiO2 
 PCOD8131205
Probable space group: C 2/C
;
_chemical_formula_sum "Si O2"
_cell_formula_units_Z 60
_cell_length_a 14.296116
_cell_length_b 18.455081
_cell_length_c 15.536070
_cell_angle_alpha 90.000000
_cell_angle_beta 52.768954
_cell_angle_gamma 90.000000
_cell_volume 3263.612287
_symmetry_space_group_name_H-M "C 2/C"
_symmetry_group_IT_number 15
_symmetry_cell_setting 'monoclinic'
loop_
_space_group_symop_operation_xyz
x,y,z
-x,y,1/2-z
-x,-y,-z
x,-y,1/2+z
1/2+x,1/2+y,z
1/2-x,1/2+y,1/2-z
1/2-x,1/2-y,-z
1/2+x,1/2-y,1/2+z
loop_
_atom_site_type_symbol
_atom_site_label
_atom_site_fract_x
_atom_site_fract_y
_atom_site_fract_z
Si Si1 0.064595 0.723460 0.627803
Si Si2 0.880622 0.192881 0.136284
Si Si3 0.903120 0.734293 0.457572
Si Si4 0.816846 0.830681 0.361026
Si Si5 0.833922 0.239858 0.671907
Si Si6 0.482608 0.545629 0.423631
Si Si7 0.500000 0.548286 0.750000
Si Si8 0.293832 0.344795 0.015169
O O1 0.156342 0.656291 0.562859
O O2 0.139428 0.798006 0.595396
O O3 0.000000 0.704132 0.750000
O O4 0.967451 0.738267 0.608680
O O5 0.764638 0.198414 0.259823
O O6 0.936057 0.115739 0.121779
O O7 0.856027 0.202113 0.048573
O O8 0.883246 0.764587 0.372736
O O9 0.818089 0.665261 0.527116
O O10 0.040724 0.718887 0.395708
O O11 0.821613 0.817407 0.256309
O O12 0.885277 0.905198 0.338804
O O13 0.815428 0.196088 0.594214
O O14 0.500000 0.500000 0.500000
O O15 0.525394 0.499936 0.318895
O O16 0.346856 0.573844 0.490569
#
# Coordination Sequence:
#
# PCOD8131205 Si02
#       8
#     8   8   8   8   8   8   4   8
#     4  10  18  32  51  78 110 133 169 234 269 320
#     4  10  21  32  56  86 108 139 181 217 286 319
#     4  10  18  35  55  83 108 132 170 246 278 310
#     4  10  21  33  55  80 107 137 185 218 280 318
#     4  11  17  33  57  84 108 132 171 242 280 317
#     4  11  23  37  52  77 115 150 184 218 258 335
#     4  12  22  36  56  74 112 152 182 214 254 338
#     4  10  21  31  53  79 113 139 178 219 280 317
#
# _framework density 18.384536000000001
#
# number of rings (size 3 to 8) (size 9 to 14) (size 15 to 20)
#    0.000    1.600    5.333    1.600    3.733    0.000 
#    0.000    0.000    0.000    2.400    0.000    0.000 
#    0.000    0.000    0.000    0.000    0.000    0.000 
#
# Total GULP energy -371649.773900 kJ/mol
# GULP energy per Si atom -12388.325797 kJ/mol
# Density = 1.834269 g / cm^3
# Si number density = 18.384536 Si / 1000 Ang^3
#
#
#
# Elastic Constant Matrix: (Units=GPa)
#
#
# Indices 1 2 3 4 5 6 
#
# 1 79.5160 33.6360 30.1462 0.0000 -20.1147 0.0000
# 2 33.6360 76.3611 31.9743 0.0000 -8.7475 0.0000
# 3 30.1462 31.9743 87.7550 0.0000 -21.0545 0.0000
# 4 0.0000 0.0000 0.0000 25.4599 0.0000 -5.3106
# 5 -20.1147 -8.7475 -21.0545 0.0000 40.4129 0.0000
# 6 0.0000 0.0000 0.0000 -5.3106 0.0000 23.2394
#
#
#
# Elastic Compliance Matrix: (Units=1/GPa)
#
#
# Indices 1 2 3 4 5 6 
#
# 1 0.017604 -0.006059 -0.002345 0.000000 0.006229 0.000000
# 2 -0.006059 0.017546 -0.004713 0.000000 -0.001673 0.000000
# 3 -0.002345 -0.004713 0.015307 0.000000 0.005787 0.000000
# 4 0.000000 0.000000 0.000000 0.041243 0.000000 0.009425
# 5 0.006229 -0.001673 0.005787 0.000000 0.030497 0.000000
# 6 0.000000 0.000000 0.000000 0.009425 0.000000 0.045184
#
#
# Mechanical properties :
#
#
# Convention : Reuss Voigt Hill
#
# Bulk Modulus (GPa) = 41.28442 48.34944 44.81693
# Shear Modulus (GPa) = 24.79042 27.68081 26.23561
#
# Velocity S-wave (km/s) = 3.67609 3.88449 3.78173
# Velocity P-wave (km/s) = 6.36577 6.81726 6.59538
#
# Compressibility (1/GPa) = 0.02422221
#
# Stress axis : x y z
#
# Youngs Moduli (GPa) = 56.80610 56.99209 65.33016
#
# Poissons Ratio (x) = 0.34529 0.15323
# Poissons Ratio (y) = 0.34416 0.30792
# Poissons Ratio (z) = 0.13324 0.26862
#
# Static dielectric constant tensor:
#      x y z
#    x 3.861290 0.000000 -0.066180 
#    y 0.000000 3.037080 0.000000 
#    z -0.066180 0.000000 3.697260 
# 
# 
# High freq. dielectric constant tensor:
#      x y z
#    x 1.727780 0.000000 0.003960 
#    y 0.000000 1.648260 0.000000 
#    z 0.003960 0.000000 1.735220 
# 
# From -- ./inp_files/206130.got.cif
#   From: 2010.06.25/outbox.cif.g09.slc.cpg/sg15_104_cif.got.tgz:206130.got - 2010.06.28 07:06:18.
