data_PCOD8131593
_publ_section_title
;
Structure prediction by ZEFSAII (Michael W. Deem and Ramdas Pophale) SiO2 
 PCOD8131593
Probable space group: C 2/C
;
_chemical_formula_sum "Si O2"
_cell_formula_units_Z 40
_cell_length_a 16.546223
_cell_length_b 13.528187
_cell_length_c 15.171221
_cell_angle_alpha 90.000000
_cell_angle_beta 30.239405
_cell_angle_gamma 90.000000
_cell_volume 1710.239760
_symmetry_space_group_name_H-M "C 2/C"
_symmetry_group_IT_number 15
_symmetry_cell_setting 'monoclinic'
loop_
_space_group_symop_operation_xyz
x,y,z
-x,y,1/2-z
-x,-y,-z
x,-y,1/2+z
1/2+x,1/2+y,z
1/2-x,1/2+y,1/2-z
1/2-x,1/2-y,-z
1/2+x,1/2-y,1/2+z
loop_
_atom_site_type_symbol
_atom_site_label
_atom_site_fract_x
_atom_site_fract_y
_atom_site_fract_z
Si Si1 0.648552 0.667018 0.549398
Si Si2 0.881897 0.160825 0.282798
Si Si3 0.863980 0.217499 0.582885
Si Si4 0.395872 0.826220 0.041859
Si Si5 0.154709 0.488436 0.557758
O O1 0.500000 0.638770 0.750000
O O2 0.750000 0.750000 0.500000
O O3 0.602456 0.712966 0.498793
O O4 0.756784 0.568456 0.444877
O O5 0.758565 0.249895 0.379266
O O6 0.000000 0.191684 0.250000
O O7 0.779329 0.063294 0.397576
O O8 0.998122 0.146662 0.087940
O O9 0.766191 0.157209 0.749326
O O10 0.945776 0.318959 0.545461
O O11 0.407570 0.911616 0.958230
O O12 0.000000 0.539709 0.750000
#
# Coordination Sequence:
#
# PCOD8131593 Si02
#       5
#     8   8   8   8   8
#     4  10  18  33  60  94 132 166 193 235 298 370
#     4  11  25  44  63  86 116 160 215 258 304 366
#     4  10  23  41  65  87 118 166 201 254 310 357
#     4  10  19  38  64  96 128 156 199 244 311 374
#     4  11  23  38  63  96 128 162 201 252 302 363
#
# _framework density 23.388532999999999
#
# number of rings (size 3 to 8) (size 9 to 14) (size 15 to 20)
#    0.000    1.600    0.000    7.200    0.000    5.600 
#    0.000    2.000    0.000    0.000    0.000    0.000 
#    0.000    0.000    0.000    0.000    0.000    0.000 
#
# Total GULP energy -247812.780335 kJ/mol
# GULP energy per Si atom -12390.639017 kJ/mol
# Density = 2.333530 g / cm^3
# Si number density = 23.388533 Si / 1000 Ang^3
#
#
#
# Elastic Constant Matrix: (Units=GPa)
#
#
# Indices 1 2 3 4 5 6 
#
# 1 108.7536 22.0461 40.7044 0.0009 -8.0830 -0.0007
# 2 22.0461 60.1046 42.9225 0.0010 2.7034 -0.0011
# 3 40.7044 42.9225 186.1692 0.0016 -6.6700 -0.0013
# 4 0.0009 0.0010 0.0016 36.3772 -0.0010 5.9652
# 5 -8.0830 2.7034 -6.6700 -0.0010 33.3835 0.0008
# 6 -0.0007 -0.0011 -0.0013 5.9652 0.0008 15.2699
#
#
#
# Elastic Compliance Matrix: (Units=1/GPa)
#
#
# Indices 1 2 3 4 5 6 
#
# 1 0.010542 -0.002868 -0.001555 0.000000 0.002474 0.000000
# 2 -0.002868 0.020915 -0.004311 -0.000001 -0.003249 0.000001
# 3 -0.001555 -0.004311 0.006753 0.000000 0.001322 0.000000
# 4 0.000000 -0.000001 0.000000 0.029371 0.000001 -0.011474
# 5 0.002474 -0.003249 0.001322 0.000001 0.031081 -0.000002
# 6 0.000000 0.000001 0.000000 -0.011474 -0.000002 0.069971
#
#
# Mechanical properties :
#
#
# Convention : Reuss Voigt Hill
#
# Bulk Modulus (GPa) = 48.21278 62.93037 55.57158
# Shear Modulus (GPa) = 25.90469 33.62972 29.76721
#
# Velocity S-wave (km/s) = 3.33164 3.79604 3.57140
# Velocity P-wave (km/s) = 5.95470 6.79545 6.38892
#
# Compressibility (1/GPa) = 0.02074139
#
# Stress axis : x y z
#
# Youngs Moduli (GPa) = 94.85533 47.81365 148.08487
#
# Poissons Ratio (x) = 0.13711 0.23031
# Poissons Ratio (y) = 0.27200 0.63846
# Poissons Ratio (z) = 0.14752 0.20615
#
# Static dielectric constant tensor:
#      x y z
#    x 5.128210 0.000000 -0.046530 
#    y 0.000000 3.995410 0.000000 
#    z -0.046530 0.000000 4.472210 
# 
# 
# High freq. dielectric constant tensor:
#      x y z
#    x 1.936880 0.000000 -0.013930 
#    y 0.000000 1.872400 0.000000 
#    z -0.013930 0.000000 1.951410 
# 
# From -- ./inp_files/162431.got.cif
#   From: 2010.06.25/outbox.cif.g09.slc.cpg/sg15_82_cif.got.tgz:162431.got - 2010.06.28 07:06:18.
