data_PCOD8131250
_publ_section_title
;
Structure prediction by ZEFSAII (Michael W. Deem and Ramdas Pophale) SiO2 
 PCOD8131250
Probable space group: C 2/C
;
_chemical_formula_sum "Si O2"
_cell_formula_units_Z 48
_cell_length_a 12.874415
_cell_length_b 16.949577
_cell_length_c 12.001674
_cell_angle_alpha 90.000000
_cell_angle_beta 78.705705
_cell_angle_gamma 90.000000
_cell_volume 2568.237683
_symmetry_space_group_name_H-M "C 2/C"
_symmetry_group_IT_number 15
_symmetry_cell_setting 'monoclinic'
loop_
_space_group_symop_operation_xyz
x,y,z
-x,y,1/2-z
-x,-y,-z
x,-y,1/2+z
1/2+x,1/2+y,z
1/2-x,1/2+y,1/2-z
1/2-x,1/2-y,-z
1/2+x,1/2-y,1/2+z
loop_
_atom_site_type_symbol
_atom_site_label
_atom_site_fract_x
_atom_site_fract_y
_atom_site_fract_z
Si Si1 0.424278 0.610080 0.520492
Si Si2 0.352441 0.773928 0.544554
Si Si3 0.649688 0.444285 0.913292
Si Si4 0.714453 0.398478 0.663934
Si Si5 0.981109 0.397791 0.385542
Si Si6 0.337145 0.971232 0.020524
O O1 0.406143 0.694850 0.585061
O O2 0.362097 0.539580 0.596346
O O3 0.548438 0.591395 0.497263
O O4 0.378038 0.619115 0.405515
O O5 0.250000 0.750000 0.500000
O O6 0.308844 0.832997 0.649061
O O7 0.432151 0.817209 0.442957
O O8 0.656744 0.402973 0.793269
O O9 0.754975 0.423251 0.960695
O O10 0.771078 0.480769 0.625789
O O11 0.904783 0.471834 0.425462
O O12 0.000000 0.389747 0.250000
O O13 0.091116 0.409594 0.427844
#
# Coordination Sequence:
#
# PCOD8131250 Si02
#       6
#     8   8   8   8   8   8
#     4   9  19  33  52  79 103 130 172 212 242 293
#     4   9  19  34  51  76 102 126 172 220 245 288
#     4  10  18  32  54  75 104 137 164 203 254 304
#     4   9  17  32  54  76 101 135 171 207 249 293
#     4  10  19  33  54  74  98 134 172 212 255 298
#     4   9  19  32  49  78 104 128 171 214 249 298
#
# _framework density 18.689858000000001
#
# number of rings (size 3 to 8) (size 9 to 14) (size 15 to 20)
#    0.000    2.667    0.000    2.500    0.000    2.667 
#    0.000    0.833    0.000   12.000    0.000    0.000 
#    0.000    0.000    0.000    0.000    0.000    0.000 
#
# Total GULP energy -297503.599496 kJ/mol
# GULP energy per Si atom -12395.983312 kJ/mol
# Density = 1.864732 g / cm^3
# Si number density = 18.689858 Si / 1000 Ang^3
#
#
#
# Elastic Constant Matrix: (Units=GPa)
#
#
# Indices 1 2 3 4 5 6 
#
# 1 116.4512 29.6121 20.1571 0.0000 6.3643 0.0000
# 2 29.6121 89.6548 22.6383 0.0000 3.1265 0.0000
# 3 20.1571 22.6383 65.5088 0.0000 -3.9471 0.0000
# 4 0.0000 0.0000 0.0000 13.6045 0.0000 -1.4852
# 5 6.3643 3.1265 -3.9471 0.0000 19.4854 0.0000
# 6 0.0000 0.0000 0.0000 -1.4852 0.0000 28.1690
#
#
#
# Elastic Compliance Matrix: (Units=1/GPa)
#
#
# Indices 1 2 3 4 5 6 
#
# 1 0.009817 -0.002537 -0.002341 0.000000 -0.003273 0.000000
# 2 -0.002537 0.013034 -0.003847 0.000000 -0.002042 0.000000
# 3 -0.002341 -0.003847 0.017613 0.000000 0.004950 0.000000
# 4 0.000000 0.000000 0.000000 0.073931 0.000000 0.003898
# 5 -0.003273 -0.002042 0.004950 0.000000 0.053720 0.000000
# 6 0.000000 0.000000 0.000000 0.003898 0.000000 0.035706
#
#
# Mechanical properties :
#
#
# Convention : Reuss Voigt Hill
#
# Bulk Modulus (GPa) = 43.45125 46.26996 44.86061
# Shear Modulus (GPa) = 21.83965 25.53225 23.68595
#
# Velocity S-wave (km/s) = 3.42208 3.70009 3.56380
# Velocity P-wave (km/s) = 6.23805 6.56237 6.40226
#
# Compressibility (1/GPa) = 0.02301430
#
# Stress axis : x y z
#
# Youngs Moduli (GPa) = 101.86877 76.72014 56.77605
#
# Poissons Ratio (x) = 0.19464 0.13292
# Poissons Ratio (y) = 0.25844 0.21840
# Poissons Ratio (z) = 0.23848 0.29512
#
# Static dielectric constant tensor:
#      x y z
#    x 3.619890 0.000000 -0.160390 
#    y 0.000000 3.869520 0.000000 
#    z -0.160390 0.000000 3.087200 
# 
# 
# High freq. dielectric constant tensor:
#      x y z
#    x 1.736990 0.000000 -0.017210 
#    y 0.000000 1.716900 0.000000 
#    z -0.017210 0.000000 1.694150 
# 
# From -- ./inp_files/87246.got.cif
#   From: 2010.06.25/outbox.cif.g09.slc.cpg/sg15_44_cif.got.tgz:87246.got - 2010.06.28 07:06:18.
