data_PCOD8131263
_publ_section_title
;
Structure prediction by ZEFSAII (Michael W. Deem and Ramdas Pophale) SiO2 
 PCOD8131263
Probable space group: C 2/C
;
_chemical_formula_sum "Si O2"
_cell_formula_units_Z 56
_cell_length_a 27.800881
_cell_length_b 11.234614
_cell_length_c 15.636218
_cell_angle_alpha 90.000000
_cell_angle_beta 37.675728
_cell_angle_gamma 90.000000
_cell_volume 2984.873646
_symmetry_space_group_name_H-M "C 2/C"
_symmetry_group_IT_number 15
_symmetry_cell_setting 'monoclinic'
loop_
_space_group_symop_operation_xyz
x,y,z
-x,y,1/2-z
-x,-y,-z
x,-y,1/2+z
1/2+x,1/2+y,z
1/2-x,1/2+y,1/2-z
1/2-x,1/2-y,-z
1/2+x,1/2-y,1/2+z
loop_
_atom_site_type_symbol
_atom_site_label
_atom_site_fract_x
_atom_site_fract_y
_atom_site_fract_z
Si Si1 0.054260 0.824977 0.796167
Si Si2 0.179965 0.907332 0.968064
Si Si3 0.969513 0.215645 0.885714
Si Si4 0.115215 0.926165 0.243058
Si Si5 0.334577 0.235795 0.205200
Si Si6 0.999833 0.361145 0.992851
Si Si7 0.383292 0.341948 0.972120
O O1 0.100961 0.786815 0.644135
O O2 0.967940 0.876857 0.893983
O O3 0.103050 0.931669 0.773540
O O4 0.047116 0.708702 0.865854
O O5 0.261861 0.846479 0.830896
O O6 0.114759 0.843606 0.003056
O O7 0.165856 0.894155 0.088537
O O8 0.175433 0.046241 0.950872
O O9 0.000000 0.253865 0.750000
O O10 0.027975 0.127219 0.853809
O O11 0.959702 0.332005 0.958285
O O12 0.163550 0.868603 0.254492
O O13 0.409217 0.170966 0.139003
O O14 0.340119 0.246923 0.094323
O O15 0.000000 0.500000 0.000000
#
# Coordination Sequence:
#
# PCOD8131263 Si02
#       7
#     8   8   8   8   8   8   8
#     4   9  17  34  59  81 104 135 189 235 264 313
#     4  10  18  32  54  80 117 138 174 231 279 328
#     4   9  18  33  55  81 105 137 181 224 273 322
#     4   9  17  32  57  84 103 138 181 230 274 319
#     4  10  21  32  54  81 112 141 180 223 281 331
#     4  10  22  37  54  78 108 148 185 222 269 332
#     4   9  18  32  54  84 107 139 182 231 271 316
#
# _framework density 18.761263
#
# number of rings (size 3 to 8) (size 9 to 14) (size 15 to 20)
#    0.000    2.571    1.429    0.429    2.000    2.857 
#    5.143    0.000    6.286    2.571    0.000    0.000 
#    0.000    0.000    0.000    0.000    0.000    0.000 
#
# Total GULP energy -347011.461377 kJ/mol
# GULP energy per Si atom -12393.266478 kJ/mol
# Density = 1.871856 g / cm^3
# Si number density = 18.761263 Si / 1000 Ang^3
#
#
#
# Elastic Constant Matrix: (Units=GPa)
#
#
# Indices 1 2 3 4 5 6 
#
# 1 61.4645 33.7508 38.2651 0.0000 11.4792 0.0000
# 2 33.7508 109.0813 50.4241 -0.0001 10.8998 0.0001
# 3 38.2651 50.4241 105.2660 0.0000 -3.2372 0.0000
# 4 0.0000 -0.0001 0.0000 30.6295 -0.0001 1.1292
# 5 11.4792 10.8998 -3.2372 -0.0001 21.1792 0.0000
# 6 0.0000 0.0001 0.0000 1.1292 0.0000 20.3136
#
#
#
# Elastic Compliance Matrix: (Units=1/GPa)
#
#
# Indices 1 2 3 4 5 6 
#
# 1 0.025548 -0.002617 -0.008457 0.000000 -0.013793 0.000000
# 2 -0.002617 0.013159 -0.005543 0.000000 -0.006201 0.000000
# 3 -0.008457 -0.005543 0.015531 0.000000 0.009810 0.000000
# 4 0.000000 0.000000 0.000000 0.032715 0.000000 -0.001819
# 5 -0.013793 -0.006201 0.009810 0.000000 0.059383 0.000000
# 6 0.000000 0.000000 0.000000 -0.001819 0.000000 0.049329
#
#
# Mechanical properties :
#
#
# Convention : Reuss Voigt Hill
#
# Bulk Modulus (GPa) = 47.61153 57.85465 52.73309
# Shear Modulus (GPa) = 21.19537 24.64924 22.92231
#
# Velocity S-wave (km/s) = 3.36481 3.62862 3.49920
# Velocity P-wave (km/s) = 6.36621 6.96133 6.67041
#
# Compressibility (1/GPa) = 0.02100332
#
# Stress axis : x y z
#
# Youngs Moduli (GPa) = 39.14236 75.99331 64.38779
#
# Poissons Ratio (x) = 0.19887 0.54456
# Poissons Ratio (y) = 0.10243 0.35689
# Poissons Ratio (z) = 0.33104 0.42122
#
# Static dielectric constant tensor:
#      x y z
#    x 3.446720 0.000000 0.286760 
#    y 0.000000 3.346460 0.000000 
#    z 0.286760 0.000000 3.531930 
# 
# 
# High freq. dielectric constant tensor:
#      x y z
#    x 1.715560 0.000000 0.020460 
#    y 0.000000 1.706830 0.000000 
#    z 0.020460 0.000000 1.729110 
# 
# From -- ./inp_files/177566.got.cif
#   From: 2010.06.25/outbox.cif.g09.slc.cpg/sg15_89_cif.got.tgz:177566.got - 2010.06.28 07:06:18.
