data_PCOD8131148
_publ_section_title
;
Structure prediction by ZEFSAII (Michael W. Deem and Ramdas Pophale) SiO2 
 PCOD8131148
Probable space group: C 2/C
;
_chemical_formula_sum "Si O2"
_cell_formula_units_Z 56
_cell_length_a 29.244602
_cell_length_b 9.151581
_cell_length_c 11.757540
_cell_angle_alpha 90.000000
_cell_angle_beta 62.493093
_cell_angle_gamma 90.000000
_cell_volume 2791.000885
_symmetry_space_group_name_H-M "C 2/C"
_symmetry_group_IT_number 15
_symmetry_cell_setting 'monoclinic'
loop_
_space_group_symop_operation_xyz
x,y,z
-x,y,1/2-z
-x,-y,-z
x,-y,1/2+z
1/2+x,1/2+y,z
1/2-x,1/2+y,1/2-z
1/2-x,1/2-y,-z
1/2+x,1/2-y,1/2+z
loop_
_atom_site_type_symbol
_atom_site_label
_atom_site_fract_x
_atom_site_fract_y
_atom_site_fract_z
Si Si1 0.493154 0.283214 0.597566
Si Si2 0.868892 0.980776 0.327843
Si Si3 0.477903 0.385797 0.159983
Si Si4 0.586110 0.756617 0.136108
Si Si5 0.290366 0.695541 0.297179
Si Si6 0.311196 0.087897 0.970930
Si Si7 0.700328 0.240599 0.980386
O O1 0.497100 0.271575 0.457930
O O2 0.500650 0.452531 0.622294
O O3 0.439077 0.219264 0.707940
O O4 0.542138 0.203454 0.596570
O O5 0.915616 0.891855 0.214372
O O6 0.836516 0.869133 0.438518
O O7 0.894363 0.089319 0.390715
O O8 0.833788 0.073411 0.278470
O O9 0.500000 0.317799 0.250000
O O10 0.634090 0.855374 0.049481
O O11 0.298875 0.844083 0.360507
O O12 0.234263 0.629698 0.389694
O O13 0.290324 0.739633 0.165145
O O14 0.321895 0.916303 0.960682
O O15 0.750000 0.250000 0.000000
#
# Coordination Sequence:
#
# PCOD8131148 Si02
#       7
#     8   8   8   8   8   8   8
#     4   9  17  32  57  87 118 161 203 259 304 374
#     4  10  21  38  61  96 122 166 203 265 317 374
#     4  10  18  31  57  93 125 148 210 261 308 365
#     4   9  18  37  61  87 120 163 211 249 320 369
#     4  10  24  43  63  88 130 166 214 257 315 379
#     4  10  23  42  63  91 123 171 209 259 315 388
#     4  12  26  40  64  93 130 162 214 267 317 374
#
# _framework density 20.064485999999999
#
# number of rings (size 3 to 8) (size 9 to 14) (size 15 to 20)
#    0.000    2.000    4.286    0.000    4.000    3.429 
#    0.000    0.000    3.143    0.857    0.000    0.000 
#    0.000    0.000    0.000    0.000    0.000    0.000 
#
# Total GULP energy -346904.407206 kJ/mol
# GULP energy per Si atom -12389.443114 kJ/mol
# Density = 2.001882 g / cm^3
# Si number density = 20.064486 Si / 1000 Ang^3
#
#
#
# Elastic Constant Matrix: (Units=GPa)
#
#
# Indices 1 2 3 4 5 6 
#
# 1 117.1951 28.7027 66.7870 0.0000 -15.7143 0.0000
# 2 28.7027 73.2886 37.4808 0.0000 -2.2862 0.0000
# 3 66.7870 37.4808 127.7448 0.0000 11.3828 0.0000
# 4 0.0000 0.0000 0.0000 19.7877 0.0000 -1.4118
# 5 -15.7143 -2.2862 11.3828 0.0000 40.7311 0.0000
# 6 0.0000 0.0000 0.0000 -1.4118 0.0000 14.2105
#
#
#
# Elastic Compliance Matrix: (Units=1/GPa)
#
#
# Indices 1 2 3 4 5 6 
#
# 1 0.014313 -0.001405 -0.007749 0.000000 0.007609 0.000000
# 2 -0.001405 0.016400 -0.004216 0.000000 0.001556 0.000000
# 3 -0.007749 -0.004216 0.013746 0.000000 -0.007068 0.000000
# 4 0.000000 0.000000 0.000000 0.050897 0.000000 0.005057
# 5 0.007609 0.001556 -0.007068 0.000000 0.029549 0.000000
# 6 0.000000 0.000000 0.000000 0.005057 0.000000 0.070873
#
#
# Mechanical properties :
#
#
# Convention : Reuss Voigt Hill
#
# Bulk Modulus (GPa) = 56.43640 64.90771 60.67205
# Shear Modulus (GPa) = 21.88914 27.29637 24.59275
#
# Velocity S-wave (km/s) = 3.30652 3.69241 3.50478
# Velocity P-wave (km/s) = 6.53957 7.11324 6.83243
#
# Compressibility (1/GPa) = 0.01771906
#
# Stress axis : x y z
#
# Youngs Moduli (GPa) = 69.86651 60.97721 72.74912
#
# Poissons Ratio (x) = 0.08570 0.56371
# Poissons Ratio (y) = 0.09819 0.30668
# Poissons Ratio (z) = 0.54137 0.25706
#
# Static dielectric constant tensor:
#      x y z
#    x 3.823950 0.000000 -0.149180 
#    y 0.000000 3.387700 0.000000 
#    z -0.149180 0.000000 3.845160 
# 
# 
# High freq. dielectric constant tensor:
#      x y z
#    x 1.792740 0.000000 -0.014650 
#    y 0.000000 1.749380 0.000000 
#    z -0.014650 0.000000 1.783880 
# 
# From -- ./inp_files/125848.got.cif
#   From: 2010.06.25/outbox.cif.g09.slc.cpg/sg15_63_cif.got.tgz:125848.got - 2010.06.28 07:06:18.
