data_PCOD8131429
_publ_section_title
;
Structure prediction by ZEFSAII (Michael W. Deem and Ramdas Pophale) SiO2 
 PCOD8131429
Probable space group: C 2/C
;
_chemical_formula_sum "Si O2"
_cell_formula_units_Z 56
_cell_length_a 5.280498
_cell_length_b 21.875333
_cell_length_c 28.572444
_cell_angle_alpha 90.000000
_cell_angle_beta 111.692261
_cell_angle_gamma 90.000000
_cell_volume 3066.747146
_symmetry_space_group_name_H-M "C 2/C"
_symmetry_group_IT_number 15
_symmetry_cell_setting 'monoclinic'
loop_
_space_group_symop_operation_xyz
x,y,z
-x,y,1/2-z
-x,-y,-z
x,-y,1/2+z
1/2+x,1/2+y,z
1/2-x,1/2+y,1/2-z
1/2-x,1/2-y,-z
1/2+x,1/2-y,1/2+z
loop_
_atom_site_type_symbol
_atom_site_label
_atom_site_fract_x
_atom_site_fract_y
_atom_site_fract_z
Si Si1 0.193370 0.614463 0.721685
Si Si2 0.630879 0.576957 0.190439
Si Si3 0.864513 0.321206 0.557256
Si Si4 0.860342 0.823434 0.055171
Si Si5 0.017060 0.819669 0.883530
Si Si6 0.847667 0.526642 0.298834
Si Si7 0.021461 0.675274 0.885730
O O1 0.500000 0.639019 0.750000
O O2 0.194068 0.541453 0.722034
O O3 0.000000 0.639019 0.750000
O O4 0.081400 0.638947 0.665700
O O5 0.591375 0.646723 0.170687
O O6 0.752250 0.573497 0.251125
O O7 0.339842 0.541262 0.168980
O O8 0.836078 0.541262 0.168980
O O9 0.854620 0.248923 0.552309
O O10 0.752802 0.350624 0.501401
O O11 0.669712 0.341978 0.586180
O O12 0.175005 0.341978 0.586180
O O13 0.665124 0.845707 0.083633
O O14 0.169406 0.845708 0.083634
O O15 0.998121 0.747400 0.874060
#
# Coordination Sequence:
#
# PCOD8131429 Si02
#       7
#     8   8   8   8   8   8   8
#     4  12  21  38  55  74 104 133 181 222 249 296
#     4  10  18  33  52  73 101 130 169 225 244 298
#     4   9  17  30  53  75 108 141 166 209 242 311
#     4   9  17  33  51  76 107 140 174 199 250 309
#     4  10  19  32  49  83 111 132 169 204 266 313
#     4  10  19  35  53  71  93 131 188 217 241 290
#     4  10  21  33  51  80 110 137 167 209 261 316
#
# _framework density 18.260390999999998
#
# number of rings (size 3 to 8) (size 9 to 14) (size 15 to 20)
#    0.000    2.000    2.857    2.571    0.000    3.429 
#    5.143    0.000    0.000    0.000    0.000   20.000 
#    0.000    0.000    0.000    0.000    0.000    0.000 
#
# Total GULP energy -347052.440580 kJ/mol
# GULP energy per Si atom -12394.730021 kJ/mol
# Density = 1.821883 g / cm^3
# Si number density = 18.260391 Si / 1000 Ang^3
#
#
#
# Elastic Constant Matrix: (Units=GPa)
#
#
# Indices 1 2 3 4 5 6 
#
# 1 196.8029 26.4972 50.8672 0.0000 2.7264 0.0000
# 2 26.4972 32.8682 41.5321 0.0000 -0.4215 0.0000
# 3 50.8672 41.5321 116.1372 0.0000 -0.4627 0.0000
# 4 0.0000 0.0000 0.0000 5.6972 0.0000 0.1473
# 5 2.7264 -0.4215 -0.4627 0.0000 24.4554 0.0000
# 6 0.0000 0.0000 0.0000 0.1473 0.0000 10.9502
#
#
#
# Elastic Compliance Matrix: (Units=1/GPa)
#
#
# Indices 1 2 3 4 5 6 
#
# 1 0.005872 -0.002718 -0.001603 0.000000 -0.000732 0.000000
# 2 -0.002718 0.056773 -0.019109 0.000000 0.000920 0.000000
# 3 -0.001603 -0.019109 0.016147 0.000000 0.000155 0.000000
# 4 0.000000 0.000000 0.000000 0.175585 0.000000 -0.002362
# 5 -0.000732 0.000920 0.000155 0.000000 0.040991 0.000000
# 6 0.000000 0.000000 0.000000 -0.002362 0.000000 0.091354
#
#
# Mechanical properties :
#
#
# Convention : Reuss Voigt Hill
#
# Bulk Modulus (GPa) = 31.31569 64.84459 48.08014
# Shear Modulus (GPa) = 11.25560 23.34802 17.30181
#
# Velocity S-wave (km/s) = 2.48542 3.57965 3.08150
# Velocity P-wave (km/s) = 5.04214 7.25764 6.24886
#
# Compressibility (1/GPa) = 0.03193287
#
# Stress axis : x y z
#
# Youngs Moduli (GPa) = 170.31389 17.61407 61.93237
#
# Poissons Ratio (x) = 0.04787 0.09926
# Poissons Ratio (y) = 0.46284 1.18345
# Poissons Ratio (z) = 0.27297 0.33658
#
# Static dielectric constant tensor:
#      x y z
#    x 4.508470 0.000000 0.035260 
#    y 0.000000 2.928880 0.000000 
#    z 0.035260 0.000000 3.250730 
# 
# 
# High freq. dielectric constant tensor:
#      x y z
#    x 1.746550 0.000000 0.001610 
#    y 0.000000 1.658260 0.000000 
#    z 0.001610 0.000000 1.689250 
# 
# From -- ./inp_files/286637.got.cif
#   From: 2010.06.25/outbox.cif.g09.slc.cpg/sg15_144_cif.got.tgz:286637.got - 2010.06.28 07:06:18.
