data_PCOD8131069
_publ_section_title
;
Structure prediction by ZEFSAII (Michael W. Deem and Ramdas Pophale) SiO2 
 PCOD8131069
Probable space group: C 2/C
;
_chemical_formula_sum "Si O2"
_cell_formula_units_Z 44
_cell_length_a 15.421434
_cell_length_b 19.339390
_cell_length_c 7.748393
_cell_angle_alpha 90.000000
_cell_angle_beta 95.577072
_cell_angle_gamma 90.000000
_cell_volume 2299.950561
_symmetry_space_group_name_H-M "C 2/C"
_symmetry_group_IT_number 15
_symmetry_cell_setting 'monoclinic'
loop_
_space_group_symop_operation_xyz
x,y,z
-x,y,1/2-z
-x,-y,-z
x,-y,1/2+z
1/2+x,1/2+y,z
1/2-x,1/2+y,1/2-z
1/2-x,1/2-y,-z
1/2+x,1/2-y,1/2+z
loop_
_atom_site_type_symbol
_atom_site_label
_atom_site_fract_x
_atom_site_fract_y
_atom_site_fract_z
Si Si1 0.215352 0.094892 0.142125
Si Si2 0.134634 0.316116 0.968063
Si Si3 0.092069 0.438230 0.187687
Si Si4 0.500000 0.258113 0.250000
Si Si5 0.939328 0.188164 0.402340
Si Si6 0.206854 0.537963 0.012394
O O1 0.270080 0.156357 0.061124
O O2 0.113964 0.116173 0.110719
O O3 0.239905 0.087835 0.349185
O O4 0.229632 0.022885 0.045049
O O5 0.084469 0.292268 0.783088
O O6 0.080222 0.376409 0.051029
O O7 0.132088 0.250897 0.100644
O O8 0.124424 0.506920 0.097954
O O9 0.165872 0.418764 0.345798
O O10 0.000000 0.457340 0.250000
O O11 0.496301 0.307376 0.418528
O O12 0.000000 0.195786 0.250000
#
# Coordination Sequence:
#
# PCOD8131069 Si02
#       6
#     8   8   8   4   8   8
#     4  10  20  40  59  80 121 151 193 238 289 337
#     4   9  20  35  57  85 116 149 181 240 286 351
#     4  10  18  31  52  79 118 151 188 228 286 344
#     4   8  22  38  58  88 122 136 196 234 292 346
#     4  10  21  41  61  88 112 150 197 244 289 344
#     4   9  21  35  51  84 111 159 195 233 272 350
#
# _framework density 19.130848
#
# number of rings (size 3 to 8) (size 9 to 14) (size 15 to 20)
#    1.091    1.455    0.000    1.636    2.545    0.000 
#   13.091    2.727    0.000    0.000    0.000    0.000 
#    0.000    0.000    0.000    0.000    0.000    0.000 
#
# Total GULP energy -272561.454140 kJ/mol
# GULP energy per Si atom -12389.157006 kJ/mol
# Density = 1.908731 g / cm^3
# Si number density = 19.130848 Si / 1000 Ang^3
#
#
#
# Elastic Constant Matrix: (Units=GPa)
#
#
# Indices 1 2 3 4 5 6 
#
# 1 68.7685 45.3449 51.6505 0.0000 4.6206 0.0000
# 2 45.3449 60.7961 36.7354 0.0000 3.7780 0.0000
# 3 51.6505 36.7354 126.0433 0.0000 10.1331 0.0000
# 4 0.0000 0.0000 0.0000 18.1408 0.0000 8.5385
# 5 4.6206 3.7780 10.1331 0.0000 15.2746 0.0000
# 6 0.0000 0.0000 0.0000 8.5385 0.0000 18.0150
#
#
#
# Elastic Compliance Matrix: (Units=1/GPa)
#
#
# Indices 1 2 3 4 5 6 
#
# 1 0.034148 -0.020652 -0.007980 0.000000 0.000072 0.000000
# 2 -0.020652 0.032473 -0.000906 0.000000 -0.001183 0.000000
# 3 -0.007980 -0.000906 0.011890 0.000000 -0.005250 0.000000
# 4 0.000000 0.000000 0.000000 0.070953 0.000000 -0.033629
# 5 0.000072 -0.001183 -0.005250 0.000000 0.069221 0.000000
# 6 0.000000 0.000000 0.000000 -0.033629 0.000000 0.071448
#
#
# Mechanical properties :
#
#
# Convention : Reuss Voigt Hill
#
# Bulk Modulus (GPa) = 51.45537 58.11883 54.78710
# Shear Modulus (GPa) = 14.05727 18.41123 16.23425
#
# Velocity S-wave (km/s) = 2.71365 3.10560 2.91622
# Velocity P-wave (km/s) = 6.06411 6.58067 6.32767
#
# Compressibility (1/GPa) = 0.01943432
#
# Stress axis : x y z
#
# Youngs Moduli (GPa) = 29.28443 30.79500 84.10401
#
# Poissons Ratio (x) = 0.63597 0.67115
# Poissons Ratio (y) = 0.60478 0.07622
# Poissons Ratio (z) = 0.23369 0.02791
#
# Static dielectric constant tensor:
#      x y z
#    x 3.173460 0.000000 0.068190 
#    y 0.000000 3.278780 0.000000 
#    z 0.068190 0.000000 3.647390 
# 
# 
# High freq. dielectric constant tensor:
#      x y z
#    x 1.716440 0.000000 0.000370 
#    y 0.000000 1.724660 0.000000 
#    z 0.000370 0.000000 1.750400 
# 
# From -- ./inp_files/32223.got.cif
#   From: 2010.06.25/outbox.cif.g09.slc.cpg/sg15_17_cif.got.tgz:32223.got - 2010.06.28 07:06:18.
