data_PCOD8131572
_publ_section_title
;
Structure prediction by ZEFSAII (Michael W. Deem and Ramdas Pophale) SiO2 
 PCOD8131572
Probable space group: C 2/C
;
_chemical_formula_sum "Si O2"
_cell_formula_units_Z 64
_cell_length_a 19.704716
_cell_length_b 10.685937
_cell_length_c 21.639242
_cell_angle_alpha 90.000000
_cell_angle_beta 130.206940
_cell_angle_gamma 90.000000
_cell_volume 3479.827930
_symmetry_space_group_name_H-M "C 2/C"
_symmetry_group_IT_number 15
_symmetry_cell_setting 'monoclinic'
loop_
_space_group_symop_operation_xyz
x,y,z
-x,y,1/2-z
-x,-y,-z
x,-y,1/2+z
1/2+x,1/2+y,z
1/2-x,1/2+y,1/2-z
1/2-x,1/2-y,-z
1/2+x,1/2-y,1/2+z
loop_
_atom_site_type_symbol
_atom_site_label
_atom_site_fract_x
_atom_site_fract_y
_atom_site_fract_z
Si Si1 0.241428 0.387147 0.973635
Si Si2 0.034108 0.864359 0.598128
Si Si3 0.267439 0.602049 0.077967
Si Si4 0.239114 0.417572 0.298582
Si Si5 0.614658 0.767085 0.425189
Si Si6 0.885409 0.960505 0.965214
Si Si7 0.100312 0.482930 0.318392
Si Si8 0.211345 0.871456 0.766694
O O1 0.234181 0.472361 0.030044
O O2 0.250000 0.250000 0.000000
O O3 0.330616 0.411562 0.989572
O O4 0.156541 0.402131 0.879005
O O5 0.087676 0.844694 0.564725
O O6 0.106386 0.889022 0.693612
O O7 0.973097 0.750095 0.584555
O O8 0.973432 0.984542 0.548588
O O9 0.360303 0.643643 0.100222
O O10 0.273800 0.588295 0.154470
O O11 0.194804 0.708598 0.019924
O O12 0.327041 0.436951 0.392543
O O13 0.148456 0.431086 0.285185
O O14 0.240932 0.274674 0.272303
O O15 0.235388 0.527269 0.244179
O O16 0.596666 0.875682 0.366914
O O17 0.000000 0.530415 0.250000
#
# Coordination Sequence:
#
# PCOD8131572 Si02
#       8
#     8   8   8   8   8   8   8   8
#     4  10  21  39  59  80 117 161 193 229 295 361
#     4  10  19  32  58  87 110 142 193 248 282 333
#     4  10  20  34  56  84 109 151 194 234 285 349
#     4  10  21  38  59  82 116 156 186 237 301 354
#     4  10  18  33  59  83 110 141 192 242 286 336
#     4   9  19  37  56  80 115 156 189 227 296 355
#     4  10  20  37  61  84 110 147 196 242 288 342
#     4  11  22  35  57  89 116 150 195 243 294 349
#
# _framework density 18.391714
#
# number of rings (size 3 to 8) (size 9 to 14) (size 15 to 20)
#    0.000    2.000    2.500    1.500    0.000    3.000 
#    0.000    6.250    0.000    6.000    0.000    0.000 
#    0.000    0.000    0.000    0.000    0.000    0.000 
#
# Total GULP energy -396524.310140 kJ/mol
# GULP energy per Si atom -12391.384692 kJ/mol
# Density = 1.834985 g / cm^3
# Si number density = 18.391714 Si / 1000 Ang^3
#
#
#
# Elastic Constant Matrix: (Units=GPa)
#
#
# Indices 1 2 3 4 5 6 
#
# 1 101.4228 34.2733 48.8551 0.0000 -4.1971 0.0000
# 2 34.2733 98.9502 39.6342 0.0000 -12.9017 0.0000
# 3 48.8551 39.6342 103.9435 0.0000 -8.7338 0.0000
# 4 0.0000 0.0000 0.0000 21.6395 0.0000 -5.3972
# 5 -4.1971 -12.9017 -8.7338 0.0000 32.1537 0.0000
# 6 0.0000 0.0000 0.0000 -5.3972 0.0000 25.3817
#
#
#
# Elastic Compliance Matrix: (Units=1/GPa)
#
#
# Indices 1 2 3 4 5 6 
#
# 1 0.013254 -0.002558 -0.005317 0.000000 -0.000740 0.000000
# 2 -0.002558 0.012851 -0.003370 0.000000 0.003907 0.000000
# 3 -0.005317 -0.003370 0.013542 0.000000 0.001632 0.000000
# 4 0.000000 0.000000 0.000000 0.048800 0.000000 0.010377
# 5 -0.000740 0.003907 0.001632 0.000000 0.033015 0.000000
# 6 0.000000 0.000000 0.000000 0.010377 0.000000 0.041605
#
#
# Mechanical properties :
#
#
# Convention : Reuss Voigt Hill
#
# Bulk Modulus (GPa) = 58.27925 61.09353 59.68639
# Shear Modulus (GPa) = 26.14029 27.93856 27.03942
#
# Velocity S-wave (km/s) = 3.77411 3.90177 3.83847
# Velocity P-wave (km/s) = 7.12380 7.32042 7.22278
#
# Compressibility (1/GPa) = 0.01715876
#
# Stress axis : x y z
#
# Youngs Moduli (GPa) = 75.44610 77.81340 73.84673
#
# Poissons Ratio (x) = 0.19904 0.39262
# Poissons Ratio (y) = 0.19298 0.24884
# Poissons Ratio (z) = 0.40112 0.26221
#
# Static dielectric constant tensor:
#      x y z
#    x 3.621800 0.000000 0.072540 
#    y 0.000000 3.229260 0.000000 
#    z 0.072540 0.000000 3.558950 
# 
# 
# High freq. dielectric constant tensor:
#      x y z
#    x 1.719950 0.000000 -0.001840 
#    y 0.000000 1.686270 0.000000 
#    z -0.001840 0.000000 1.720620 
# 
# From -- ./inp_files/215089.got.cif
#   From: 2010.06.25/outbox.cif.g09.slc.cpg/sg15_108_cif.got.tgz:215089.got - 2010.06.28 07:06:18.
