data_PCOD8131438
_publ_section_title
;
Structure prediction by ZEFSAII (Michael W. Deem and Ramdas Pophale) SiO2 
 PCOD8131438
Probable space group: C 2/C
;
_chemical_formula_sum "Si O2"
_cell_formula_units_Z 48
_cell_length_a 24.309607
_cell_length_b 21.438606
_cell_length_c 5.213361
_cell_angle_alpha 90.000000
_cell_angle_beta 77.496394
_cell_angle_gamma 90.000000
_cell_volume 2652.575366
_symmetry_space_group_name_H-M "C 2/C"
_symmetry_group_IT_number 15
_symmetry_cell_setting 'monoclinic'
loop_
_space_group_symop_operation_xyz
x,y,z
-x,y,1/2-z
-x,-y,-z
x,-y,1/2+z
1/2+x,1/2+y,z
1/2-x,1/2+y,1/2-z
1/2-x,1/2-y,-z
1/2+x,1/2-y,1/2+z
loop_
_atom_site_type_symbol
_atom_site_label
_atom_site_fract_x
_atom_site_fract_y
_atom_site_fract_z
Si Si1 0.934921 0.670031 0.565429
Si Si2 0.558623 0.776028 0.941033
Si Si3 0.880773 0.541239 0.591486
Si Si4 0.034580 0.130422 0.965169
Si Si5 0.362040 0.458659 0.168031
Si Si6 0.740956 0.962333 0.200159
O O1 0.906585 0.703326 0.345955
O O2 0.925969 0.596011 0.574015
O O3 0.001262 0.683918 0.498788
O O4 0.906600 0.703065 0.842562
O O5 0.544873 0.703685 0.955106
O O6 0.889691 0.509169 0.307069
O O7 0.817954 0.572625 0.677144
O O8 0.094216 0.096756 0.908528
O O9 0.000000 0.109732 0.750000
O O10 0.000000 0.109657 0.250000
O O11 0.370122 0.489819 0.437937
O O12 0.299589 0.426752 0.205137
O O13 0.741087 0.021208 0.397790
#
# Coordination Sequence:
#
# PCOD8131438 Si02
#       6
#     8   8   8   8   8   8
#     4  10  18  33  53  69  99 132 174 202 243 300
#     4  10  19  35  48  70  94 141 176 198 245 289
#     4  10  19  32  52  80 101 128 166 207 253 299
#     4  12  21  35  55  74 101 136 175 205 238 304
#     4  10  21  35  52  79 106 133 159 205 261 296
#     4   8  16  32  51  70 102 133 161 194 247 310
#
# _framework density 18.09562
#
# number of rings (size 3 to 8) (size 9 to 14) (size 15 to 20)
#    0.000    2.000    3.333    2.000    0.000    2.000 
#    0.000   10.000    0.000    2.000    0.000    0.000 
#    0.000    0.000    0.000    0.000    0.000    0.000 
#
# Total GULP energy -297326.513241 kJ/mol
# GULP energy per Si atom -12388.604718 kJ/mol
# Density = 1.805443 g / cm^3
# Si number density = 18.095620 Si / 1000 Ang^3
#
#
#
# Elastic Constant Matrix: (Units=GPa)
#
#
# Indices 1 2 3 4 5 6 
#
# 1 71.1164 52.2497 20.9545 0.0000 -3.3283 0.0000
# 2 52.2497 58.0866 17.3930 0.0000 -10.5144 0.0000
# 3 20.9545 17.3930 129.1939 0.0000 26.7805 0.0000
# 4 0.0000 0.0000 0.0000 14.4616 0.0000 4.7425
# 5 -3.3283 -10.5144 26.7805 0.0000 28.6244 0.0000
# 6 0.0000 0.0000 0.0000 4.7425 0.0000 23.9162
#
#
#
# Elastic Compliance Matrix: (Units=1/GPa)
#
#
# Indices 1 2 3 4 5 6 
#
# 1 0.044083 -0.041865 0.000758 0.000000 -0.010962 0.000000
# 2 -0.041865 0.060988 -0.006271 0.000000 0.023402 0.000000
# 3 0.000758 -0.006271 0.011067 0.000000 -0.012570 0.000000
# 4 0.000000 0.000000 0.000000 0.073958 0.000000 -0.014666
# 5 -0.010962 0.023402 -0.012570 0.000000 0.054017 0.000000
# 6 0.000000 0.000000 0.000000 -0.014666 0.000000 0.044721
#
#
# Mechanical properties :
#
#
# Convention : Reuss Voigt Hill
#
# Bulk Modulus (GPa) = 46.76735 48.84348 47.80542
# Shear Modulus (GPa) = 12.79699 24.58708 18.69203
#
# Velocity S-wave (km/s) = 2.66218 3.69010 3.21745
# Velocity P-wave (km/s) = 5.94561 6.72356 6.34652
#
# Compressibility (1/GPa) = 0.02138244
#
# Stress axis : x y z
#
# Youngs Moduli (GPa) = 22.68426 16.39674 90.35746
#
# Poissons Ratio (x) = 0.68645 -0.06852
# Poissons Ratio (y) = 0.94968 0.56666
# Poissons Ratio (z) = -0.01720 0.10283
#
# Static dielectric constant tensor:
#      x y z
#    x 3.084910 0.000000 -1.063730 
#    y 0.000000 2.940770 0.000000 
#    z -1.063730 0.000000 0.168490 
# 
# 
# High freq. dielectric constant tensor:
#      x y z
#    x 1.683050 0.000000 0.018820 
#    y 0.000000 1.658710 0.000000 
#    z 0.018820 0.000000 1.737670 
# 
# From -- ./inp_files/10679.got.cif
#   From: 2010.06.25/outbox.cif.g09.slc.cpg/sg15_6_cif.got.tgz:10679.got - 2010.06.28 07:06:18.
