data_PCOD8131849
_publ_section_title
;
Structure prediction by ZEFSAII (Michael W. Deem and Ramdas Pophale) SiO2 
 PCOD8131849
Probable space group: C 2/C
;
_chemical_formula_sum "Si O2"
_cell_formula_units_Z 60
_cell_length_a 28.222473
_cell_length_b 11.920093
_cell_length_c 17.303869
_cell_angle_alpha 90.000000
_cell_angle_beta 146.229709
_cell_angle_gamma 90.000000
_cell_volume 3235.839645
_symmetry_space_group_name_H-M "C 2/C"
_symmetry_group_IT_number 15
_symmetry_cell_setting 'monoclinic'
loop_
_space_group_symop_operation_xyz
x,y,z
-x,y,1/2-z
-x,-y,-z
x,-y,1/2+z
1/2+x,1/2+y,z
1/2-x,1/2+y,1/2-z
1/2-x,1/2-y,-z
1/2+x,1/2-y,1/2+z
loop_
_atom_site_type_symbol
_atom_site_label
_atom_site_fract_x
_atom_site_fract_y
_atom_site_fract_z
Si Si1 0.500000 0.650093 0.750000
Si Si2 0.240794 0.425977 0.972880
Si Si3 0.416951 0.707379 0.083532
Si Si4 0.881090 0.769963 0.212181
Si Si5 0.341607 0.471463 0.967855
Si Si6 0.453123 0.330035 0.459503
Si Si7 0.869553 0.073112 0.337418
Si Si8 0.722940 0.154271 0.023978
O O1 0.536896 0.725690 0.731574
O O2 0.568959 0.570196 0.880242
O O3 0.170976 0.332451 0.892734
O O4 0.327061 0.386999 0.134500
O O5 0.261711 0.432367 0.910178
O O6 0.200663 0.542519 0.946283
O O7 0.500000 0.687242 0.250000
O O8 0.350265 0.605215 0.987975
O O9 0.448467 0.725749 0.038038
O O10 0.360741 0.810371 0.040507
O O11 0.910656 0.745999 0.339891
O O12 0.326245 0.418181 0.862928
O O13 0.402229 0.445677 0.378188
O O14 0.551132 0.344962 0.568754
O O15 0.800141 0.115249 0.182773
O O16 0.750000 0.250000 0.000000
#
# Coordination Sequence:
#
# PCOD8131849 Si02
#       8
#     4   8   8   8   8   8   8   8
#     4  10  18  34  62  86 114 152 196 256 298 352
#     4  10  22  37  59  84 124 158 202 246 303 369
#     4  11  23  37  61  88 121 163 203 247 309 365
#     4  10  20  38  60  89 117 155 198 254 306 357
#     4  10  19  35  61  89 115 153 202 256 296 355
#     4  10  20  36  62  92 120 153 196 265 302 359
#     4  10  21  35  60  92 122 148 200 255 310 351
#     4  12  23  40  60  89 126 167 202 252 308 375
#
# _framework density 18.542328000000001
#
# number of rings (size 3 to 8) (size 9 to 14) (size 15 to 20)
#    0.000    1.600    4.667    0.800    1.867    0.000 
#    1.200    0.000    0.000    3.200    0.000    0.000 
#    0.000    0.000    0.000    0.000    0.000    0.000 
#
# Total GULP energy -371771.992167 kJ/mol
# GULP energy per Si atom -12392.399739 kJ/mol
# Density = 1.850012 g / cm^3
# Si number density = 18.542328 Si / 1000 Ang^3
#
#
#
# Elastic Constant Matrix: (Units=GPa)
#
#
# Indices 1 2 3 4 5 6 
#
# 1 127.5697 45.4868 37.7300 0.0000 -11.4985 0.0000
# 2 45.4868 76.2949 16.2456 0.0000 1.0709 0.0000
# 3 37.7300 16.2456 68.9217 0.0000 -17.8877 0.0000
# 4 0.0000 0.0000 0.0000 19.7203 0.0000 0.9604
# 5 -11.4985 1.0709 -17.8877 0.0000 32.0124 0.0000
# 6 0.0000 0.0000 0.0000 0.9604 0.0000 24.4509
#
#
#
# Elastic Compliance Matrix: (Units=1/GPa)
#
#
# Indices 1 2 3 4 5 6 
#
# 1 0.011399 -0.005891 -0.004372 0.000000 0.001849 0.000000
# 2 -0.005891 0.017042 -0.001742 0.000000 -0.003659 0.000000
# 3 -0.004372 -0.001742 0.019791 0.000000 0.009546 0.000000
# 4 0.000000 0.000000 0.000000 0.050806 0.000000 -0.001996
# 5 0.001849 -0.003659 0.009546 0.000000 0.037359 0.000000
# 6 0.000000 0.000000 0.000000 -0.001996 0.000000 0.040977
#
#
# Mechanical properties :
#
#
# Convention : Reuss Voigt Hill
#
# Bulk Modulus (GPa) = 41.28456 52.41236 46.84846
# Shear Modulus (GPa) = 23.87135 26.79164 25.33149
#
# Velocity S-wave (km/s) = 3.59192 3.80530 3.70015
# Velocity P-wave (km/s) = 6.28617 6.90179 6.60116
#
# Compressibility (1/GPa) = 0.02422213
#
# Stress axis : x y z
#
# Youngs Moduli (GPa) = 87.72655 58.68025 50.52891
#
# Poissons Ratio (x) = 0.34569 0.22090
# Poissons Ratio (y) = 0.51681 0.08800
# Poissons Ratio (z) = 0.38352 0.10220
#
# Static dielectric constant tensor:
#      x y z
#    x 3.753870 0.000000 -0.157490 
#    y 0.000000 3.179840 0.000000 
#    z -0.157490 0.000000 3.314310 
# 
# 
# High freq. dielectric constant tensor:
#      x y z
#    x 1.735570 0.000000 -0.010250 
#    y 0.000000 1.691830 0.000000 
#    z -0.010250 0.000000 1.712770 
# 
# From -- ./inp_files/167694.got.cif
#   From: 2010.06.25/outbox.cif.g09.slc.cpg/sg15_84_cif.got.tgz:167694.got - 2010.06.28 07:06:18.
