data_PCOD8131192
_publ_section_title
;
Structure prediction by ZEFSAII (Michael W. Deem and Ramdas Pophale) SiO2 
 PCOD8131192
Probable space group: C 2/C
;
_chemical_formula_sum "Si O2"
_cell_formula_units_Z 56
_cell_length_a 5.158895
_cell_length_b 24.112424
_cell_length_c 24.174959
_cell_angle_alpha 90.000000
_cell_angle_beta 65.506127
_cell_angle_gamma 90.000000
_cell_volume 2736.575138
_symmetry_space_group_name_H-M "C 2/C"
_symmetry_group_IT_number 15
_symmetry_cell_setting 'monoclinic'
loop_
_space_group_symop_operation_xyz
x,y,z
-x,y,1/2-z
-x,-y,-z
x,-y,1/2+z
1/2+x,1/2+y,z
1/2-x,1/2+y,1/2-z
1/2-x,1/2-y,-z
1/2+x,1/2-y,1/2+z
loop_
_atom_site_type_symbol
_atom_site_label
_atom_site_fract_x
_atom_site_fract_y
_atom_site_fract_z
Si Si1 0.172174 0.207675 0.126562
Si Si2 0.352300 0.469318 0.564772
Si Si3 0.343933 0.982535 0.070641
Si Si4 0.544082 0.696030 0.956855
Si Si5 0.250422 0.342945 0.585149
Si Si6 0.369067 0.143445 0.593300
Si Si7 0.669057 0.802195 0.287574
O O1 0.302607 0.245282 0.066006
O O2 0.424480 0.170741 0.131073
O O3 0.943810 0.165577 0.121506
O O4 0.011410 0.246366 0.184677
O O5 0.500000 0.500000 0.500000
O O6 0.547662 0.483188 0.600535
O O7 0.299805 0.404698 0.558123
O O8 0.044558 0.497178 0.602937
O O9 0.284428 0.917770 0.081586
O O10 0.500000 0.000000 0.000000
O O11 0.357016 0.682183 0.918836
O O12 0.797580 0.652754 0.950101
O O13 0.335095 0.698893 0.027919
O O14 0.338173 0.154045 0.661575
O O15 0.500000 0.828882 0.250000
O O16 0.000000 0.786912 0.250000
#
# Coordination Sequence:
#
# PCOD8131192 Si02
#       7
#     8   8   8   8   8   8   8
#     4  11  23  36  55  84 114 153 195 237 295 355
#     4  10  20  32  50  76 113 158 195 220 258 318
#     4  10  18  32  50  80 116 153 193 232 275 341
#     4  11  20  34  52  82 123 159 184 223 283 362
#     4  12  21  35  54  83 124 161 193 227 276 353
#     4  11  21  35  59  87 117 156 201 239 294 358
#     4  11  23  42  62  84 113 148 198 260 306 349
#
# _framework density 20.463536000000001
#
# number of rings (size 3 to 8) (size 9 to 14) (size 15 to 20)
#    0.000    1.143    0.000   11.143    0.000    0.000 
#    0.000    0.000    0.000    0.000    0.000   15.000 
#    0.000    0.000    0.000    0.000    0.000    0.000 
#
# Total GULP energy -347022.397212 kJ/mol
# GULP energy per Si atom -12393.657043 kJ/mol
# Density = 2.041696 g / cm^3
# Si number density = 20.463536 Si / 1000 Ang^3
#
#
#
# Elastic Constant Matrix: (Units=GPa)
#
#
# Indices 1 2 3 4 5 6 
#
# 1 193.7695 35.7000 24.9320 0.0000 3.8877 0.0000
# 2 35.7000 92.7441 17.6015 0.0000 -3.7481 0.0000
# 3 24.9320 17.6015 49.8080 0.0000 -2.5444 0.0000
# 4 0.0000 0.0000 0.0000 15.6357 0.0000 3.3820
# 5 3.8877 -3.7481 -2.5444 0.0000 30.0555 0.0000
# 6 0.0000 0.0000 0.0000 3.3820 0.0000 33.7993
#
#
#
# Elastic Compliance Matrix: (Units=1/GPa)
#
#
# Indices 1 2 3 4 5 6 
#
# 1 0.005824 -0.001849 -0.002322 0.000000 -0.001180 0.000000
# 2 -0.001849 0.012181 -0.003304 0.000000 0.001478 0.000000
# 3 -0.002322 -0.003304 0.022499 0.000000 0.001793 0.000000
# 4 0.000000 0.000000 0.000000 0.065371 0.000000 -0.006541
# 5 -0.001180 0.001478 0.001793 0.000000 0.033761 0.000000
# 6 0.000000 0.000000 0.000000 -0.006541 0.000000 0.030241
#
#
# Mechanical properties :
#
#
# Convention : Reuss Voigt Hill
#
# Bulk Modulus (GPa) = 39.13269 54.75430 46.94350
# Shear Modulus (GPa) = 25.86082 33.10399 29.48241
#
# Velocity S-wave (km/s) = 3.55878 4.02644 3.79981
# Velocity P-wave (km/s) = 6.00427 6.95926 6.49933
#
# Compressibility (1/GPa) = 0.02555408
#
# Stress axis : x y z
#
# Youngs Moduli (GPa) = 171.70740 82.09697 44.44734
#
# Poissons Ratio (x) = 0.15178 0.10321
# Poissons Ratio (y) = 0.31745 0.14683
# Poissons Ratio (z) = 0.39874 0.27121
#
# Static dielectric constant tensor:
#      x y z
#    x 2.333150 0.000000 -0.300630 
#    y 0.000000 3.496270 0.000000 
#    z -0.300630 0.000000 3.226650 
# 
# 
# High freq. dielectric constant tensor:
#      x y z
#    x 1.848260 0.000000 0.006830 
#    y 0.000000 1.787970 0.000000 
#    z 0.006830 0.000000 1.735580 
# 
# From -- ./inp_files/228092.got.cif
#   From: 2010.06.25/outbox.cif.g09.slc.cpg/sg15_115_cif.got.tgz:228092.got - 2010.06.28 07:06:18.
