data_PCOD8131371
_publ_section_title
;
Structure prediction by ZEFSAII (Michael W. Deem and Ramdas Pophale) SiO2 
 PCOD8131371
Probable space group: C 2/C
;
_chemical_formula_sum "Si O2"
_cell_formula_units_Z 48
_cell_length_a 27.755678
_cell_length_b 10.659657
_cell_length_c 18.407607
_cell_angle_alpha 90.000000
_cell_angle_beta 26.450908
_cell_angle_gamma 90.000000
_cell_volume 2425.898921
_symmetry_space_group_name_H-M "C 2/C"
_symmetry_group_IT_number 15
_symmetry_cell_setting 'monoclinic'
loop_
_space_group_symop_operation_xyz
x,y,z
-x,y,1/2-z
-x,-y,-z
x,-y,1/2+z
1/2+x,1/2+y,z
1/2-x,1/2+y,1/2-z
1/2-x,1/2-y,-z
1/2+x,1/2-y,1/2+z
loop_
_atom_site_type_symbol
_atom_site_label
_atom_site_fract_x
_atom_site_fract_y
_atom_site_fract_z
Si Si1 0.300692 0.580655 0.918320
Si Si2 0.341945 0.950096 0.747144
Si Si3 0.648884 0.623071 0.424441
Si Si4 0.546080 0.203231 0.943308
Si Si5 0.386007 0.210088 0.392226
Si Si6 0.013239 0.936101 0.904687
O O1 0.374064 0.704780 0.834819
O O2 0.374350 0.470183 0.787380
O O3 0.235753 0.543606 0.078323
O O4 0.213130 0.612231 0.973026
O O5 0.276246 0.908609 0.762982
O O6 0.439733 0.851107 0.627673
O O7 0.384697 0.089435 0.679970
O O8 0.622063 0.710585 0.391713
O O9 0.611948 0.694754 0.544910
O O10 0.586482 0.489054 0.507806
O O11 0.509483 0.286531 0.922776
O O12 0.500000 0.136970 0.250000
O O13 0.000000 0.000000 0.000000
#
# Coordination Sequence:
#
# PCOD8131371 Si02
#       6
#     8   8   8   8   8   8
#     4  10  21  35  57  88 121 154 200 246 304 350
#     4  10  23  39  61  87 121 165 197 248 300 362
#     4  10  21  34  62  86 117 152 205 240 301 353
#     4  10  23  41  58  88 125 156 200 254 300 358
#     4  10  18  32  59  87 117 149 200 257 286 353
#     4  10  22  37  57  87 119 153 195 252 301 351
#
# _framework density 19.786480000000001
#
# number of rings (size 3 to 8) (size 9 to 14) (size 15 to 20)
#    0.000    2.000    1.667    1.000   14.000    2.000 
#    0.000    0.000    0.000    0.000    0.000    0.000 
#    0.000    0.000    0.000    0.000    0.000    0.000 
#
# Total GULP energy -297337.600428 kJ/mol
# GULP energy per Si atom -12389.066685 kJ/mol
# Density = 1.974145 g / cm^3
# Si number density = 19.786480 Si / 1000 Ang^3
#
#
#
# Elastic Constant Matrix: (Units=GPa)
#
#
# Indices 1 2 3 4 5 6 
#
# 1 87.6866 35.6933 32.2955 0.0000 -17.0858 0.0000
# 2 35.6933 105.8291 41.3605 0.0000 -7.6850 -0.0002
# 3 32.2955 41.3605 111.8647 0.0000 -5.2598 -0.0001
# 4 0.0000 0.0000 0.0000 14.5432 0.0000 5.3877
# 5 -17.0858 -7.6850 -5.2598 0.0000 34.5587 0.0000
# 6 0.0000 -0.0002 -0.0001 5.3877 0.0000 26.2842
#
#
#
# Elastic Compliance Matrix: (Units=1/GPa)
#
#
# Indices 1 2 3 4 5 6 
#
# 1 0.015081 -0.003561 -0.002744 0.000000 0.006247 0.000000
# 2 -0.003561 0.012004 -0.003392 0.000000 0.000393 0.000000
# 3 -0.002744 -0.003392 0.010965 0.000000 -0.000442 0.000000
# 4 0.000000 0.000000 0.000000 0.074411 0.000000 -0.015253
# 5 0.006247 0.000393 -0.000442 0.000000 0.032045 0.000000
# 6 0.000000 0.000000 0.000000 -0.015253 0.000000 0.041172
#
#
# Mechanical properties :
#
#
# Convention : Reuss Voigt Hill
#
# Bulk Modulus (GPa) = 53.59704 58.23100 55.91402
# Shear Modulus (GPa) = 23.66404 28.14595 25.90499
#
# Velocity S-wave (km/s) = 3.46203 3.77567 3.62225
# Velocity P-wave (km/s) = 6.56715 6.96428 6.76863
#
# Compressibility (1/GPa) = 0.01865775
#
# Stress axis : x y z
#
# Youngs Moduli (GPa) = 66.30696 83.30357 91.20016
#
# Poissons Ratio (x) = 0.29661 0.25024
# Poissons Ratio (y) = 0.23609 0.30935
# Poissons Ratio (z) = 0.18193 0.28257
#
# Static dielectric constant tensor:
#      x y z
#    x 4.437130 0.000000 -0.621680 
#    y 0.000000 3.686440 0.000000 
#    z -0.621680 0.000000 3.727370 
# 
# 
# High freq. dielectric constant tensor:
#      x y z
#    x 1.774960 0.000000 -0.019410 
#    y 0.000000 1.750020 0.000000 
#    z -0.019410 0.000000 1.769400 
# 
# From -- ./inp_files/222276.got.cif
#   From: 2010.06.25/outbox.cif.g09.slc.cpg/sg15_112_cif.got.tgz:222276.got - 2010.06.28 07:06:18.
