data_PCOD8131582
_publ_section_title
;
Structure prediction by ZEFSAII (Michael W. Deem and Ramdas Pophale) SiO2 
 PCOD8131582
Probable space group: C 2/C
;
_chemical_formula_sum "Si O2"
_cell_formula_units_Z 56
_cell_length_a 13.429755
_cell_length_b 21.344817
_cell_length_c 10.297683
_cell_angle_alpha 90.000000
_cell_angle_beta 114.035266
_cell_angle_gamma 90.000000
_cell_volume 2695.945406
_symmetry_space_group_name_H-M "C 2/C"
_symmetry_group_IT_number 15
_symmetry_cell_setting 'monoclinic'
loop_
_space_group_symop_operation_xyz
x,y,z
-x,y,1/2-z
-x,-y,-z
x,-y,1/2+z
1/2+x,1/2+y,z
1/2-x,1/2+y,1/2-z
1/2-x,1/2-y,-z
1/2+x,1/2-y,1/2+z
loop_
_atom_site_type_symbol
_atom_site_label
_atom_site_fract_x
_atom_site_fract_y
_atom_site_fract_z
Si Si1 0.000000 0.624045 0.750000
Si Si2 0.971502 0.725493 0.949810
Si Si3 0.104481 0.637763 0.371132
Si Si4 0.771459 0.437022 0.127802
Si Si5 0.732523 0.543249 0.901419
Si Si6 0.376716 0.325442 0.388408
Si Si7 0.500000 0.603717 0.750000
Si Si8 0.748344 0.234057 0.349822
O O1 0.014936 0.666765 0.634128
O O2 0.103402 0.580110 0.825972
O O3 0.870660 0.771126 0.857275
O O4 0.948704 0.695880 0.078836
O O5 0.078749 0.769259 0.997584
O O6 0.178423 0.593040 0.498976
O O7 0.180383 0.669236 0.297542
O O8 0.000000 0.602013 0.250000
O O9 0.757766 0.469486 0.262408
O O10 0.692699 0.376676 0.069681
O O11 0.739683 0.481999 0.992980
O O12 0.607256 0.564388 0.843271
O O13 0.479060 0.355493 0.367548
O O14 0.299083 0.296070 0.240094
O O15 0.750000 0.250000 0.500000
#
# Coordination Sequence:
#
# PCOD8131582 Si02
#       8
#     4   8   8   8   8   8   4   8
#     4  12  24  44  63  89 138 176 210 276 340 412
#     4  11  21  38  63  93 131 172 207 271 343 404
#     4  11  20  36  64 103 127 163 230 282 329 396
#     4  11  26  46  67  94 135 179 235 276 335 398
#     4  11  25  45  68  98 129 184 230 282 331 396
#     4  11  20  39  64  99 130 170 210 276 343 398
#     4  10  20  42  71  95 132 170 230 284 328 388
#     4  10  18  33  59  94 127 161 210 266 333 388
#
# _framework density 20.771933000000001
#
# number of rings (size 3 to 8) (size 9 to 14) (size 15 to 20)
#    0.000    1.143    4.286    5.143    1.000    4.571 
#    0.000    2.143    0.000    0.000    0.000    0.000 
#    0.000    0.000    0.000    0.000    0.000    0.000 
#
# Total GULP energy -347003.657902 kJ/mol
# GULP energy per Si atom -12392.987782 kJ/mol
# Density = 2.072466 g / cm^3
# Si number density = 20.771933 Si / 1000 Ang^3
#
#
#
# Elastic Constant Matrix: (Units=GPa)
#
#
# Indices 1 2 3 4 5 6 
#
# 1 78.0405 10.0555 31.1863 0.0000 24.8155 0.0000
# 2 10.0555 73.2902 34.9329 0.0000 11.7399 0.0000
# 3 31.1863 34.9329 85.6704 0.0000 23.2471 0.0000
# 4 0.0000 0.0000 0.0000 90.2712 0.0000 27.5402
# 5 24.8155 11.7399 23.2471 0.0000 35.6528 0.0000
# 6 0.0000 0.0000 0.0000 27.5402 0.0000 37.8682
#
#
#
# Elastic Compliance Matrix: (Units=1/GPa)
#
#
# Indices 1 2 3 4 5 6 
#
# 1 0.017448 0.001162 -0.004163 0.000000 -0.009813 0.000000
# 2 0.001162 0.017063 -0.006848 0.000000 -0.001962 0.000000
# 3 -0.004163 -0.006848 0.017717 0.000000 -0.006400 0.000000
# 4 0.000000 0.000000 0.000000 0.014236 0.000000 -0.010354
# 5 -0.009813 -0.001962 -0.006400 0.000000 0.039697 0.000000
# 6 0.000000 0.000000 0.000000 -0.010354 0.000000 0.033937
#
#
# Mechanical properties :
#
#
# Convention : Reuss Voigt Hill
#
# Bulk Modulus (GPa) = 30.74037 43.26119 37.00078
# Shear Modulus (GPa) = 29.30134 43.48022 36.39078
#
# Velocity S-wave (km/s) = 3.75990 4.58013 4.19014
# Velocity P-wave (km/s) = 5.80347 6.98872 6.42349
#
# Compressibility (1/GPa) = 0.03253052
#
# Stress axis : x y z
#
# Youngs Moduli (GPa) = 57.31369 58.60482 56.44277
#
# Poissons Ratio (x) = -0.06810 0.23495
# Poissons Ratio (y) = -0.06660 0.38654
# Poissons Ratio (z) = 0.23857 0.40135
#
# Static dielectric constant tensor:
#      x y z
#    x 4.365680 0.000000 0.283790 
#    y 0.000000 3.640160 0.000000 
#    z 0.283790 0.000000 3.634300 
# 
# 
# High freq. dielectric constant tensor:
#      x y z
#    x 1.824470 0.000000 0.023690 
#    y 0.000000 1.797990 0.000000 
#    z 0.023690 0.000000 1.805880 
# 
# From -- ./inp_files/98859.got.cif
#   From: 2010.06.25/outbox.cif.g09.slc.cpg/sg15_50_cif.got.tgz:98859.got - 2010.06.28 07:06:18.
