data_PCOD8131011
_publ_section_title
;
Structure prediction by ZEFSAII (Michael W. Deem and Ramdas Pophale) SiO2 
 PCOD8131011
Probable space group: C 2/C
;
_chemical_formula_sum "Si O2"
_cell_formula_units_Z 56
_cell_length_a 15.679356
_cell_length_b 26.413558
_cell_length_c 12.697825
_cell_angle_alpha 90.000000
_cell_angle_beta 146.738359
_cell_angle_gamma 90.000000
_cell_volume 2884.243363
_symmetry_space_group_name_H-M "C 2/C"
_symmetry_group_IT_number 15
_symmetry_cell_setting 'monoclinic'
loop_
_space_group_symop_operation_xyz
x,y,z
-x,y,1/2-z
-x,-y,-z
x,-y,1/2+z
1/2+x,1/2+y,z
1/2-x,1/2+y,1/2-z
1/2-x,1/2-y,-z
1/2+x,1/2-y,1/2+z
loop_
_atom_site_type_symbol
_atom_site_label
_atom_site_fract_x
_atom_site_fract_y
_atom_site_fract_z
Si Si1 0.494892 0.365674 0.628977
Si Si2 0.496422 0.179975 0.619630
Si Si3 0.652203 0.534238 0.040940
Si Si4 0.195553 0.230348 0.556243
Si Si5 0.836851 0.515423 0.029240
Si Si6 0.310493 0.087715 0.381765
Si Si7 0.146202 0.936447 0.168492
O O1 0.500000 0.391439 0.750000
O O2 0.455425 0.306470 0.603696
O O3 0.663972 0.376183 0.755423
O O4 0.359030 0.386892 0.410785
O O5 0.500000 0.176529 0.750000
O O6 0.660974 0.199877 0.743399
O O7 0.363547 0.219663 0.443141
O O8 0.461478 0.124027 0.537866
O O9 0.699079 0.526292 0.969094
O O10 0.791655 0.562515 0.247719
O O11 0.614858 0.480341 0.052526
O O12 0.493444 0.566194 0.889659
O O13 0.250000 0.250000 0.500000
O O14 0.000000 0.528991 0.250000
O O15 0.831228 0.456798 0.989041
O O16 0.806469 0.552962 0.897775
#
# Coordination Sequence:
#
# PCOD8131011 Si02
#       7
#     8   8   8   8   8   8   8
#     4  11  19  32  53  75 102 135 173 214 255 309
#     4  10  18  31  46  69 102 132 168 205 251 309
#     4   9  19  35  51  71 101 134 177 225 260 307
#     4  10  20  31  48  72 103 138 166 206 257 308
#     4  11  22  35  51  75 109 142 176 224 266 304
#     4  10  21  33  50  75 100 139 180 212 262 309
#     4   9  20  34  53  75  97 139 183 214 262 314
#
# _framework density 19.415837
#
# number of rings (size 3 to 8) (size 9 to 14) (size 15 to 20)
#    0.000    2.000    0.000    6.429    0.000    4.571 
#    0.000    0.000    0.000    0.000    0.000    1.000 
#    0.000    2.286    0.000    0.000    0.000    0.000 
#
# Total GULP energy -346870.876288 kJ/mol
# GULP energy per Si atom -12388.245582 kJ/mol
# Density = 1.937165 g / cm^3
# Si number density = 19.415837 Si / 1000 Ang^3
#
#
#
# Elastic Constant Matrix: (Units=GPa)
#
#
# Indices 1 2 3 4 5 6 
#
# 1 34.1768 17.7333 8.8811 0.0000 -8.5811 0.0000
# 2 17.7333 89.1618 37.5655 0.0000 -9.4691 0.0000
# 3 8.8811 37.5655 89.0513 0.0000 -4.0228 0.0000
# 4 0.0000 0.0000 0.0000 35.3666 0.0000 8.3719
# 5 -8.5811 -9.4691 -4.0228 0.0000 21.0424 0.0000
# 6 0.0000 0.0000 0.0000 8.3719 0.0000 19.6911
#
#
#
# Elastic Compliance Matrix: (Units=1/GPa)
#
#
# Indices 1 2 3 4 5 6 
#
# 1 0.035231 -0.005473 -0.000673 0.000000 0.011776 0.000000
# 2 -0.005473 0.015051 -0.005647 0.000000 0.003461 0.000000
# 3 -0.000673 -0.005647 0.013670 0.000000 -0.000202 0.000000
# 4 0.000000 0.000000 0.000000 0.031439 0.000000 -0.013367
# 5 0.011776 0.003461 -0.000202 0.000000 0.053844 0.000000
# 6 0.000000 0.000000 0.000000 -0.013367 0.000000 0.056468
#
#
# Mechanical properties :
#
#
# Convention : Reuss Voigt Hill
#
# Bulk Modulus (GPa) = 24.77346 37.86106 31.31726
# Shear Modulus (GPa) = 20.59791 25.10069 22.84930
#
# Velocity S-wave (km/s) = 3.26065 3.59945 3.43423
# Velocity P-wave (km/s) = 5.19258 6.06771 5.64712
#
# Compressibility (1/GPa) = 0.04036577
#
# Stress axis : x y z
#
# Youngs Moduli (GPa) = 28.38425 66.44163 73.15543
#
# Poissons Ratio (x) = 0.36363 0.04923
# Poissons Ratio (y) = 0.15534 0.41310
# Poissons Ratio (z) = 0.01910 0.37519
#
# Static dielectric constant tensor:
#      x y z
#    x 3.383230 0.000000 0.205730 
#    y 0.000000 3.620670 0.000000 
#    z 0.205730 0.000000 3.725310 
# 
# 
# High freq. dielectric constant tensor:
#      x y z
#    x 1.723890 0.000000 0.025200 
#    y 0.000000 1.745390 0.000000 
#    z 0.025200 0.000000 1.753190 
# 
# From -- ./inp_files/101142.got.cif
#   From: 2010.06.25/outbox.cif.g09.slc.cpg/sg15_51_cif.got.tgz:101142.got - 2010.06.28 07:06:18.
