data_PCOD8131127
_publ_section_title
;
Structure prediction by ZEFSAII (Michael W. Deem and Ramdas Pophale) SiO2 
 PCOD8131127
Probable space group: C 2/C
;
_chemical_formula_sum "Si O2"
_cell_formula_units_Z 48
_cell_length_a 8.916927
_cell_length_b 27.501818
_cell_length_c 16.261899
_cell_angle_alpha 90.000000
_cell_angle_beta 145.058079
_cell_angle_gamma 90.000000
_cell_volume 2284.071956
_symmetry_space_group_name_H-M "C 2/C"
_symmetry_group_IT_number 15
_symmetry_cell_setting 'monoclinic'
loop_
_space_group_symop_operation_xyz
x,y,z
-x,y,1/2-z
-x,-y,-z
x,-y,1/2+z
1/2+x,1/2+y,z
1/2-x,1/2+y,1/2-z
1/2-x,1/2-y,-z
1/2+x,1/2-y,1/2+z
loop_
_atom_site_type_symbol
_atom_site_label
_atom_site_fract_x
_atom_site_fract_y
_atom_site_fract_z
Si Si1 0.279883 0.863645 0.332358
Si Si2 0.236982 0.860345 0.682045
Si Si3 0.013602 0.300246 0.570524
Si Si4 0.552017 0.540510 0.175948
Si Si5 0.985951 0.472208 0.408180
Si Si6 0.529323 0.691752 0.579379
O O1 0.491842 0.832697 0.478891
O O2 0.397547 0.916864 0.376091
O O3 0.000000 0.868465 0.250000
O O4 0.248259 0.836456 0.230787
O O5 0.500000 0.870367 0.750000
O O6 0.276428 0.821425 0.771806
O O7 0.147654 0.909390 0.683075
O O8 0.014623 0.839718 0.522042
O O9 0.729702 0.301158 0.483708
O O10 0.115495 0.246319 0.593491
O O11 0.500000 0.545636 0.250000
O O12 0.774936 0.500168 0.256574
O O13 0.283658 0.525706 0.007644
O O14 0.000000 0.500000 0.500000
#
# Coordination Sequence:
#
# PCOD8131127 Si02
#       6
#     8   8   8   8   8   8
#     4  10  18  31  55  82 111 149 195 241 284 340
#     4  10  20  35  57  86 119 151 191 243 296 344
#     4   9  16  30  54  82 113 152 194 235 278 340
#     4  10  21  38  61  84 113 152 198 244 292 354
#     4  10  20  36  59  84 110 149 203 246 283 347
#     4   9  18  30  50  84 118 147 188 240 289 336
#
# _framework density 21.015101000000001
#
# number of rings (size 3 to 8) (size 9 to 14) (size 15 to 20)
#    0.000    2.333    0.000    4.500    0.000    6.667 
#    0.000    4.167    0.000   11.000    0.000    0.000 
#    0.000    0.000    0.000    0.000    0.000    0.000 
#
# Total GULP energy -297505.376193 kJ/mol
# GULP energy per Si atom -12396.057341 kJ/mol
# Density = 2.096727 g / cm^3
# Si number density = 21.015101 Si / 1000 Ang^3
#
#
#
# Elastic Constant Matrix: (Units=GPa)
#
#
# Indices 1 2 3 4 5 6 
#
# 1 27.5395 44.1502 48.6028 0.0000 0.7451 0.0000
# 2 44.1502 155.6146 37.6363 0.0000 11.0241 0.0000
# 3 48.6028 37.6363 96.1720 0.0000 3.9206 0.0000
# 4 0.0000 0.0000 0.0000 34.7775 0.0000 3.4164
# 5 0.7451 11.0241 3.9206 0.0000 25.6021 0.0000
# 6 0.0000 0.0000 0.0000 3.4164 0.0000 6.7400
#
#
#
# Elastic Compliance Matrix: (Units=1/GPa)
#
#
# Indices 1 2 3 4 5 6 
#
# 1 -0.540127 0.100639 0.236182 0.000000 -0.063784 0.000000
# 2 0.100639 -0.011471 -0.046745 0.000000 0.009169 0.000000
# 3 0.236182 -0.046745 -0.091782 0.000000 0.027310 0.000000
# 4 0.000000 0.000000 0.000000 0.030261 0.000000 -0.015339
# 5 -0.063784 0.009169 0.027310 0.000000 0.032785 0.000000
# 6 0.000000 0.000000 0.000000 -0.015339 0.000000 0.156142
#
#
# Mechanical properties :
#
#
# Convention : Reuss Voigt Hill
#
# Bulk Modulus (GPa) = -15.81571 60.01162 22.09796
# Shear Modulus (GPa) = -4.87605 23.35305 9.23850
#
# Velocity S-wave (km/s) = -1.52489 3.33716 2.09897
# Velocity P-wave (km/s) = 3.26230 6.59297 4.05121
#
# Compressibility (1/GPa) = -0.06322827
#
# Stress axis : x y z
#
# Youngs Moduli (GPa) = -1.85142 -87.17851 -10.89539
#
# Poissons Ratio (x) = 8.77357 2.57329
# Poissons Ratio (y) = 0.18632 -0.50931
# Poissons Ratio (z) = 0.43727 -4.07517
#
# Static dielectric constant tensor:
#      x y z
#    x 3.513510 0.000000 0.229850 
#    y 0.000000 3.980390 0.000000 
#    z 0.229850 0.000000 4.423970 
# 
# 
# High freq. dielectric constant tensor:
#      x y z
#    x 1.778120 0.000000 0.003750 
#    y 0.000000 1.840150 0.000000 
#    z 0.003750 0.000000 1.832890 
# 
# From -- ./inp_files/138995.got.cif
#   From: 2010.06.25/outbox.cif.g09.slc.cpg/sg15_70_cif.got.tgz:138995.got - 2010.06.28 07:06:18.
