data_PCOD8131479
_publ_section_title
;
Structure prediction by ZEFSAII (Michael W. Deem and Ramdas Pophale) SiO2 
 PCOD8131479
Probable space group: C 2/C
;
_chemical_formula_sum "Si O2"
_cell_formula_units_Z 56
_cell_length_a 27.837079
_cell_length_b 19.883923
_cell_length_c 16.301970
_cell_angle_alpha 90.000000
_cell_angle_beta 19.757993
_cell_angle_gamma 90.000000
_cell_volume 3050.311635
_symmetry_space_group_name_H-M "C 2/C"
_symmetry_group_IT_number 15
_symmetry_cell_setting 'monoclinic'
loop_
_space_group_symop_operation_xyz
x,y,z
-x,y,1/2-z
-x,-y,-z
x,-y,1/2+z
1/2+x,1/2+y,z
1/2-x,1/2+y,1/2-z
1/2-x,1/2-y,-z
1/2+x,1/2-y,1/2+z
loop_
_atom_site_type_symbol
_atom_site_label
_atom_site_fract_x
_atom_site_fract_y
_atom_site_fract_z
Si Si1 0.886084 0.570495 0.496803
Si Si2 0.867172 0.222131 0.250654
Si Si3 0.062791 0.877009 0.733750
Si Si4 0.994392 0.428941 0.141428
Si Si5 0.096007 0.988379 0.424808
Si Si6 0.617705 0.135914 0.827114
Si Si7 0.227284 0.387917 0.874386
O O1 0.735653 0.559810 0.691968
O O2 0.875461 0.623596 0.587279
O O3 0.941381 0.501947 0.448020
O O4 0.000000 0.599641 0.250000
O O5 0.750000 0.250000 0.500000
O O6 0.974146 0.173766 0.130750
O O7 0.939957 0.287959 0.094233
O O8 0.797606 0.182048 0.286735
O O9 0.230701 0.879549 0.456367
O O10 0.000000 0.848231 0.750000
O O11 0.001662 0.951985 0.849650
O O12 0.984926 0.413709 0.059653
O O13 0.842948 0.423022 0.431749
O O14 0.104590 0.374999 0.004248
O O15 0.152731 0.062532 0.357492
O O16 0.000000 0.000000 0.500000
#
# Coordination Sequence:
#
# PCOD8131479 Si02
#       7
#     8   8   8   8   8   8   8
#     4  11  22  37  57  84 111 153 194 235 284 332
#     4  10  20  34  53  82 118 148 183 232 288 343
#     4  11  21  34  56  90 114 142 188 237 291 333
#     4  10  18  34  55  79 114 142 190 234 282 332
#     4  11  19  35  58  81 115 146 185 232 281 342
#     4  11  22  36  54  87 114 149 189 238 280 347
#     4  10  18  33  54  84 109 151 184 226 291 336
#
# _framework density 18.358781
#
# number of rings (size 3 to 8) (size 9 to 14) (size 15 to 20)
#    0.000    1.429    8.571    0.429    0.000    2.286 
#    0.000    0.000    0.000    1.714    0.000    0.000 
#    0.000    0.000    0.000    0.000    0.000    0.000 
#
# Total GULP energy -346912.253980 kJ/mol
# GULP energy per Si atom -12389.723356 kJ/mol
# Density = 1.831700 g / cm^3
# Si number density = 18.358781 Si / 1000 Ang^3
#
#
#
# Elastic Constant Matrix: (Units=GPa)
#
#
# Indices 1 2 3 4 5 6 
#
# 1 119.2122 37.5026 35.3011 0.0033 -11.5166 -0.0011
# 2 37.5026 88.5626 32.5617 -0.0053 4.0451 -0.0021
# 3 35.3011 32.5617 59.3366 -0.0156 -1.1371 -0.0011
# 4 0.0033 -0.0053 -0.0156 18.2643 0.0003 4.8770
# 5 -11.5166 4.0451 -1.1371 0.0003 20.9039 0.0012
# 6 -0.0011 -0.0021 -0.0011 4.8770 0.0012 32.5837
#
#
#
# Elastic Compliance Matrix: (Units=1/GPa)
#
#
# Indices 1 2 3 4 5 6 
#
# 1 0.011558 -0.003411 -0.004875 -0.000008 0.006763 0.000001
# 2 -0.003411 0.015364 -0.006502 -0.000001 -0.005206 0.000001
# 3 -0.004875 -0.006502 0.023318 0.000020 -0.000159 -0.000003
# 4 -0.000008 -0.000001 0.000020 0.057031 -0.000003 -0.008536
# 5 0.006763 -0.005206 -0.000159 -0.000003 0.052563 -0.000002
# 6 0.000001 0.000001 -0.000003 -0.008536 -0.000002 0.031968
#
#
# Mechanical properties :
#
#
# Convention : Reuss Voigt Hill
#
# Bulk Modulus (GPa) = 48.39049 53.09357 50.74203
# Shear Modulus (GPa) = 21.90426 25.13342 23.51884
#
# Velocity S-wave (km/s) = 3.45791 3.70403 3.58308
# Velocity P-wave (km/s) = 6.50832 6.87575 6.69456
#
# Compressibility (1/GPa) = 0.02066522
#
# Stress axis : x y z
#
# Youngs Moduli (GPa) = 86.51743 65.08665 42.88506
#
# Poissons Ratio (x) = 0.22201 0.20906
# Poissons Ratio (y) = 0.29511 0.27883
# Poissons Ratio (z) = 0.42177 0.42318
#
# Static dielectric constant tensor:
#      x y z
#    x 3.689740 -0.000010 -0.251110 
#    y -0.000010 3.615620 0.000020 
#    z -0.251110 0.000020 3.301700 
# 
# 
# High freq. dielectric constant tensor:
#      x y z
#    x 1.719600 0.000000 -0.026830 
#    y 0.000000 1.698610 0.000000 
#    z -0.026830 0.000000 1.676950 
# 
# From -- ./inp_files/225678.got.cif
#   From: 2010.06.25/outbox.cif.g09.slc.cpg/sg15_113_cif.got.tgz:225678.got - 2010.06.28 07:06:18.
