data_PCOD8131752
_publ_section_title
;
Structure prediction by ZEFSAII (Michael W. Deem and Ramdas Pophale) SiO2 
 PCOD8131752
Probable space group: C 2/C
;
_chemical_formula_sum "Si O2"
_cell_formula_units_Z 60
_cell_length_a 15.675375
_cell_length_b 8.246346
_cell_length_c 23.540246
_cell_angle_alpha 90.000000
_cell_angle_beta 90.586636
_cell_angle_gamma 90.000000
_cell_volume 3042.760185
_symmetry_space_group_name_H-M "C 2/C"
_symmetry_group_IT_number 15
_symmetry_cell_setting 'monoclinic'
loop_
_space_group_symop_operation_xyz
x,y,z
-x,y,1/2-z
-x,-y,-z
x,-y,1/2+z
1/2+x,1/2+y,z
1/2-x,1/2+y,1/2-z
1/2-x,1/2-y,-z
1/2+x,1/2-y,1/2+z
loop_
_atom_site_type_symbol
_atom_site_label
_atom_site_fract_x
_atom_site_fract_y
_atom_site_fract_z
Si Si1 0.294850 0.943233 0.849030
Si Si2 0.653609 0.934171 0.776572
Si Si3 0.128029 0.845409 0.359980
Si Si4 0.063415 0.405216 0.074797
Si Si5 0.529113 0.341237 0.858634
Si Si6 0.000000 0.670488 0.750000
Si Si7 0.299611 0.146425 0.626222
Si Si8 0.389453 0.918417 0.549166
O O1 0.279557 0.770300 0.880848
O O2 0.298807 0.900676 0.782088
O O3 0.218409 0.066541 0.858561
O O4 0.381312 0.021456 0.873336
O O5 0.577652 0.055808 0.764903
O O6 0.717253 0.017149 0.823075
O O7 0.618060 0.768768 0.804550
O O8 0.126857 0.749330 0.419092
O O9 0.046550 0.966672 0.361214
O O10 0.028554 0.224700 0.089424
O O11 0.984115 0.525006 0.066343
O O12 0.119814 0.392604 0.018280
O O13 0.477768 0.290117 0.801827
O O14 0.619845 0.254791 0.857081
O O15 0.318230 0.050222 0.567810
#
# Coordination Sequence:
#
# PCOD8131752 Si02
#       8
#     8   8   8   8   8   4   8   8
#     4  11  20  34  57  85 110 151 191 237 282 350
#     4  10  19  34  57  80 115 153 183 234 284 350
#     4  10  22  36  56  82 118 148 190 232 297 335
#     4  10  20  37  62  79 111 150 201 235 284 339
#     4   9  18  35  52  83 109 148 179 234 284 336
#     4  10  18  34  58  80 114 144 184 230 286 338
#     4   8  18  34  53  76 115 148 184 227 293 331
#     4   9  20  40  57  80 110 155 192 242 284 339
#
# _framework density 19.718937
#
# number of rings (size 3 to 8) (size 9 to 14) (size 15 to 20)
#    0.000    2.400    1.333    1.600    0.000    2.133 
#    0.000    2.667    0.000    0.000    0.000    0.000 
#    0.000    0.000    0.000    0.000    0.000    0.000 
#
# Total GULP energy -371863.695749 kJ/mol
# GULP energy per Si atom -12395.456525 kJ/mol
# Density = 1.967406 g / cm^3
# Si number density = 19.718937 Si / 1000 Ang^3
#
#
#
# Elastic Constant Matrix: (Units=GPa)
#
#
# Indices 1 2 3 4 5 6 
#
# 1 41.1356 23.7869 14.5447 0.0000 -5.4591 0.0000
# 2 23.7869 126.1665 48.0047 0.0000 -12.3642 0.0000
# 3 14.5447 48.0047 124.4237 0.0000 -21.7434 0.0000
# 4 0.0000 0.0000 0.0000 26.1711 0.0000 -8.5008
# 5 -5.4591 -12.3642 -21.7434 0.0000 26.1793 0.0000
# 6 0.0000 0.0000 0.0000 -8.5008 0.0000 29.8540
#
#
#
# Elastic Compliance Matrix: (Units=1/GPa)
#
#
# Indices 1 2 3 4 5 6 
#
# 1 0.027670 -0.004569 -0.000983 0.000000 0.002796 0.000000
# 2 -0.004569 0.010105 -0.003155 0.000000 0.001199 0.000000
# 3 -0.000983 -0.003155 0.010614 0.000000 0.007120 0.000000
# 4 0.000000 0.000000 0.000000 0.042104 0.000000 0.011989
# 5 0.002796 0.001199 0.007120 0.000000 0.045261 0.000000
# 6 0.000000 0.000000 0.000000 0.011989 0.000000 0.036910
#
#
# Mechanical properties :
#
#
# Convention : Reuss Voigt Hill
#
# Bulk Modulus (GPa) = 32.28422 51.59983 41.94203
# Shear Modulus (GPa) = 24.94954 30.13353 27.54154
#
# Velocity S-wave (km/s) = 3.56091 3.91340 3.74131
# Velocity P-wave (km/s) = 5.77187 6.82965 6.32292
#
# Compressibility (1/GPa) = 0.03097488
#
# Stress axis : x y z
#
# Youngs Moduli (GPa) = 36.13967 98.95647 94.21908
#
# Poissons Ratio (x) = 0.45211 0.09265
# Poissons Ratio (y) = 0.16511 0.29728
# Poissons Ratio (z) = 0.03554 0.31222
#
# Static dielectric constant tensor:
#      x y z
#    x 3.319090 0.000000 -0.129480 
#    y 0.000000 3.809470 0.000000 
#    z -0.129480 0.000000 3.806650 
# 
# 
# High freq. dielectric constant tensor:
#      x y z
#    x 1.741600 0.000000 -0.012870 
#    y 0.000000 1.771510 0.000000 
#    z -0.012870 0.000000 1.771420 
# 
# From -- ./inp_files/272730.got.cif
#   From: 2010.06.25/outbox.cif.g09.slc.cpg/sg15_137_cif.got.tgz:272730.got - 2010.06.28 07:06:18.
