data_PCOD8131001
_publ_section_title
;
Structure prediction by ZEFSAII (Michael W. Deem and Ramdas Pophale) SiO2 
 PCOD8131001
Probable space group: C 2/C
;
_chemical_formula_sum "Si O2"
_cell_formula_units_Z 52
_cell_length_a 32.076842
_cell_length_b 11.938959
_cell_length_c 13.203120
_cell_angle_alpha 90.000000
_cell_angle_beta 146.469679
_cell_angle_gamma 90.000000
_cell_volume 2793.001493
_symmetry_space_group_name_H-M "C 2/C"
_symmetry_group_IT_number 15
_symmetry_cell_setting 'monoclinic'
loop_
_space_group_symop_operation_xyz
x,y,z
-x,y,1/2-z
-x,-y,-z
x,-y,1/2+z
1/2+x,1/2+y,z
1/2-x,1/2+y,1/2-z
1/2-x,1/2-y,-z
1/2+x,1/2-y,1/2+z
loop_
_atom_site_type_symbol
_atom_site_label
_atom_site_fract_x
_atom_site_fract_y
_atom_site_fract_z
Si Si1 0.156447 0.463569 0.687795
Si Si2 0.869056 0.350490 0.520852
Si Si3 0.423572 0.982063 0.287869
Si Si4 0.293958 0.319048 0.005354
Si Si5 0.039264 0.115400 0.612055
Si Si6 0.513609 0.796883 0.388035
Si Si7 0.000000 0.796118 0.250000
O O1 0.164100 0.549880 0.611761
O O2 0.143814 0.532274 0.767075
O O3 0.090498 0.370589 0.542955
O O4 0.239481 0.413955 0.853930
O O5 0.910815 0.403820 0.701519
O O6 0.807208 0.264872 0.438242
O O7 0.929219 0.281327 0.577850
O O8 0.437861 0.873642 0.247032
O O9 0.500000 0.000000 0.500000
O O10 0.369270 0.379697 0.201688
O O11 0.250000 0.250000 0.000000
O O12 0.013071 0.207797 0.477567
O O13 0.013425 0.133011 0.675629
O O14 0.000000 0.000000 0.500000
O O15 0.500000 0.739737 0.250000
#
# Coordination Sequence:
#
# PCOD8131001 Si02
#       7
#     8   8   8   8   8   8   4
#     4  11  20  37  60  90 123 159 204 254 308 369
#     4  11  20  36  61  88 120 156 199 250 310 357
#     4  10  18  30  59  91 117 148 191 251 304 352
#     4  11  21  43  61  86 126 168 203 250 312 390
#     4  11  25  43  64  88 122 170 210 252 316 376
#     4  11  20  35  62  94 123 151 206 264 304 365
#     4  10  20  42  64  88 120 156 212 254 300 372
#
# _framework density 18.617964000000001
#
# number of rings (size 3 to 8) (size 9 to 14) (size 15 to 20)
#    0.000    1.231    4.615    5.538    1.077    0.000 
#    8.308    0.000    0.000    2.769    0.000    0.000 
#    0.000    0.000    0.000    0.000    0.000    0.000 
#
# Total GULP energy -322160.384753 kJ/mol
# GULP energy per Si atom -12390.784029 kJ/mol
# Density = 1.857559 g / cm^3
# Si number density = 18.617964 Si / 1000 Ang^3
#
#
#
# Elastic Constant Matrix: (Units=GPa)
#
#
# Indices 1 2 3 4 5 6 
#
# 1 127.8637 53.9526 59.3415 0.0000 2.5844 0.0000
# 2 53.9526 97.1989 55.6537 0.0000 7.0129 0.0000
# 3 59.3415 55.6537 90.5480 0.0000 2.2064 0.0000
# 4 0.0000 0.0000 0.0000 44.7973 0.0000 -0.0660
# 5 2.5844 7.0129 2.2064 0.0000 35.2312 0.0000
# 6 0.0000 0.0000 0.0000 -0.0660 0.0000 25.6249
#
#
#
# Elastic Compliance Matrix: (Units=1/GPa)
#
#
# Indices 1 2 3 4 5 6 
#
# 1 0.011888 -0.003312 -0.005759 0.000000 0.000148 0.000000
# 2 -0.003312 0.017030 -0.008233 0.000000 -0.002631 0.000000
# 3 -0.005759 -0.008233 0.019858 0.000000 0.000818 0.000000
# 4 0.000000 0.000000 0.000000 0.022323 0.000000 0.000058
# 5 0.000148 -0.002631 0.000818 0.000000 0.028846 0.000000
# 6 0.000000 0.000000 0.000000 0.000058 0.000000 0.039025
#
#
# Mechanical properties :
#
#
# Convention : Reuss Voigt Hill
#
# Bulk Modulus (GPa) = 70.57497 72.61182 71.59339
# Shear Modulus (GPa) = 28.04262 30.90820 29.47541
#
# Velocity S-wave (km/s) = 3.88521 4.07889 3.98322
# Velocity P-wave (km/s) = 7.62336 7.82743 7.72607
#
# Compressibility (1/GPa) = 0.01416933
#
# Stress axis : x y z
#
# Youngs Moduli (GPa) = 84.11796 58.71884 50.35711
#
# Poissons Ratio (x) = 0.19448 0.29000
# Poissons Ratio (y) = 0.27860 0.41457
# Poissons Ratio (z) = 0.48443 0.48341
#
# Static dielectric constant tensor:
#      x y z
#    x 3.692400 0.000000 0.250730 
#    y 0.000000 3.676040 0.000000 
#    z 0.250730 0.000000 3.053970 
# 
# 
# High freq. dielectric constant tensor:
#      x y z
#    x 1.739880 0.000000 -0.012300 
#    y 0.000000 1.710370 0.000000 
#    z -0.012300 0.000000 1.709740 
# 
# From -- ./inp_files/126488.got.cif
#   From: 2010.06.25/outbox.cif.g09.slc.cpg/sg15_64_cif.got.tgz:126488.got - 2010.06.28 07:06:18.
