data_PCOD8131427
_publ_section_title
;
Structure prediction by ZEFSAII (Michael W. Deem and Ramdas Pophale) SiO2 
 PCOD8131427
Probable space group: C 2/C
;
_chemical_formula_sum "Si O2"
_cell_formula_units_Z 48
_cell_length_a 16.448308
_cell_length_b 24.665714
_cell_length_c 8.518726
_cell_angle_alpha 90.000000
_cell_angle_beta 59.959609
_cell_angle_gamma 90.000000
_cell_volume 2991.873988
_symmetry_space_group_name_H-M "C 2/C"
_symmetry_group_IT_number 15
_symmetry_cell_setting 'monoclinic'
loop_
_space_group_symop_operation_xyz
x,y,z
-x,y,1/2-z
-x,-y,-z
x,-y,1/2+z
1/2+x,1/2+y,z
1/2-x,1/2+y,1/2-z
1/2-x,1/2-y,-z
1/2+x,1/2-y,1/2+z
loop_
_atom_site_type_symbol
_atom_site_label
_atom_site_fract_x
_atom_site_fract_y
_atom_site_fract_z
Si Si1 0.070480 0.340251 0.467201
Si Si2 0.130566 0.630624 0.233051
Si Si3 0.759525 0.668004 0.088743
Si Si4 0.656363 0.923822 0.172102
Si Si5 0.395668 0.750707 0.292236
Si Si6 0.105555 0.519871 0.400919
O O1 0.143276 0.355457 0.536934
O O2 0.076932 0.384025 0.319874
O O3 0.100284 0.281014 0.378721
O O4 0.962923 0.338466 0.621457
O O5 0.218504 0.649531 0.253969
O O6 0.118453 0.566160 0.257624
O O7 0.656046 0.693270 0.181624
O O8 0.759862 0.616137 0.968075
O O9 0.838477 0.712406 0.970169
O O10 0.676908 0.970034 0.284898
O O11 0.620884 0.956966 0.057733
O O12 0.500000 0.738519 0.250000
O O13 0.000000 0.500000 0.500000
#
# Coordination Sequence:
#
# PCOD8131427 Si02
#       6
#     8   8   8   8   8   8
#     4  10  19  29  45  65 101 129 160 195 231 277
#     4  10  19  30  43  70  99 130 160 192 233 286
#     4   9  20  32  49  70  96 127 164 198 239 283
#     4  10  20  30  42  67  96 131 157 193 224 289
#     4  10  18  33  52  69  91 129 163 202 243 282
#     4  11  19  25  43  64  96 133 159 179 234 287
#
# _framework density 16.043458000000001
#
# number of rings (size 3 to 8) (size 9 to 14) (size 15 to 20)
#    0.000    2.000    3.333    1.500    4.667    0.667 
#    0.000    0.000    0.000    0.000    0.000    4.667 
#    0.000    0.000    0.000    0.333    0.000    0.000 
#
# Total GULP energy -297367.209220 kJ/mol
# GULP energy per Si atom -12390.300384 kJ/mol
# Density = 1.600694 g / cm^3
# Si number density = 16.043458 Si / 1000 Ang^3
#
#
#
# Elastic Constant Matrix: (Units=GPa)
#
#
# Indices 1 2 3 4 5 6 
#
# 1 75.3336 49.3600 40.0646 0.0000 4.3978 0.0000
# 2 49.3600 112.1667 49.4857 0.0000 1.5182 0.0000
# 3 40.0646 49.4857 66.5414 0.0000 13.3383 0.0000
# 4 0.0000 0.0000 0.0000 32.6327 0.0000 -1.3859
# 5 4.3978 1.5182 13.3383 0.0000 23.9408 0.0000
# 6 0.0000 0.0000 0.0000 -1.3859 0.0000 25.2502
#
#
#
# Elastic Compliance Matrix: (Units=1/GPa)
#
#
# Indices 1 2 3 4 5 6 
#
# 1 0.021726 -0.005467 -0.009327 0.000000 0.001552 0.000000
# 2 -0.005467 0.015256 -0.009074 0.000000 0.005093 0.000000
# 3 -0.009327 -0.009074 0.030320 0.000000 -0.014603 0.000000
# 4 0.000000 0.000000 0.000000 0.030716 0.000000 0.001686
# 5 0.001552 0.005093 -0.014603 0.000000 0.049298 0.000000
# 6 0.000000 0.000000 0.000000 0.001686 0.000000 0.039696
#
#
# Mechanical properties :
#
#
# Convention : Reuss Voigt Hill
#
# Bulk Modulus (GPa) = 51.11150 59.09580 55.10365
# Shear Modulus (GPa) = 20.72381 24.04018 22.38199
#
# Velocity S-wave (km/s) = 3.59796 3.87517 3.73914
# Velocity P-wave (km/s) = 7.01340 7.54569 7.28441
#
# Compressibility (1/GPa) = 0.01956507
#
# Stress axis : x y z
#
# Youngs Moduli (GPa) = 46.02804 65.54947 32.98203
#
# Poissons Ratio (x) = 0.35836 0.30761
# Poissons Ratio (y) = 0.25164 0.29930
# Poissons Ratio (z) = 0.42928 0.59483
#
# Static dielectric constant tensor:
#      x y z
#    x 2.806000 0.000000 0.349700 
#    y 0.000000 3.374310 0.000000 
#    z 0.349700 0.000000 3.196280 
# 
# 
# High freq. dielectric constant tensor:
#      x y z
#    x 1.571240 0.000000 0.036460 
#    y 0.000000 1.623070 0.000000 
#    z 0.036460 0.000000 1.608740 
# 
# From -- ./inp_files/41668.got.cif
#   From: 2010.06.25/outbox.cif.g09.slc.cpg/sg15_21_cif.got.tgz:41668.got - 2010.06.28 07:06:18.
