data_PCOD8131920
_publ_section_title
;
Structure prediction by ZEFSAII (Michael W. Deem and Ramdas Pophale) SiO2 
 PCOD8131920
Probable space group: C 2/C
;
_chemical_formula_sum "Si O2"
_cell_formula_units_Z 60
_cell_length_a 14.393056
_cell_length_b 18.865601
_cell_length_c 12.654396
_cell_angle_alpha 90.000000
_cell_angle_beta 75.304264
_cell_angle_gamma 90.000000
_cell_volume 3323.688147
_symmetry_space_group_name_H-M "C 2/C"
_symmetry_group_IT_number 15
_symmetry_cell_setting 'monoclinic'
loop_
_space_group_symop_operation_xyz
x,y,z
-x,y,1/2-z
-x,-y,-z
x,-y,1/2+z
1/2+x,1/2+y,z
1/2-x,1/2+y,1/2-z
1/2-x,1/2-y,-z
1/2+x,1/2-y,1/2+z
loop_
_atom_site_type_symbol
_atom_site_label
_atom_site_fract_x
_atom_site_fract_y
_atom_site_fract_z
Si Si1 0.856870 0.956273 0.743004
Si Si2 0.500000 0.010450 0.250000
Si Si3 0.118463 0.752890 0.604106
Si Si4 0.807174 0.750323 0.149274
Si Si5 0.634026 0.905597 0.087162
Si Si6 0.349539 0.097706 0.163579
Si Si7 0.838552 0.099598 0.641364
Si Si8 0.965300 0.894713 0.905072
O O1 0.750635 0.926108 0.757021
O O2 0.897850 0.941447 0.847414
O O3 0.925146 0.921131 0.633881
O O4 0.852928 0.040995 0.727095
O O5 0.436551 0.060059 0.195224
O O6 0.564131 0.963444 0.155035
O O7 0.169316 0.769081 0.478575
O O8 0.192869 0.766563 0.679713
O O9 0.083013 0.671391 0.618428
O O10 0.035070 0.812177 0.634891
O O11 0.863123 0.682421 0.178178
O O12 0.835309 0.823237 0.201905
O O13 0.737561 0.910090 0.110825
O O14 0.648602 0.921679 0.959983
O O15 0.927591 0.094661 0.534414
#
# Coordination Sequence:
#
# PCOD8131920 Si02
#       8
#     8   4   8   8   8   8   8   8
#     4  11  20  30  52  81 111 133 168 211 268 315
#     4  12  24  34  54  78 102 144 180 206 270 312
#     4   8  14  30  53  79  99 126 166 216 269 293
#     4   8  15  30  55  71  99 137 168 209 255 304
#     4  10  20  35  56  78 105 133 174 229 261 300
#     4  11  20  38  52  77 107 140 175 217 258 311
#     4  10  18  35  54  79 107 138 174 213 262 309
#     4  10  19  32  52  82 108 139 166 213 265 313
#
# _framework density 18.052235
#
# number of rings (size 3 to 8) (size 9 to 14) (size 15 to 20)
#    0.000    2.133    4.000    2.400    0.000    1.067 
#    0.000    1.333    0.000    0.000    0.000   10.267 
#    0.000    0.000    0.000    0.000    0.000    0.000 
#
# Total GULP energy -371798.860943 kJ/mol
# GULP energy per Si atom -12393.295365 kJ/mol
# Density = 1.801115 g / cm^3
# Si number density = 18.052235 Si / 1000 Ang^3
#
#
#
# Elastic Constant Matrix: (Units=GPa)
#
#
# Indices 1 2 3 4 5 6 
#
# 1 68.6045 43.3632 23.3322 0.0000 -11.9706 0.0000
# 2 43.3632 150.7321 36.2433 0.0000 -1.4442 0.0000
# 3 23.3322 36.2433 38.4285 0.0000 -5.0930 0.0000
# 4 0.0000 0.0000 0.0000 18.3499 0.0000 15.8023
# 5 -11.9706 -1.4442 -5.0930 0.0000 23.2365 0.0000
# 6 0.0000 0.0000 0.0000 15.8023 0.0000 3.2379
#
#
#
# Elastic Compliance Matrix: (Units=1/GPa)
#
#
# Indices 1 2 3 4 5 6 
#
# 1 0.021500 -0.004202 -0.007887 0.000000 0.009086 0.000000
# 2 -0.004202 0.009438 -0.006756 0.000000 -0.003059 0.000000
# 3 -0.007887 -0.006756 0.037683 0.000000 0.003777 0.000000
# 4 0.000000 0.000000 0.000000 -0.017015 0.000000 0.083040
# 5 0.009086 -0.003059 0.003777 0.000000 0.048354 0.000000
# 6 0.000000 0.000000 0.000000 0.083040 0.000000 -0.096428
#
#
# Mechanical properties :
#
#
# Convention : Reuss Voigt Hill
#
# Bulk Modulus (GPa) = 32.32849 51.51582 41.92215
# Shear Modulus (GPa) = 97.02836 19.28663 58.15750
#
# Velocity S-wave (km/s) = 7.33930 3.27215 5.68209
# Velocity P-wave (km/s) = 9.47458 6.54790 8.14379
#
# Compressibility (1/GPa) = 0.03093247
#
# Stress axis : x y z
#
# Youngs Moduli (GPa) = 46.51207 105.95296 26.53720
#
# Poissons Ratio (x) = 0.44519 0.20929
# Poissons Ratio (y) = 0.19543 0.17928
# Poissons Ratio (z) = 0.36683 0.71579
#
# Static dielectric constant tensor:
#      x y z
#    x 3.219050 0.000000 -0.192230 
#    y 0.000000 3.717800 0.000000 
#    z -0.192230 0.000000 3.047620 
# 
# 
# High freq. dielectric constant tensor:
#      x y z
#    x 1.681840 0.000000 -0.021190 
#    y 0.000000 1.719300 0.000000 
#    z -0.021190 0.000000 1.665120 
# 
# From -- ./inp_files/98305.got.cif
#   From: 2010.06.25/outbox.cif.g09.slc.cpg/sg15_50_cif.got.tgz:98305.got - 2010.06.28 07:06:18.
