data_PCOD8131236
_publ_section_title
;
Structure prediction by ZEFSAII (Michael W. Deem and Ramdas Pophale) SiO2 
 PCOD8131236
Probable space group: C 2/C
;
_chemical_formula_sum "Si O2"
_cell_formula_units_Z 64
_cell_length_a 20.720731
_cell_length_b 13.320461
_cell_length_c 31.513180
_cell_angle_alpha 90.000000
_cell_angle_beta 155.215232
_cell_angle_gamma 90.000000
_cell_volume 3646.271096
_symmetry_space_group_name_H-M "C 2/C"
_symmetry_group_IT_number 15
_symmetry_cell_setting 'monoclinic'
loop_
_space_group_symop_operation_xyz
x,y,z
-x,y,1/2-z
-x,-y,-z
x,-y,1/2+z
1/2+x,1/2+y,z
1/2-x,1/2+y,1/2-z
1/2-x,1/2-y,-z
1/2+x,1/2-y,1/2+z
loop_
_atom_site_type_symbol
_atom_site_label
_atom_site_fract_x
_atom_site_fract_y
_atom_site_fract_z
Si Si1 0.447323 0.558727 0.033742
Si Si2 0.105339 0.366655 0.203578
Si Si3 0.890515 0.882543 0.648123
Si Si4 0.814800 0.680580 0.577349
Si Si5 0.065746 0.547655 0.974328
Si Si6 0.439442 0.860962 0.939638
Si Si7 0.060203 0.867759 0.063798
Si Si8 0.115857 0.865732 0.708149
O O1 0.442463 0.439544 0.019650
O O2 0.597783 0.575983 0.152935
O O3 0.299834 0.598456 0.971563
O O4 0.466289 0.620258 0.001911
O O5 0.265133 0.400296 0.320365
O O6 0.113982 0.251008 0.195401
O O7 0.966241 0.381121 0.154030
O O8 0.069840 0.431312 0.140313
O O9 0.857644 0.764131 0.638476
O O10 0.730971 0.942670 0.550539
O O11 0.000000 0.926460 0.750000
O O12 0.971643 0.896104 0.651344
O O13 0.750000 0.750000 0.500000
O O14 0.048875 0.627152 0.002708
O O15 0.058537 0.434127 0.987273
O O16 0.475271 0.747743 0.946215
O O17 0.269781 0.896188 0.824446
#
# Coordination Sequence:
#
# PCOD8131236 Si02
#       8
#     8   8   8   8   8   8   8   8
#     4  11  20  35  52  77 107 144 172 215 267 312
#     4  10  19  33  51  80 104 134 167 221 264 310
#     4  11  19  30  51  82 105 126 161 223 271 311
#     4  11  19  31  54  82 104 132 168 224 269 310
#     4  11  19  32  51  77 108 132 172 216 266 308
#     4  10  21  32  50  77 101 142 171 213 256 314
#     4  10  23  35  51  75 109 145 178 210 257 324
#     4  10  18  32  53  77 107 129 171 216 265 309
#
# _framework density 17.552178999999999
#
# number of rings (size 3 to 8) (size 9 to 14) (size 15 to 20)
#    0.000    1.500    5.000    2.250    3.500    0.000 
#    0.000    0.000    0.000    3.000    6.500    0.000 
#    0.000    0.000    0.000    0.000    0.000    0.000 
#
# Total GULP energy -396672.900557 kJ/mol
# GULP energy per Si atom -12396.028142 kJ/mol
# Density = 1.751223 g / cm^3
# Si number density = 17.552179 Si / 1000 Ang^3
#
#
#
# Elastic Constant Matrix: (Units=GPa)
#
#
# Indices 1 2 3 4 5 6 
#
# 1 81.5520 46.5782 38.7259 0.0024 -3.0874 -0.0001
# 2 46.5782 86.0085 30.6940 0.0043 6.2748 0.0000
# 3 38.7259 30.6940 77.2108 0.0203 -8.6241 -0.0005
# 4 0.0024 0.0043 0.0203 19.1066 -0.0025 3.0084
# 5 -3.0874 6.2748 -8.6241 -0.0025 30.8124 -0.0008
# 6 -0.0001 0.0000 -0.0005 3.0084 -0.0008 28.7464
#
#
#
# Elastic Compliance Matrix: (Units=1/GPa)
#
#
# Indices 1 2 3 4 5 6 
#
# 1 0.020548 -0.008952 -0.006517 0.000007 0.002058 -0.000001
# 2 -0.008952 0.018054 -0.003301 0.000000 -0.005498 0.000000
# 3 -0.006517 -0.003301 0.018101 -0.000017 0.005085 0.000002
# 4 0.000007 0.000000 -0.000017 0.053215 0.000000 -0.005569
# 5 0.002058 -0.005498 0.005085 0.000000 0.035204 0.000001
# 6 -0.000001 0.000000 0.000002 -0.005569 0.000001 0.035370
#
#
# Mechanical properties :
#
#
# Convention : Reuss Voigt Hill
#
# Bulk Modulus (GPa) = 52.18822 52.97417 52.58119
# Shear Modulus (GPa) = 22.27975 24.31795 23.29885
#
# Velocity S-wave (km/s) = 3.56665 3.72622 3.64731
# Velocity P-wave (km/s) = 6.83806 6.98280 6.91081
#
# Compressibility (1/GPa) = 0.01916141
#
# Stress axis : x y z
#
# Youngs Moduli (GPa) = 48.66707 55.38963 55.24624
#
# Poissons Ratio (x) = 0.49585 0.36006
# Poissons Ratio (y) = 0.43567 0.18238
# Poissons Ratio (z) = 0.31718 0.18285
#
# Static dielectric constant tensor:
#      x y z
#    x 3.204250 0.000000 -0.138930 
#    y 0.000000 3.134610 -0.000010 
#    z -0.138930 -0.000010 3.526450 
# 
# 
# High freq. dielectric constant tensor:
#      x y z
#    x 1.670980 0.000000 -0.019010 
#    y 0.000000 1.650430 0.000000 
#    z -0.019010 0.000000 1.689690 
# 
# From -- ./inp_files/316387.got.cif
#   From: 2010.06.25/outbox.cif.g09.slc.cpg/sg15_159_cif.got.tgz:316387.got - 2010.06.28 07:06:18.
