data_PCOD8131423
_publ_section_title
;
Structure prediction by ZEFSAII (Michael W. Deem and Ramdas Pophale) SiO2 
 PCOD8131423
Probable space group: C 2/C
;
_chemical_formula_sum "Si O2"
_cell_formula_units_Z 56
_cell_length_a 5.138215
_cell_length_b 23.466204
_cell_length_c 26.544689
_cell_angle_alpha 90.000000
_cell_angle_beta 97.690288
_cell_angle_gamma 90.000000
_cell_volume 3171.823370
_symmetry_space_group_name_H-M "C 2/C"
_symmetry_group_IT_number 15
_symmetry_cell_setting 'monoclinic'
loop_
_space_group_symop_operation_xyz
x,y,z
-x,y,1/2-z
-x,-y,-z
x,-y,1/2+z
1/2+x,1/2+y,z
1/2-x,1/2+y,1/2-z
1/2-x,1/2-y,-z
1/2+x,1/2-y,1/2+z
loop_
_atom_site_type_symbol
_atom_site_label
_atom_site_fract_x
_atom_site_fract_y
_atom_site_fract_z
Si Si1 0.243506 0.736779 0.892531
Si Si2 0.166192 0.861686 0.866628
Si Si3 0.477184 0.712994 0.693412
Si Si4 0.250374 0.175183 0.905998
Si Si5 0.275762 0.570249 0.523666
Si Si6 0.236635 0.940178 0.959792
Si Si7 0.126888 0.657135 0.305455
O O1 0.249927 0.722196 0.831645
O O2 0.533940 0.720663 0.921739
O O3 0.166849 0.802580 0.898067
O O4 0.041797 0.699703 0.920272
O O5 0.918788 0.867239 0.822295
O O6 0.147453 0.913292 0.905097
O O7 0.438410 0.866180 0.844060
O O8 0.500000 0.686900 0.750000
O O9 0.296528 0.669927 0.655935
O O10 0.339478 0.774710 0.693452
O O11 0.221176 0.114173 0.930344
O O12 0.262666 0.507996 0.547992
O O13 0.538856 0.578411 0.498599
O O14 0.026067 0.581745 0.481642
O O15 0.000000 0.635776 0.250000
#
# Coordination Sequence:
#
# PCOD8131423 Si02
#       7
#     8   8   8   8   8   8   8
#     4   9  18  30  48  76 107 134 163 203 259 314
#     4  11  18  35  52  79 110 134 176 211 261 303
#     4   8  17  29  49  75 103 139 167 202 246 309
#     4  10  18  33  51  73 109 133 166 219 251 309
#     4  10  21  39  55  78  97 134 189 216 264 297
#     4  10  22  37  59  75  98 137 182 226 249 317
#     4  10  19  31  53  79 112 139 170 204 252 317
#
# _framework density 17.655457999999999
#
# number of rings (size 3 to 8) (size 9 to 14) (size 15 to 20)
#    0.857    1.429    1.429    2.143    0.000    0.571 
#    0.000    4.286    0.000    1.714    0.000    0.000 
#    0.000    0.000    0.000    0.000    0.000    0.000 
#
# Total GULP energy -346952.384259 kJ/mol
# GULP energy per Si atom -12391.156581 kJ/mol
# Density = 1.761527 g / cm^3
# Si number density = 17.655458 Si / 1000 Ang^3
#
#
#
# Elastic Constant Matrix: (Units=GPa)
#
#
# Indices 1 2 3 4 5 6 
#
# 1 98.5307 22.7319 10.5008 0.0000 1.9294 0.0000
# 2 22.7319 59.0536 43.3102 0.0000 3.1845 0.0000
# 3 10.5008 43.3102 67.8853 0.0000 8.7943 0.0000
# 4 0.0000 0.0000 0.0000 18.0374 0.0000 0.8602
# 5 1.9294 3.1845 8.7943 0.0000 24.4236 0.0000
# 6 0.0000 0.0000 0.0000 0.8602 0.0000 18.0263
#
#
#
# Elastic Compliance Matrix: (Units=1/GPa)
#
#
# Indices 1 2 3 4 5 6 
#
# 1 0.011289 -0.005828 0.002086 0.000000 -0.000883 0.000000
# 2 -0.005828 0.035092 -0.021979 0.000000 0.003799 0.000000
# 3 0.002086 -0.021979 0.029454 0.000000 -0.007905 0.000000
# 4 0.000000 0.000000 0.000000 0.055567 0.000000 -0.002652
# 5 -0.000883 0.003799 -0.007905 0.000000 0.043365 0.000000
# 6 0.000000 0.000000 0.000000 -0.002652 0.000000 0.055601
#
#
# Mechanical properties :
#
#
# Convention : Reuss Voigt Hill
#
# Bulk Modulus (GPa) = 40.99388 42.06173 41.52781
# Shear Modulus (GPa) = 17.24499 22.02591 19.63545
#
# Velocity S-wave (km/s) = 3.12869 3.53589 3.33850
# Velocity P-wave (km/s) = 6.02668 6.36752 6.19944
#
# Compressibility (1/GPa) = 0.02439388
#
# Stress axis : x y z
#
# Youngs Moduli (GPa) = 88.58469 28.49671 33.95085
#
# Poissons Ratio (x) = 0.16608 -0.07084
# Poissons Ratio (y) = 0.51627 0.74620
# Poissons Ratio (z) = -0.18483 0.62633
#
# Static dielectric constant tensor:
#      x y z
#    x 3.408660 0.000000 -0.057390 
#    y 0.000000 2.973320 0.000000 
#    z -0.057390 0.000000 3.117140 
# 
# 
# High freq. dielectric constant tensor:
#      x y z
#    x 1.700110 0.000000 -0.006920 
#    y 0.000000 1.645420 0.000000 
#    z -0.006920 0.000000 1.665230 
# 
# From -- ./inp_files/261570.got.cif
#   From: 2010.06.25/outbox.cif.g09.slc.cpg/sg15_131_cif.got.tgz:261570.got - 2010.06.28 07:06:18.
