data_PCOD8131225
_publ_section_title
;
Structure prediction by ZEFSAII (Michael W. Deem and Ramdas Pophale) SiO2 
 PCOD8131225
Probable space group: C 2/C
;
_chemical_formula_sum "Si O2"
_cell_formula_units_Z 60
_cell_length_a 16.040079
_cell_length_b 14.534435
_cell_length_c 21.088364
_cell_angle_alpha 90.000000
_cell_angle_beta 141.150307
_cell_angle_gamma 90.000000
_cell_volume 3083.959323
_symmetry_space_group_name_H-M "C 2/C"
_symmetry_group_IT_number 15
_symmetry_cell_setting 'monoclinic'
loop_
_space_group_symop_operation_xyz
x,y,z
-x,y,1/2-z
-x,-y,-z
x,-y,1/2+z
1/2+x,1/2+y,z
1/2-x,1/2+y,1/2-z
1/2-x,1/2-y,-z
1/2+x,1/2-y,1/2+z
loop_
_atom_site_type_symbol
_atom_site_label
_atom_site_fract_x
_atom_site_fract_y
_atom_site_fract_z
Si Si1 0.238997 0.476485 0.243738
Si Si2 0.501334 0.753772 0.955778
Si Si3 0.052068 0.512804 0.378067
Si Si4 0.500000 0.137734 0.750000
Si Si5 0.286389 0.215701 0.712752
Si Si6 0.373364 0.947653 0.449258
Si Si7 0.966222 0.296229 0.795927
Si Si8 0.831302 0.158069 0.350225
O O1 0.272444 0.381021 0.297449
O O2 0.247498 0.463918 0.171958
O O3 0.340646 0.554706 0.327690
O O4 0.091154 0.506710 0.174002
O O5 0.347216 0.771629 0.885922
O O6 0.506224 0.737703 0.882235
O O7 0.591651 0.839935 0.028014
O O8 0.560909 0.667074 0.029471
O O9 0.076846 0.427311 0.346014
O O10 0.160764 0.514671 0.499881
O O11 0.055332 0.610452 0.344226
O O12 0.388042 0.201918 0.714933
O O13 0.365944 0.270085 0.814445
O O14 0.500000 0.000000 0.500000
O O15 0.811761 0.319851 0.705902
O O16 0.000000 0.242153 0.750000
#
# Coordination Sequence:
#
# PCOD8131225 Si02
#       8
#     8   8   8   4   8   8   8   8
#     4   9  17  31  55  75 103 142 176 231 271 322
#     4  10  20  33  53  81 115 143 185 227 276 344
#     4   8  15  26  49  78 101 127 183 231 271 311
#     4  10  18  32  52  78 114 142 182 248 270 316
#     4  10  20  35  54  81 110 146 188 228 281 324
#     4   9  15  29  53  77  99 136 188 231 269 313
#     4   9  17  31  52  80 110 137 177 232 277 317
#     4  10  20  35  54  82 109 143 186 231 274 333
#
# _framework density 19.45551
#
# number of rings (size 3 to 8) (size 9 to 14) (size 15 to 20)
#    0.000    2.667    2.000    2.400    0.000    1.067 
#    0.000    0.667    0.000    0.000    6.933    0.000 
#    0.000    0.000    0.000    0.000    0.000    0.000 
#
# Total GULP energy -371723.882804 kJ/mol
# GULP energy per Si atom -12390.796093 kJ/mol
# Density = 1.941123 g / cm^3
# Si number density = 19.455510 Si / 1000 Ang^3
#
#
#
# Elastic Constant Matrix: (Units=GPa)
#
#
# Indices 1 2 3 4 5 6 
#
# 1 91.8221 25.8029 39.2423 -0.0001 -26.7927 0.0000
# 2 25.8029 63.9678 15.9522 -0.0001 -12.5555 0.0000
# 3 39.2423 15.9522 94.4417 -0.0003 -24.4819 -0.0002
# 4 -0.0001 -0.0001 -0.0003 26.5096 -0.0001 -0.3197
# 5 -26.7927 -12.5555 -24.4819 -0.0001 24.2285 0.0000
# 6 0.0000 0.0000 -0.0002 -0.3197 0.0000 20.0052
#
#
#
# Elastic Compliance Matrix: (Units=1/GPa)
#
#
# Indices 1 2 3 4 5 6 
#
# 1 0.017294 -0.003425 -0.002859 0.000000 0.014461 0.000000
# 2 -0.003425 0.018128 -0.000251 0.000000 0.005353 0.000000
# 3 -0.002859 -0.000251 0.014857 0.000000 0.011721 0.000000
# 4 0.000000 0.000000 0.000000 0.037729 0.000000 0.000603
# 5 0.014461 0.005353 0.011721 0.000000 0.071883 0.000000
# 6 0.000000 0.000000 0.000000 0.000603 0.000000 0.049997
#
#
# Mechanical properties :
#
#
# Convention : Reuss Voigt Hill
#
# Bulk Modulus (GPa) = 26.87483 45.80294 36.33888
# Shear Modulus (GPa) = 21.24388 25.43093 23.33741
#
# Velocity S-wave (km/s) = 3.30801 3.61935 3.46718
# Velocity P-wave (km/s) = 5.33236 6.40779 5.89465
#
# Compressibility (1/GPa) = 0.03720954
#
# Stress axis : x y z
#
# Youngs Moduli (GPa) = 57.82186 55.16438 67.30670
#
# Poissons Ratio (x) = 0.18892 0.19243
# Poissons Ratio (y) = 0.19802 0.01691
# Poissons Ratio (z) = 0.16531 0.01386
#
# Static dielectric constant tensor:
#      x y z
#    x 3.274930 0.000000 -0.525350 
#    y 0.000000 3.601400 0.000000 
#    z -0.525350 0.000000 3.812050 
# 
# 
# High freq. dielectric constant tensor:
#      x y z
#    x 1.717850 0.000000 -0.037860 
#    y 0.000000 1.745090 0.000000 
#    z -0.037860 0.000000 1.753380 
# 
# From -- ./inp_files/248992.got.cif
#   From: 2010.06.25/outbox.cif.g09.slc.cpg/sg15_125_cif.got.tgz:248992.got - 2010.06.28 07:06:18.
