data_PCOD8131538
_publ_section_title
;
Structure prediction by ZEFSAII (Michael W. Deem and Ramdas Pophale) SiO2 
 PCOD8131538
Probable space group: C 2/C
;
_chemical_formula_sum "Si O2"
_cell_formula_units_Z 48
_cell_length_a 24.205650
_cell_length_b 11.560481
_cell_length_c 18.294415
_cell_angle_alpha 90.000000
_cell_angle_beta 29.139165
_cell_angle_gamma 90.000000
_cell_volume 2492.757198
_symmetry_space_group_name_H-M "C 2/C"
_symmetry_group_IT_number 15
_symmetry_cell_setting 'monoclinic'
loop_
_space_group_symop_operation_xyz
x,y,z
-x,y,1/2-z
-x,-y,-z
x,-y,1/2+z
1/2+x,1/2+y,z
1/2-x,1/2+y,1/2-z
1/2-x,1/2-y,-z
1/2+x,1/2-y,1/2+z
loop_
_atom_site_type_symbol
_atom_site_label
_atom_site_fract_x
_atom_site_fract_y
_atom_site_fract_z
Si Si1 0.130211 0.197439 0.061249
Si Si2 0.548716 0.332991 0.953874
Si Si3 0.908751 0.421990 0.063273
Si Si4 0.623218 0.760577 0.223212
Si Si5 0.646433 0.443665 0.402977
Si Si6 0.452863 0.932993 0.382505
O O1 0.260258 0.178377 0.932582
O O2 0.097386 0.103966 0.037078
O O3 0.066431 0.194491 0.216292
O O4 0.136076 0.329521 0.026156
O O5 0.544578 0.208301 0.996349
O O6 0.621421 0.324122 0.794523
O O7 0.614213 0.421295 0.931953
O O8 0.420124 0.374956 0.084827
O O9 0.781988 0.423988 0.244168
O O10 0.896961 0.463509 0.992680
O O11 0.000000 0.500000 0.000000
O O12 0.547785 0.874329 0.325578
O O13 0.500000 0.979263 0.250000
#
# Coordination Sequence:
#
# PCOD8131538 Si02
#       6
#     8   8   8   8   8   8
#     4  10  18  33  58  86 118 147 191 247 297 339
#     4  11  23  36  57  90 122 158 196 246 304 357
#     4  12  22  37  64  84 117 158 198 244 299 363
#     4  10  18  33  57  89 111 148 198 243 290 343
#     4  11  23  37  56  90 125 153 196 251 302 356
#     4  10  20  35  58  83 109 149 197 243 284 347
#
# _framework density 19.255787000000002
#
# number of rings (size 3 to 8) (size 9 to 14) (size 15 to 20)
#    0.000    1.333    5.000    1.000    2.333    0.000 
#    0.000    0.000    7.333    1.000    0.000    0.000 
#    0.000    0.000    0.000    0.000    0.000    0.000 
#
# Total GULP energy -297321.391133 kJ/mol
# GULP energy per Si atom -12388.391297 kJ/mol
# Density = 1.921196 g / cm^3
# Si number density = 19.255787 Si / 1000 Ang^3
#
#
#
# Elastic Constant Matrix: (Units=GPa)
#
#
# Indices 1 2 3 4 5 6 
#
# 1 75.1898 42.9171 30.1455 0.0000 13.2161 0.0000
# 2 42.9171 112.0242 44.8985 0.0000 12.3236 0.0000
# 3 30.1455 44.8985 75.0750 0.0000 11.6015 0.0000
# 4 0.0000 0.0000 0.0000 28.1345 0.0000 9.5152
# 5 13.2161 12.3236 11.6015 0.0000 43.0821 0.0000
# 6 0.0000 0.0000 0.0000 9.5152 0.0000 38.7961
#
#
#
# Elastic Compliance Matrix: (Units=1/GPa)
#
#
# Indices 1 2 3 4 5 6 
#
# 1 0.018308 -0.005152 -0.003787 0.000000 -0.003122 0.000000
# 2 -0.005152 0.013289 -0.005775 0.000000 -0.000665 0.000000
# 3 -0.003787 -0.005775 0.018635 0.000000 -0.002204 0.000000
# 4 0.000000 0.000000 0.000000 0.038759 0.000000 -0.009506
# 5 -0.003122 -0.000665 -0.002204 0.000000 0.024953 0.000000
# 6 0.000000 0.000000 0.000000 -0.009506 0.000000 0.028107
#
#
# Mechanical properties :
#
#
# Convention : Reuss Voigt Hill
#
# Bulk Modulus (GPa) = 48.07389 55.35678 51.71534
# Shear Modulus (GPa) = 28.02451 31.62440 29.82446
#
# Velocity S-wave (km/s) = 3.81908 4.05697 3.93982
# Velocity P-wave (km/s) = 6.66838 7.12431 6.90012
#
# Compressibility (1/GPa) = 0.02080131
#
# Stress axis : x y z
#
# Youngs Moduli (GPa) = 54.62133 75.25303 53.66114
#
# Poissons Ratio (x) = 0.38773 0.20324
# Poissons Ratio (y) = 0.28143 0.30992
# Poissons Ratio (z) = 0.20687 0.43462
#
# Static dielectric constant tensor:
#      x y z
#    x 3.817790 0.000000 -0.103770 
#    y 0.000000 3.364950 0.000000 
#    z -0.103770 0.000000 3.676570 
# 
# 
# High freq. dielectric constant tensor:
#      x y z
#    x 1.770010 0.000000 -0.016720 
#    y 0.000000 1.717220 0.000000 
#    z -0.016720 0.000000 1.756610 
# 
# From -- ./inp_files/219240.got.cif
#   From: 2010.06.25/outbox.cif.g09.slc.cpg/sg15_110_cif.got.tgz:219240.got - 2010.06.28 07:06:18.
