data_PCOD8131060
_publ_section_title
;
Structure prediction by ZEFSAII (Michael W. Deem and Ramdas Pophale) SiO2 
 PCOD8131060
Probable space group: C 2/C
;
_chemical_formula_sum "Si O2"
_cell_formula_units_Z 64
_cell_length_a 11.641374
_cell_length_b 18.441156
_cell_length_c 16.524036
_cell_angle_alpha 90.000000
_cell_angle_beta 83.926467
_cell_angle_gamma 90.000000
_cell_volume 3527.474813
_symmetry_space_group_name_H-M "C 2/C"
_symmetry_group_IT_number 15
_symmetry_cell_setting 'monoclinic'
loop_
_space_group_symop_operation_xyz
x,y,z
-x,y,1/2-z
-x,-y,-z
x,-y,1/2+z
1/2+x,1/2+y,z
1/2-x,1/2+y,1/2-z
1/2-x,1/2-y,-z
1/2+x,1/2-y,1/2+z
loop_
_atom_site_type_symbol
_atom_site_label
_atom_site_fract_x
_atom_site_fract_y
_atom_site_fract_z
Si Si1 0.708953 0.473624 0.191126
Si Si2 0.608894 0.200454 0.580109
Si Si3 0.895046 0.841545 0.202979
Si Si4 0.067573 0.389477 0.326255
Si Si5 0.869731 0.832725 0.027063
Si Si6 0.041241 0.961020 0.575332
Si Si7 0.320560 0.754889 0.256860
Si Si8 0.618405 0.599676 0.289697
O O1 0.660616 0.414449 0.257435
O O2 0.839301 0.451188 0.153884
O O3 0.619943 0.484356 0.123225
O O4 0.714006 0.549442 0.238984
O O5 0.521417 0.131315 0.594208
O O6 0.734359 0.168018 0.555749
O O7 0.579583 0.255907 0.509602
O O8 0.603163 0.244232 0.666377
O O9 0.933949 0.854231 0.106340
O O10 0.810680 0.772369 0.209434
O O11 0.000000 0.816949 0.250000
O O12 0.137692 0.315977 0.307413
O O13 0.000000 0.415076 0.250000
O O14 0.884258 0.891057 0.954967
O O15 0.919523 0.934474 0.622516
O O16 0.000000 0.000000 0.500000
O O17 0.326952 0.679213 0.208985
O O18 0.500000 0.601633 0.250000
#
# Coordination Sequence:
#
# PCOD8131060 Si02
#       8
#     8   8   8   8   8   8   8   8
#     4  10  20  33  52  74  98 132 172 207 247 301
#     4   9  17  31  52  76  98 123 162 212 253 293
#     4  10  19  34  51  71 101 134 164 201 253 310
#     4   9  17  32  53  75 100 133 169 207 252 300
#     4  10  19  31  52  76  98 126 165 208 252 297
#     4  11  21  32  49  73 102 132 165 209 256 298
#     4   9  17  30  53  76  95 125 171 214 248 291
#     4  10  18  31  52  74  97 125 168 218 252 287
#
# _framework density 18.14329
#
# number of rings (size 3 to 8) (size 9 to 14) (size 15 to 20)
#    0.000    2.250    0.000    6.750    0.000    0.000 
#    0.000    2.500    0.000    4.500    0.000    0.000 
#    0.000    0.000    0.000    0.000    0.000    0.000 
#
# Total GULP energy -396581.912752 kJ/mol
# GULP energy per Si atom -12393.184773 kJ/mol
# Density = 1.810200 g / cm^3
# Si number density = 18.143290 Si / 1000 Ang^3
#
#
#
# Elastic Constant Matrix: (Units=GPa)
#
#
# Indices 1 2 3 4 5 6 
#
# 1 65.5839 38.7563 18.4043 0.0000 -4.5545 0.0000
# 2 38.7563 90.4166 26.8723 0.0000 -1.1472 0.0000
# 3 18.4043 26.8723 74.5192 0.0000 0.9457 0.0000
# 4 0.0000 0.0000 0.0000 28.9863 0.0000 -4.6936
# 5 -4.5545 -1.1472 0.9457 0.0000 28.4740 0.0000
# 6 0.0000 0.0000 0.0000 -4.6936 0.0000 26.7112
#
#
#
# Elastic Compliance Matrix: (Units=1/GPa)
#
#
# Indices 1 2 3 4 5 6 
#
# 1 0.020991 -0.008295 -0.002232 0.000000 0.003097 0.000000
# 2 -0.008295 0.015677 -0.003597 0.000000 -0.000576 0.000000
# 3 -0.002232 -0.003597 0.015281 0.000000 -0.001010 0.000000
# 4 0.000000 0.000000 0.000000 0.035509 0.000000 0.006240
# 5 0.003097 -0.000576 -0.001010 0.000000 0.035626 0.000000
# 6 0.000000 0.000000 0.000000 0.006240 0.000000 0.038534
#
#
# Mechanical properties :
#
#
# Convention : Reuss Voigt Hill
#
# Bulk Modulus (GPa) = 42.19450 44.28728 43.24089
# Shear Modulus (GPa) = 25.28226 26.60008 25.94117
#
# Velocity S-wave (km/s) = 3.73698 3.83314 3.78536
# Velocity P-wave (km/s) = 6.47509 6.63727 6.55668
#
# Compressibility (1/GPa) = 0.02369977
#
# Stress axis : x y z
#
# Youngs Moduli (GPa) = 47.63961 63.78649 65.44171
#
# Poissons Ratio (x) = 0.52910 0.14609
# Poissons Ratio (y) = 0.39516 0.23543
# Poissons Ratio (z) = 0.10635 0.22947
#
# Static dielectric constant tensor:
#      x y z
#    x 1.296510 0.000000 2.204940 
#    y 0.000000 3.531970 0.000000 
#    z 2.204940 0.000000 0.716810 
# 
# 
# High freq. dielectric constant tensor:
#      x y z
#    x 1.680380 0.000000 -0.018730 
#    y 0.000000 1.696590 0.000000 
#    z -0.018730 0.000000 1.699400 
# 
# From -- ./inp_files/199145.got.cif
#   From: 2010.06.25/outbox.cif.g09.slc.cpg/sg15_100_cif.got.tgz:199145.got - 2010.06.28 07:06:18.
