data_PCOD8131597
_publ_section_title
;
Structure prediction by ZEFSAII (Michael W. Deem and Ramdas Pophale) SiO2 
 PCOD8131597
Probable space group: C 2/C
;
_chemical_formula_sum "Si O2"
_cell_formula_units_Z 44
_cell_length_a 9.463981
_cell_length_b 17.938454
_cell_length_c 13.446761
_cell_angle_alpha 90.000000
_cell_angle_beta 99.692253
_cell_angle_gamma 90.000000
_cell_volume 2250.260906
_symmetry_space_group_name_H-M "C 2/C"
_symmetry_group_IT_number 15
_symmetry_cell_setting 'monoclinic'
loop_
_space_group_symop_operation_xyz
x,y,z
-x,y,1/2-z
-x,-y,-z
x,-y,1/2+z
1/2+x,1/2+y,z
1/2-x,1/2+y,1/2-z
1/2-x,1/2-y,-z
1/2+x,1/2-y,1/2+z
loop_
_atom_site_type_symbol
_atom_site_label
_atom_site_fract_x
_atom_site_fract_y
_atom_site_fract_z
Si Si1 0.280340 0.735474 0.277996
Si Si2 0.500000 0.138923 0.250000
Si Si3 0.068848 0.231993 0.411329
Si Si4 0.603027 0.970221 0.597552
Si Si5 0.835809 0.602936 0.753144
Si Si6 0.737472 0.872501 0.464484
O O1 0.402543 0.714806 0.372818
O O2 0.333677 0.715411 0.173981
O O3 0.253665 0.824415 0.284943
O O4 0.137302 0.690654 0.286117
O O5 0.484249 0.086095 0.343308
O O6 0.119477 0.177202 0.506040
O O7 0.097505 0.317582 0.447912
O O8 0.731553 0.928334 0.556889
O O9 0.500000 0.000000 0.500000
O O10 0.674627 0.035263 0.671418
O O11 0.761114 0.581108 0.638894
O O12 0.000000 0.626115 0.750000
#
# Coordination Sequence:
#
# PCOD8131597 Si02
#       6
#     8   4   8   8   8   8
#     4  10  19  37  60  92 121 152 201 252 299 353
#     4  12  24  36  64  98 120 152 206 266 296 350
#     4   9  17  34  63  85 114 157 202 242 294 369
#     4  12  21  36  59  90 122 161 205 250 299 363
#     4  11  19  36  61  85 119 159 202 245 295 366
#     4  10  18  33  61  86 109 159 208 237 290 365
#
# _framework density 19.553287999999998
#
# number of rings (size 3 to 8) (size 9 to 14) (size 15 to 20)
#    0.000    1.455    8.182    0.000    0.000    0.000 
#    0.000    3.636    4.000    2.182    0.000    0.000 
#    0.000    0.000    0.000    0.000    0.000    0.000 
#
# Total GULP energy -272701.111425 kJ/mol
# GULP energy per Si atom -12395.505065 kJ/mol
# Density = 1.950878 g / cm^3
# Si number density = 19.553288 Si / 1000 Ang^3
#
#
#
# Elastic Constant Matrix: (Units=GPa)
#
#
# Indices 1 2 3 4 5 6 
#
# 1 78.1518 47.2038 42.2824 0.0000 18.1148 0.0000
# 2 47.2038 127.2948 77.8534 0.0000 3.9327 0.0000
# 3 42.2824 77.8534 143.3084 0.0000 13.0016 0.0000
# 4 0.0000 0.0000 0.0000 38.9233 0.0000 -3.6524
# 5 18.1148 3.9327 13.0016 0.0000 24.3130 0.0000
# 6 0.0000 0.0000 0.0000 -3.6524 0.0000 22.3455
#
#
#
# Elastic Compliance Matrix: (Units=1/GPa)
#
#
# Indices 1 2 3 4 5 6 
#
# 1 0.020505 -0.006344 -0.001377 0.000000 -0.013515 0.000000
# 2 -0.006344 0.013786 -0.006142 0.000000 0.005781 0.000000
# 3 -0.001377 -0.006142 0.011075 0.000000 -0.003903 0.000000
# 4 0.000000 0.000000 0.000000 0.026092 0.000000 0.004265
# 5 -0.013515 0.005781 -0.003903 0.000000 0.052352 0.000000
# 6 0.000000 0.000000 0.000000 0.004265 0.000000 0.045449
#
#
# Mechanical properties :
#
#
# Convention : Reuss Voigt Hill
#
# Bulk Modulus (GPa) = 56.69066 75.93712 66.31389
# Shear Modulus (GPa) = 24.64684 29.21071 26.92877
#
# Velocity S-wave (km/s) = 3.55420 3.86930 3.71509
# Velocity P-wave (km/s) = 6.77488 7.67348 7.23813
#
# Compressibility (1/GPa) = 0.01763959
#
# Stress axis : x y z
#
# Youngs Moduli (GPa) = 48.76822 72.53638 90.29114
#
# Poissons Ratio (x) = 0.46015 0.12438
# Poissons Ratio (y) = 0.30937 0.55459
# Poissons Ratio (z) = 0.06718 0.44554
#
# Static dielectric constant tensor:
#      x y z
#    x 3.093390 0.000000 0.164950 
#    y 0.000000 3.712550 0.000000 
#    z 0.164950 0.000000 3.900420 
# 
# 
# High freq. dielectric constant tensor:
#      x y z
#    x 1.705060 0.000000 0.021320 
#    y 0.000000 1.763510 0.000000 
#    z 0.021320 0.000000 1.780640 
# 
# From -- ./inp_files/134297.got.cif
#   From: 2010.06.25/outbox.cif.g09.slc.cpg/sg15_68_cif.got.tgz:134297.got - 2010.06.28 07:06:18.
