data_PCOD8131508
_publ_section_title
;
Structure prediction by ZEFSAII (Michael W. Deem and Ramdas Pophale) SiO2 
 PCOD8131508
Probable space group: C 2/C
;
_chemical_formula_sum "Si O2"
_cell_formula_units_Z 56
_cell_length_a 26.351111
_cell_length_b 17.860107
_cell_length_c 17.693223
_cell_angle_alpha 90.000000
_cell_angle_beta 21.535195
_cell_angle_gamma 90.000000
_cell_volume 3056.623905
_symmetry_space_group_name_H-M "C 2/C"
_symmetry_group_IT_number 15
_symmetry_cell_setting 'monoclinic'
loop_
_space_group_symop_operation_xyz
x,y,z
-x,y,1/2-z
-x,-y,-z
x,-y,1/2+z
1/2+x,1/2+y,z
1/2-x,1/2+y,1/2-z
1/2-x,1/2-y,-z
1/2+x,1/2-y,1/2+z
loop_
_atom_site_type_symbol
_atom_site_label
_atom_site_fract_x
_atom_site_fract_y
_atom_site_fract_z
Si Si1 0.640911 0.523316 0.024075
Si Si2 0.809168 0.140339 0.985823
Si Si3 0.578794 0.984480 0.564059
Si Si4 0.001490 0.657531 0.079397
Si Si5 0.876066 0.030581 0.121152
Si Si6 0.561224 0.067180 0.866171
Si Si7 0.437153 0.681368 0.959612
O O1 0.662043 0.446507 0.040010
O O2 0.628205 0.512158 0.952456
O O3 0.772649 0.573881 0.861685
O O4 0.500000 0.561722 0.250000
O O5 0.654413 0.156680 0.173182
O O6 0.839416 0.183808 0.021610
O O7 0.905504 0.165974 0.783627
O O8 0.500000 0.966132 0.750000
O O9 0.585362 0.907829 0.506403
O O10 0.734412 0.013442 0.362347
O O11 0.495391 0.052912 0.639381
O O12 0.074677 0.736885 0.987965
O O13 0.001373 0.641860 0.988826
O O14 0.891033 0.119547 0.085032
O O15 0.000000 0.000000 0.000000
O O16 0.500000 0.000000 0.000000
#
# Coordination Sequence:
#
# PCOD8131508 Si02
#       7
#     8   8   8   8   8   8   8
#     4  11  18  35  60  80 114 156 189 232 289 346
#     4  10  18  33  56  81 118 149 180 227 299 363
#     4  11  24  36  61  88 114 149 201 248 281 338
#     4  11  21  36  60  82 118 152 193 232 293 358
#     4  11  23  37  54  86 122 151 197 237 290 340
#     4  10  18  37  58  79 110 154 203 232 274 347
#     4  10  22  35  53  86 119 153 180 238 301 352
#
# _framework density 18.320867
#
# number of rings (size 3 to 8) (size 9 to 14) (size 15 to 20)
#    0.000    1.429    8.571    1.286    6.000    1.143 
#    0.000    0.000    0.000    1.714    0.000    0.000 
#    0.000    0.000    0.000    0.000    0.000    0.000 
#
# Total GULP energy -347115.912116 kJ/mol
# GULP energy per Si atom -12396.996861 kJ/mol
# Density = 1.827917 g / cm^3
# Si number density = 18.320867 Si / 1000 Ang^3
#
#
#
# Elastic Constant Matrix: (Units=GPa)
#
#
# Indices 1 2 3 4 5 6 
#
# 1 63.3591 30.0191 22.6930 0.0013 -8.4961 -0.0003
# 2 30.0191 89.0935 31.5455 0.0041 -0.1914 -0.0008
# 3 22.6930 31.5455 119.6673 0.0030 -18.5560 -0.0003
# 4 0.0013 0.0041 0.0030 2.0473 0.0003 8.1728
# 5 -8.4961 -0.1914 -18.5560 0.0003 32.7148 -0.0004
# 6 -0.0003 -0.0008 -0.0003 8.1728 -0.0004 18.2628
#
#
#
# Elastic Compliance Matrix: (Units=1/GPa)
#
#
# Indices 1 2 3 4 5 6 
#
# 1 0.019791 -0.006138 -0.001473 -0.000001 0.004268 0.000001
# 2 -0.006138 0.014398 -0.003142 0.000027 -0.003292 -0.000012
# 3 -0.001473 -0.003142 0.010309 0.000012 0.005446 -0.000005
# 4 -0.000001 0.000027 0.000012 -0.621074 0.000015 0.277937
# 5 0.004268 -0.003292 0.005446 0.000015 0.034745 -0.000006
# 6 0.000001 -0.000012 -0.000005 0.277937 -0.000006 -0.069624
#
#
# Mechanical properties :
#
#
# Convention : Reuss Voigt Hill
#
# Bulk Modulus (GPa) = 43.49395 48.95945 46.22670
# Shear Modulus (GPa) = -8.58685 23.12913 7.27114
#
# Velocity S-wave (km/s) = -2.16728 3.55695 1.99434
# Velocity P-wave (km/s) = 4.18675 6.60685 5.53079
#
# Compressibility (1/GPa) = 0.02299170
#
# Stress axis : x y z
#
# Youngs Moduli (GPa) = 50.52801 69.45639 97.00632
#
# Poissons Ratio (x) = 0.42629 0.14292
# Poissons Ratio (y) = 0.31012 0.30478
# Poissons Ratio (z) = 0.07444 0.21822
#
# Static dielectric constant tensor:
#      x y z
#    x 3.545400 0.000000 -0.201140 
#    y 0.000000 3.203610 0.000000 
#    z -0.201140 0.000000 3.868570 
# 
# 
# High freq. dielectric constant tensor:
#      x y z
#    x 1.701670 0.000000 -0.011680 
#    y 0.000000 1.671680 0.000000 
#    z -0.011680 0.000000 1.718610 
# 
# From -- ./inp_files/222909.got.cif
#   From: 2010.06.25/outbox.cif.g09.slc.cpg/sg15_112_cif.got.tgz:222909.got - 2010.06.28 07:06:18.
