data_PCOD8131537
_publ_section_title
;
Structure prediction by ZEFSAII (Michael W. Deem and Ramdas Pophale) SiO2 
 PCOD8131537
Probable space group: C 2/C
;
_chemical_formula_sum "Si O2"
_cell_formula_units_Z 52
_cell_length_a 8.428010
_cell_length_b 18.301159
_cell_length_c 18.135098
_cell_angle_alpha 90.000000
_cell_angle_beta 75.693196
_cell_angle_gamma 90.000000
_cell_volume 2710.448886
_symmetry_space_group_name_H-M "C 2/C"
_symmetry_group_IT_number 15
_symmetry_cell_setting 'monoclinic'
loop_
_space_group_symop_operation_xyz
x,y,z
-x,y,1/2-z
-x,-y,-z
x,-y,1/2+z
1/2+x,1/2+y,z
1/2-x,1/2+y,1/2-z
1/2-x,1/2-y,-z
1/2+x,1/2-y,1/2+z
loop_
_atom_site_type_symbol
_atom_site_label
_atom_site_fract_x
_atom_site_fract_y
_atom_site_fract_z
Si Si1 0.978807 0.859425 0.991571
Si Si2 0.689690 0.820504 0.134218
Si Si3 0.914510 0.477543 0.623559
Si Si4 0.250108 0.161950 0.110338
Si Si5 0.782471 0.565454 0.505628
Si Si6 0.000000 0.424255 0.250000
Si Si7 0.535069 0.799325 0.468702
O O1 0.842078 0.853567 0.071212
O O2 0.097122 0.928630 0.995872
O O3 0.903421 0.870381 0.918315
O O4 0.085909 0.784787 0.974206
O O5 0.716210 0.736672 0.159911
O O6 0.652615 0.874328 0.206379
O O7 0.520448 0.818704 0.107673
O O8 0.827706 0.400243 0.654001
O O9 0.798624 0.513529 0.574588
O O10 0.097424 0.464932 0.571456
O O11 0.925290 0.525404 0.694816
O O12 0.373727 0.185873 0.033419
O O13 0.818996 0.648318 0.525164
#
# Coordination Sequence:
#
# PCOD8131537 Si02
#       7
#     8   8   8   8   8   4   8
#     4   9  17  30  60  89 110 133 188 245 280 316
#     4   9  18  35  59  79 108 150 188 221 284 343
#     4  10  22  36  56  79 116 151 186 228 291 342
#     4   8  17  35  56  83 109 141 179 238 276 325
#     4  10  18  33  57  88 111 142 185 239 283 334
#     4  12  22  40  60  74 110 168 194 216 282 372
#     4   8  14  31  56  86 109 136 182 231 272 332
#
# _framework density 19.185013999999999
#
# number of rings (size 3 to 8) (size 9 to 14) (size 15 to 20)
#    0.000    2.769    1.538    2.308    2.154    0.615 
#    0.000    3.846    6.769    0.000    0.000    0.000 
#    0.000    0.000    0.000    0.000    0.000    0.000 
#
# Total GULP energy -322135.993201 kJ/mol
# GULP energy per Si atom -12389.845892 kJ/mol
# Density = 1.914135 g / cm^3
# Si number density = 19.185014 Si / 1000 Ang^3
#
#
#
# Elastic Constant Matrix: (Units=GPa)
#
#
# Indices 1 2 3 4 5 6 
#
# 1 74.3792 49.1921 21.5952 0.0000 4.2570 0.0000
# 2 49.1921 113.3380 65.1791 0.0000 7.7857 0.0000
# 3 21.5952 65.1791 68.6550 0.0000 -0.4040 0.0000
# 4 0.0000 0.0000 0.0000 32.7887 0.0000 2.2480
# 5 4.2570 7.7857 -0.4040 0.0000 12.3189 0.0000
# 6 0.0000 0.0000 0.0000 2.2480 0.0000 33.8147
#
#
#
# Elastic Compliance Matrix: (Units=1/GPa)
#
#
# Indices 1 2 3 4 5 6 
#
# 1 0.019384 -0.010855 0.004210 0.000000 0.000300 0.000000
# 2 -0.010855 0.027799 -0.023063 0.000000 -0.014575 0.000000
# 3 0.004210 -0.023063 0.035221 0.000000 0.014276 0.000000
# 4 0.000000 0.000000 0.000000 0.030638 0.000000 -0.002037
# 5 0.000300 -0.014575 0.014276 0.000000 0.090752 0.000000
# 6 0.000000 0.000000 0.000000 -0.002037 0.000000 0.029708
#
#
# Mechanical properties :
#
#
# Convention : Reuss Voigt Hill
#
# Bulk Modulus (GPa) = 43.50101 58.70055 51.10078
# Shear Modulus (GPa) = 16.63448 23.81153 20.22300
#
# Velocity S-wave (km/s) = 2.94778 3.52682 3.25022
# Velocity P-wave (km/s) = 5.85743 6.87373 6.38583
#
# Compressibility (1/GPa) = 0.02298797
#
# Stress axis : x y z
#
# Youngs Moduli (GPa) = 51.58801 35.97259 28.39249
#
# Poissons Ratio (x) = 0.39049 -0.11953
# Poissons Ratio (y) = 0.56000 0.65481
# Poissons Ratio (z) = -0.21719 0.82963
#
# Static dielectric constant tensor:
#      x y z
#    x 3.568770 0.000000 0.101720 
#    y 0.000000 4.450520 0.000000 
#    z 0.101720 0.000000 3.088420 
# 
# 
# High freq. dielectric constant tensor:
#      x y z
#    x 1.731840 0.000000 0.007900 
#    y 0.000000 1.768630 0.000000 
#    z 0.007900 0.000000 1.696810 
# 
# From -- ./inp_files/190409.got.cif
#   From: 2010.06.25/outbox.cif.g09.slc.cpg/sg15_96_cif.got.tgz:190409.got - 2010.06.28 07:06:18.
