data_PCOD8131522
_publ_section_title
;
Structure prediction by ZEFSAII (Michael W. Deem and Ramdas Pophale) SiO2 
 PCOD8131522
Probable space group: C 2/C
;
_chemical_formula_sum "Si O2"
_cell_formula_units_Z 36
_cell_length_a 10.423070
_cell_length_b 18.753624
_cell_length_c 7.839842
_cell_angle_alpha 90.000000
_cell_angle_beta 106.838240
_cell_angle_gamma 90.000000
_cell_volume 1466.754589
_symmetry_space_group_name_H-M "C 2/C"
_symmetry_group_IT_number 15
_symmetry_cell_setting 'monoclinic'
loop_
_space_group_symop_operation_xyz
x,y,z
-x,y,1/2-z
-x,-y,-z
x,-y,1/2+z
1/2+x,1/2+y,z
1/2-x,1/2+y,1/2-z
1/2-x,1/2-y,-z
1/2+x,1/2-y,1/2+z
loop_
_atom_site_type_symbol
_atom_site_label
_atom_site_fract_x
_atom_site_fract_y
_atom_site_fract_z
Si Si1 0.781597 0.080671 0.540884
Si Si2 0.099534 0.218095 0.438049
Si Si3 0.500000 0.318636 0.250000
Si Si4 0.999665 0.418670 0.450402
Si Si5 0.214414 0.916725 0.846362
O O1 0.633249 0.113084 0.514725
O O2 0.826811 0.088834 0.365031
O O3 0.872563 0.129994 0.691728
O O4 0.794357 0.997813 0.595259
O O5 0.250000 0.250000 0.500000
O O6 0.024044 0.229961 0.590541
O O7 0.113001 0.132836 0.412432
O O8 0.000000 0.250313 0.250000
O O9 0.135267 0.383829 0.575073
O O10 0.000000 0.408383 0.250000
O O11 0.000000 0.500000 0.500000
#
# Coordination Sequence:
#
# PCOD8131522 Si02
#       5
#     8   8   4   8   8
#     4  11  22  38  72 111 147 183 232 305 381 441
#     4  12  29  53  74 106 146 198 257 305 363 443
#     4  12  26  48  78 108 144 186 244 306 380 432
#     4  10  18  33  56  96 141 183 224 278 355 434
#     4  11  22  42  69 107 147 186 237 300 374 442
#
# _framework density 24.543983999999998
#
# number of rings (size 3 to 8) (size 9 to 14) (size 15 to 20)
#    0.000    0.889    2.222    8.667    1.556    5.333 
#    4.000    0.000    0.000    0.000    0.000    0.000 
#    0.000    0.000    0.000    0.000    0.000    0.000 
#
# Total GULP energy -223120.916931 kJ/mol
# GULP energy per Si atom -12395.606496 kJ/mol
# Density = 2.448812 g / cm^3
# Si number density = 24.543984 Si / 1000 Ang^3
#
#
#
# Elastic Constant Matrix: (Units=GPa)
#
#
# Indices 1 2 3 4 5 6 
#
# 1 129.3731 25.8217 46.6178 0.0000 3.1154 0.0000
# 2 25.8217 46.7529 18.8932 0.0000 -5.1547 0.0000
# 3 46.6178 18.8932 162.8196 0.0000 -11.7927 0.0000
# 4 0.0000 0.0000 0.0000 4.7841 0.0000 2.4296
# 5 3.1154 -5.1547 -11.7927 0.0000 63.0682 0.0000
# 6 0.0000 0.0000 0.0000 2.4296 0.0000 28.8322
#
#
#
# Elastic Compliance Matrix: (Units=1/GPa)
#
#
# Indices 1 2 3 4 5 6 
#
# 1 0.009471 -0.004446 -0.002287 0.000000 -0.001259 0.000000
# 2 -0.004446 0.024645 -0.001445 0.000000 0.001964 0.000000
# 3 -0.002287 -0.001445 0.007059 0.000000 0.001315 0.000000
# 4 0.000000 0.000000 0.000000 0.218371 0.000000 -0.018402
# 5 -0.001259 0.001964 0.001315 0.000000 0.016324 0.000000
# 6 0.000000 0.000000 0.000000 -0.018402 0.000000 0.036234
#
#
# Mechanical properties :
#
#
# Convention : Reuss Voigt Hill
#
# Bulk Modulus (GPa) = 40.28880 57.95677 49.12278
# Shear Modulus (GPa) = 14.84855 35.84442 25.34649
#
# Velocity S-wave (km/s) = 2.46230 3.82568 3.21705
# Velocity P-wave (km/s) = 4.95323 6.57109 5.81866
#
# Compressibility (1/GPa) = 0.02482080
#
# Stress axis : x y z
#
# Youngs Moduli (GPa) = 105.58187 40.57676 141.65364
#
# Poissons Ratio (x) = 0.18039 0.32398
# Poissons Ratio (y) = 0.46937 0.20464
# Poissons Ratio (z) = 0.24148 0.05862
#
# Static dielectric constant tensor:
#      x y z
#    x 4.390920 0.000000 0.142230 
#    y 0.000000 4.237320 0.000000 
#    z 0.142230 0.000000 4.654620 
# 
# 
# High freq. dielectric constant tensor:
#      x y z
#    x 1.993270 0.000000 0.006410 
#    y 0.000000 1.954630 0.000000 
#    z 0.006410 0.000000 1.990440 
# 
# From -- ./inp_files/29882.got.cif
#   From: 2010.06.25/outbox.cif.g09.slc.cpg/sg15_15_cif.got.tgz:29882.got - 2010.06.28 07:06:18.
