data_PCOD8131370
_publ_section_title
;
Structure prediction by ZEFSAII (Michael W. Deem and Ramdas Pophale) SiO2 
 PCOD8131370
Probable space group: C 2/C
;
_chemical_formula_sum "Si O2"
_cell_formula_units_Z 48
_cell_length_a 11.192542
_cell_length_b 11.380392
_cell_length_c 20.069924
_cell_angle_alpha 90.000000
_cell_angle_beta 98.792930
_cell_angle_gamma 90.000000
_cell_volume 2526.371989
_symmetry_space_group_name_H-M "C 2/C"
_symmetry_group_IT_number 15
_symmetry_cell_setting 'monoclinic'
loop_
_space_group_symop_operation_xyz
x,y,z
-x,y,1/2-z
-x,-y,-z
x,-y,1/2+z
1/2+x,1/2+y,z
1/2-x,1/2+y,1/2-z
1/2-x,1/2-y,-z
1/2+x,1/2-y,1/2+z
loop_
_atom_site_type_symbol
_atom_site_label
_atom_site_fract_x
_atom_site_fract_y
_atom_site_fract_z
Si Si1 0.747599 0.089455 0.960373
Si Si2 0.515015 0.165535 0.542316
Si Si3 0.416560 0.775459 0.901053
Si Si4 0.220302 0.488676 0.602763
Si Si5 0.433137 0.566631 0.433136
Si Si6 0.037597 0.079838 0.828865
O O1 0.608860 0.121003 0.933438
O O2 0.832975 0.192738 0.939952
O O3 0.790577 0.968287 0.928099
O O4 0.775642 0.073631 0.041574
O O5 0.505493 0.159797 0.461210
O O6 0.620191 0.080601 0.572859
O O7 0.550240 0.295618 0.566893
O O8 0.494273 0.706328 0.852965
O O9 0.337769 0.879907 0.859559
O O10 0.318261 0.561271 0.653343
O O11 0.500000 0.500000 0.500000
O O12 0.476556 0.523548 0.365074
O O13 0.000000 0.068532 0.750000
#
# Coordination Sequence:
#
# PCOD8131370 Si02
#       6
#     8   8   8   8   8   8
#     4  10  18  32  59  86 116 147 180 241 294 342
#     4  11  20  32  59  96 115 143 187 252 304 337
#     4  10  19  36  61  83 117 152 190 239 301 344
#     4  11  21  34  58  90 122 141 194 241 296 358
#     4  11  19  37  60  85 111 153 202 238 288 350
#     4  11  23  41  60  79 117 163 197 237 294 358
#
# _framework density 18.999576999999999
#
# number of rings (size 3 to 8) (size 9 to 14) (size 15 to 20)
#    0.000    1.333    5.000    5.000    0.000    4.000 
#    3.000    0.000    0.000    0.000    0.000    0.000 
#    0.000    0.000    0.000    0.000    0.000    0.000 
#
# Total GULP energy -297418.475101 kJ/mol
# GULP energy per Si atom -12392.436463 kJ/mol
# Density = 1.895633 g / cm^3
# Si number density = 18.999577 Si / 1000 Ang^3
#
#
#
# Elastic Constant Matrix: (Units=GPa)
#
#
# Indices 1 2 3 4 5 6 
#
# 1 108.0166 74.5673 61.3695 0.0000 14.7229 0.0000
# 2 74.5673 133.2111 47.5325 0.0000 2.4569 0.0000
# 3 61.3695 47.5325 98.3199 0.0000 7.3672 0.0000
# 4 0.0000 0.0000 0.0000 12.7373 0.0000 -3.0927
# 5 14.7229 2.4569 7.3672 0.0000 17.4703 0.0000
# 6 0.0000 0.0000 0.0000 -3.0927 0.0000 34.7930
#
#
#
# Elastic Compliance Matrix: (Units=1/GPa)
#
#
# Indices 1 2 3 4 5 6 
#
# 1 0.022317 -0.009230 -0.008422 0.000000 -0.013958 0.000000
# 2 -0.009230 0.012895 -0.000950 0.000000 0.006365 0.000000
# 3 -0.008422 -0.000950 0.015846 0.000000 0.000549 0.000000
# 4 0.000000 0.000000 0.000000 0.080242 0.000000 0.007133
# 5 -0.013958 0.006365 0.000549 0.000000 0.067876 0.000000
# 6 0.000000 0.000000 0.000000 0.007133 0.000000 0.029375
#
#
# Mechanical properties :
#
#
# Convention : Reuss Voigt Hill
#
# Bulk Modulus (GPa) = 72.17857 78.49845 75.33851
# Shear Modulus (GPa) = 18.49309 23.40533 20.94921
#
# Velocity S-wave (km/s) = 3.12323 3.51363 3.32417
# Velocity P-wave (km/s) = 7.14689 7.60700 7.38053
#
# Compressibility (1/GPa) = 0.01385453
#
# Stress axis : x y z
#
# Youngs Moduli (GPa) = 44.80968 77.54984 63.10855
#
# Poissons Ratio (x) = 0.71576 0.53148
# Poissons Ratio (y) = 0.41358 0.05995
# Poissons Ratio (z) = 0.37737 0.07367
#
# Static dielectric constant tensor:
#      x y z
#    x 3.890390 0.000000 -0.027080 
#    y 0.000000 3.977580 0.000000 
#    z -0.027080 0.000000 3.047020 
# 
# 
# High freq. dielectric constant tensor:
#      x y z
#    x 1.751920 0.000000 -0.002670 
#    y 0.000000 1.759640 0.000000 
#    z -0.002670 0.000000 1.675020 
# 
# From -- ./inp_files/196195.got.cif
#   From: 2010.06.25/outbox.cif.g09.slc.cpg/sg15_99_cif.got.tgz:196195.got - 2010.06.28 07:06:18.
