data_PCOD8131352
_publ_section_title
;
Structure prediction by ZEFSAII (Michael W. Deem and Ramdas Pophale) SiO2 
 PCOD8131352
Probable space group: C 2/C
;
_chemical_formula_sum "Si O2"
_cell_formula_units_Z 56
_cell_length_a 17.244765
_cell_length_b 16.902115
_cell_length_c 27.814305
_cell_angle_alpha 90.000000
_cell_angle_beta 159.685285
_cell_angle_gamma 90.000000
_cell_volume 2814.601294
_symmetry_space_group_name_H-M "C 2/C"
_symmetry_group_IT_number 15
_symmetry_cell_setting 'monoclinic'
loop_
_space_group_symop_operation_xyz
x,y,z
-x,y,1/2-z
-x,-y,-z
x,-y,1/2+z
1/2+x,1/2+y,z
1/2-x,1/2+y,1/2-z
1/2-x,1/2-y,-z
1/2+x,1/2-y,1/2+z
loop_
_atom_site_type_symbol
_atom_site_label
_atom_site_fract_x
_atom_site_fract_y
_atom_site_fract_z
Si Si1 0.580580 0.356473 0.918756
Si Si2 0.307038 0.696235 0.601744
Si Si3 0.674109 0.803493 0.633016
Si Si4 0.263945 0.367400 0.974973
Si Si5 0.109405 0.299788 0.486156
Si Si6 0.755746 0.864367 0.285373
Si Si7 0.562476 0.028652 0.840433
O O1 0.325907 0.365821 0.751655
O O2 0.711206 0.327392 0.948006
O O3 0.583206 0.294665 0.964590
O O4 0.693272 0.436311 0.003870
O O5 0.500000 0.670220 0.750000
O O6 0.316028 0.637470 0.561776
O O7 0.345978 0.786020 0.606976
O O8 0.075299 0.686425 0.494070
O O9 0.691108 0.822062 0.586595
O O10 0.762759 0.714175 0.692482
O O11 0.490129 0.387473 0.077630
O O12 0.079987 0.434656 0.858224
O O13 0.873286 0.343836 0.339230
O O14 0.635701 0.937256 0.241917
O O15 0.500000 0.049742 0.750000
#
# Coordination Sequence:
#
# PCOD8131352 Si02
#       7
#     8   8   8   8   8   8   8
#     4   9  19  31  51  84 116 146 180 223 273 328
#     4  10  21  39  61  81 105 144 191 236 274 317
#     4  10  18  32  58  84 109 147 190 229 272 321
#     4  10  22  39  57  80 111 142 186 232 274 330
#     4   9  16  31  54  79 113 148 183 224 270 321
#     4   9  20  35  53  82 113 145 183 230 274 321
#     4  11  22  37  57  82 115 147 178 225 283 339
#
# _framework density 19.896246000000001
#
# number of rings (size 3 to 8) (size 9 to 14) (size 15 to 20)
#    0.000    2.286    0.000    3.429    0.000    2.857 
#    0.000    2.857    0.000    6.000    0.000    0.000 
#    0.000    0.000    0.000    0.000    0.000    0.000 
#
# Total GULP energy -347194.746521 kJ/mol
# GULP energy per Si atom -12399.812376 kJ/mol
# Density = 1.985096 g / cm^3
# Si number density = 19.896246 Si / 1000 Ang^3
#
#
#
# Elastic Constant Matrix: (Units=GPa)
#
#
# Indices 1 2 3 4 5 6 
#
# 1 79.8030 28.0205 35.8646 -0.0022 -18.0290 0.0025
# 2 28.0205 55.2808 17.2044 0.0041 -0.5882 0.0003
# 3 35.8646 17.2044 104.7120 -0.0332 -16.4022 -0.0053
# 4 -0.0022 0.0041 -0.0332 29.1112 0.0014 2.7491
# 5 -18.0290 -0.5882 -16.4022 0.0014 37.8460 0.0000
# 6 0.0025 0.0003 -0.0053 2.7491 0.0000 20.7148
#
#
#
# Elastic Compliance Matrix: (Units=1/GPa)
#
#
# Indices 1 2 3 4 5 6 
#
# 1 0.018812 -0.008221 -0.003979 -0.000002 0.007109 -0.000003
# 2 -0.008221 0.022703 -0.001580 -0.000005 -0.004248 0.000001
# 3 -0.003979 -0.001580 0.011663 0.000013 0.003135 0.000002
# 4 -0.000002 -0.000005 0.000013 0.034787 0.000003 -0.004617
# 5 0.007109 -0.004248 0.003135 0.000003 0.031102 0.000000
# 6 -0.000003 0.000001 0.000002 -0.004617 0.000000 0.048887
#
#
# Mechanical properties :
#
#
# Convention : Reuss Voigt Hill
#
# Bulk Modulus (GPa) = 39.03422 44.66387 41.84904
# Shear Modulus (GPa) = 24.50331 28.11481 26.30906
#
# Velocity S-wave (km/s) = 3.51316 3.76316 3.64031
# Velocity P-wave (km/s) = 6.00981 6.43265 6.22482
#
# Compressibility (1/GPa) = 0.02561855
#
# Stress axis : x y z
#
# Youngs Moduli (GPa) = 53.15816 44.04682 85.73853
#
# Poissons Ratio (x) = 0.36212 0.34113
# Poissons Ratio (y) = 0.43703 0.13545
# Poissons Ratio (z) = 0.21150 0.06958
#
# Static dielectric constant tensor:
#      x y z
#    x 3.498230 0.000000 -0.010060 
#    y 0.000000 3.329270 -0.000060 
#    z -0.010060 -0.000060 3.861300 
# 
# 
# High freq. dielectric constant tensor:
#      x y z
#    x 1.774700 0.000000 -0.002380 
#    y 0.000000 1.743460 -0.000010 
#    z -0.002380 -0.000010 1.788790 
# 
# From -- ./inp_files/299361.got.cif
#   From: 2010.06.25/outbox.cif.g09.slc.cpg/sg15_150_cif.got.tgz:299361.got - 2010.06.28 07:06:18.
