data_PCOD8131683
_publ_section_title
;
Structure prediction by ZEFSAII (Michael W. Deem and Ramdas Pophale) SiO2 
 PCOD8131683
Probable space group: C 2/C
;
_chemical_formula_sum "Si O2"
_cell_formula_units_Z 48
_cell_length_a 12.331953
_cell_length_b 24.150751
_cell_length_c 11.409968
_cell_angle_alpha 90.000000
_cell_angle_beta 129.379993
_cell_angle_gamma 90.000000
_cell_volume 2626.644103
_symmetry_space_group_name_H-M "C 2/C"
_symmetry_group_IT_number 15
_symmetry_cell_setting 'monoclinic'
loop_
_space_group_symop_operation_xyz
x,y,z
-x,y,1/2-z
-x,-y,-z
x,-y,1/2+z
1/2+x,1/2+y,z
1/2-x,1/2+y,1/2-z
1/2-x,1/2-y,-z
1/2+x,1/2-y,1/2+z
loop_
_atom_site_type_symbol
_atom_site_label
_atom_site_fract_x
_atom_site_fract_y
_atom_site_fract_z
Si Si1 0.000000 0.827949 0.250000
Si Si2 0.391006 0.527907 0.774774
Si Si3 0.625686 0.756461 0.662294
Si Si4 0.500000 0.842870 0.750000
Si Si5 0.256878 0.405346 0.009671
Si Si6 0.561167 0.293482 0.662142
Si Si7 0.075904 0.919804 0.584935
O O1 0.899704 0.794758 0.269188
O O2 0.885653 0.861319 0.098132
O O3 0.500000 0.546531 0.750000
O O4 0.250046 0.553948 0.619431
O O5 0.390356 0.461488 0.784339
O O6 0.430422 0.559831 0.922663
O O7 0.579432 0.809542 0.704107
O O8 0.536424 0.745610 0.484310
O O9 0.786442 0.765176 0.736400
O O10 0.394537 0.878806 0.600798
O O11 0.292048 0.434145 0.909523
O O12 0.500000 0.291988 0.750000
O O13 0.564769 0.357212 0.622161
#
# Coordination Sequence:
#
# PCOD8131683 Si02
#       7
#     4   8   8   4   8   8   8
#     4  11  18  36  62  84 112 144 196 251 272 326
#     4   9  18  32  57  83 108 140 194 244 284 322
#     4  11  22  37  56  86 113 155 194 230 286 329
#     4  11  22  34  60  84 118 146 190 243 284 338
#     4  11  18  35  55  86 112 142 187 245 290 324
#     4  12  23  37  55  82 121 154 186 227 281 351
#     4  10  18  34  55  82 110 143 193 236 277 335
#
# _framework density 18.274267999999999
#
# number of rings (size 3 to 8) (size 9 to 14) (size 15 to 20)
#    0.000    1.333    5.833    2.000    0.000    2.667 
#    0.000    0.833    0.000    0.000    0.000    0.000 
#    0.000    0.000    0.000    0.000    0.000    0.000 
#
# Total GULP energy -297323.939974 kJ/mol
# GULP energy per Si atom -12388.497499 kJ/mol
# Density = 1.823268 g / cm^3
# Si number density = 18.274268 Si / 1000 Ang^3
#
#
#
# Elastic Constant Matrix: (Units=GPa)
#
#
# Indices 1 2 3 4 5 6 
#
# 1 94.1930 30.3518 50.2996 0.0000 -1.7041 0.0000
# 2 30.3518 85.5123 65.0294 0.0000 5.5148 0.0000
# 3 50.2996 65.0294 124.3729 0.0000 4.6793 0.0000
# 4 0.0000 0.0000 0.0000 167.1771 0.0000 -303.8184
# 5 -1.7041 5.5148 4.6793 0.0000 34.6641 0.0000
# 6 0.0000 0.0000 0.0000 -303.8184 0.0000 660.8265
#
#
#
# Elastic Compliance Matrix: (Units=1/GPa)
#
#
# Indices 1 2 3 4 5 6 
#
# 1 0.013679 -0.001167 -0.004980 0.000000 0.001530 0.000000
# 2 -0.001167 0.019616 -0.009714 0.000000 -0.001867 0.000000
# 3 -0.004980 -0.009714 0.015161 0.000000 -0.000746 0.000000
# 4 0.000000 0.000000 0.000000 0.036370 0.000000 0.016721
# 5 0.001530 -0.001867 -0.000746 0.000000 0.029321 0.000000
# 6 0.000000 0.000000 0.000000 0.016721 0.000000 0.009201
#
#
# Mechanical properties :
#
#
# Convention : Reuss Voigt Hill
#
# Bulk Modulus (GPa) = 59.75496 66.15998 62.95747
# Shear Modulus (GPa) = 31.12352 183.09336 107.10844
#
# Velocity S-wave (km/s) = 4.13138 10.02045 7.66413
# Velocity P-wave (km/s) = 7.45169 13.04460 10.62284
#
# Compressibility (1/GPa) = 0.01673501
#
# Stress axis : x y z
#
# Youngs Moduli (GPa) = 73.10249 50.97796 65.95679
#
# Poissons Ratio (x) = 0.05951 0.32844
# Poissons Ratio (y) = 0.08533 0.64072
# Poissons Ratio (z) = 0.36402 0.49521
#
# Static dielectric constant tensor:
#      x y z
#    x 3.279110 0.000000 -0.150470 
#    y 0.000000 3.453770 0.000000 
#    z -0.150470 0.000000 3.595140 
# 
# 
# High freq. dielectric constant tensor:
#      x y z
#    x 1.686090 0.000000 -0.017750 
#    y 0.000000 1.712600 0.000000 
#    z -0.017750 0.000000 1.711850 
# 
# From -- ./inp_files/91891.got.cif
#   From: 2010.06.25/outbox.cif.g09.slc.cpg/sg15_46_cif.got.tgz:91891.got - 2010.06.28 07:06:18.
