data_PCOD8131055
_publ_section_title
;
Structure prediction by ZEFSAII (Michael W. Deem and Ramdas Pophale) SiO2 
 PCOD8131055
Probable space group: C 2/C
;
_chemical_formula_sum "Si O2"
_cell_formula_units_Z 64
_cell_length_a 16.173018
_cell_length_b 25.740276
_cell_length_c 21.542132
_cell_angle_alpha 90.000000
_cell_angle_beta 155.123045
_cell_angle_gamma 90.000000
_cell_volume 3772.554135
_symmetry_space_group_name_H-M "C 2/C"
_symmetry_group_IT_number 15
_symmetry_cell_setting 'monoclinic'
loop_
_space_group_symop_operation_xyz
x,y,z
-x,y,1/2-z
-x,-y,-z
x,-y,1/2+z
1/2+x,1/2+y,z
1/2-x,1/2+y,1/2-z
1/2-x,1/2-y,-z
1/2+x,1/2-y,1/2+z
loop_
_atom_site_type_symbol
_atom_site_label
_atom_site_fract_x
_atom_site_fract_y
_atom_site_fract_z
Si Si1 0.668430 0.571254 0.322383
Si Si2 0.902236 0.009426 0.572244
Si Si3 0.924164 0.509705 0.058683
Si Si4 0.184705 0.301866 0.034999
Si Si5 0.852243 0.895828 0.312721
Si Si6 0.491586 0.104476 0.017942
Si Si7 0.997715 0.797462 0.144813
Si Si8 0.303499 0.530330 0.881136
O O1 0.500000 0.599901 0.250000
O O2 0.564512 0.523530 0.218064
O O3 0.845204 0.546463 0.483034
O O4 0.780967 0.609912 0.351356
O O5 0.739666 0.033579 0.507236
O O6 0.791268 0.970860 0.447632
O O7 0.010439 0.058241 0.617376
O O8 0.959847 0.548098 0.025907
O O9 0.127332 0.502684 0.232470
O O10 0.048289 0.351140 0.958208
O O11 0.044120 0.254129 0.922641
O O12 0.316036 0.315265 0.064288
O O13 0.316062 0.287196 0.184049
O O14 0.806069 0.911034 0.353434
O O15 0.966215 0.841599 0.382594
O O16 0.653206 0.890882 0.138599
O O17 0.500000 0.500000 0.000000
#
# Coordination Sequence:
#
# PCOD8131055 Si02
#       8
#     8   8   8   8   8   8   8   8
#     4  10  20  32  50  74 102 129 166 210 245 286
#     4  10  20  32  45  74 104 136 164 198 250 288
#     4  11  19  31  51  70 103 133 166 206 238 296
#     4   9  19  33  53  71 100 126 158 207 245 302
#     4  10  18  31  52  70  99 134 167 201 238 304
#     4  11  18  31  53  76  93 131 176 201 245 292
#     4   9  18  35  50  74  98 126 161 201 253 288
#     4  10  20  32  44  68 102 136 166 203 238 288
#
# _framework density 16.964634
#
# number of rings (size 3 to 8) (size 9 to 14) (size 15 to 20)
#    0.000    2.000    2.500    3.000    0.000    1.000 
#    6.750    0.000    0.000    0.000    0.000    5.250 
#    0.000    0.000    0.000    0.000    0.000    0.000 
#
# Total GULP energy -396579.488804 kJ/mol
# GULP energy per Si atom -12393.109025 kJ/mol
# Density = 1.692602 g / cm^3
# Si number density = 16.964634 Si / 1000 Ang^3
#
#
#
# Elastic Constant Matrix: (Units=GPa)
#
#
# Indices 1 2 3 4 5 6 
#
# 1 74.3007 33.2050 21.9647 -0.0081 14.1936 -0.0053
# 2 33.2050 63.7365 24.5447 0.0448 11.3706 0.0068
# 3 21.9647 24.5447 77.6540 -0.0292 11.6418 0.0143
# 4 -0.0081 0.0448 -0.0292 17.3064 -0.0068 -2.3290
# 5 14.1936 11.3706 11.6418 -0.0068 29.7963 0.0014
# 6 -0.0053 0.0068 0.0143 -2.3290 0.0014 29.4048
#
#
#
# Elastic Compliance Matrix: (Units=1/GPa)
#
#
# Indices 1 2 3 4 5 6 
#
# 1 0.018589 -0.008031 -0.001967 0.000025 -0.005022 0.000008
# 2 -0.008031 0.022033 -0.004255 -0.000071 -0.002920 -0.000010
# 3 -0.001967 -0.004255 0.015291 0.000034 -0.003414 -0.000004
# 4 0.000025 -0.000071 0.000034 0.058405 0.000015 0.004626
# 5 -0.005022 -0.002920 -0.003414 0.000015 0.038401 0.000001
# 6 0.000008 -0.000010 -0.000004 0.004626 0.000001 0.034374
#
#
# Mechanical properties :
#
#
# Convention : Reuss Voigt Hill
#
# Bulk Modulus (GPa) = 36.48654 41.68002 39.08328
# Shear Modulus (GPa) = 22.24859 24.36661 23.30760
#
# Velocity S-wave (km/s) = 3.62535 3.79399 3.71063
# Velocity P-wave (km/s) = 6.25127 6.61926 6.43789
#
# Compressibility (1/GPa) = 0.02740737
#
# Stress axis : x y z
#
# Youngs Moduli (GPa) = 53.79667 45.38641 65.39994
#
# Poissons Ratio (x) = 0.36450 0.12861
# Poissons Ratio (y) = 0.43204 0.27826
# Poissons Ratio (z) = 0.10580 0.19311
#
# Static dielectric constant tensor:
#      x y z
#    x 3.900230 -0.000020 -0.119970 
#    y -0.000020 2.932650 -0.000160 
#    z -0.119970 -0.000160 3.378260 
# 
# 
# High freq. dielectric constant tensor:
#      x y z
#    x 1.657470 0.000000 0.002550 
#    y 0.000000 1.610330 -0.000010 
#    z 0.002550 -0.000010 1.663530 
# 
# From -- ./inp_files/278344.got.cif
#   From: 2010.06.25/outbox.cif.g09.slc.cpg/sg15_140_cif.got.tgz:278344.got - 2010.06.28 07:06:18.
