data_PCOD8131443
_publ_section_title
;
Structure prediction by ZEFSAII (Michael W. Deem and Ramdas Pophale) SiO2 
 PCOD8131443
Probable space group: C 2/C
;
_chemical_formula_sum "Si O2"
_cell_formula_units_Z 48
_cell_length_a 14.016147
_cell_length_b 16.642115
_cell_length_c 21.430613
_cell_angle_alpha 90.000000
_cell_angle_beta 32.763439
_cell_angle_gamma 90.000000
_cell_volume 2705.246568
_symmetry_space_group_name_H-M "C 2/C"
_symmetry_group_IT_number 15
_symmetry_cell_setting 'monoclinic'
loop_
_space_group_symop_operation_xyz
x,y,z
-x,y,1/2-z
-x,-y,-z
x,-y,1/2+z
1/2+x,1/2+y,z
1/2-x,1/2+y,1/2-z
1/2-x,1/2-y,-z
1/2+x,1/2-y,1/2+z
loop_
_atom_site_type_symbol
_atom_site_label
_atom_site_fract_x
_atom_site_fract_y
_atom_site_fract_z
Si Si1 0.917904 0.353677 0.908644
Si Si2 0.623844 0.828819 0.241305
Si Si3 0.578194 0.579184 0.990369
Si Si4 0.309092 0.268928 0.369021
Si Si5 0.917588 0.476268 0.362072
Si Si6 0.807535 0.202874 0.191308
O O1 0.837051 0.316429 0.889396
O O2 0.927316 0.449056 0.902277
O O3 0.110815 0.321610 0.816724
O O4 0.792074 0.333156 0.034625
O O5 0.500000 0.807032 0.250000
O O6 0.820353 0.858556 0.112464
O O7 0.623271 0.753401 0.287816
O O8 0.531495 0.903260 0.328275
O O9 0.714932 0.548936 0.966833
O O10 0.500000 0.500000 0.000000
O O11 0.426512 0.625182 0.112036
O O12 0.500000 0.306863 0.250000
O O13 0.195496 0.256398 0.369347
O O14 0.000000 0.500529 0.250000
#
# Coordination Sequence:
#
# PCOD8131443 Si02
#       6
#     8   8   8   8   8   8
#     4  10  18  33  53  77 105 131 169 220 268 313
#     4   9  21  36  51  76 108 140 177 219 261 312
#     4  10  19  32  55  81 102 136 181 221 260 311
#     4   9  19  31  50  77 105 135 168 214 267 318
#     4   9  18  33  51  73 104 135 171 220 264 305
#     4  11  19  32  55  79 104 136 175 216 263 315
#
# _framework density 17.743299
#
# number of rings (size 3 to 8) (size 9 to 14) (size 15 to 20)
#    0.000    2.667    0.000    5.500    0.000    5.333 
#    0.000    0.833    0.000    5.000    0.000    0.000 
#    0.000    0.000    0.000    0.000    0.000    0.000 
#
# Total GULP energy -297482.262668 kJ/mol
# GULP energy per Si atom -12395.094278 kJ/mol
# Density = 1.770291 g / cm^3
# Si number density = 17.743299 Si / 1000 Ang^3
#
#
#
# Elastic Constant Matrix: (Units=GPa)
#
#
# Indices 1 2 3 4 5 6 
#
# 1 81.9158 50.9487 36.5170 0.0023 2.5923 -0.0009
# 2 50.9487 120.5862 48.2706 0.0032 7.2251 -0.0012
# 3 36.5170 48.2706 107.6685 0.0080 2.1377 -0.0027
# 4 0.0023 0.0032 0.0080 21.1547 -0.0032 7.6352
# 5 2.5923 7.2251 2.1377 -0.0032 18.8977 0.0011
# 6 -0.0009 -0.0012 -0.0027 7.6352 0.0011 27.9948
#
#
#
# Elastic Compliance Matrix: (Units=1/GPa)
#
#
# Indices 1 2 3 4 5 6 
#
# 1 0.017409 -0.006103 -0.003174 0.000000 0.000304 0.000000
# 2 -0.006103 0.012463 -0.003448 -0.000001 -0.003538 0.000000
# 3 -0.003174 -0.003448 0.011902 -0.000004 0.000407 0.000002
# 4 0.000000 -0.000001 -0.000004 0.052432 0.000010 -0.014300
# 5 0.000304 -0.003538 0.000407 0.000010 0.054181 -0.000005
# 6 0.000000 0.000000 0.000002 -0.014300 -0.000005 0.039621
#
#
# Mechanical properties :
#
#
# Convention : Reuss Voigt Hill
#
# Bulk Modulus (GPa) = 61.25746 64.62702 62.94224
# Shear Modulus (GPa) = 22.84145 25.23837 24.03991
#
# Velocity S-wave (km/s) = 3.59183 3.77559 3.68485
# Velocity P-wave (km/s) = 7.19728 7.45045 7.32496
#
# Compressibility (1/GPa) = 0.01632454
#
# Stress axis : x y z
#
# Youngs Moduli (GPa) = 57.44172 80.23489 84.02001
#
# Poissons Ratio (x) = 0.48967 0.26671
# Poissons Ratio (y) = 0.35056 0.28966
# Poissons Ratio (z) = 0.18234 0.27661
#
# Static dielectric constant tensor:
#      x y z
#    x 3.099600 0.000000 -0.184950 
#    y 0.000000 3.192590 0.000000 
#    z -0.184950 0.000000 3.426850 
# 
# 
# High freq. dielectric constant tensor:
#      x y z
#    x 1.664980 0.000000 -0.020640 
#    y 0.000000 1.677170 0.000000 
#    z -0.020640 0.000000 1.696800 
# 
# From -- ./inp_files/173722.got.cif
#   From: 2010.06.25/outbox.cif.g09.slc.cpg/sg15_87_cif.got.tgz:173722.got - 2010.06.28 07:06:18.
