data_PCOD8131966
_publ_section_title
;
Structure prediction by ZEFSAII (Michael W. Deem and Ramdas Pophale) SiO2 
 PCOD8131966
Probable space group: C 2/C
;
_chemical_formula_sum "Si O2"
_cell_formula_units_Z 56
_cell_length_a 25.296762
_cell_length_b 19.724464
_cell_length_c 16.499582
_cell_angle_alpha 90.000000
_cell_angle_beta 22.317211
_cell_angle_gamma 90.000000
_cell_volume 3126.242374
_symmetry_space_group_name_H-M "C 2/C"
_symmetry_group_IT_number 15
_symmetry_cell_setting 'monoclinic'
loop_
_space_group_symop_operation_xyz
x,y,z
-x,y,1/2-z
-x,-y,-z
x,-y,1/2+z
1/2+x,1/2+y,z
1/2-x,1/2+y,1/2-z
1/2-x,1/2-y,-z
1/2+x,1/2-y,1/2+z
loop_
_atom_site_type_symbol
_atom_site_label
_atom_site_fract_x
_atom_site_fract_y
_atom_site_fract_z
Si Si1 0.935587 0.125281 0.927002
Si Si2 0.132446 0.646344 0.324720
Si Si3 0.202338 0.388200 0.415839
Si Si4 0.646040 0.723772 0.717210
Si Si5 0.573428 0.925048 0.066701
Si Si6 0.637804 0.510551 0.355955
Si Si7 0.570924 0.933257 0.759632
O O1 0.000000 0.112744 0.750000
O O2 0.031177 0.171975 0.847763
O O3 0.790893 0.164232 0.121411
O O4 0.912077 0.048986 0.993030
O O5 0.069935 0.712967 0.369411
O O6 0.055218 0.627314 0.517873
O O7 0.127618 0.582852 0.268833
O O8 0.266798 0.314327 0.336454
O O9 0.299134 0.435271 0.220583
O O10 0.190953 0.424152 0.521460
O O11 0.051962 0.379731 0.587647
O O12 0.750000 0.750000 0.500000
O O13 0.500000 0.892807 0.250000
O O14 0.490565 0.991939 0.157682
O O15 0.734865 0.942442 0.859459
O O16 0.500000 0.500000 0.500000
#
# Coordination Sequence:
#
# PCOD8131966 Si02
#       7
#     8   8   8   8   8   8   8
#     4  11  22  35  54  85 114 144 188 235 290 339
#     4  11  24  33  55  86 115 149 188 238 278 352
#     4  10  19  33  56  81 111 157 180 228 286 346
#     4  12  22  34  52  81 122 152 179 228 299 348
#     4  10  20  38  59  82 113 154 199 238 280 339
#     4  10  19  35  56  83 110 149 190 233 287 335
#     4  10  18  35  57  83 112 143 193 233 286 331
#
# _framework density 17.912877999999999
#
# number of rings (size 3 to 8) (size 9 to 14) (size 15 to 20)
#    0.000    1.429    7.143    0.429    2.000    0.000 
#    0.000    0.000    0.000    4.286    0.000    0.000 
#    0.000    0.000    0.000    0.000    0.000    0.000 
#
# Total GULP energy -346958.733714 kJ/mol
# GULP energy per Si atom -12391.383347 kJ/mol
# Density = 1.787211 g / cm^3
# Si number density = 17.912878 Si / 1000 Ang^3
#
#
#
# Elastic Constant Matrix: (Units=GPa)
#
#
# Indices 1 2 3 4 5 6 
#
# 1 84.7871 42.7373 33.6472 -0.0001 12.5340 -0.0015
# 2 42.7373 90.7806 34.8796 -0.0014 15.8843 0.0010
# 3 33.6472 34.8796 61.9735 -0.0032 7.9022 0.0003
# 4 -0.0001 -0.0014 -0.0032 10.4491 -0.0021 -16.2762
# 5 12.5340 15.8843 7.9022 -0.0021 31.9657 -0.0011
# 6 -0.0015 0.0010 0.0003 -16.2762 -0.0011 -4.1192
#
#
#
# Elastic Compliance Matrix: (Units=1/GPa)
#
#
# Indices 1 2 3 4 5 6 
#
# 1 0.017275 -0.005357 -0.006030 -0.000002 -0.002621 0.000001
# 2 -0.005357 0.016604 -0.005836 0.000001 -0.004707 0.000001
# 3 -0.006030 -0.005836 0.022740 0.000001 -0.000357 -0.000003
# 4 -0.000002 0.000001 0.000001 0.013376 -0.000001 -0.052852
# 5 -0.002621 -0.004707 -0.000357 -0.000001 0.034739 -0.000005
# 6 0.000001 0.000001 -0.000003 -0.052852 -0.000005 -0.033930
#
#
# Mechanical properties :
#
#
# Convention : Reuss Voigt Hill
#
# Bulk Modulus (GPa) = 45.10106 51.11882 48.10994
# Shear Modulus (GPa) = 44.38965 16.07760 30.23363
#
# Velocity S-wave (km/s) = 4.98344 2.99915 4.11276
# Velocity P-wave (km/s) = 7.63843 6.37124 7.03343
#
# Compressibility (1/GPa) = 0.02217243
#
# Stress axis : x y z
#
# Youngs Moduli (GPa) = 57.88744 60.22807 43.97596
#
# Poissons Ratio (x) = 0.32266 0.26516
# Poissons Ratio (y) = 0.31012 0.25664
# Poissons Ratio (z) = 0.34904 0.35148
#
# Static dielectric constant tensor:
#      x y z
#    x 3.392730 0.000000 -0.096000 
#    y 0.000000 3.368050 0.000010 
#    z -0.096000 0.000010 3.413310 
# 
# 
# High freq. dielectric constant tensor:
#      x y z
#    x 1.688050 0.000000 -0.015490 
#    y 0.000000 1.679260 0.000000 
#    z -0.015490 0.000000 1.684810 
# 
# From -- ./inp_files/222916.got.cif
#   From: 2010.06.25/outbox.cif.g09.slc.cpg/sg15_112_cif.got.tgz:222916.got - 2010.06.28 07:06:18.
