data_PCOD8131705
_publ_section_title
;
Structure prediction by ZEFSAII (Michael W. Deem and Ramdas Pophale) SiO2 
 PCOD8131705
Probable space group: C 2/C
;
_chemical_formula_sum "Si O2"
_cell_formula_units_Z 52
_cell_length_a 18.873634
_cell_length_b 8.327604
_cell_length_c 16.329614
_cell_angle_alpha 90.000000
_cell_angle_beta 91.695741
_cell_angle_gamma 90.000000
_cell_volume 2565.436548
_symmetry_space_group_name_H-M "C 2/C"
_symmetry_group_IT_number 15
_symmetry_cell_setting 'monoclinic'
loop_
_space_group_symop_operation_xyz
x,y,z
-x,y,1/2-z
-x,-y,-z
x,-y,1/2+z
1/2+x,1/2+y,z
1/2-x,1/2+y,1/2-z
1/2-x,1/2-y,-z
1/2+x,1/2-y,1/2+z
loop_
_atom_site_type_symbol
_atom_site_label
_atom_site_fract_x
_atom_site_fract_y
_atom_site_fract_z
Si Si1 0.000000 0.414542 0.750000
Si Si2 0.107810 0.162796 0.706915
Si Si3 0.189562 0.367978 0.592013
Si Si4 0.435680 0.459391 0.941339
Si Si5 0.916017 0.631553 0.854469
Si Si6 0.155310 0.141887 0.448182
Si Si7 0.581993 0.647033 0.283024
O O1 0.068401 0.299546 0.759109
O O2 0.014170 0.526001 0.669719
O O3 0.175815 0.240277 0.664855
O O4 0.058066 0.080556 0.635474
O O5 0.126716 0.016951 0.768113
O O6 0.144399 0.527870 0.605001
O O7 0.166259 0.301839 0.502482
O O8 0.272685 0.407115 0.595833
O O9 0.438295 0.273360 0.916325
O O10 0.500000 0.500000 0.000000
O O11 0.365106 0.495648 0.991994
O O12 0.884327 0.708299 0.769259
O O13 0.092712 0.179775 0.379913
O O14 0.500000 0.630224 0.250000
#
# Coordination Sequence:
#
# PCOD8131705 Si02
#       7
#     4   8   8   8   8   8   8
#     4  10  18  34  56  80 116 150 180 250 286 336
#     4   9  19  35  57  78 116 154 191 232 297 350
#     4   9  21  41  56  86 117 161 194 243 301 346
#     4  10  21  36  57  86 113 156 192 238 296 360
#     4  10  21  37  58  85 120 149 199 246 291 349
#     4  10  21  39  62  80 121 156 198 242 296 359
#     4  11  20  36  61  87 114 157 195 243 293 357
#
# _framework density 20.269455000000001
#
# number of rings (size 3 to 8) (size 9 to 14) (size 15 to 20)
#    0.000    2.154    1.538    1.846    0.000    1.846 
#    2.769    3.077    0.000    0.000    0.000    0.000 
#    0.000    0.000    0.000    0.000    0.000    0.000 
#
# Total GULP energy -322120.610755 kJ/mol
# GULP energy per Si atom -12389.254260 kJ/mol
# Density = 2.022332 g / cm^3
# Si number density = 20.269455 Si / 1000 Ang^3
#
#
#
# Elastic Constant Matrix: (Units=GPa)
#
#
# Indices 1 2 3 4 5 6 
#
# 1 98.0001 49.1026 46.2764 0.0000 -24.8408 0.0000
# 2 49.1026 134.0577 48.7885 0.0000 -19.1462 0.0000
# 3 46.2764 48.7885 99.4617 0.0000 -8.3694 0.0000
# 4 0.0000 0.0000 0.0000 33.7415 0.0000 -12.0879
# 5 -24.8408 -19.1462 -8.3694 0.0000 37.1450 0.0000
# 6 0.0000 0.0000 0.0000 -12.0879 0.0000 20.8114
#
#
#
# Elastic Compliance Matrix: (Units=1/GPa)
#
#
# Indices 1 2 3 4 5 6 
#
# 1 0.016288 -0.002783 -0.005522 0.000000 0.008214 0.000000
# 2 -0.002783 0.010099 -0.003443 0.000000 0.002568 0.000000
# 3 -0.005522 -0.003443 0.014120 0.000000 -0.002286 0.000000
# 4 0.000000 0.000000 0.000000 0.037424 0.000000 0.021737
# 5 0.008214 0.002568 -0.002286 0.000000 0.033223 0.000000
# 6 0.000000 0.000000 0.000000 0.021737 0.000000 0.060676
#
#
# Mechanical properties :
#
#
# Convention : Reuss Voigt Hill
#
# Bulk Modulus (GPa) = 58.78585 68.87272 63.82929
# Shear Modulus (GPa) = 24.87609 30.82974 27.85291
#
# Velocity S-wave (km/s) = 3.50704 3.90422 3.71095
# Velocity P-wave (km/s) = 6.74272 7.37403 7.06543
#
# Compressibility (1/GPa) = 0.01701090
#
# Stress axis : x y z
#
# Youngs Moduli (GPa) = 61.39432 99.02362 70.82347
#
# Poissons Ratio (x) = 0.27561 0.39108
# Poissons Ratio (y) = 0.17088 0.24381
# Poissons Ratio (z) = 0.33902 0.34089
#
# Static dielectric constant tensor:
#      x y z
#    x 3.543410 0.000000 -0.458150 
#    y 0.000000 4.009870 0.000000 
#    z -0.458150 0.000000 3.978680 
# 
# 
# High freq. dielectric constant tensor:
#      x y z
#    x 1.764180 0.000000 -0.035790 
#    y 0.000000 1.798300 0.000000 
#    z -0.035790 0.000000 1.793500 
# 
# From -- ./inp_files/209151.got.cif
#   From: 2010.06.25/outbox.cif.g09.slc.cpg/sg15_105_cif.got.tgz:209151.got - 2010.06.28 07:06:18.
