data_PCOD8131768
_publ_section_title
;
Structure prediction by ZEFSAII (Michael W. Deem and Ramdas Pophale) SiO2 
 PCOD8131768
Probable space group: C 2/C
;
_chemical_formula_sum "Si O2"
_cell_formula_units_Z 56
_cell_length_a 14.952015
_cell_length_b 23.817945
_cell_length_c 9.431941
_cell_angle_alpha 90.000000
_cell_angle_beta 110.945474
_cell_angle_gamma 90.000000
_cell_volume 3137.005287
_symmetry_space_group_name_H-M "C 2/C"
_symmetry_group_IT_number 15
_symmetry_cell_setting 'monoclinic'
loop_
_space_group_symop_operation_xyz
x,y,z
-x,y,1/2-z
-x,-y,-z
x,-y,1/2+z
1/2+x,1/2+y,z
1/2-x,1/2+y,1/2-z
1/2-x,1/2-y,-z
1/2+x,1/2-y,1/2+z
loop_
_atom_site_type_symbol
_atom_site_label
_atom_site_fract_x
_atom_site_fract_y
_atom_site_fract_z
Si Si1 0.340599 0.386727 0.674476
Si Si2 0.500000 0.314745 0.250000
Si Si3 0.173514 0.692886 0.086294
Si Si4 0.500000 0.304976 0.750000
Si Si5 0.852311 0.113128 0.847816
Si Si6 0.297017 0.796799 0.224163
Si Si7 0.426733 0.498925 0.830468
Si Si8 0.979153 0.265389 0.496592
O O1 0.232104 0.365661 0.643820
O O2 0.412200 0.338873 0.769416
O O3 0.370136 0.391733 0.526349
O O4 0.362900 0.442979 0.775109
O O5 0.567134 0.353379 0.192243
O O6 0.554104 0.273366 0.390854
O O7 0.225684 0.743876 0.199161
O O8 0.166507 0.702808 0.914860
O O9 0.064341 0.689956 0.086543
O O10 0.465173 0.269261 0.595454
O O11 0.753118 0.144648 0.763061
O O12 0.849378 0.049248 0.791051
O O13 0.385223 0.794529 0.382071
O O14 0.500000 0.509509 0.750000
O O15 0.500000 0.500000 0.000000
#
# Coordination Sequence:
#
# PCOD8131768 Si02
#       8
#     8   4   8   4   8   8   8   8
#     4  11  21  35  57  82 113 148 189 232 275 342
#     4  12  24  33  54  84 128 147 182 234 288 346
#     4  10  18  34  58  85 107 148 198 232 271 339
#     4  12  16  31  58  82 106 145 190 220 274 334
#     4  11  22  37  51  83 117 150 182 231 287 336
#     4  10  19  34  58  82 113 150 192 232 278 337
#     4  12  23  36  57  82 112 150 187 232 288 334
#     4  12  21  35  56  87 117 153 185 234 284 338
#
# _framework density 17.851420999999998
#
# number of rings (size 3 to 8) (size 9 to 14) (size 15 to 20)
#    0.000    0.857    8.571    0.857    0.000    0.571 
#    0.000    0.000    0.000    0.857    0.000    0.000 
#    0.000    0.000    0.000    0.000    0.000    0.000 
#
# Total GULP energy -346879.830853 kJ/mol
# GULP energy per Si atom -12388.565388 kJ/mol
# Density = 1.781079 g / cm^3
# Si number density = 17.851421 Si / 1000 Ang^3
#
#
#
# Elastic Constant Matrix: (Units=GPa)
#
#
# Indices 1 2 3 4 5 6 
#
# 1 68.1244 41.8799 39.8282 0.0000 23.0632 0.0000
# 2 41.8799 107.8900 50.2379 0.0000 12.4443 0.0000
# 3 39.8282 50.2379 85.1680 0.0000 12.8669 0.0000
# 4 0.0000 0.0000 0.0000 28.2597 0.0000 2.5125
# 5 23.0632 12.4443 12.8669 0.0000 29.0472 0.0000
# 6 0.0000 0.0000 0.0000 2.5125 0.0000 29.7721
#
#
#
# Elastic Compliance Matrix: (Units=1/GPa)
#
#
# Indices 1 2 3 4 5 6 
#
# 1 0.027980 -0.005544 -0.007306 0.000000 -0.016604 0.000000
# 2 -0.005544 0.014021 -0.005825 0.000000 0.000975 0.000000
# 3 -0.007306 -0.005825 0.018584 0.000000 0.000064 0.000000
# 4 0.000000 0.000000 0.000000 0.035654 0.000000 -0.003009
# 5 -0.016604 0.000975 0.000064 0.000000 0.047164 0.000000
# 6 0.000000 0.000000 0.000000 -0.003009 0.000000 0.033842
#
#
# Mechanical properties :
#
#
# Convention : Reuss Voigt Hill
#
# Bulk Modulus (GPa) = 43.03848 58.34162 50.69005
# Shear Modulus (GPa) = 22.48814 26.03156 24.25985
#
# Velocity S-wave (km/s) = 3.55313 3.82283 3.69044
# Velocity P-wave (km/s) = 6.40270 7.22759 6.82762
#
# Compressibility (1/GPa) = 0.02323502
#
# Stress axis : x y z
#
# Youngs Moduli (GPa) = 35.74018 71.32381 53.80859
#
# Poissons Ratio (x) = 0.39541 0.39312
# Poissons Ratio (y) = 0.19814 0.31344
# Poissons Ratio (z) = 0.26111 0.41547
#
# Static dielectric constant tensor:
#      x y z
#    x 3.284830 0.000000 0.001090 
#    y 0.000000 3.352260 0.000000 
#    z 0.001090 0.000000 3.296250 
# 
# 
# High freq. dielectric constant tensor:
#      x y z
#    x 1.675400 0.000000 0.001180 
#    y 0.000000 1.672070 0.000000 
#    z 0.001180 0.000000 1.691040 
# 
# From -- ./inp_files/42305.got.cif
#   From: 2010.06.25/outbox.cif.g09.slc.cpg/sg15_22_cif.got.tgz:42305.got - 2010.06.28 07:06:18.
