data_PCOD8131175
_publ_section_title
;
Structure prediction by ZEFSAII (Michael W. Deem and Ramdas Pophale) SiO2 
 PCOD8131175
Probable space group: C 2/C
;
_chemical_formula_sum "Si O2"
_cell_formula_units_Z 64
_cell_length_a 7.036257
_cell_length_b 22.915653
_cell_length_c 21.393596
_cell_angle_alpha 90.000000
_cell_angle_beta 93.639254
_cell_angle_gamma 90.000000
_cell_volume 3442.556461
_symmetry_space_group_name_H-M "C 2/C"
_symmetry_group_IT_number 15
_symmetry_cell_setting 'monoclinic'
loop_
_space_group_symop_operation_xyz
x,y,z
-x,y,1/2-z
-x,-y,-z
x,-y,1/2+z
1/2+x,1/2+y,z
1/2-x,1/2+y,1/2-z
1/2-x,1/2-y,-z
1/2+x,1/2-y,1/2+z
loop_
_atom_site_type_symbol
_atom_site_label
_atom_site_fract_x
_atom_site_fract_y
_atom_site_fract_z
Si Si1 0.274543 0.022156 0.067388
Si Si2 0.277230 0.553826 0.618196
Si Si3 0.854310 0.801356 0.431034
Si Si4 0.584254 0.176379 0.028517
Si Si5 0.701149 0.053021 0.043150
Si Si6 0.092289 0.876454 0.189132
Si Si7 0.411089 0.036338 0.686823
Si Si8 0.317882 0.370935 0.999503
O O1 0.476742 0.040785 0.043620
O O2 0.283926 0.007413 0.141465
O O3 0.132521 0.077602 0.050971
O O4 0.219082 0.964271 0.025154
O O5 0.312498 0.486675 0.596563
O O6 0.455351 0.571598 0.663552
O O7 0.251504 0.596371 0.559967
O O8 0.080757 0.561551 0.649599
O O9 0.647202 0.812659 0.457468
O O10 0.878015 0.731802 0.426441
O O11 0.876384 0.826760 0.362020
O O12 0.005773 0.828744 0.483220
O O13 0.715364 0.122227 0.055857
O O14 0.358696 0.167192 0.027942
O O15 0.290850 0.908138 0.208323
O O16 0.000000 0.848327 0.250000
O O17 0.500000 0.004110 0.750000
#
# Coordination Sequence:
#
# PCOD8131175 Si02
#       8
#     8   8   8   8   8   8   8   8
#     4   8  15  27  47  75  98 123 156 195 244 310
#     4   9  18  32  50  76  99 130 158 199 255 305
#     4  10  21  31  50  74 101 131 170 206 250 298
#     4  10  18  32  49  75 101 130 160 206 252 295
#     4   8  14  28  50  71 101 125 152 196 252 296
#     4  11  21  34  48  73 101 131 169 207 245 299
#     4  11  19  30  48  69 101 128 161 198 247 298
#     4   9  17  32  52  72 103 126 157 204 255 301
#
# _framework density 18.590837000000001
#
# number of rings (size 3 to 8) (size 9 to 14) (size 15 to 20)
#    0.000    2.500    1.250    4.125    0.000    1.000 
#    0.000    3.750    0.000    6.750    0.000    0.875 
#    0.000    0.000    0.000    0.000    0.000    0.000 
#
# Total GULP energy -396521.753486 kJ/mol
# GULP energy per Si atom -12391.304796 kJ/mol
# Density = 1.854852 g / cm^3
# Si number density = 18.590837 Si / 1000 Ang^3
#
#
#
# Elastic Constant Matrix: (Units=GPa)
#
#
# Indices 1 2 3 4 5 6 
#
# 1 27.1340 20.1426 18.5948 0.0000 -0.8463 0.0000
# 2 20.1426 120.7499 40.3734 0.0000 5.7787 0.0000
# 3 18.5948 40.3734 103.8305 0.0000 -0.4936 0.0000
# 4 0.0000 0.0000 0.0000 13.3101 0.0000 -2.6162
# 5 -0.8463 5.7787 -0.4936 0.0000 24.5704 0.0000
# 6 0.0000 0.0000 0.0000 -2.6162 0.0000 21.0409
#
#
#
# Elastic Compliance Matrix: (Units=1/GPa)
#
#
# Indices 1 2 3 4 5 6 
#
# 1 0.045198 -0.005714 -0.005860 0.000000 0.002783 0.000000
# 2 -0.005714 0.010375 -0.003024 0.000000 -0.002698 0.000000
# 3 -0.005860 -0.003024 0.011860 0.000000 0.000748 0.000000
# 4 0.000000 0.000000 0.000000 0.077013 0.000000 0.009576
# 5 0.002783 -0.002698 0.000748 0.000000 0.041445 0.000000
# 6 0.000000 0.000000 0.000000 0.009576 0.000000 0.048717
#
#
# Mechanical properties :
#
#
# Convention : Reuss Voigt Hill
#
# Bulk Modulus (GPa) = 26.15148 45.54846 35.84997
# Shear Modulus (GPa) = 18.08009 23.29118 20.68563
#
# Velocity S-wave (km/s) = 3.12192 3.54338 3.33930
# Velocity P-wave (km/s) = 5.20505 6.42607 5.84752
#
# Compressibility (1/GPa) = 0.03823876
#
# Stress axis : x y z
#
# Youngs Moduli (GPa) = 22.12492 96.38764 84.31884
#
# Poissons Ratio (x) = 0.55072 0.49407
# Poissons Ratio (y) = 0.12641 0.25496
# Poissons Ratio (z) = 0.12964 0.29145
#
# Static dielectric constant tensor:
#      x y z
#    x 3.578940 0.000000 0.054650 
#    y 0.000000 3.490820 0.000000 
#    z 0.054650 0.000000 3.343810 
# 
# 
# High freq. dielectric constant tensor:
#      x y z
#    x 1.735450 0.000000 -0.005970 
#    y 0.000000 1.702620 0.000000 
#    z -0.005970 0.000000 1.690360 
# 
# From -- ./inp_files/233509.got.cif
#   From: 2010.06.25/outbox.cif.g09.slc.cpg/sg15_117_cif.got.tgz:233509.got - 2010.06.28 07:06:18.
