data_PCOD8131401
_publ_section_title
;
Structure prediction by ZEFSAII (Michael W. Deem and Ramdas Pophale) SiO2 
 PCOD8131401
Probable space group: C 2/C
;
_chemical_formula_sum "Si O2"
_cell_formula_units_Z 52
_cell_length_a 15.545945
_cell_length_b 18.143369
_cell_length_c 14.559308
_cell_angle_alpha 90.000000
_cell_angle_beta 40.377767
_cell_angle_gamma 90.000000
_cell_volume 2660.314973
_symmetry_space_group_name_H-M "C 2/C"
_symmetry_group_IT_number 15
_symmetry_cell_setting 'monoclinic'
loop_
_space_group_symop_operation_xyz
x,y,z
-x,y,1/2-z
-x,-y,-z
x,-y,1/2+z
1/2+x,1/2+y,z
1/2-x,1/2+y,1/2-z
1/2-x,1/2-y,-z
1/2+x,1/2-y,1/2+z
loop_
_atom_site_type_symbol
_atom_site_label
_atom_site_fract_x
_atom_site_fract_y
_atom_site_fract_z
Si Si1 0.694995 0.690104 0.422000
Si Si2 0.911814 0.559283 0.519599
Si Si3 0.207332 0.957673 0.334296
Si Si4 0.984584 0.304916 0.661147
Si Si5 0.000000 0.051331 0.250000
Si Si6 0.444620 0.399191 0.608873
Si Si7 0.746604 0.463669 0.975982
O O1 0.834838 0.728010 0.278533
O O2 0.599296 0.744446 0.555650
O O3 0.624508 0.669586 0.383638
O O4 0.723338 0.620910 0.465585
O O5 0.795582 0.581405 0.684774
O O6 0.850514 0.528713 0.474432
O O7 0.000000 0.500000 0.500000
O O8 0.000727 0.630812 0.426331
O O9 0.098963 0.897892 0.453390
O O10 0.129717 0.026350 0.356025
O O11 0.296677 0.988204 0.347303
O O12 0.000000 0.340122 0.750000
O O13 0.064064 0.105926 0.273587
O O14 0.104843 0.996915 0.118081
#
# Coordination Sequence:
#
# PCOD8131401 Si02
#       7
#     8   8   8   8   4   8   8
#     4  11  25  41  62  86 133 163 210 256 312 385
#     4  12  24  37  62  86 132 161 204 257 326 365
#     4   9  19  34  56  91 115 163 201 255 309 366
#     4  12  27  42  61  94 123 170 207 256 317 381
#     4  10  18  32  64  96 116 168 206 264 314 362
#     4   9  18  35  59  87 124 154 214 254 310 365
#     4  10  21  36  61  92 127 160 210 256 311 373
#
# _framework density 19.546558000000001
#
# number of rings (size 3 to 8) (size 9 to 14) (size 15 to 20)
#    0.000    1.538    3.077    3.231    3.231    0.000 
#    0.000    0.000    0.000    2.769    0.000    0.000 
#    0.000    0.000    0.000    0.000    0.000    0.000 
#
# Total GULP energy -322284.146824 kJ/mol
# GULP energy per Si atom -12395.544109 kJ/mol
# Density = 1.950207 g / cm^3
# Si number density = 19.546558 Si / 1000 Ang^3
#
#
#
# Elastic Constant Matrix: (Units=GPa)
#
#
# Indices 1 2 3 4 5 6 
#
# 1 140.5625 33.5599 47.2971 -0.0011 10.3618 0.0006
# 2 33.5599 60.7040 41.7808 -0.0005 -1.9795 0.0005
# 3 47.2971 41.7808 133.6277 -0.0026 -0.6023 0.0023
# 4 -0.0011 -0.0005 -0.0026 30.5676 0.0021 -0.6139
# 5 10.3618 -1.9795 -0.6023 0.0021 34.8230 -0.0013
# 6 0.0006 0.0005 0.0023 -0.6139 -0.0013 22.5348
#
#
#
# Elastic Compliance Matrix: (Units=1/GPa)
#
#
# Indices 1 2 3 4 5 6 
#
# 1 0.008868 -0.003603 -0.002025 0.000000 -0.002879 0.000000
# 2 -0.003603 0.022495 -0.005748 0.000000 0.002251 0.000000
# 3 -0.002025 -0.005748 0.010000 0.000001 0.000449 -0.000001
# 4 0.000000 0.000000 0.000001 0.032732 -0.000002 0.000892
# 5 -0.002879 0.002251 0.000449 -0.000002 0.029709 0.000002
# 6 0.000000 0.000000 -0.000001 0.000892 0.000002 0.044400
#
#
# Mechanical properties :
#
#
# Convention : Reuss Voigt Hill
#
# Bulk Modulus (GPa) = 53.73347 64.46331 59.09839
# Shear Modulus (GPa) = 28.22319 31.73549 29.97934
#
# Velocity S-wave (km/s) = 3.80398 4.03374 3.92055
# Velocity P-wave (km/s) = 6.84422 7.39904 7.12703
#
# Compressibility (1/GPa) = 0.01861037
#
# Stress axis : x y z
#
# Youngs Moduli (GPa) = 112.76351 44.45497 100.00377
#
# Poissons Ratio (x) = 0.16015 0.20255
# Poissons Ratio (y) = 0.40623 0.57483
# Poissons Ratio (z) = 0.22839 0.25553
#
# Static dielectric constant tensor:
#      x y z
#    x 3.934410 0.000000 0.091860 
#    y 0.000000 3.140610 0.000000 
#    z 0.091860 0.000000 4.026990 
# 
# 
# High freq. dielectric constant tensor:
#      x y z
#    x 1.771400 0.000000 0.001190 
#    y 0.000000 1.710930 0.000000 
#    z 0.001190 0.000000 1.779440 
# 
# From -- ./inp_files/155420.got.cif
#   From: 2010.06.25/outbox.cif.g09.slc.cpg/sg15_78_cif.got.tgz:155420.got - 2010.06.28 07:06:18.
