data_PCOD8131268
_publ_section_title
;
Structure prediction by ZEFSAII (Michael W. Deem and Ramdas Pophale) SiO2 
 PCOD8131268
Probable space group: C 2/C
;
_chemical_formula_sum "Si O2"
_cell_formula_units_Z 64
_cell_length_a 12.207770
_cell_length_b 21.973482
_cell_length_c 14.356729
_cell_angle_alpha 90.000000
_cell_angle_beta 114.830189
_cell_angle_gamma 90.000000
_cell_volume 3495.137940
_symmetry_space_group_name_H-M "C 2/C"
_symmetry_group_IT_number 15
_symmetry_cell_setting 'monoclinic'
loop_
_space_group_symop_operation_xyz
x,y,z
-x,y,1/2-z
-x,-y,-z
x,-y,1/2+z
1/2+x,1/2+y,z
1/2-x,1/2+y,1/2-z
1/2-x,1/2-y,-z
1/2+x,1/2-y,1/2+z
loop_
_atom_site_type_symbol
_atom_site_label
_atom_site_fract_x
_atom_site_fract_y
_atom_site_fract_z
Si Si1 0.689058 0.899164 0.977258
Si Si2 0.323977 0.875398 0.236716
Si Si3 0.486221 0.905186 0.047810
Si Si4 0.068776 0.280818 0.863266
Si Si5 0.133950 0.150401 0.821572
Si Si6 0.880345 0.259063 0.152347
Si Si7 0.118496 0.491698 0.347901
Si Si8 0.127513 0.288442 0.556298
O O1 0.662554 0.831297 0.931207
O O2 0.701223 0.948803 0.898462
O O3 0.581409 0.924824 0.003221
O O4 0.812001 0.894531 0.080540
O O5 0.442187 0.870642 0.343817
O O6 0.207226 0.855308 0.251995
O O7 0.347284 0.829410 0.160498
O O8 0.307741 0.943164 0.188461
O O9 0.417554 0.962896 0.065296
O O10 0.390249 0.860179 0.966355
O O11 0.140040 0.219928 0.859376
O O12 0.000000 0.308731 0.750000
O O13 0.970231 0.262961 0.905835
O O14 0.000000 0.128738 0.750000
O O15 0.764042 0.219564 0.142919
O O16 0.000000 0.236658 0.250000
O O17 0.896812 0.250811 0.047555
O O18 0.000000 0.513339 0.250000
#
# Coordination Sequence:
#
# PCOD8131268 Si02
#       8
#     8   8   8   8   8   8   8   8
#     4  10  20  32  55  82 108 138 175 225 279 315
#     4  10  18  33  57  78 104 142 182 229 264 321
#     4   9  17  33  52  81 107 138 175 218 271 331
#     4  10  20  37  53  79 113 141 181 225 270 327
#     4  10  21  37  55  75 106 149 189 216 260 330
#     4  11  18  31  52  81 114 140 182 228 272 317
#     4  10  18  32  54  82 107 131 174 227 279 325
#     4  10  20  31  53  81 106 146 182 223 273 319
#
# _framework density 18.311152
#
# number of rings (size 3 to 8) (size 9 to 14) (size 15 to 20)
#    0.000    2.000    2.500    3.000    0.000    0.000 
#    2.250    0.625    0.000    0.750    0.000    0.000 
#    0.000    0.000    0.000    0.000    0.000    0.000 
#
# Total GULP energy -396737.589176 kJ/mol
# GULP energy per Si atom -12398.049662 kJ/mol
# Density = 1.826948 g / cm^3
# Si number density = 18.311152 Si / 1000 Ang^3
#
#
#
# Elastic Constant Matrix: (Units=GPa)
#
#
# Indices 1 2 3 4 5 6 
#
# 1 97.9818 53.0402 45.0007 0.0000 6.0403 0.0000
# 2 53.0402 89.6502 41.8729 0.0000 6.0118 0.0000
# 3 45.0007 41.8729 83.4749 0.0000 4.6381 0.0000
# 4 0.0000 0.0000 0.0000 26.4210 0.0000 -1.9570
# 5 6.0403 6.0118 4.6381 0.0000 35.3904 0.0000
# 6 0.0000 0.0000 0.0000 -1.9570 0.0000 18.5031
#
#
#
# Elastic Compliance Matrix: (Units=1/GPa)
#
#
# Indices 1 2 3 4 5 6 
#
# 1 0.016640 -0.007337 -0.005240 0.000000 -0.000907 0.000000
# 2 -0.007337 0.017885 -0.004953 0.000000 -0.001137 0.000000
# 3 -0.005240 -0.004953 0.017319 0.000000 -0.000534 0.000000
# 4 0.000000 0.000000 0.000000 0.038147 0.000000 0.004035
# 5 -0.000907 -0.001137 -0.000534 0.000000 0.028674 0.000000
# 6 0.000000 0.000000 0.000000 0.004035 0.000000 0.054472
#
#
# Mechanical properties :
#
#
# Convention : Reuss Voigt Hill
#
# Bulk Modulus (GPa) = 59.57980 61.21494 60.39737
# Shear Modulus (GPa) = 23.38737 24.80910 24.09823
#
# Velocity S-wave (km/s) = 3.57770 3.68484 3.63166
# Velocity P-wave (km/s) = 7.04802 7.18380 7.11624
#
# Compressibility (1/GPa) = 0.01678421
#
# Stress axis : x y z
#
# Youngs Moduli (GPa) = 60.09647 55.91370 57.74101
#
# Poissons Ratio (x) = 0.41021 0.30256
# Poissons Ratio (y) = 0.44090 0.28600
# Poissons Ratio (z) = 0.31490 0.27695
#
# Static dielectric constant tensor:
#      x y z
#    x 3.319740 0.000000 -0.111680 
#    y 0.000000 3.128400 0.000000 
#    z -0.111680 0.000000 3.529600 
# 
# 
# High freq. dielectric constant tensor:
#      x y z
#    x 1.692660 0.000000 -0.012360 
#    y 0.000000 1.689100 0.000000 
#    z -0.012360 0.000000 1.718680 
# 
# From -- ./inp_files/147163.got.cif
#   From: 2010.06.25/outbox.cif.g09.slc.cpg/sg15_74_cif.got.tgz:147163.got - 2010.06.28 07:06:18.
