data_PCOD8131094
_publ_section_title
;
Structure prediction by ZEFSAII (Michael W. Deem and Ramdas Pophale) SiO2 
 PCOD8131094
Probable space group: C 2/C
;
_chemical_formula_sum "Si O2"
_cell_formula_units_Z 56
_cell_length_a 9.007586
_cell_length_b 30.073948
_cell_length_c 21.554593
_cell_angle_alpha 90.000000
_cell_angle_beta 27.900727
_cell_angle_gamma 90.000000
_cell_volume 2732.309004
_symmetry_space_group_name_H-M "C 2/C"
_symmetry_group_IT_number 15
_symmetry_cell_setting 'monoclinic'
loop_
_space_group_symop_operation_xyz
x,y,z
-x,y,1/2-z
-x,-y,-z
x,-y,1/2+z
1/2+x,1/2+y,z
1/2-x,1/2+y,1/2-z
1/2-x,1/2-y,-z
1/2+x,1/2-y,1/2+z
loop_
_atom_site_type_symbol
_atom_site_label
_atom_site_fract_x
_atom_site_fract_y
_atom_site_fract_z
Si Si1 0.724292 0.963043 0.725981
Si Si2 0.783147 0.393675 0.947389
Si Si3 0.812772 0.808630 0.968441
Si Si4 0.735862 0.061970 0.720405
Si Si5 0.506057 0.249512 0.493732
Si Si6 0.684031 0.402530 0.494795
Si Si7 0.913029 0.704039 0.161050
O O1 0.500000 0.967100 0.750000
O O2 0.561055 0.930421 0.836478
O O3 0.062538 0.943968 0.579571
O O4 0.800791 0.012377 0.723202
O O5 0.568318 0.390612 0.965537
O O6 0.937616 0.345507 0.904627
O O7 0.558842 0.411370 0.085945
O O8 0.505177 0.786962 0.049411
O O9 0.790966 0.860893 0.969591
O O10 0.119022 0.794688 0.815501
O O11 0.824104 0.792721 0.036761
O O12 0.500000 0.057438 0.750000
O O13 0.544180 0.089325 0.842033
O O14 0.156299 0.263034 0.604408
O O15 0.681845 0.227034 0.369472
#
# Coordination Sequence:
#
# PCOD8131094 Si02
#       7
#     8   8   8   8   8   8   8
#     4   9  16  28  52  76 110 153 190 229 289 345
#     4  10  18  31  53  80 113 153 187 236 289 346
#     4  11  21  41  59  85 115 154 197 241 293 355
#     4   9  18  30  44  82 120 145 186 237 287 343
#     4  10  24  38  58  86 110 148 200 246 290 340
#     4  10  18  31  53  80 113 153 187 236 289 346
#     4  11  21  41  59  85 115 154 197 241 293 355
#
# _framework density 20.495487000000001
#
# number of rings (size 3 to 8) (size 9 to 14) (size 15 to 20)
#    0.000    2.000    2.857    1.714    0.000    3.429 
#   15.429    0.000    0.000    0.000    0.000    6.000 
#    0.000    0.000    0.000    0.000    0.000    0.000 
#
# Total GULP energy -346892.880574 kJ/mol
# GULP energy per Si atom -12389.031449 kJ/mol
# Density = 2.044884 g / cm^3
# Si number density = 20.495487 Si / 1000 Ang^3
#
#
#
# Elastic Constant Matrix: (Units=GPa)
#
#
# Indices 1 2 3 4 5 6 
#
# 1 54.9488 30.2491 20.9902 0.0023 7.8013 0.0002
# 2 30.2491 119.5681 52.9891 -0.0004 5.6464 0.0007
# 3 20.9902 52.9891 131.5620 0.0004 15.1410 0.0026
# 4 0.0023 -0.0004 0.0004 30.8909 -0.0014 7.5143
# 5 7.8013 5.6464 15.1410 -0.0014 14.6402 0.0003
# 6 0.0002 0.0007 0.0026 7.5143 0.0003 13.4291
#
#
#
# Elastic Compliance Matrix: (Units=1/GPa)
#
#
# Indices 1 2 3 4 5 6 
#
# 1 0.022507 -0.005038 -0.000460 -0.000003 -0.009575 0.000002
# 2 -0.005038 0.011310 -0.004039 0.000001 0.002500 0.000000
# 3 -0.000460 -0.004039 0.010322 0.000000 -0.008873 -0.000001
# 4 -0.000003 0.000001 0.000000 0.037472 0.000005 -0.020968
# 5 -0.009575 0.002500 -0.008873 0.000005 0.081619 -0.000003
# 6 0.000002 0.000000 -0.000001 -0.020968 -0.000003 0.086198
#
#
# Mechanical properties :
#
#
# Convention : Reuss Voigt Hill
#
# Bulk Modulus (GPa) = 39.89581 57.17065 48.53323
# Shear Modulus (GPa) = 18.05976 25.24872 21.65424
#
# Velocity S-wave (km/s) = 2.97165 3.51367 3.25397
# Velocity P-wave (km/s) = 5.59305 6.66453 6.15216
#
# Compressibility (1/GPa) = 0.02506529
#
# Stress axis : x y z
#
# Youngs Moduli (GPa) = 44.43012 88.41719 96.87729
#
# Poissons Ratio (x) = 0.44545 0.04455
# Poissons Ratio (y) = 0.22384 0.39131
# Poissons Ratio (z) = 0.02043 0.35714
#
# Static dielectric constant tensor:
#      x y z
#    x 3.413870 0.000000 0.110240 
#    y 0.000000 3.966220 0.000000 
#    z 0.110240 0.000000 3.786560 
# 
# 
# High freq. dielectric constant tensor:
#      x y z
#    x 1.752070 0.000000 0.005290 
#    y 0.000000 1.817130 0.000000 
#    z 0.005290 0.000000 1.800170 
# 
# From -- ./inp_files/234931.got.cif
#   From: 2010.06.25/outbox.cif.g09.slc.cpg/sg15_118_cif.got.tgz:234931.got - 2010.06.28 07:06:18.
