data_PCOD8131170
_publ_section_title
;
Structure prediction by ZEFSAII (Michael W. Deem and Ramdas Pophale) SiO2 
 PCOD8131170
Probable space group: C 2/C
;
_chemical_formula_sum "Si O2"
_cell_formula_units_Z 44
_cell_length_a 16.710389
_cell_length_b 33.433039
_cell_length_c 5.194804
_cell_angle_alpha 90.000000
_cell_angle_beta 123.687710
_cell_angle_gamma 90.000000
_cell_volume 2414.866197
_symmetry_space_group_name_H-M "C 2/C"
_symmetry_group_IT_number 15
_symmetry_cell_setting 'monoclinic'
loop_
_space_group_symop_operation_xyz
x,y,z
-x,y,1/2-z
-x,-y,-z
x,-y,1/2+z
1/2+x,1/2+y,z
1/2-x,1/2+y,1/2-z
1/2-x,1/2-y,-z
1/2+x,1/2-y,1/2+z
loop_
_atom_site_type_symbol
_atom_site_label
_atom_site_fract_x
_atom_site_fract_y
_atom_site_fract_z
Si Si1 0.935213 0.699642 0.882756
Si Si2 0.600092 0.286548 0.783064
Si Si3 0.249784 0.348260 0.372738
Si Si4 0.823693 0.888692 0.024383
Si Si5 0.612159 0.524537 0.948453
Si Si6 0.500000 0.656235 0.750000
O O1 0.874742 0.741014 0.745528
O O2 0.860469 0.663691 0.777955
O O3 0.000000 0.690888 0.750000
O O4 0.000000 0.703252 0.250000
O O5 0.500000 0.286234 0.750000
O O6 0.581128 0.315272 0.510859
O O7 0.688760 0.307844 0.087945
O O8 0.252427 0.377155 0.129446
O O9 0.288577 0.371114 0.690618
O O10 0.825422 0.936188 0.995440
O O11 0.931418 0.872805 0.298126
O O12 0.500000 0.535631 0.750000
O O13 0.639316 0.492778 0.775994
#
# Coordination Sequence:
#
# PCOD8131170 Si02
#       6
#     8   8   8   8   8   4
#     4  11  23  39  56  74 108 146 193 245 291 322
#     4  10  19  34  51  78 107 147 189 230 279 322
#     4  11  23  35  56  81 108 145 194 235 278 326
#     4  11  21  35  55  80 116 143 190 220 266 321
#     4  10  20  34  53  81 116 154 181 206 260 333
#     4  10  18  32  48  78 108 152 184 222 258 314
#
# _framework density 18.220472000000001
#
# number of rings (size 3 to 8) (size 9 to 14) (size 15 to 20)
#    0.000    1.455    3.636    2.727    0.000    0.000 
#    0.000    5.455    0.000    0.000    0.000    0.000 
#    0.000   50.909    0.000    0.000    0.000    0.000 
#
# Total GULP energy -272640.697655 kJ/mol
# GULP energy per Si atom -12392.758984 kJ/mol
# Density = 1.817900 g / cm^3
# Si number density = 18.220472 Si / 1000 Ang^3
#
#
#
# Elastic Constant Matrix: (Units=GPa)
#
#
# Indices 1 2 3 4 5 6 
#
# 1 95.0623 57.2667 34.5275 0.0000 -17.0097 0.0000
# 2 57.2667 112.6173 25.9340 0.0000 -2.6830 0.0000
# 3 34.5275 25.9340 42.0806 0.0000 -18.9195 0.0000
# 4 0.0000 0.0000 0.0000 18.4046 0.0000 -4.3523
# 5 -17.0097 -2.6830 -18.9195 0.0000 30.3195 0.0000
# 6 0.0000 0.0000 0.0000 -4.3523 0.0000 30.5341
#
#
#
# Elastic Compliance Matrix: (Units=1/GPa)
#
#
# Indices 1 2 3 4 5 6 
#
# 1 0.019150 -0.007541 -0.009083 0.000000 0.004408 0.000000
# 2 -0.007541 0.013729 -0.005045 0.000000 -0.006164 0.000000
# 3 -0.009083 -0.005045 0.044248 0.000000 0.022069 0.000000
# 4 0.000000 0.000000 0.000000 0.056230 0.000000 0.008015
# 5 0.004408 -0.006164 0.022069 0.000000 0.048680 0.000000
# 6 0.000000 0.000000 0.000000 0.008015 0.000000 0.033893
#
#
# Mechanical properties :
#
#
# Convention : Reuss Voigt Hill
#
# Bulk Modulus (GPa) = 29.59581 53.91294 41.75438
# Shear Modulus (GPa) = 18.48205 24.65378 21.56791
#
# Velocity S-wave (km/s) = 3.18835 3.68242 3.44425
# Velocity P-wave (km/s) = 5.46192 6.90896 6.22761
#
# Compressibility (1/GPa) = 0.03378857
#
# Stress axis : x y z
#
# Youngs Moduli (GPa) = 52.21837 72.83678 22.59983
#
# Poissons Ratio (x) = 0.54928 0.20528
# Poissons Ratio (y) = 0.39379 0.11401
# Poissons Ratio (z) = 0.47432 0.36745
#
# Static dielectric constant tensor:
#      x y z
#    x 3.224050 0.000000 -0.132380 
#    y 0.000000 3.421100 0.000000 
#    z -0.132380 0.000000 2.971830 
# 
# 
# High freq. dielectric constant tensor:
#      x y z
#    x 1.695820 0.000000 -0.019560 
#    y 0.000000 1.699770 0.000000 
#    z -0.019560 0.000000 1.689040 
# 
# From -- ./inp_files/5771.got.cif
#   From: 2010.06.25/outbox.cif.g09.slc.cpg/sg15_3_cif.got.tgz:5771.got - 2010.06.28 07:06:18.
