data_PCOD8131791
_publ_section_title
;
Structure prediction by ZEFSAII (Michael W. Deem and Ramdas Pophale) SiO2 
 PCOD8131791
Probable space group: C 2/C
;
_chemical_formula_sum "Si O2"
_cell_formula_units_Z 48
_cell_length_a 23.251321
_cell_length_b 11.558974
_cell_length_c 11.639314
_cell_angle_alpha 90.000000
_cell_angle_beta 129.730507
_cell_angle_gamma 90.000000
_cell_volume 2405.770259
_symmetry_space_group_name_H-M "C 2/C"
_symmetry_group_IT_number 15
_symmetry_cell_setting 'monoclinic'
loop_
_space_group_symop_operation_xyz
x,y,z
-x,y,1/2-z
-x,-y,-z
x,-y,1/2+z
1/2+x,1/2+y,z
1/2-x,1/2+y,1/2-z
1/2-x,1/2-y,-z
1/2+x,1/2-y,1/2+z
loop_
_atom_site_type_symbol
_atom_site_label
_atom_site_fract_x
_atom_site_fract_y
_atom_site_fract_z
Si Si1 0.404727 0.813799 0.449078
Si Si2 0.424358 0.062190 0.581789
Si Si3 0.667694 0.797238 0.375217
Si Si4 0.589196 0.343745 0.347544
Si Si5 0.915858 0.094345 0.114937
Si Si6 0.936756 0.237682 0.926660
O O1 0.342674 0.832172 0.271307
O O2 0.370088 0.734188 0.504522
O O3 0.474844 0.746697 0.483241
O O4 0.428003 0.932878 0.539965
O O5 0.500000 0.090557 0.750000
O O6 0.353646 0.090044 0.574987
O O7 0.414245 0.141769 0.456674
O O8 0.750000 0.750000 0.500000
O O9 0.612535 0.693761 0.337686
O O10 0.500000 0.339087 0.250000
O O11 0.624643 0.472011 0.410158
O O12 0.608366 0.288329 0.248043
O O13 0.000000 0.068512 0.250000
O O14 0.912481 0.131407 0.977532
#
# Coordination Sequence:
#
# PCOD8131791 Si02
#       6
#     8   8   8   8   8   8
#     4  11  21  36  61  89 121 148 197 250 297 356
#     4  11  21  38  67  90 117 157 201 254 309 346
#     4  11  24  42  58  83 122 162 198 241 305 365
#     4   9  21  30  56  94 117 145 192 247 299 346
#     4  10  19  37  61  83 114 158 197 241 297 343
#     4  10  18  34  58  92 121 143 192 256 299 350
#
# _framework density 19.952031000000002
#
# number of rings (size 3 to 8) (size 9 to 14) (size 15 to 20)
#    0.000    1.667    3.333    3.000    4.667    2.000 
#    3.000    0.000    0.000    5.000    0.000    0.000 
#    0.000    0.000    0.000    0.000    0.000    0.000 
#
# Total GULP energy -297435.945225 kJ/mol
# GULP energy per Si atom -12393.164384 kJ/mol
# Density = 1.990662 g / cm^3
# Si number density = 19.952031 Si / 1000 Ang^3
#
#
#
# Elastic Constant Matrix: (Units=GPa)
#
#
# Indices 1 2 3 4 5 6 
#
# 1 55.4968 26.3298 44.3659 0.0000 -17.4248 0.0000
# 2 26.3298 120.1394 37.0952 0.0000 -25.9310 0.0000
# 3 44.3659 37.0952 92.4141 0.0000 -31.7374 0.0000
# 4 0.0000 0.0000 0.0000 20.8351 0.0000 -7.6751
# 5 -17.4248 -25.9310 -31.7374 0.0000 38.1029 0.0000
# 6 0.0000 0.0000 0.0000 -7.6751 0.0000 11.9371
#
#
#
# Elastic Compliance Matrix: (Units=1/GPa)
#
#
# Indices 1 2 3 4 5 6 
#
# 1 0.029888 -0.002256 -0.012993 0.000000 0.001311 0.000000
# 2 -0.002256 0.010286 -0.001395 0.000000 0.004807 0.000000
# 3 -0.012993 -0.001395 0.021363 0.000000 0.010903 0.000000
# 4 0.000000 0.000000 0.000000 0.062892 0.000000 0.040437
# 5 0.001311 0.004807 0.010903 0.000000 0.039196 0.000000
# 6 0.000000 0.000000 0.000000 0.040437 0.000000 0.109772
#
#
# Mechanical properties :
#
#
# Convention : Reuss Voigt Hill
#
# Bulk Modulus (GPa) = 35.39946 53.73688 44.56817
# Shear Modulus (GPa) = 15.81770 24.85897 20.33834
#
# Velocity S-wave (km/s) = 2.81870 3.53361 3.19621
# Velocity P-wave (km/s) = 5.32675 6.60606 6.00060
#
# Compressibility (1/GPa) = 0.02824902
#
# Stress axis : x y z
#
# Youngs Moduli (GPa) = 33.45867 97.21664 46.81029
#
# Poissons Ratio (x) = 0.21927 0.60820
# Poissons Ratio (y) = 0.07547 0.06532
# Poissons Ratio (z) = 0.43473 0.13566
#
# Static dielectric constant tensor:
#      x y z
#    x 3.456170 0.000000 -0.484830 
#    y 0.000000 4.106470 0.000000 
#    z -0.484830 0.000000 3.583630 
# 
# 
# High freq. dielectric constant tensor:
#      x y z
#    x 1.748900 0.000000 -0.045430 
#    y 0.000000 1.788190 0.000000 
#    z -0.045430 0.000000 1.762460 
# 
# From -- ./inp_files/110540.got.cif
#   From: 2010.06.25/outbox.cif.g09.slc.cpg/sg15_56_cif.got.tgz:110540.got - 2010.06.28 07:06:18.
