data_PCOD8131452
_publ_section_title
;
Structure prediction by ZEFSAII (Michael W. Deem and Ramdas Pophale) SiO2 
 PCOD8131452
Probable space group: C 2/C
;
_chemical_formula_sum "Si O2"
_cell_formula_units_Z 60
_cell_length_a 5.112710
_cell_length_b 28.661015
_cell_length_c 21.897511
_cell_angle_alpha 90.000000
_cell_angle_beta 86.348201
_cell_angle_gamma 90.000000
_cell_volume 3202.246586
_symmetry_space_group_name_H-M "C 2/C"
_symmetry_group_IT_number 15
_symmetry_cell_setting 'monoclinic'
loop_
_space_group_symop_operation_xyz
x,y,z
-x,y,1/2-z
-x,-y,-z
x,-y,1/2+z
1/2+x,1/2+y,z
1/2-x,1/2+y,1/2-z
1/2-x,1/2-y,-z
1/2+x,1/2-y,1/2+z
loop_
_atom_site_type_symbol
_atom_site_label
_atom_site_fract_x
_atom_site_fract_y
_atom_site_fract_z
Si Si1 0.651633 0.709116 0.648177
Si Si2 0.789580 0.801425 0.971764
Si Si3 0.164514 0.413521 0.184327
Si Si4 0.765646 0.114107 0.208283
Si Si5 0.312306 0.190544 0.390816
Si Si6 0.500000 0.349321 0.250000
Si Si7 0.854682 0.664716 0.903291
Si Si8 0.235118 0.988905 0.790043
O O1 0.667163 0.764798 0.653838
O O2 0.710751 0.685247 0.713768
O O3 0.360183 0.693773 0.632040
O O4 0.876601 0.694118 0.597558
O O5 0.588834 0.813942 0.920999
O O6 0.084723 0.805143 0.943964
O O7 0.750000 0.750000 0.000000
O O8 0.748979 0.839878 0.025974
O O9 0.417473 0.383084 0.196291
O O10 0.058677 0.385916 0.126449
O O11 0.228470 0.467182 0.164005
O O12 0.000000 0.412356 0.250000
O O13 0.500000 0.116699 0.250000
O O14 0.747487 0.146113 0.149681
O O15 0.824761 0.061779 0.180126
O O16 0.000000 0.129281 0.250000
O O17 0.500000 0.982016 0.750000
O O18 0.000000 0.004901 0.750000
#
# Coordination Sequence:
#
# PCOD8131452 Si02
#       8
#     8   8   8   8   8   4   8   8
#     4  11  21  34  49  79 109 149 171 221 270 323
#     4  12  22  39  56  78 108 151 199 229 256 321
#     4  10  18  33  53  81 110 138 173 220 285 333
#     4  10  22  40  58  86 111 141 186 228 276 334
#     4  12  23  38  59  77 111 153 187 229 275 310
#     4  10  20  30  48  80 118 134 172 212 280 350
#     4  11  22  34  54  78 112 141 184 225 265 320
#     4   9  18  33  57  79 107 139 176 222 271 332
#
# _framework density 18.736846
#
# number of rings (size 3 to 8) (size 9 to 14) (size 15 to 20)
#    0.000    1.333    4.667    2.000    0.933    0.000 
#    2.400    0.000    0.000    1.600    0.000    0.000 
#    0.000    0.000    0.000    0.000    0.000    0.000 
#
# Total GULP energy -371646.961193 kJ/mol
# GULP energy per Si atom -12388.232040 kJ/mol
# Density = 1.869420 g / cm^3
# Si number density = 18.736846 Si / 1000 Ang^3
#
#
#
# Elastic Constant Matrix: (Units=GPa)
#
#
# Indices 1 2 3 4 5 6 
#
# 1 78.5335 10.3915 5.5651 0.0000 -1.5380 0.0000
# 2 10.3915 136.7320 48.3933 0.0000 8.8216 0.0000
# 3 5.5651 48.3933 64.4237 0.0000 -0.0328 0.0000
# 4 0.0000 0.0000 0.0000 20.9453 0.0000 2.1518
# 5 -1.5380 8.8216 -0.0328 0.0000 30.2020 0.0000
# 6 0.0000 0.0000 0.0000 2.1518 0.0000 22.4841
#
#
#
# Elastic Compliance Matrix: (Units=1/GPa)
#
#
# Indices 1 2 3 4 5 6 
#
# 1 0.012900 -0.000879 -0.000454 0.000000 0.000913 0.000000
# 2 -0.000879 0.010286 -0.007652 0.000000 -0.003057 0.000000
# 3 -0.000454 -0.007652 0.021311 0.000000 0.002235 0.000000
# 4 0.000000 0.000000 0.000000 0.048217 0.000000 -0.004615
# 5 0.000913 -0.003057 0.002235 0.000000 0.034052 0.000000
# 6 0.000000 0.000000 0.000000 -0.004615 0.000000 0.044918
#
#
# Mechanical properties :
#
#
# Convention : Reuss Voigt Hill
#
# Bulk Modulus (GPa) = 37.69741 45.37655 41.53698
# Shear Modulus (GPa) = 25.18953 29.08224 27.13588
#
# Velocity S-wave (km/s) = 3.67056 3.94400 3.80973
# Velocity P-wave (km/s) = 6.17472 6.70899 6.44739
#
# Compressibility (1/GPa) = 0.02652702
#
# Stress axis : x y z
#
# Youngs Moduli (GPa) = 77.52106 97.22035 46.92493
#
# Poissons Ratio (x) = 0.08542 0.02130
# Poissons Ratio (y) = 0.06811 0.35908
# Poissons Ratio (z) = 0.03518 0.74394
#
# Static dielectric constant tensor:
#      x y z
#    x 3.544070 0.000000 -0.016410 
#    y 0.000000 3.775550 0.000000 
#    z -0.016410 0.000000 3.438920 
# 
# 
# High freq. dielectric constant tensor:
#      x y z
#    x 1.741850 0.000000 -0.007170 
#    y 0.000000 1.727390 0.000000 
#    z -0.007170 0.000000 1.692540 
# 
# From -- ./inp_files/228474.got.cif
#   From: 2010.06.25/outbox.cif.g09.slc.cpg/sg15_115_cif.got.tgz:228474.got - 2010.06.28 07:06:18.
