data_PCOD8131118
_publ_section_title
;
Structure prediction by ZEFSAII (Michael W. Deem and Ramdas Pophale) SiO2 
 PCOD8131118
Probable space group: C 2/C
;
_chemical_formula_sum "Si O2"
_cell_formula_units_Z 48
_cell_length_a 13.520437
_cell_length_b 34.851082
_cell_length_c 4.982864
_cell_angle_alpha 90.000000
_cell_angle_beta 78.725009
_cell_angle_gamma 90.000000
_cell_volume 2302.619856
_symmetry_space_group_name_H-M "C 2/C"
_symmetry_group_IT_number 15
_symmetry_cell_setting 'monoclinic'
loop_
_space_group_symop_operation_xyz
x,y,z
-x,y,1/2-z
-x,-y,-z
x,-y,1/2+z
1/2+x,1/2+y,z
1/2-x,1/2+y,1/2-z
1/2-x,1/2-y,-z
1/2+x,1/2-y,1/2+z
loop_
_atom_site_type_symbol
_atom_site_label
_atom_site_fract_x
_atom_site_fract_y
_atom_site_fract_z
Si Si1 0.500000 0.762748 0.750000
Si Si2 0.786880 0.978350 0.723337
Si Si3 0.204023 0.228991 0.774169
Si Si4 0.500000 0.459941 0.750000
Si Si5 0.000000 0.089661 0.750000
Si Si6 0.500000 0.185445 0.750000
Si Si7 0.788977 0.649352 0.878524
Si Si8 0.711939 0.608571 0.437067
O O1 0.584641 0.734786 0.822460
O O2 0.536764 0.789358 0.483771
O O3 0.908652 0.984889 0.675358
O O4 0.763007 0.934237 0.677374
O O5 0.739911 0.006720 0.525723
O O6 0.250000 0.250000 0.500000
O O7 0.227706 0.184245 0.777424
O O8 0.250000 0.250000 0.000000
O O9 0.543527 0.434421 0.479687
O O10 0.094906 0.114098 0.587630
O O11 0.404916 0.159342 0.883743
O O12 0.783390 0.616176 0.656181
O O13 0.735598 0.637702 0.183820
#
# Coordination Sequence:
#
# PCOD8131118 Si02
#       8
#     4   8   8   4   4   4   8   8
#     4  12  22  43  68  97 128 167 220 261 318 386
#     4  11  20  34  56  86 122 170 216 259 311 376
#     4  12  23  42  66  97 129 169 211 263 320 389
#     4  10  18  31  54  84 118 164 222 258 296 358
#     4  10  20  38  56  82 130 179 200 252 311 388
#     4  12  24  42  72  95 118 166 216 281 325 366
#     4  12  24  42  65  96 129 163 214 272 332 375
#     4  11  24  40  60  92 133 171 212 267 317 386
#
# _framework density 20.84582
#
# number of rings (size 3 to 8) (size 9 to 14) (size 15 to 20)
#    0.000    0.667    3.333    7.500    0.000    1.333 
#    0.000    1.667    0.000    0.000    0.000   11.667 
#    0.000    0.000    0.000    0.000    0.000    0.000 
#
# Total GULP energy -297588.979349 kJ/mol
# GULP energy per Si atom -12399.540806 kJ/mol
# Density = 2.079837 g / cm^3
# Si number density = 20.845820 Si / 1000 Ang^3
#
#
#
# Elastic Constant Matrix: (Units=GPa)
#
#
# Indices 1 2 3 4 5 6 
#
# 1 115.5211 47.3484 41.2332 0.0000 4.4634 0.0000
# 2 47.3484 87.3212 43.3883 0.0000 -2.6421 0.0000
# 3 41.2332 43.3883 156.7856 0.0000 11.0809 0.0000
# 4 0.0000 0.0000 0.0000 41.4230 0.0000 8.6284
# 5 4.4634 -2.6421 11.0809 0.0000 35.1058 0.0000
# 6 0.0000 0.0000 0.0000 8.6284 0.0000 21.8978
#
#
#
# Elastic Compliance Matrix: (Units=1/GPa)
#
#
# Indices 1 2 3 4 5 6 
#
# 1 0.011496 -0.005595 -0.001372 0.000000 -0.001449 0.000000
# 2 -0.005595 0.016171 -0.003211 0.000000 0.002942 0.000000
# 3 -0.001372 -0.003211 0.007807 0.000000 -0.002531 0.000000
# 4 0.000000 0.000000 0.000000 0.026300 0.000000 -0.010363
# 5 -0.001449 0.002942 -0.002531 0.000000 0.029690 0.000000
# 6 0.000000 0.000000 0.000000 -0.010363 0.000000 0.049750
#
#
# Mechanical properties :
#
#
# Convention : Reuss Voigt Hill
#
# Bulk Modulus (GPa) = 66.16041 69.28530 67.72285
# Shear Modulus (GPa) = 30.01037 34.86251 32.43644
#
# Velocity S-wave (km/s) = 3.79837 4.09393 3.94892
# Velocity P-wave (km/s) = 7.14449 7.46031 7.30411
#
# Compressibility (1/GPa) = 0.01511478
#
# Stress axis : x y z
#
# Youngs Moduli (GPa) = 86.98989 61.84056 128.09527
#
# Poissons Ratio (x) = 0.34601 0.17580
# Poissons Ratio (y) = 0.48673 0.41137
# Poissons Ratio (z) = 0.11938 0.19860
#
# Static dielectric constant tensor:
#      x y z
#    x 3.665810 0.000000 0.257020 
#    y 0.000000 3.722160 0.000000 
#    z 0.257020 0.000000 4.100860 
# 
# 
# High freq. dielectric constant tensor:
#      x y z
#    x 1.786780 0.000000 0.023960 
#    y 0.000000 1.807900 0.000000 
#    z 0.023960 0.000000 1.844830 
# 
# From -- ./inp_files/8700.got.cif
#   From: 2010.06.25/outbox.cif.g09.slc.cpg/sg15_5_cif.got.tgz:8700.got - 2010.06.28 07:06:18.
