data_PCOD8131655
_publ_section_title
;
Structure prediction by ZEFSAII (Michael W. Deem and Ramdas Pophale) SiO2 
 PCOD8131655
Probable space group: C 2/C
;
_chemical_formula_sum "Si O2"
_cell_formula_units_Z 56
_cell_length_a 18.644998
_cell_length_b 8.514343
_cell_length_c 28.907841
_cell_angle_alpha 90.000000
_cell_angle_beta 40.976666
_cell_angle_gamma 90.000000
_cell_volume 3009.320954
_symmetry_space_group_name_H-M "C 2/C"
_symmetry_group_IT_number 15
_symmetry_cell_setting 'monoclinic'
loop_
_space_group_symop_operation_xyz
x,y,z
-x,y,1/2-z
-x,-y,-z
x,-y,1/2+z
1/2+x,1/2+y,z
1/2-x,1/2+y,1/2-z
1/2-x,1/2-y,-z
1/2+x,1/2-y,1/2+z
loop_
_atom_site_type_symbol
_atom_site_label
_atom_site_fract_x
_atom_site_fract_y
_atom_site_fract_z
Si Si1 0.127884 0.016713 0.942746
Si Si2 0.130602 0.083364 0.184921
Si Si3 0.283069 0.245726 0.348724
Si Si4 0.446434 0.960830 0.820867
Si Si5 0.654167 0.901064 0.773192
Si Si6 0.252577 0.703917 0.694282
Si Si7 0.726272 0.799769 0.063485
O O1 0.177957 0.839983 0.923506
O O2 0.172874 0.103005 0.875761
O O3 0.161804 0.129564 0.969121
O O4 0.000000 0.000000 0.000000
O O5 0.158251 0.202318 0.213065
O O6 0.173111 0.152555 0.115820
O O7 0.000000 0.047212 0.250000
O O8 0.209414 0.932461 0.152457
O O9 0.390073 0.185684 0.323272
O O10 0.277618 0.195340 0.297903
O O11 0.500000 0.054922 0.750000
O O12 0.528236 0.894624 0.819396
O O13 0.363381 0.064472 0.890260
O O14 0.669766 0.821454 0.815250
O O15 0.691670 0.082493 0.758022
O O16 0.750000 0.750000 0.000000
#
# Coordination Sequence:
#
# PCOD8131655 Si02
#       7
#     8   8   8   8   8   8   8
#     4   9  20  43  58  73 117 165 187 227 298 338
#     4  11  20  37  60  85 112 146 187 235 297 336
#     4   9  19  35  59  83 113 142 187 235 275 341
#     4   9  17  36  60  77 110 153 177 227 292 334
#     4  10  18  34  53  85 111 137 187 235 280 329
#     4  10  21  34  56  83 116 145 185 236 279 346
#     4  10  21  39  55  84 111 146 198 236 275 355
#
# _framework density 18.60885
#
# number of rings (size 3 to 8) (size 9 to 14) (size 15 to 20)
#    0.000    2.286    0.000    6.000    0.000    0.000 
#   20.571    2.857    0.000    0.000    0.000    0.000 
#    0.000    0.000    0.000    0.000    0.000    0.000 
#
# Total GULP energy -346979.697970 kJ/mol
# GULP energy per Si atom -12392.132070 kJ/mol
# Density = 1.856650 g / cm^3
# Si number density = 18.608850 Si / 1000 Ang^3
#
#
#
# Elastic Constant Matrix: (Units=GPa)
#
#
# Indices 1 2 3 4 5 6 
#
# 1 121.2583 39.9433 47.9320 0.0007 -6.3566 0.0010
# 2 39.9433 112.5487 36.0797 0.0010 2.5021 0.0008
# 3 47.9320 36.0797 67.6126 0.0001 -6.8809 -0.0002
# 4 0.0007 0.0010 0.0001 15.2389 0.0000 -0.5563
# 5 -6.3566 2.5021 -6.8809 0.0000 36.9355 0.0001
# 6 0.0010 0.0008 -0.0002 -0.5563 0.0001 24.5771
#
#
#
# Elastic Compliance Matrix: (Units=1/GPa)
#
#
# Indices 1 2 3 4 5 6 
#
# 1 0.011778 -0.001866 -0.007273 0.000000 0.000799 0.000000
# 2 -0.001866 0.011137 -0.004820 -0.000001 -0.001974 0.000000
# 3 -0.007273 -0.004820 0.022857 0.000000 0.003333 0.000001
# 4 0.000000 -0.000001 0.000000 0.065676 0.000000 0.001487
# 5 0.000799 -0.001974 0.003333 0.000000 0.027966 0.000000
# 6 0.000000 0.000000 0.000001 0.001487 0.000000 0.040722
#
#
# Mechanical properties :
#
#
# Convention : Reuss Voigt Hill
#
# Bulk Modulus (GPa) = 56.01227 61.03662 58.52445
# Shear Modulus (GPa) = 23.36375 27.18126 25.27251
#
# Velocity S-wave (km/s) = 3.54717 3.82601 3.68923
# Velocity P-wave (km/s) = 6.85140 7.23801 7.04736
#
# Compressibility (1/GPa) = 0.01785323
#
# Stress axis : x y z
#
# Youngs Moduli (GPa) = 84.90153 89.79395 43.74953
#
# Poissons Ratio (x) = 0.16760 0.31818
# Poissons Ratio (y) = 0.15847 0.21089
# Poissons Ratio (z) = 0.61746 0.43285
#
# Static dielectric constant tensor:
#      x y z
#    x 3.442380 -0.000010 -0.089220 
#    y -0.000010 3.559560 0.000000 
#    z -0.089220 0.000000 3.265040 
# 
# 
# High freq. dielectric constant tensor:
#      x y z
#    x 1.728900 0.000000 -0.005260 
#    y 0.000000 1.728500 0.000000 
#    z -0.005260 0.000000 1.691840 
# 
# From -- ./inp_files/276609.got.cif
#   From: 2010.06.25/outbox.cif.g09.slc.cpg/sg15_139_cif.got.tgz:276609.got - 2010.06.28 07:06:18.
