data_PCOD8131496
_publ_section_title
;
Structure prediction by ZEFSAII (Michael W. Deem and Ramdas Pophale) SiO2 
 PCOD8131496
Probable space group: C 2/C
;
_chemical_formula_sum "Si O2"
_cell_formula_units_Z 64
_cell_length_a 30.145760
_cell_length_b 11.896770
_cell_length_c 14.390555
_cell_angle_alpha 90.000000
_cell_angle_beta 142.128071
_cell_angle_gamma 90.000000
_cell_volume 3168.322922
_symmetry_space_group_name_H-M "C 2/C"
_symmetry_group_IT_number 15
_symmetry_cell_setting 'monoclinic'
loop_
_space_group_symop_operation_xyz
x,y,z
-x,y,1/2-z
-x,-y,-z
x,-y,1/2+z
1/2+x,1/2+y,z
1/2-x,1/2+y,1/2-z
1/2-x,1/2-y,-z
1/2+x,1/2-y,1/2+z
loop_
_atom_site_type_symbol
_atom_site_label
_atom_site_fract_x
_atom_site_fract_y
_atom_site_fract_z
Si Si1 0.917992 0.233285 0.279440
Si Si2 0.251223 0.935827 0.463752
Si Si3 0.922733 0.212227 0.921567
Si Si4 0.151944 0.241466 0.888693
Si Si5 0.581640 0.425950 0.406208
Si Si6 0.889051 0.971575 0.845551
Si Si7 0.213881 0.342168 0.375272
Si Si8 0.652573 0.664409 0.516176
O O1 0.905774 0.102056 0.283280
O O2 0.870561 0.308186 0.273528
O O3 0.889409 0.245066 0.126671
O O4 0.001550 0.270045 0.425064
O O5 0.212306 0.852839 0.471703
O O6 0.313400 0.859075 0.517414
O O7 0.194666 0.984909 0.294726
O O8 0.286298 0.035297 0.580102
O O9 0.889910 0.271787 0.776656
O O10 0.939876 0.081815 0.925216
O O11 0.865737 0.214448 0.912767
O O12 0.099782 0.187309 0.879416
O O13 0.500000 0.459869 0.250000
O O14 0.594791 0.397920 0.536389
O O15 0.628373 0.536040 0.460762
O O16 0.250000 0.250000 0.500000
O O17 0.260307 0.335786 0.356379
#
# Coordination Sequence:
#
# PCOD8131496 Si02
#       8
#     8   8   8   8   8   8   8   8
#     4  11  19  34  57  82 116 147 187 254 290 341
#     4  10  19  39  57  83 109 162 189 238 290 347
#     4  10  20  33  55  86 112 154 191 235 300 351
#     4  10  21  38  58  76 127 151 190 236 293 362
#     4  11  20  34  57  86 114 147 187 248 295 344
#     4  10  19  33  56  86 112 144 197 234 296 342
#     4  10  19  35  58  82 118 148 193 247 291 335
#     4  10  18  33  55  86 113 144 197 248 291 338
#
# _framework density 20.199960999999998
#
# number of rings (size 3 to 8) (size 9 to 14) (size 15 to 20)
#    0.000    1.750    3.750    3.750    0.000    0.000 
#    9.000    0.625    0.000    3.000    0.000    0.000 
#    0.000    0.000    0.000    0.000    0.000    0.000 
#
# Total GULP energy -396572.986608 kJ/mol
# GULP energy per Si atom -12392.905832 kJ/mol
# Density = 2.015399 g / cm^3
# Si number density = 20.199961 Si / 1000 Ang^3
#
#
#
# Elastic Constant Matrix: (Units=GPa)
#
#
# Indices 1 2 3 4 5 6 
#
# 1 74.0089 13.3885 25.4544 0.0000 7.5618 0.0000
# 2 13.3885 50.0071 15.3497 0.0000 8.0550 0.0000
# 3 25.4544 15.3497 75.3812 0.0000 -1.7926 0.0000
# 4 0.0000 0.0000 0.0000 18.7641 0.0000 3.5174
# 5 7.5618 8.0550 -1.7926 0.0000 33.8041 0.0000
# 6 0.0000 0.0000 0.0000 3.5174 0.0000 25.7397
#
#
#
# Elastic Compliance Matrix: (Units=1/GPa)
#
#
# Indices 1 2 3 4 5 6 
#
# 1 0.015977 -0.002201 -0.005026 0.000000 -0.003316 0.000000
# 2 -0.002201 0.022634 -0.003987 0.000000 -0.005112 0.000000
# 3 -0.005026 -0.003987 0.015844 0.000000 0.002915 0.000000
# 4 0.000000 0.000000 0.000000 0.054694 0.000000 -0.007474
# 5 -0.003316 -0.005112 0.002915 0.000000 0.031697 0.000000
# 6 0.000000 0.000000 0.000000 -0.007474 0.000000 0.039872
#
#
# Mechanical properties :
#
#
# Convention : Reuss Voigt Hill
#
# Bulk Modulus (GPa) = 31.22317 34.19805 32.71061
# Shear Modulus (GPa) = 23.38393 25.34190 24.36291
#
# Velocity S-wave (km/s) = 3.40608 3.54581 3.47664
# Velocity P-wave (km/s) = 5.56409 5.80777 5.68723
#
# Compressibility (1/GPa) = 0.03202750
#
# Stress axis : x y z
#
# Youngs Moduli (GPa) = 62.58822 44.18176 63.11426
#
# Poissons Ratio (x) = 0.09723 0.31721
# Poissons Ratio (y) = 0.13774 0.25165
# Poissons Ratio (z) = 0.31456 0.17617
#
# Static dielectric constant tensor:
#      x y z
#    x 3.837590 0.000000 0.189310 
#    y 0.000000 3.581480 0.000000 
#    z 0.189310 0.000000 3.783980 
# 
# 
# High freq. dielectric constant tensor:
#      x y z
#    x 1.781110 0.000000 0.004610 
#    y 0.000000 1.752600 0.000000 
#    z 0.004610 0.000000 1.782440 
# 
# From -- ./inp_files/181784.got.cif
#   From: 2010.06.25/outbox.cif.g09.slc.cpg/sg15_91_cif.got.tgz:181784.got - 2010.06.28 07:06:18.
