data_PCOD8131252
_publ_section_title
;
Structure prediction by ZEFSAII (Michael W. Deem and Ramdas Pophale) SiO2 
 PCOD8131252
Probable space group: C 2/C
;
_chemical_formula_sum "Si O2"
_cell_formula_units_Z 64
_cell_length_a 21.220394
_cell_length_b 23.245751
_cell_length_c 12.716083
_cell_angle_alpha 90.000000
_cell_angle_beta 36.951675
_cell_angle_gamma 90.000000
_cell_volume 3770.742570
_symmetry_space_group_name_H-M "C 2/C"
_symmetry_group_IT_number 15
_symmetry_cell_setting 'monoclinic'
loop_
_space_group_symop_operation_xyz
x,y,z
-x,y,1/2-z
-x,-y,-z
x,-y,1/2+z
1/2+x,1/2+y,z
1/2-x,1/2+y,1/2-z
1/2-x,1/2-y,-z
1/2+x,1/2-y,1/2+z
loop_
_atom_site_type_symbol
_atom_site_label
_atom_site_fract_x
_atom_site_fract_y
_atom_site_fract_z
Si Si1 0.255371 0.172097 0.601939
Si Si2 0.116491 0.892255 0.595195
Si Si3 0.362027 0.209024 0.253705
Si Si4 0.395008 0.782000 0.095263
Si Si5 0.709220 0.187854 0.571122
Si Si6 0.757695 0.832867 0.782283
Si Si7 0.381855 0.561127 0.179694
Si Si8 0.376276 0.434273 0.143411
O O1 0.322217 0.171474 0.405398
O O2 0.178813 0.226210 0.696059
O O3 0.332847 0.178184 0.596720
O O4 0.188702 0.113584 0.704890
O O5 0.198135 0.841117 0.486324
O O6 0.132183 0.930960 0.676982
O O7 0.136092 0.928899 0.465032
O O8 0.000000 0.864983 0.750000
O O9 0.325526 0.173981 0.199754
O O10 0.485559 0.217701 0.098321
O O11 0.390856 0.810741 0.217750
O O12 0.344562 0.718048 0.165330
O O13 0.750000 0.250000 0.500000
O O14 0.689627 0.162224 0.481427
O O15 0.819157 0.892978 0.692157
O O16 0.334213 0.498073 0.223265
O O17 0.502405 0.568762 0.983705
#
# Coordination Sequence:
#
# PCOD8131252 Si02
#       8
#     8   8   8   8   8   8   8   8
#     4  10  20  34  51  76 103 137 181 212 261 314
#     4   9  17  31  50  73 104 134 164 211 262 312
#     4  10  21  33  51  75 105 141 171 218 266 309
#     4  10  18  33  53  75 103 135 175 215 261 321
#     4   9  17  31  47  76 100 129 167 208 260 312
#     4   9  19  34  48  75 110 131 166 216 271 312
#     4   9  19  32  51  79 106 134 172 214 265 317
#     4  10  18  32  54  77 102 139 176 212 261 319
#
# _framework density 16.972784999999998
#
# number of rings (size 3 to 8) (size 9 to 14) (size 15 to 20)
#    0.000    2.500    1.250    1.125    0.000    2.500 
#    0.000    3.125    0.000    0.750    6.500    0.000 
#    0.000    0.000    0.000    0.000    0.000    0.000 
#
# Total GULP energy -396554.718496 kJ/mol
# GULP energy per Si atom -12392.334953 kJ/mol
# Density = 1.693415 g / cm^3
# Si number density = 16.972785 Si / 1000 Ang^3
#
#
#
# Elastic Constant Matrix: (Units=GPa)
#
#
# Indices 1 2 3 4 5 6 
#
# 1 64.4725 36.6177 41.4100 0.0000 8.2763 0.0000
# 2 36.6177 101.3139 33.6385 0.0000 -2.0806 0.0000
# 3 41.4100 33.6385 101.4618 0.0000 3.5711 0.0000
# 4 0.0000 0.0000 0.0000 23.6412 0.0000 -1.8107
# 5 8.2763 -2.0806 3.5711 0.0000 22.0196 0.0000
# 6 0.0000 0.0000 0.0000 -1.8107 0.0000 23.5888
#
#
#
# Elastic Compliance Matrix: (Units=1/GPa)
#
#
# Indices 1 2 3 4 5 6 
#
# 1 0.025592 -0.006822 -0.007867 0.000000 -0.008988 0.000000
# 2 -0.006822 0.012970 -0.001659 0.000000 0.004059 0.000000
# 3 -0.007867 -0.001659 0.013596 0.000000 0.000595 0.000000
# 4 0.000000 0.000000 0.000000 0.042549 0.000000 0.003266
# 5 -0.008988 0.004059 0.000595 0.000000 0.049079 0.000000
# 6 0.000000 0.000000 0.000000 0.003266 0.000000 0.042644
#
#
# Mechanical properties :
#
#
# Convention : Reuss Voigt Hill
#
# Bulk Modulus (GPa) = 51.38114 54.50892 52.94503
# Shear Modulus (GPa) = 22.16197 24.22204 23.19201
#
# Velocity S-wave (km/s) = 3.61742 3.78181 3.70053
# Velocity P-wave (km/s) = 6.91274 7.15924 7.03707
#
# Compressibility (1/GPa) = 0.01946240
#
# Stress axis : x y z
#
# Youngs Moduli (GPa) = 39.07526 77.10048 73.55373
#
# Poissons Ratio (x) = 0.52600 0.57862
# Poissons Ratio (y) = 0.26658 0.12199
# Poissons Ratio (z) = 0.30739 0.12788
#
# Static dielectric constant tensor:
#      x y z
#    x 3.337060 0.000000 0.546060 
#    y 0.000000 3.218740 0.000000 
#    z 0.546060 0.000000 3.935450 
# 
# 
# High freq. dielectric constant tensor:
#      x y z
#    x 1.651960 0.000000 0.017090 
#    y 0.000000 1.637290 0.000000 
#    z 0.017090 0.000000 1.655720 
# 
# From -- ./inp_files/114589.got.cif
#   From: 2010.06.25/outbox.cif.g09.slc.cpg/sg15_58_cif.got.tgz:114589.got - 2010.06.28 07:06:18.
