data_PCOD8131867
_publ_section_title
;
Structure prediction by ZEFSAII (Michael W. Deem and Ramdas Pophale) SiO2 
 PCOD8131867
Probable space group: C 2/C
;
_chemical_formula_sum "Si O2"
_cell_formula_units_Z 60
_cell_length_a 26.869451
_cell_length_b 20.112872
_cell_length_c 11.424872
_cell_angle_alpha 90.000000
_cell_angle_beta 152.725285
_cell_angle_gamma 90.000000
_cell_volume 2829.395588
_symmetry_space_group_name_H-M "C 2/C"
_symmetry_group_IT_number 15
_symmetry_cell_setting 'monoclinic'
loop_
_space_group_symop_operation_xyz
x,y,z
-x,y,1/2-z
-x,-y,-z
x,-y,1/2+z
1/2+x,1/2+y,z
1/2-x,1/2+y,1/2-z
1/2-x,1/2-y,-z
1/2+x,1/2-y,1/2+z
loop_
_atom_site_type_symbol
_atom_site_label
_atom_site_fract_x
_atom_site_fract_y
_atom_site_fract_z
Si Si1 0.208991 0.398083 0.409932
Si Si2 0.298961 0.624679 0.352826
Si Si3 0.642771 0.307886 0.926602
Si Si4 0.538122 0.202942 0.561069
Si Si5 0.000000 0.219316 0.750000
Si Si6 0.508529 0.422726 0.899015
Si Si7 0.610632 0.789205 0.547143
Si Si8 0.670061 0.481970 0.395446
O O1 0.275666 0.386033 0.668199
O O2 0.258983 0.354976 0.406498
O O3 0.083382 0.373663 0.155853
O O4 0.218193 0.477453 0.400434
O O5 0.400887 0.672890 0.580066
O O6 0.197635 0.653374 0.211932
O O7 0.322996 0.554491 0.465657
O O8 0.634861 0.242999 0.828629
O O9 0.526082 0.345211 0.672815
O O10 0.657387 0.280744 0.091156
O O11 0.529918 0.231060 0.415325
O O12 0.421725 0.211667 0.382942
O O13 0.500000 0.451251 0.750000
O O14 0.420621 0.460572 0.793783
O O15 0.629545 0.431539 0.207481
O O16 0.500000 0.809394 0.250000
#
# Coordination Sequence:
#
# PCOD8131867 Si02
#       8
#     8   8   8   8   4   8   8   8
#     4  11  21  40  65  87 128 175 221 256 321 407
#     4  12  23  41  63  97 130 170 217 269 331 387
#     4  10  18  34  62  95 117 159 213 257 327 393
#     4  11  21  40  62  96 125 170 215 262 327 387
#     4  12  26  36  68 102 138 164 206 286 330 392
#     4  10  19  35  55  84 127 161 202 262 327 397
#     4  10  21  39  67  94 124 171 216 263 320 400
#     4  10  24  34  56  90 123 171 217 263 317 377
#
# _framework density 21.205942
#
# number of rings (size 3 to 8) (size 9 to 14) (size 15 to 20)
#    0.000    1.333    4.000    4.000    4.667    0.533 
#    0.000    4.667    1.467    0.000    0.000    0.000 
#    0.000    0.000    0.000    0.000    0.000    0.000 
#
# Total GULP energy -371794.653616 kJ/mol
# GULP energy per Si atom -12393.155121 kJ/mol
# Density = 2.115768 g / cm^3
# Si number density = 21.205942 Si / 1000 Ang^3
#
#
#
# Elastic Constant Matrix: (Units=GPa)
#
#
# Indices 1 2 3 4 5 6 
#
# 1 105.2754 42.8241 30.0656 0.0000 1.2252 0.0000
# 2 42.8241 94.8413 35.0855 0.0000 -5.6107 0.0000
# 3 30.0656 35.0855 51.1420 0.0000 0.0805 0.0000
# 4 0.0000 0.0000 0.0000 23.9810 0.0000 6.2216
# 5 1.2252 -5.6107 0.0805 0.0000 22.7979 0.0000
# 6 0.0000 0.0000 0.0000 6.2216 0.0000 32.8523
#
#
#
# Elastic Compliance Matrix: (Units=1/GPa)
#
#
# Indices 1 2 3 4 5 6 
#
# 1 0.012462 -0.004041 -0.004551 0.000000 -0.001648 0.000000
# 2 -0.004041 0.015727 -0.008420 0.000000 0.004117 0.000000
# 3 -0.004551 -0.008420 0.028009 0.000000 -0.001927 0.000000
# 4 0.000000 0.000000 0.000000 0.043854 0.000000 -0.008305
# 5 -0.001648 0.004117 -0.001927 0.000000 0.044972 0.000000
# 6 0.000000 0.000000 0.000000 -0.008305 0.000000 0.032012
#
#
# Mechanical properties :
#
#
# Convention : Reuss Voigt Hill
#
# Bulk Modulus (GPa) = 45.10060 51.91213 48.50637
# Shear Modulus (GPa) = 22.88833 25.47848 24.18341
#
# Velocity S-wave (km/s) = 3.28889 3.47000 3.38066
# Velocity P-wave (km/s) = 5.97800 6.37084 6.17754
#
# Compressibility (1/GPa) = 0.02217265
#
# Stress axis : x y z
#
# Youngs Moduli (GPa) = 80.24688 63.58479 35.70294
#
# Poissons Ratio (x) = 0.25692 0.16250
# Poissons Ratio (y) = 0.32424 0.30064
# Poissons Ratio (z) = 0.36523 0.53541
#
# Static dielectric constant tensor:
#      x y z
#    x 4.126540 0.000000 0.035730 
#    y 0.000000 3.970690 0.000000 
#    z 0.035730 0.000000 3.589020 
# 
# 
# High freq. dielectric constant tensor:
#      x y z
#    x 1.844110 0.000000 -0.002860 
#    y 0.000000 1.823130 0.000000 
#    z -0.002860 0.000000 1.792340 
# 
# From -- ./inp_files/124008.got.cif
#   From: 2010.06.25/outbox.cif.g09.slc.cpg/sg15_63_cif.got.tgz:124008.got - 2010.06.28 07:06:18.
