data_PCOD8131766
_publ_section_title
;
Structure prediction by ZEFSAII (Michael W. Deem and Ramdas Pophale) SiO2 
 PCOD8131766
Probable space group: C 2/C
;
_chemical_formula_sum "Si O2"
_cell_formula_units_Z 52
_cell_length_a 16.381235
_cell_length_b 8.986812
_cell_length_c 18.680618
_cell_angle_alpha 90.000000
_cell_angle_beta 100.249722
_cell_angle_gamma 90.000000
_cell_volume 2706.181857
_symmetry_space_group_name_H-M "C 2/C"
_symmetry_group_IT_number 15
_symmetry_cell_setting 'monoclinic'
loop_
_space_group_symop_operation_xyz
x,y,z
-x,y,1/2-z
-x,-y,-z
x,-y,1/2+z
1/2+x,1/2+y,z
1/2-x,1/2+y,1/2-z
1/2-x,1/2-y,-z
1/2+x,1/2-y,1/2+z
loop_
_atom_site_type_symbol
_atom_site_label
_atom_site_fract_x
_atom_site_fract_y
_atom_site_fract_z
Si Si1 0.110507 0.733499 0.108743
Si Si2 0.334417 0.026726 0.780227
Si Si3 0.255882 0.685767 0.611731
Si Si4 0.839088 0.473389 0.006733
Si Si5 0.500000 0.005484 0.750000
Si Si6 0.069317 0.692199 0.383470
Si Si7 0.763918 0.985237 0.380201
O O1 0.150544 0.627258 0.175039
O O2 0.153375 0.893380 0.118910
O O3 0.015096 0.775491 0.108528
O O4 0.119355 0.658080 0.032211
O O5 0.277440 0.140100 0.815269
O O6 0.287344 0.992857 0.699990
O O7 0.427311 0.098384 0.779925
O O8 0.226254 0.565486 0.550378
O O9 0.356435 0.692677 0.623239
O O10 0.217467 0.848220 0.587805
O O11 0.909372 0.584968 0.046479
O O12 0.791397 0.402236 0.067728
O O13 0.445793 0.904633 0.689067
#
# Coordination Sequence:
#
# PCOD8131766 Si02
#       7
#     8   8   8   8   4   8   8
#     4  10  22  34  59  86 108 146 194 233 269 324
#     4  10  20  35  58  82 110 144 189 228 280 330
#     4  10  21  37  59  80 115 152 182 224 288 339
#     4  10  20  38  57  82 113 152 187 226 280 332
#     4  10  18  34  58  84 102 142 190 232 264 322
#     4  10  19  35  58  85 110 143 190 228 273 331
#     4  11  19  35  57  82 113 147 183 231 280 330
#
# _framework density 19.215264999999999
#
# number of rings (size 3 to 8) (size 9 to 14) (size 15 to 20)
#    0.000    1.846    3.077    3.692    2.154    0.000 
#    0.000    3.077   10.154    0.000    0.000    0.000 
#    0.000    0.000    0.000    0.000    0.000    0.000 
#
# Total GULP energy -322222.966829 kJ/mol
# GULP energy per Si atom -12393.191032 kJ/mol
# Density = 1.917153 g / cm^3
# Si number density = 19.215265 Si / 1000 Ang^3
#
#
#
# Elastic Constant Matrix: (Units=GPa)
#
#
# Indices 1 2 3 4 5 6 
#
# 1 166.2932 53.3095 32.4413 0.0000 -13.1264 0.0000
# 2 53.3095 46.9810 1.8335 0.0000 -8.9012 0.0000
# 3 32.4413 1.8335 90.7410 0.0000 -6.9645 0.0000
# 4 0.0000 0.0000 0.0000 20.0230 0.0000 1.0984
# 5 -13.1264 -8.9012 -6.9645 0.0000 31.4702 0.0000
# 6 0.0000 0.0000 0.0000 1.0984 0.0000 49.0177
#
#
#
# Elastic Compliance Matrix: (Units=1/GPa)
#
#
# Indices 1 2 3 4 5 6 
#
# 1 0.010459 -0.011677 -0.003481 0.000000 0.000289 0.000000
# 2 -0.011677 0.035527 0.003921 0.000000 0.006046 0.000000
# 3 -0.003481 0.003921 0.012369 0.000000 0.002394 0.000000
# 4 0.000000 0.000000 0.000000 0.050004 0.000000 -0.001121
# 5 0.000289 0.006046 0.002394 0.000000 0.034137 0.000000
# 6 0.000000 0.000000 0.000000 -0.001121 0.000000 0.020426
#
#
# Mechanical properties :
#
#
# Convention : Reuss Voigt Hill
#
# Bulk Modulus (GPa) = 27.86950 53.24265 40.55608
# Shear Modulus (GPa) = 25.33481 34.53090 29.93286
#
# Velocity S-wave (km/s) = 3.63502 4.24377 3.95113
# Velocity P-wave (km/s) = 5.67037 7.19593 6.47822
#
# Compressibility (1/GPa) = 0.03588152
#
# Stress axis : x y z
#
# Youngs Moduli (GPa) = 95.61397 28.14721 80.84439
#
# Poissons Ratio (x) = 0.32867 0.28142
# Poissons Ratio (y) = 1.11647 -0.31698
# Poissons Ratio (z) = 0.33283 -0.11036
#
# Static dielectric constant tensor:
#      x y z
#    x 3.863060 0.000000 -0.182830 
#    y 0.000000 3.128080 0.000000 
#    z -0.182830 0.000000 3.860760 
# 
# 
# High freq. dielectric constant tensor:
#      x y z
#    x 1.758610 0.000000 -0.012120 
#    y 0.000000 1.701520 0.000000 
#    z -0.012120 0.000000 1.770110 
# 
# From -- ./inp_files/209200.got.cif
#   From: 2010.06.25/outbox.cif.g09.slc.cpg/sg15_105_cif.got.tgz:209200.got - 2010.06.28 07:06:18.
