data_PCOD8131198
_publ_section_title
;
Structure prediction by ZEFSAII (Michael W. Deem and Ramdas Pophale) SiO2 
 PCOD8131198
Probable space group: C 2/C
;
_chemical_formula_sum "Si O2"
_cell_formula_units_Z 64
_cell_length_a 28.091375
_cell_length_b 15.072081
_cell_length_c 7.944533
_cell_angle_alpha 90.000000
_cell_angle_beta 101.708873
_cell_angle_gamma 90.000000
_cell_volume 3293.685882
_symmetry_space_group_name_H-M "C 2/C"
_symmetry_group_IT_number 15
_symmetry_cell_setting 'monoclinic'
loop_
_space_group_symop_operation_xyz
x,y,z
-x,y,1/2-z
-x,-y,-z
x,-y,1/2+z
1/2+x,1/2+y,z
1/2-x,1/2+y,1/2-z
1/2-x,1/2-y,-z
1/2+x,1/2-y,1/2+z
loop_
_atom_site_type_symbol
_atom_site_label
_atom_site_fract_x
_atom_site_fract_y
_atom_site_fract_z
Si Si1 0.749548 0.097326 0.239154
Si Si2 0.934722 0.428992 0.869683
Si Si3 0.846484 0.657144 0.465957
Si Si4 0.304764 0.778251 0.275991
Si Si5 0.530782 0.886788 0.114712
Si Si6 0.947537 0.273865 0.643674
Si Si7 0.350442 0.281668 0.150158
Si Si8 0.767884 0.088955 0.628821
O O1 0.698340 0.091994 0.104481
O O2 0.779767 0.184740 0.210071
O O3 0.739763 0.093667 0.431279
O O4 0.777912 0.009561 0.202121
O O5 0.897267 0.398111 0.990045
O O6 0.929776 0.534360 0.823127
O O7 0.925617 0.366568 0.703095
O O8 0.991623 0.417785 0.948317
O O9 0.841920 0.696696 0.651477
O O10 0.842949 0.732875 0.322018
O O11 0.331618 0.774195 0.475187
O O12 0.262700 0.852922 0.259233
O O13 0.500000 0.856553 0.250000
O O14 0.553550 0.795796 0.056670
O O15 0.908010 0.198512 0.660957
O O16 0.000000 0.243078 0.750000
O O17 0.322101 0.373563 0.141225
#
# Coordination Sequence:
#
# PCOD8131198 Si02
#       8
#     8   8   8   8   8   8   8   8
#     4  11  22  38  57  84 117 155 195 242 292 346
#     4   9  19  32  46  74 104 146 187 221 277 326
#     4  11  21  36  58  81 115 157 197 235 282 338
#     4  11  22  39  59  84 119 155 197 246 288 337
#     4  10  18  32  51  71 108 143 183 238 273 328
#     4   9  19  35  54  75 108 145 184 231 291 344
#     4  10  21  39  57  81 118 148 189 241 286 343
#     4  11  22  39  59  84 116 157 194 240 297 344
#
# _framework density 19.431117
#
# number of rings (size 3 to 8) (size 9 to 14) (size 15 to 20)
#    0.000    1.750    2.500    3.750    3.500    1.000 
#    6.750    0.000    0.000    0.000    0.000    3.500 
#    0.000    0.000    0.000    0.000    0.000    0.000 
#
# Total GULP energy -396550.675481 kJ/mol
# GULP energy per Si atom -12392.208609 kJ/mol
# Density = 1.938689 g / cm^3
# Si number density = 19.431117 Si / 1000 Ang^3
#
#
#
# Elastic Constant Matrix: (Units=GPa)
#
#
# Indices 1 2 3 4 5 6 
#
# 1 102.2650 42.9578 15.4722 0.0000 -18.0240 0.0000
# 2 42.9578 83.3172 27.0797 0.0000 -12.9649 0.0000
# 3 15.4722 27.0797 82.0713 0.0000 -25.4863 0.0000
# 4 0.0000 0.0000 0.0000 22.8434 0.0000 -2.8163
# 5 -18.0240 -12.9649 -25.4863 0.0000 33.8623 0.0000
# 6 0.0000 0.0000 0.0000 -2.8163 0.0000 18.2789
#
#
#
# Elastic Compliance Matrix: (Units=1/GPa)
#
#
# Indices 1 2 3 4 5 6 
#
# 1 0.013253 -0.006400 0.001361 0.000000 0.005628 0.000000
# 2 -0.006400 0.016680 -0.004400 0.000000 -0.000332 0.000000
# 3 0.001361 -0.004400 0.017072 0.000000 0.011889 0.000000
# 4 0.000000 0.000000 0.000000 0.044624 0.000000 0.006875
# 5 0.005628 -0.000332 0.011889 0.000000 0.041348 0.000000
# 6 0.000000 0.000000 0.000000 0.006875 0.000000 0.055767
#
#
# Mechanical properties :
#
#
# Convention : Reuss Voigt Hill
#
# Bulk Modulus (GPa) = 35.55312 48.74144 42.14728
# Shear Modulus (GPa) = 23.04172 27.13984 25.09078
#
# Velocity S-wave (km/s) = 3.44730 3.74133 3.59732
# Velocity P-wave (km/s) = 5.84653 6.61831 6.24436
#
# Compressibility (1/GPa) = 0.02812693
#
# Stress axis : x y z
#
# Youngs Moduli (GPa) = 75.45568 59.95029 58.57638
#
# Poissons Ratio (x) = 0.38366 -0.07972
# Poissons Ratio (y) = 0.48289 0.25776
# Poissons Ratio (z) = -0.10269 0.26380
#
# Static dielectric constant tensor:
#      x y z
#    x 3.700550 0.000000 -0.110700 
#    y 0.000000 3.278970 0.000000 
#    z -0.110700 0.000000 3.663780 
# 
# 
# High freq. dielectric constant tensor:
#      x y z
#    x 1.753650 0.000000 -0.011920 
#    y 0.000000 1.709980 0.000000 
#    z -0.011920 0.000000 1.770280 
# 
# From -- ./inp_files/69743.got.cif
#   From: 2010.06.25/outbox.cif.g09.slc.cpg/sg15_35_cif.got.tgz:69743.got - 2010.06.28 07:06:18.
