data_PCOD8131142
_publ_section_title
;
Structure prediction by ZEFSAII (Michael W. Deem and Ramdas Pophale) SiO2 
 PCOD8131142
Probable space group: C 2/C
;
_chemical_formula_sum "Si O2"
_cell_formula_units_Z 60
_cell_length_a 15.551309
_cell_length_b 9.098929
_cell_length_c 19.257036
_cell_angle_alpha 90.000000
_cell_angle_beta 71.874458
_cell_angle_gamma 90.000000
_cell_volume 2589.659416
_symmetry_space_group_name_H-M "C 2/C"
_symmetry_group_IT_number 15
_symmetry_cell_setting 'monoclinic'
loop_
_space_group_symop_operation_xyz
x,y,z
-x,y,1/2-z
-x,-y,-z
x,-y,1/2+z
1/2+x,1/2+y,z
1/2-x,1/2+y,1/2-z
1/2-x,1/2-y,-z
1/2+x,1/2-y,1/2+z
loop_
_atom_site_type_symbol
_atom_site_label
_atom_site_fract_x
_atom_site_fract_y
_atom_site_fract_z
Si Si1 0.000000 0.917934 0.250000
Si Si2 0.076759 0.164544 0.458538
Si Si3 0.034396 0.166685 0.142357
Si Si4 0.247378 0.182651 0.144665
Si Si5 0.119928 0.850493 0.486076
Si Si6 0.784824 0.359862 0.133659
Si Si7 0.601718 0.132994 0.755487
Si Si8 0.642989 0.189275 0.241524
O O1 0.068964 0.814430 0.273859
O O2 0.946310 0.023353 0.316269
O O3 0.053384 0.127278 0.383574
O O4 0.143852 0.304861 0.442921
O O5 0.979459 0.198415 0.520309
O O6 0.127684 0.026912 0.479891
O O7 0.000020 0.312698 0.194503
O O8 0.120851 0.194351 0.068658
O O9 0.297767 0.277376 0.073910
O O10 0.242755 0.014773 0.119602
O O11 0.146008 0.251980 0.185764
O O12 0.301923 0.182894 0.201703
O O13 0.831375 0.373599 0.196747
O O14 0.706081 0.238530 0.161185
O O15 0.598006 0.965313 0.729684
#
# Coordination Sequence:
#
# PCOD8131142 Si02
#       8
#     4   8   8   8   8   8   8   8
#     4  12  22  34  52  72 106 142 178 212 244 318
#     4   8  16  31  52  77 104 133 163 216 261 304
#     4   9  19  34  51  74 102 139 172 207 256 308
#     4  10  18  31  57  81 103 132 167 222 265 305
#     4   9  17  30  51  80 105 133 166 211 271 301
#     4   9  17  32  52  83 108 130 170 217 263 305
#     4   9  18  35  54  77 106 134 175 217 261 301
#     4  10  21  32  51  79 105 137 174 213 257 306
#
# _framework density 23.169070999999999
#
# number of rings (size 3 to 8) (size 9 to 14) (size 15 to 20)
#    0.800    1.867    0.000    2.400    0.000    5.333 
#    0.000    0.000    0.000    6.400    0.000    0.000 
#    0.000    0.000    0.000    0.000    0.000    0.000 
#
# Total GULP energy -371780.830617 kJ/mol
# GULP energy per Si atom -12392.694354 kJ/mol
# Density = 2.311634 g / cm^3
# Si number density = 23.169071 Si / 1000 Ang^3
#
#
#
# Elastic Constant Matrix: (Units=GPa)
#
#
# Indices 1 2 3 4 5 6 
#
# 1 78.7025 54.7977 35.5797 0.0000 -36.3714 0.0000
# 2 54.7977 167.7356 57.9758 0.0000 -34.6258 0.0000
# 3 35.5797 57.9758 115.3086 0.0000 -32.5406 0.0000
# 4 0.0000 0.0000 0.0000 38.8477 0.0000 -7.8585
# 5 -36.3714 -34.6258 -32.5406 0.0000 39.2202 0.0000
# 6 0.0000 0.0000 0.0000 -7.8585 0.0000 23.5084
#
#
#
# Elastic Compliance Matrix: (Units=1/GPa)
#
#
# Indices 1 2 3 4 5 6 
#
# 1 0.024262 -0.003977 -0.000167 0.000000 0.018850 0.000000
# 2 -0.003977 0.008496 -0.002571 0.000000 0.001680 0.000000
# 3 -0.000167 -0.002571 0.012185 0.000000 0.007686 0.000000
# 4 0.000000 0.000000 0.000000 0.027609 0.000000 0.009229
# 5 0.018850 0.001680 0.007686 0.000000 0.050837 0.000000
# 6 0.000000 0.000000 0.000000 0.009229 0.000000 0.045623
#
#
# Mechanical properties :
#
#
# Convention : Reuss Voigt Hill
#
# Bulk Modulus (GPa) = 31.73212 73.16144 52.44678
# Shear Modulus (GPa) = 25.91382 34.54148 30.22765
#
# Velocity S-wave (km/s) = 3.34798 3.86533 3.61592
# Velocity P-wave (km/s) = 5.35452 7.18101 6.33395
#
# Compressibility (1/GPa) = 0.03151381
#
# Stress axis : x y z
#
# Youngs Moduli (GPa) = 41.21672 117.69725 82.06599
#
# Poissons Ratio (x) = 0.46811 0.01371
# Poissons Ratio (y) = 0.16393 0.21096
# Poissons Ratio (z) = 0.00689 0.30255
#
# Static dielectric constant tensor:
#      x y z
#    x 4.260180 0.000000 -0.093100 
#    y 0.000000 4.240860 0.000000 
#    z -0.093100 0.000000 4.146900 
# 
# 
# High freq. dielectric constant tensor:
#      x y z
#    x 1.932690 0.000000 -0.010210 
#    y 0.000000 1.910460 0.000000 
#    z -0.010210 0.000000 1.901530 
# 
# From -- ./inp_files/276560.got.cif
#   From: 2010.06.25/outbox.cif.g09.slc.cpg/sg15_139_cif.got.tgz:276560.got - 2010.06.28 07:06:18.
