data_PCOD8131296
_publ_section_title
;
Structure prediction by ZEFSAII (Michael W. Deem and Ramdas Pophale) SiO2 
 PCOD8131296
Probable space group: C 2/C
;
_chemical_formula_sum "Si O2"
_cell_formula_units_Z 48
_cell_length_a 23.586251
_cell_length_b 15.739465
_cell_length_c 9.172491
_cell_angle_alpha 90.000000
_cell_angle_beta 47.149621
_cell_angle_gamma 90.000000
_cell_volume 2496.424572
_symmetry_space_group_name_H-M "C 2/C"
_symmetry_group_IT_number 15
_symmetry_cell_setting 'monoclinic'
loop_
_space_group_symop_operation_xyz
x,y,z
-x,y,1/2-z
-x,-y,-z
x,-y,1/2+z
1/2+x,1/2+y,z
1/2-x,1/2+y,1/2-z
1/2-x,1/2-y,-z
1/2+x,1/2-y,1/2+z
loop_
_atom_site_type_symbol
_atom_site_label
_atom_site_fract_x
_atom_site_fract_y
_atom_site_fract_z
Si Si1 0.328145 0.943697 0.395067
Si Si2 0.458036 0.931959 0.671712
Si Si3 0.964365 0.311579 0.156130
Si Si4 0.225553 0.992455 0.824630
Si Si5 0.378263 0.542616 0.743546
Si Si6 0.025463 0.882086 0.869206
O O1 0.385940 0.865134 0.275563
O O2 0.278053 0.931411 0.630553
O O3 0.369818 0.036332 0.340394
O O4 0.275708 0.946494 0.342151
O O5 0.500000 0.928657 0.750000
O O6 0.469354 0.840482 0.575039
O O7 0.500000 0.000000 0.500000
O O8 0.943922 0.213456 0.167202
O O9 0.000000 0.329466 0.250000
O O10 0.175064 0.052744 0.806547
O O11 0.170057 0.935071 0.025548
O O12 0.405785 0.444252 0.703671
O O13 0.451441 0.604971 0.604422
O O14 0.000000 0.903993 0.750000
#
# Coordination Sequence:
#
# PCOD8131296 Si02
#       6
#     8   8   8   8   8   8
#     4  10  18  33  57  83 112 152 179 220 280 347
#     4  10  18  32  55  84 114 148 195 232 267 329
#     4  10  20  35  58  85 115 148 187 238 283 323
#     4  10  20  33  58  81 115 144 186 222 275 356
#     4  10  20  38  59  84 102 151 195 236 279 324
#     4  10  20  37  63  80 111 139 199 248 275 321
#
# _framework density 19.227499000000002
#
# number of rings (size 3 to 8) (size 9 to 14) (size 15 to 20)
#    0.000    2.000    1.667    5.000    0.000    0.000 
#    3.000    3.333    7.333    4.000    0.000    0.000 
#    0.000    0.000    0.000    0.000    0.000    0.000 
#
# Total GULP energy -297508.813233 kJ/mol
# GULP energy per Si atom -12396.200551 kJ/mol
# Density = 1.918374 g / cm^3
# Si number density = 19.227499 Si / 1000 Ang^3
#
#
#
# Elastic Constant Matrix: (Units=GPa)
#
#
# Indices 1 2 3 4 5 6 
#
# 1 108.1425 42.5979 46.5478 0.0000 8.6101 0.0000
# 2 42.5979 83.6778 37.4282 0.0000 -1.2492 0.0000
# 3 46.5478 37.4282 137.2265 0.0000 3.4004 0.0000
# 4 0.0000 0.0000 0.0000 14.2990 0.0000 1.5685
# 5 8.6101 -1.2492 3.4004 0.0000 38.5112 0.0000
# 6 0.0000 0.0000 0.0000 1.5685 0.0000 18.6050
#
#
#
# Elastic Compliance Matrix: (Units=1/GPa)
#
#
# Indices 1 2 3 4 5 6 
#
# 1 0.012760 -0.005276 -0.002821 0.000000 -0.002775 0.000000
# 2 -0.005276 0.015815 -0.002572 0.000000 0.001920 0.000000
# 3 -0.002821 -0.002572 0.008951 0.000000 -0.000243 0.000000
# 4 0.000000 0.000000 0.000000 0.070588 0.000000 -0.005951
# 5 -0.002775 0.001920 -0.000243 0.000000 0.026671 0.000000
# 6 0.000000 0.000000 0.000000 -0.005951 0.000000 0.054251
#
#
# Mechanical properties :
#
#
# Convention : Reuss Voigt Hill
#
# Bulk Modulus (GPa) = 61.76249 64.68828 63.22539
# Shear Modulus (GPa) = 23.17297 27.78123 25.47710
#
# Velocity S-wave (km/s) = 3.47536 3.80527 3.64405
# Velocity P-wave (km/s) = 6.94953 7.28172 7.11756
#
# Compressibility (1/GPa) = 0.01619106
#
# Stress axis : x y z
#
# Youngs Moduli (GPa) = 78.36890 63.23046 111.71415
#
# Poissons Ratio (x) = 0.33358 0.31510
# Poissons Ratio (y) = 0.41344 0.28728
# Poissons Ratio (z) = 0.22105 0.16260
#
# Static dielectric constant tensor:
#      x y z
#    x 3.600790 0.000000 -0.061710 
#    y 0.000000 3.292850 0.000000 
#    z -0.061710 0.000000 4.204910 
# 
# 
# High freq. dielectric constant tensor:
#      x y z
#    x 1.758620 0.000000 0.004940 
#    y 0.000000 1.698610 0.000000 
#    z 0.004940 0.000000 1.768840 
# 
# From -- ./inp_files/48026.got.cif
#   From: 2010.06.25/outbox.cif.g09.slc.cpg/sg15_25_cif.got.tgz:48026.got - 2010.06.28 07:06:18.
