data_PCOD8131782
_publ_section_title
;
Structure prediction by ZEFSAII (Michael W. Deem and Ramdas Pophale) SiO2 
 PCOD8131782
Probable space group: C 2/C
;
_chemical_formula_sum "Si O2"
_cell_formula_units_Z 60
_cell_length_a 18.035534
_cell_length_b 30.901119
_cell_length_c 12.131249
_cell_angle_alpha 90.000000
_cell_angle_beta 152.961353
_cell_angle_gamma 90.000000
_cell_volume 3073.476808
_symmetry_space_group_name_H-M "C 2/C"
_symmetry_group_IT_number 15
_symmetry_cell_setting 'monoclinic'
loop_
_space_group_symop_operation_xyz
x,y,z
-x,y,1/2-z
-x,-y,-z
x,-y,1/2+z
1/2+x,1/2+y,z
1/2-x,1/2+y,1/2-z
1/2-x,1/2-y,-z
1/2+x,1/2-y,1/2+z
loop_
_atom_site_type_symbol
_atom_site_label
_atom_site_fract_x
_atom_site_fract_y
_atom_site_fract_z
Si Si1 0.184772 0.955007 0.975635
Si Si2 0.638953 0.403101 0.305676
Si Si3 0.117052 0.957818 0.646335
Si Si4 0.644094 0.096334 0.614918
Si Si5 0.766687 0.263807 0.646472
Si Si6 0.432073 0.191984 0.034390
Si Si7 0.000000 0.172767 0.750000
Si Si8 0.819040 0.541475 0.210470
O O1 0.188836 0.939318 0.855283
O O2 0.000000 0.972343 0.750000
O O3 0.226342 0.917058 0.118382
O O4 0.317676 0.993540 0.157062
O O5 0.787944 0.408466 0.418468
O O6 0.608410 0.354362 0.306283
O O7 0.677443 0.430869 0.464867
O O8 0.477038 0.418174 0.031514
O O9 0.273617 0.967183 0.777805
O O10 0.000000 0.000000 0.500000
O O11 0.600917 0.146633 0.569850
O O12 0.490389 0.064945 0.423739
O O13 0.750000 0.250000 0.500000
O O14 0.732529 0.221579 0.678079
O O15 0.624025 0.298243 0.485643
O O16 0.944968 0.285038 0.890230
O O17 0.500000 0.185923 0.250000
#
# Coordination Sequence:
#
# PCOD8131782 Si02
#       8
#     8   8   8   8   8   8   4   8
#     4  12  24  43  64  86 126 179 222 255 312 384
#     4  12  22  37  64  94 127 169 209 267 319 380
#     4  12  22  41  64  85 122 173 222 260 306 377
#     4  12  26  40  61  96 134 164 212 272 322 376
#     4  10  18  34  58  88 132 164 196 249 331 397
#     4  10  20  37  57  93 131 162 200 258 327 389
#     4  12  20  32  62  96 128 164 212 254 330 390
#     4  12  23  42  62  93 125 167 212 271 323 367
#
# _framework density 19.521864000000001
#
# number of rings (size 3 to 8) (size 9 to 14) (size 15 to 20)
#    0.000    0.533    7.333    4.000    0.000    0.533 
#    2.400    0.000    0.000    0.000    0.000    3.733 
#    0.000    0.000    0.000    0.000    0.000    0.000 
#
# Total GULP energy -371804.298585 kJ/mol
# GULP energy per Si atom -12393.476619 kJ/mol
# Density = 1.947743 g / cm^3
# Si number density = 19.521864 Si / 1000 Ang^3
#
#
#
# Elastic Constant Matrix: (Units=GPa)
#
#
# Indices 1 2 3 4 5 6 
#
# 1 120.3785 34.5494 45.8191 0.0000 7.4656 0.0000
# 2 34.5494 113.3681 46.3880 0.0000 7.5896 0.0000
# 3 45.8191 46.3880 66.8117 0.0000 1.6980 0.0001
# 4 0.0000 0.0000 0.0000 22.6825 0.0000 21.5660
# 5 7.4656 7.5896 1.6980 0.0000 33.6674 0.0000
# 6 0.0000 0.0000 0.0001 21.5660 0.0000 20.8568
#
#
#
# Elastic Compliance Matrix: (Units=1/GPa)
#
#
# Indices 1 2 3 4 5 6 
#
# 1 0.011397 -0.000219 -0.007610 -0.000002 -0.002094 0.000002
# 2 -0.000219 0.012514 -0.008479 -0.000002 -0.002345 0.000002
# 3 -0.007610 -0.008479 0.026015 0.000007 0.002287 -0.000007
# 4 -0.000002 -0.000002 0.000007 2.610384 0.000003 -2.699153
# 5 -0.002094 -0.002345 0.002287 0.000003 0.030580 -0.000003
# 6 0.000002 0.000002 -0.000007 -2.699153 -0.000003 2.838888
#
#
# Mechanical properties :
#
#
# Convention : Reuss Voigt Hill
#
# Bulk Modulus (GPa) = 57.77167 61.56348 59.66758
# Shear Modulus (GPa) = 0.89796 27.02812 13.96304
#
# Velocity S-wave (km/s) = 0.67895 3.72493 2.67732
# Velocity P-wave (km/s) = 5.50202 7.07844 6.33942
#
# Compressibility (1/GPa) = 0.01730952
#
# Stress axis : x y z
#
# Youngs Moduli (GPa) = 87.74571 79.91135 38.43870
#
# Poissons Ratio (x) = 0.01749 0.29254
# Poissons Ratio (y) = 0.01921 0.32591
# Poissons Ratio (z) = 0.66779 0.67755
#
# Static dielectric constant tensor:
#      x y z
#    x 3.866450 0.000000 0.167400 
#    y 0.000000 3.766620 0.000000 
#    z 0.167400 0.000000 3.427170 
# 
# 
# High freq. dielectric constant tensor:
#      x y z
#    x 1.764810 0.000000 0.028870 
#    y 0.000000 1.761430 0.000000 
#    z 0.028870 0.000000 1.728620 
# 
# From -- ./inp_files/108596.got.cif
#   From: 2010.06.25/outbox.cif.g09.slc.cpg/sg15_55_cif.got.tgz:108596.got - 2010.06.28 07:06:18.
