data_PCOD8131956
_publ_section_title
;
Structure prediction by ZEFSAII (Michael W. Deem and Ramdas Pophale) SiO2 
 PCOD8131956
Probable space group: C 2/C
;
_chemical_formula_sum "Si O2"
_cell_formula_units_Z 56
_cell_length_a 18.344298
_cell_length_b 9.781720
_cell_length_c 22.967482
_cell_angle_alpha 90.000000
_cell_angle_beta 136.392401
_cell_angle_gamma 90.000000
_cell_volume 2842.495244
_symmetry_space_group_name_H-M "C 2/C"
_symmetry_group_IT_number 15
_symmetry_cell_setting 'monoclinic'
loop_
_space_group_symop_operation_xyz
x,y,z
-x,y,1/2-z
-x,-y,-z
x,-y,1/2+z
1/2+x,1/2+y,z
1/2-x,1/2+y,1/2-z
1/2-x,1/2-y,-z
1/2+x,1/2-y,1/2+z
loop_
_atom_site_type_symbol
_atom_site_label
_atom_site_fract_x
_atom_site_fract_y
_atom_site_fract_z
Si Si1 0.100704 0.171678 0.670012
Si Si2 0.835954 0.490907 0.669556
Si Si3 0.395727 0.995450 0.478692
Si Si4 0.795010 0.749846 0.860368
Si Si5 0.323854 0.718754 0.917748
Si Si6 0.480190 0.074081 0.146694
Si Si7 0.983303 0.917567 0.930797
O O1 0.206073 0.177038 0.769841
O O2 0.133483 0.201307 0.623004
O O3 0.012295 0.273951 0.644218
O O4 0.046546 0.021228 0.639156
O O5 0.742632 0.386503 0.629432
O O6 0.787233 0.642561 0.634295
O O7 0.893210 0.426433 0.646935
O O8 0.915255 0.502341 0.769957
O O9 0.332367 0.856314 0.430859
O O10 0.431896 0.008830 0.565829
O O11 0.500000 0.000000 0.500000
O O12 0.313791 0.118771 0.419885
O O13 0.894180 0.799502 0.879792
O O14 0.406039 0.661246 0.013878
O O15 0.000000 0.000000 0.000000
#
# Coordination Sequence:
#
# PCOD8131956 Si02
#       7
#     8   8   8   8   8   8   8
#     4  10  21  35  62  92 122 158 209 258 305 364
#     4  10  23  43  66  85 122 174 206 244 317 389
#     4  12  23  37  59  96 126 154 203 265 309 354
#     4  11  22  36  62  93 120 162 204 257 312 366
#     4  11  22  36  63  90 125 160 205 256 313 368
#     4  10  23  43  63  88 126 164 210 253 312 377
#     4  10  18  35  56  88 122 153 201 251 308 356
#
# _framework density 19.701000000000001
#
# number of rings (size 3 to 8) (size 9 to 14) (size 15 to 20)
#    0.000    1.429    5.714    0.857    4.000    1.143 
#    0.000    0.000    0.000    1.714    0.000    0.000 
#    0.000    0.000    0.000    0.000    0.000    0.000 
#
# Total GULP energy -347067.238457 kJ/mol
# GULP energy per Si atom -12395.258516 kJ/mol
# Density = 1.965616 g / cm^3
# Si number density = 19.701000 Si / 1000 Ang^3
#
#
#
# Elastic Constant Matrix: (Units=GPa)
#
#
# Indices 1 2 3 4 5 6 
#
# 1 64.0857 31.5238 38.1434 0.0000 1.2731 0.0000
# 2 31.5238 111.6432 49.9300 0.0000 8.3789 0.0000
# 3 38.1434 49.9300 107.3193 0.0000 2.3562 0.0000
# 4 0.0000 0.0000 0.0000 34.7983 0.0000 3.1047
# 5 1.2731 8.3789 2.3562 0.0000 26.1629 0.0000
# 6 0.0000 0.0000 0.0000 3.1047 0.0000 29.0431
#
#
#
# Elastic Compliance Matrix: (Units=1/GPa)
#
#
# Indices 1 2 3 4 5 6 
#
# 1 0.020677 -0.003269 -0.005841 0.000000 0.000567 0.000000
# 2 -0.003269 0.012093 -0.004392 0.000000 -0.003318 0.000000
# 3 -0.005841 -0.004392 0.013427 0.000000 0.000482 0.000000
# 4 0.000000 0.000000 0.000000 0.029014 0.000000 -0.003102
# 5 0.000567 -0.003318 0.000482 0.000000 0.039214 0.000000
# 6 0.000000 0.000000 0.000000 -0.003102 0.000000 0.034763
#
#
# Mechanical properties :
#
#
# Convention : Reuss Voigt Hill
#
# Bulk Modulus (GPa) = 52.09830 58.02694 55.06262
# Shear Modulus (GPa) = 27.38404 28.89760 28.14082
#
# Velocity S-wave (km/s) = 3.73229 3.83405 3.78351
# Velocity P-wave (km/s) = 6.71381 7.00840 6.86269
#
# Compressibility (1/GPa) = 0.01919448
#
# Stress axis : x y z
#
# Youngs Moduli (GPa) = 48.36264 82.69090 74.47947
#
# Poissons Ratio (x) = 0.27030 0.43501
# Poissons Ratio (y) = 0.15809 0.32709
# Poissons Ratio (z) = 0.28247 0.36315
#
# Static dielectric constant tensor:
#      x y z
#    x 3.416630 0.000000 0.113470 
#    y 0.000000 3.932220 0.000000 
#    z 0.113470 0.000000 3.913450 
# 
# 
# High freq. dielectric constant tensor:
#      x y z
#    x 1.728680 0.000000 0.014570 
#    y 0.000000 1.772990 0.000000 
#    z 0.014570 0.000000 1.782690 
# 
# From -- ./inp_files/276629.got.cif
#   From: 2010.06.25/outbox.cif.g09.slc.cpg/sg15_139_cif.got.tgz:276629.got - 2010.06.28 07:06:18.
