data_PCOD8131838
_publ_section_title
;
Structure prediction by ZEFSAII (Michael W. Deem and Ramdas Pophale) SiO2 
 PCOD8131838
Probable space group: C 2/C
;
_chemical_formula_sum "Si O2"
_cell_formula_units_Z 48
_cell_length_a 8.225252
_cell_length_b 29.720255
_cell_length_c 20.011860
_cell_angle_alpha 90.000000
_cell_angle_beta 30.774284
_cell_angle_gamma 90.000000
_cell_volume 2503.043307
_symmetry_space_group_name_H-M "C 2/C"
_symmetry_group_IT_number 15
_symmetry_cell_setting 'monoclinic'
loop_
_space_group_symop_operation_xyz
x,y,z
-x,y,1/2-z
-x,-y,-z
x,-y,1/2+z
1/2+x,1/2+y,z
1/2-x,1/2+y,1/2-z
1/2-x,1/2-y,-z
1/2+x,1/2-y,1/2+z
loop_
_atom_site_type_symbol
_atom_site_label
_atom_site_fract_x
_atom_site_fract_y
_atom_site_fract_z
Si Si1 0.622830 0.096237 0.880565
Si Si2 0.213268 0.316269 0.546332
Si Si3 0.872228 0.501409 0.118864
Si Si4 0.563946 0.271438 0.304464
Si Si5 0.875787 0.401610 0.617304
Si Si6 0.615476 0.832687 0.139045
O O1 0.448308 0.131916 0.896202
O O2 0.000000 0.104495 0.750000
O O3 0.533444 0.046499 0.880979
O O4 0.492315 0.102050 0.000598
O O5 0.315376 0.300652 0.436025
O O6 0.514488 0.320151 0.489253
O O7 0.970076 0.280925 0.665127
O O8 0.039369 0.364017 0.604947
O O9 0.500000 0.503767 0.250000
O O10 0.982283 0.549458 0.111598
O O11 0.000000 0.500000 0.000000
O O12 0.500000 0.281392 0.250000
O O13 0.922706 0.286436 0.194424
O O14 0.500000 0.394468 0.750000
O O15 0.500000 0.854271 0.250000
#
# Coordination Sequence:
#
# PCOD8131838 Si02
#       6
#     8   8   8   8   8   8
#     4  10  18  34  61  83 105 144 187 220 259 315
#     4  10  22  35  52  78 107 137 174 224 276 320
#     4   8  16  30  52  81 106 136 180 219 251 310
#     4  10  21  37  54  73 100 140 185 224 262 317
#     4  10  20  35  55  81 113 144 177 218 270 325
#     4  10  20  35  54  80 107 133 180 234 270 311
#
# _framework density 19.176656000000001
#
# number of rings (size 3 to 8) (size 9 to 14) (size 15 to 20)
#    0.000    2.333    0.000    3.500    0.000    5.333 
#    0.000    0.833    0.000    1.000    0.000    0.000 
#    0.000    0.000    0.000    0.000    0.000    0.000 
#
# Total GULP energy -297383.903869 kJ/mol
# GULP energy per Si atom -12390.995995 kJ/mol
# Density = 1.913301 g / cm^3
# Si number density = 19.176656 Si / 1000 Ang^3
#
#
#
# Elastic Constant Matrix: (Units=GPa)
#
#
# Indices 1 2 3 4 5 6 
#
# 1 90.9909 59.9800 39.3159 -0.0002 -7.4536 0.0000
# 2 59.9800 173.8954 43.6411 -0.0002 -22.7777 -0.0001
# 3 39.3159 43.6411 106.8446 0.0019 -9.8464 0.0014
# 4 -0.0002 -0.0002 0.0019 11.7629 -0.0011 -2.3113
# 5 -7.4536 -22.7777 -9.8464 -0.0011 25.0989 -0.0002
# 6 0.0000 -0.0001 0.0014 -2.3113 -0.0002 26.2294
#
#
#
# Elastic Compliance Matrix: (Units=1/GPa)
#
#
# Indices 1 2 3 4 5 6 
#
# 1 0.015608 -0.004516 -0.003994 0.000001 -0.001030 0.000000
# 2 -0.004516 0.008373 -0.001226 0.000001 0.005776 0.000000
# 3 -0.003994 -0.001226 0.011535 -0.000002 0.002227 -0.000001
# 4 0.000001 0.000001 -0.000002 0.086511 0.000004 0.007623
# 5 -0.001030 0.005776 0.002227 0.000004 0.045652 0.000001
# 6 0.000000 0.000000 -0.000001 0.007623 0.000001 0.038797
#
#
# Mechanical properties :
#
#
# Convention : Reuss Voigt Hill
#
# Bulk Modulus (GPa) = 62.32663 73.06721 67.69692
# Shear Modulus (GPa) = 21.61737 27.87115 24.74426
#
# Velocity S-wave (km/s) = 3.36113 3.81647 3.59602
# Velocity P-wave (km/s) = 6.90180 7.58983 7.25397
#
# Compressibility (1/GPa) = 0.01604451
#
# Stress axis : x y z
#
# Youngs Moduli (GPa) = 64.06776 119.43818 86.69425
#
# Poissons Ratio (x) = 0.53942 0.34623
# Poissons Ratio (y) = 0.28935 0.10625
# Poissons Ratio (z) = 0.25587 0.14638
#
# Static dielectric constant tensor:
#      x y z
#    x 3.188690 0.000000 0.021690 
#    y 0.000000 4.199760 0.000000 
#    z 0.021690 0.000000 3.545080 
# 
# 
# High freq. dielectric constant tensor:
#      x y z
#    x 1.703340 0.000000 0.001800 
#    y 0.000000 1.768220 0.000000 
#    z 0.001800 0.000000 1.756470 
# 
# From -- ./inp_files/80286.got.cif
#   From: 2010.06.25/outbox.cif.g09.slc.cpg/sg15_41_cif.got.tgz:80286.got - 2010.06.28 07:06:18.
