data_PCOD8131808
_publ_section_title
;
Structure prediction by ZEFSAII (Michael W. Deem and Ramdas Pophale) SiO2 
 PCOD8131808
Probable space group: C 2/C
;
_chemical_formula_sum "Si O2"
_cell_formula_units_Z 60
_cell_length_a 18.000275
_cell_length_b 14.772632
_cell_length_c 12.209350
_cell_angle_alpha 90.000000
_cell_angle_beta 113.722620
_cell_angle_gamma 90.000000
_cell_volume 2972.280082
_symmetry_space_group_name_H-M "C 2/C"
_symmetry_group_IT_number 15
_symmetry_cell_setting 'monoclinic'
loop_
_space_group_symop_operation_xyz
x,y,z
-x,y,1/2-z
-x,-y,-z
x,-y,1/2+z
1/2+x,1/2+y,z
1/2-x,1/2+y,1/2-z
1/2-x,1/2-y,-z
1/2+x,1/2-y,1/2+z
loop_
_atom_site_type_symbol
_atom_site_label
_atom_site_fract_x
_atom_site_fract_y
_atom_site_fract_z
Si Si1 0.521117 0.103610 0.638681
Si Si2 0.000000 0.053156 0.250000
Si Si3 0.615847 0.256504 0.589790
Si Si4 0.481222 0.605724 0.005037
Si Si5 0.143304 0.940066 0.230468
Si Si6 0.782774 0.389232 0.466516
Si Si7 0.259526 0.396009 0.805848
Si Si8 0.878544 0.545751 0.417899
O O1 0.500000 0.090350 0.750000
O O2 0.572177 0.194313 0.653104
O O3 0.438880 0.110828 0.519522
O O4 0.572317 0.016223 0.636723
O O5 0.026350 0.118163 0.367508
O O6 0.076916 0.990518 0.266145
O O7 0.551879 0.328473 0.500287
O O8 0.656334 0.194680 0.519347
O O9 0.683668 0.312598 0.696157
O O10 0.400489 0.625565 0.885240
O O11 0.500000 0.500000 0.000000
O O12 0.202827 0.880869 0.342307
O O13 0.196524 0.009745 0.191838
O O14 0.756746 0.386353 0.575682
O O15 0.827496 0.484290 0.471721
O O16 0.178034 0.388530 0.686840
#
# Coordination Sequence:
#
# PCOD8131808 Si02
#       8
#     8   4   8   8   8   8   8   8
#     4  10  21  40  63  88 117 152 195 245 285 341
#     4  10  18  34  60  80 108 148 190 240 284 334
#     4  11  23  37  56  88 122 149 192 243 291 339
#     4  10  20  37  58  83 113 153 197 235 280 349
#     4  10  21  35  60  84 109 149 203 231 282 355
#     4  10  22  38  59  84 118 155 186 244 292 335
#     4  11  20  39  58  84 120 153 188 239 291 344
#     4   9  21  40  64  87 111 155 202 230 287 352
#
# _framework density 20.186523000000001
#
# number of rings (size 3 to 8) (size 9 to 14) (size 15 to 20)
#    0.000    1.867    2.667    2.000    2.800    1.067 
#    0.000    2.000    0.000    0.000    0.000    0.000 
#    0.000    0.000    0.000    0.000    0.000    0.000 
#
# Total GULP energy -371949.017511 kJ/mol
# GULP energy per Si atom -12398.300584 kJ/mol
# Density = 2.014058 g / cm^3
# Si number density = 20.186523 Si / 1000 Ang^3
#
#
#
# Elastic Constant Matrix: (Units=GPa)
#
#
# Indices 1 2 3 4 5 6 
#
# 1 106.7379 34.2973 69.4922 0.0000 15.3430 0.0000
# 2 34.2973 72.5066 52.4163 0.0000 10.4110 0.0000
# 3 69.4922 52.4163 137.1919 0.0000 15.2244 0.0000
# 4 0.0000 0.0000 0.0000 12.9315 0.0000 10.8822
# 5 15.3430 10.4110 15.2244 0.0000 33.6169 0.0000
# 6 0.0000 0.0000 0.0000 10.8822 0.0000 47.6314
#
#
#
# Elastic Compliance Matrix: (Units=1/GPa)
#
#
# Indices 1 2 3 4 5 6 
#
# 1 0.014522 -0.001863 -0.006289 0.000000 -0.003203 0.000000
# 2 -0.001863 0.019537 -0.006258 0.000000 -0.002366 0.000000
# 3 -0.006289 -0.006258 0.012984 0.000000 -0.001072 0.000000
# 4 0.000000 0.000000 0.000000 0.095737 0.000000 -0.021873
# 5 -0.003203 -0.002366 -0.001072 0.000000 0.032427 0.000000
# 6 0.000000 0.000000 0.000000 -0.021873 0.000000 0.025992
#
#
# Mechanical properties :
#
#
# Convention : Reuss Voigt Hill
#
# Bulk Modulus (GPa) = 54.87368 69.87202 62.37285
# Shear Modulus (GPa) = 21.17800 29.51800 25.34800
#
# Velocity S-wave (km/s) = 3.24252 3.82810 3.54741
# Velocity P-wave (km/s) = 6.42347 7.36393 6.90972
#
# Compressibility (1/GPa) = 0.01822367
#
# Stress axis : x y z
#
# Youngs Moduli (GPa) = 68.86071 51.18498 77.01548
#
# Poissons Ratio (x) = 0.09537 0.48432
# Poissons Ratio (y) = 0.12830 0.48197
# Poissons Ratio (z) = 0.43304 0.32032
#
# Static dielectric constant tensor:
#      x y z
#    x 3.963720 0.000000 0.248810 
#    y 0.000000 3.543770 0.000000 
#    z 0.248810 0.000000 3.906780 
# 
# 
# High freq. dielectric constant tensor:
#      x y z
#    x 1.803180 0.000000 0.006750 
#    y 0.000000 1.769950 0.000000 
#    z 0.006750 0.000000 1.784220 
# 
# From -- ./inp_files/105775.got.cif
#   From: 2010.06.25/outbox.cif.g09.slc.cpg/sg15_53_cif.got.tgz:105775.got - 2010.06.28 07:06:18.
