data_PCOD8131599
_publ_section_title
;
Structure prediction by ZEFSAII (Michael W. Deem and Ramdas Pophale) SiO2 
 PCOD8131599
Probable space group: C 2/C
;
_chemical_formula_sum "Si O2"
_cell_formula_units_Z 48
_cell_length_a 29.501472
_cell_length_b 12.141838
_cell_length_c 15.477115
_cell_angle_alpha 90.000000
_cell_angle_beta 28.264639
_cell_angle_gamma 90.000000
_cell_volume 2625.301137
_symmetry_space_group_name_H-M "C 2/C"
_symmetry_group_IT_number 15
_symmetry_cell_setting 'monoclinic'
loop_
_space_group_symop_operation_xyz
x,y,z
-x,y,1/2-z
-x,-y,-z
x,-y,1/2+z
1/2+x,1/2+y,z
1/2-x,1/2+y,1/2-z
1/2-x,1/2-y,-z
1/2+x,1/2-y,1/2+z
loop_
_atom_site_type_symbol
_atom_site_label
_atom_site_fract_x
_atom_site_fract_y
_atom_site_fract_z
Si Si1 0.589503 0.528464 0.149842
Si Si2 0.109212 0.755698 0.537524
Si Si3 0.957928 0.882812 0.592908
Si Si4 0.248417 0.651910 0.434518
Si Si5 0.135841 0.752308 0.292837
Si Si6 0.245836 0.078826 0.497552
O O1 0.500000 0.470272 0.250000
O O2 0.639012 0.615674 0.001643
O O3 0.552485 0.614133 0.285855
O O4 0.660433 0.436999 0.069765
O O5 0.177064 0.673772 0.476713
O O6 0.134895 0.730113 0.395867
O O7 0.000000 0.731955 0.750000
O O8 0.856309 0.864012 0.716881
O O9 0.028484 0.785763 0.444360
O O10 0.000000 0.000000 0.500000
O O11 0.250000 0.750000 0.500000
O O12 0.216114 0.539140 0.535515
O O13 0.207747 0.850166 0.142767
O O14 0.165294 0.639785 0.196185
#
# Coordination Sequence:
#
# PCOD8131599 Si02
#       6
#     8   8   8   8   8   8
#     4  10  18  33  61  88 112 150 207 238 284 350
#     4  11  21  36  62  88 118 153 204 250 288 354
#     4  11  19  35  62  87 112 157 197 241 290 353
#     4  11  20  38  62  87 116 154 209 238 291 366
#     4  11  21  39  57  90 121 155 194 247 311 339
#     4  10  23  37  60  84 126 162 188 248 310 350
#
# _framework density 18.283615999999999
#
# number of rings (size 3 to 8) (size 9 to 14) (size 15 to 20)
#    0.000    1.333   10.000    0.000    0.000    2.667 
#    0.000    3.333    0.000    0.000    0.000    0.000 
#    0.000    0.000    0.000    0.000    0.000    0.000 
#
# Total GULP energy -297433.324542 kJ/mol
# GULP energy per Si atom -12393.055189 kJ/mol
# Density = 1.824200 g / cm^3
# Si number density = 18.283616 Si / 1000 Ang^3
#
#
#
# Elastic Constant Matrix: (Units=GPa)
#
#
# Indices 1 2 3 4 5 6 
#
# 1 112.3620 46.1293 53.1583 0.0000 -15.2136 0.0000
# 2 46.1293 122.1128 59.3865 0.0000 -7.3242 0.0000
# 3 53.1583 59.3865 121.5616 0.0000 -4.0254 0.0000
# 4 0.0000 0.0000 0.0000 41.7792 0.0000 -2.3717
# 5 -15.2136 -7.3242 -4.0254 0.0000 31.8691 0.0000
# 6 0.0000 0.0000 0.0000 -2.3717 0.0000 27.9493
#
#
#
# Elastic Compliance Matrix: (Units=1/GPa)
#
#
# Indices 1 2 3 4 5 6 
#
# 1 0.012509 -0.002427 -0.004122 0.000000 0.004893 0.000000
# 2 -0.002427 0.011317 -0.004438 0.000000 0.000882 0.000000
# 3 -0.004122 -0.004438 0.012149 0.000000 -0.001453 0.000000
# 4 0.000000 0.000000 0.000000 0.024051 0.000000 0.002041
# 5 0.004893 0.000882 -0.001453 0.000000 0.033733 0.000000
# 6 0.000000 0.000000 0.000000 0.002041 0.000000 0.035952
#
#
# Mechanical properties :
#
#
# Convention : Reuss Voigt Hill
#
# Bulk Modulus (GPa) = 71.42918 74.82050 73.12484
# Shear Modulus (GPa) = 31.97862 33.47701 32.72781
#
# Velocity S-wave (km/s) = 4.18668 4.28364 4.23544
# Velocity P-wave (km/s) = 7.90716 8.09179 8.00001
#
# Compressibility (1/GPa) = 0.01399988
#
# Stress axis : x y z
#
# Youngs Moduli (GPa) = 79.94220 88.35992 82.31063
#
# Poissons Ratio (x) = 0.21446 0.33932
# Poissons Ratio (y) = 0.19403 0.36532
# Poissons Ratio (z) = 0.32955 0.39217
#
# Static dielectric constant tensor:
#      x y z
#    x 33.930290 0.000000 -1.744840 
#    y 0.000000 3.354310 0.000000 
#    z -1.744840 0.000000 0.866420 
# 
# 
# High freq. dielectric constant tensor:
#      x y z
#    x 1.704150 0.000000 0.002420 
#    y 0.000000 1.696470 0.000000 
#    z 0.002420 0.000000 1.706010 
# 
# From -- ./inp_files/181699.got.cif
#   From: 2010.06.25/outbox.cif.g09.slc.cpg/sg15_91_cif.got.tgz:181699.got - 2010.06.28 07:06:18.
