data_PCOD8131779
_publ_section_title
;
Structure prediction by ZEFSAII (Michael W. Deem and Ramdas Pophale) SiO2 
 PCOD8131779
Probable space group: C 2/C
;
_chemical_formula_sum "Si O2"
_cell_formula_units_Z 64
_cell_length_a 15.605832
_cell_length_b 11.967381
_cell_length_c 27.538308
_cell_angle_alpha 90.000000
_cell_angle_beta 140.000745
_cell_angle_gamma 90.000000
_cell_volume 3305.857009
_symmetry_space_group_name_H-M "C 2/C"
_symmetry_group_IT_number 15
_symmetry_cell_setting 'monoclinic'
loop_
_space_group_symop_operation_xyz
x,y,z
-x,y,1/2-z
-x,-y,-z
x,-y,1/2+z
1/2+x,1/2+y,z
1/2-x,1/2+y,1/2-z
1/2-x,1/2-y,-z
1/2+x,1/2-y,1/2+z
loop_
_atom_site_type_symbol
_atom_site_label
_atom_site_fract_x
_atom_site_fract_y
_atom_site_fract_z
Si Si1 0.341974 0.267309 0.586020
Si Si2 0.696979 0.220323 0.189614
Si Si3 0.395983 0.254758 0.857465
Si Si4 0.598808 0.536634 0.084826
Si Si5 0.794440 0.526623 0.830267
Si Si6 0.383604 0.520306 0.163074
Si Si7 0.553338 0.417874 0.158821
Si Si8 0.157554 0.623483 0.823128
O O1 0.250000 0.250000 0.500000
O O2 0.490826 0.280008 0.632172
O O3 0.312307 0.379275 0.603630
O O4 0.319173 0.163113 0.611733
O O5 0.762252 0.211047 0.271034
O O6 0.649175 0.099342 0.149710
O O7 0.563360 0.293683 0.140020
O O8 0.798993 0.279235 0.195816
O O9 0.396682 0.328305 0.907504
O O10 0.406221 0.123224 0.876178
O O11 0.525836 0.501266 0.102875
O O12 0.747253 0.484366 0.143534
O O13 0.500000 0.500000 0.000000
O O14 0.725492 0.543039 0.852431
O O15 0.694704 0.546742 0.742626
O O16 0.500000 0.566502 0.250000
O O17 0.438604 0.427971 0.149251
O O18 0.000000 0.592983 0.750000
#
# Coordination Sequence:
#
# PCOD8131779 Si02
#       8
#     8   8   8   8   8   8   8   8
#     4  12  22  34  57  86 116 156 204 250 304 361
#     4  10  18  34  58  88 116 148 194 253 303 351
#     4  11  21  37  58  87 119 151 199 252 304 365
#     4  11  22  38  59  88 129 162 199 248 317 375
#     4  10  19  34  61  87 112 146 198 255 301 342
#     4  10  18  36  59  84 111 153 203 244 296 366
#     4   9  19  32  58  83 112 153 195 234 296 361
#     4  11  22  36  60  91 121 161 209 262 303 357
#
# _framework density 19.359579
#
# number of rings (size 3 to 8) (size 9 to 14) (size 15 to 20)
#    0.000    1.500    5.000    1.875    0.000    0.000 
#    0.000    5.000    0.000    0.750    0.000    0.000 
#    0.000    0.000    0.000    0.000    0.000    0.000 
#
# Total GULP energy -396602.138349 kJ/mol
# GULP energy per Si atom -12393.816823 kJ/mol
# Density = 1.931552 g / cm^3
# Si number density = 19.359579 Si / 1000 Ang^3
#
#
#
# Elastic Constant Matrix: (Units=GPa)
#
#
# Indices 1 2 3 4 5 6 
#
# 1 95.1013 48.4632 30.6211 0.0000 -17.6952 0.0000
# 2 48.4632 128.8556 25.7800 0.0000 -0.5435 0.0000
# 3 30.6211 25.7800 73.5277 0.0000 -20.0474 0.0000
# 4 0.0000 0.0000 0.0000 17.3387 0.0000 -5.3144
# 5 -17.6952 -0.5435 -20.0474 0.0000 22.3109 0.0000
# 6 0.0000 0.0000 0.0000 -5.3144 0.0000 31.3897
#
#
#
# Elastic Compliance Matrix: (Units=1/GPa)
#
#
# Indices 1 2 3 4 5 6 
#
# 1 0.015973 -0.005626 -0.001672 0.000000 0.011029 0.000000
# 2 -0.005626 0.010506 -0.003294 0.000000 -0.007167 0.000000
# 3 -0.001672 -0.003294 0.019958 0.000000 0.016526 0.000000
# 4 0.000000 0.000000 0.000000 0.060831 0.000000 0.010299
# 5 0.011029 -0.007167 0.016526 0.000000 0.068243 0.000000
# 6 0.000000 0.000000 0.000000 0.010299 0.000000 0.033601
#
#
# Mechanical properties :
#
#
# Convention : Reuss Voigt Hill
#
# Bulk Modulus (GPa) = 39.60356 56.35702 47.98029
# Shear Modulus (GPa) = 20.94554 27.04922 23.99738
#
# Velocity S-wave (km/s) = 3.29283 3.74197 3.52456
# Velocity P-wave (km/s) = 5.91254 6.91691 6.43435
#
# Compressibility (1/GPa) = 0.02525025
#
# Stress axis : x y z
#
# Youngs Moduli (GPa) = 62.60649 95.18753 50.10596
#
# Poissons Ratio (x) = 0.53556 0.08379
# Poissons Ratio (y) = 0.35225 0.16506
# Poissons Ratio (z) = 0.10470 0.31357
#
# Static dielectric constant tensor:
#      x y z
#    x 6.961850 0.000000 4.832630 
#    y 0.000000 3.780310 0.000000 
#    z 4.832630 0.000000 11.011360 
# 
# 
# High freq. dielectric constant tensor:
#      x y z
#    x 1.758470 0.000000 -0.025440 
#    y 0.000000 1.748600 0.000000 
#    z -0.025440 0.000000 1.719810 
# 
# From -- ./inp_files/296141.got.cif
#   From: 2010.06.25/outbox.cif.g09.slc.cpg/sg15_149_cif.got.tgz:296141.got - 2010.06.28 07:06:18.
