data_PCOD8131201
_publ_section_title
;
Structure prediction by ZEFSAII (Michael W. Deem and Ramdas Pophale) SiO2 
 PCOD8131201
Probable space group: C 2/C
;
_chemical_formula_sum "Si O2"
_cell_formula_units_Z 36
_cell_length_a 19.239715
_cell_length_b 15.858851
_cell_length_c 5.281078
_cell_angle_alpha 90.000000
_cell_angle_beta 105.931516
_cell_angle_gamma 90.000000
_cell_volume 1549.469693
_symmetry_space_group_name_H-M "C 2/C"
_symmetry_group_IT_number 15
_symmetry_cell_setting 'monoclinic'
loop_
_space_group_symop_operation_xyz
x,y,z
-x,y,1/2-z
-x,-y,-z
x,-y,1/2+z
1/2+x,1/2+y,z
1/2-x,1/2+y,1/2-z
1/2-x,1/2-y,-z
1/2+x,1/2-y,1/2+z
loop_
_atom_site_type_symbol
_atom_site_label
_atom_site_fract_x
_atom_site_fract_y
_atom_site_fract_z
Si Si1 0.000000 0.942689 0.750000
Si Si2 0.721019 0.542406 0.471022
Si Si3 0.333639 0.221479 0.083638
Si Si4 0.628811 0.309842 0.878812
Si Si5 0.125050 0.528176 0.375050
O O1 0.930674 0.882610 0.680674
O O2 0.000000 0.000000 0.500000
O O3 0.685895 0.500000 0.185897
O O4 0.706129 0.642360 0.456131
O O5 0.806980 0.535752 0.556983
O O6 0.376271 0.254036 0.373566
O O7 0.342457 0.121298 0.092456
O O8 0.250000 0.250000 0.000000
O O9 0.376271 0.254037 0.878976
O O10 0.079677 0.500000 0.579676
#
# Coordination Sequence:
#
# PCOD8131201 Si02
#       5
#     4   8   8   8   8
#     4  12  26  46  70  96 130 184 234 266 316 390
#     4  10  18  32  51  75 112 155 192 239 298 363
#     4  12  23  37  60  93 129 166 208 267 340 396
#     4  12  24  40  61  92 128 169 217 270 319 387
#     4  10  19  33  52  80 117 156 192 239 306 385
#
# _framework density 23.233754000000001
#
# number of rings (size 3 to 8) (size 9 to 14) (size 15 to 20)
#    0.000    0.889    0.000   11.333    0.000    0.000 
#    0.000    0.000    0.000    0.000    0.000   15.556 
#    0.000    0.000    0.000    0.000    0.000    0.000 
#
# Total GULP energy -223102.503574 kJ/mol
# GULP energy per Si atom -12394.583532 kJ/mol
# Density = 2.318087 g / cm^3
# Si number density = 23.233754 Si / 1000 Ang^3
#
#
#
# Elastic Constant Matrix: (Units=GPa)
#
#
# Indices 1 2 3 4 5 6 
#
# 1 50.9331 19.2271 37.1957 0.0000 -3.3196 0.0000
# 2 19.2271 97.4478 62.3733 0.0000 -14.6592 0.0000
# 3 37.1957 62.3733 234.5381 0.0000 -59.0622 0.0000
# 4 0.0000 0.0000 0.0000 52.1361 0.0000 -7.2556
# 5 -3.3196 -14.6592 -59.0622 0.0000 30.6932 0.0000
# 6 0.0000 0.0000 0.0000 -7.2556 0.0000 30.7808
#
#
#
# Elastic Compliance Matrix: (Units=1/GPa)
#
#
# Indices 1 2 3 4 5 6 
#
# 1 0.023961 -0.002650 -0.005358 0.000000 -0.008983 0.000000
# 2 -0.002650 0.012671 -0.002906 0.000000 0.000174 0.000000
# 3 -0.005358 -0.002906 0.010459 0.000000 0.018158 0.000000
# 4 0.000000 0.000000 0.000000 0.019831 0.000000 0.004675
# 5 -0.008983 0.000174 0.018158 0.000000 0.066634 0.000000
# 6 0.000000 0.000000 0.000000 0.004675 0.000000 0.033590
#
#
# Mechanical properties :
#
#
# Convention : Reuss Voigt Hill
#
# Bulk Modulus (GPa) = 39.58153 68.94569 54.26361
# Shear Modulus (GPa) = 25.33021 40.33020 32.83020
#
# Velocity S-wave (km/s) = 3.30545 4.17087 3.76312
# Velocity P-wave (km/s) = 5.62505 7.27558 6.50289
#
# Compressibility (1/GPa) = 0.02526431
#
# Stress axis : x y z
#
# Youngs Moduli (GPa) = 41.73457 78.92228 95.61291
#
# Poissons Ratio (x) = 0.20913 0.51225
# Poissons Ratio (y) = 0.11059 0.27782
# Poissons Ratio (z) = 0.22360 0.22932
#
# Static dielectric constant tensor:
#      x y z
#    x 3.961710 0.000000 -1.042690 
#    y 0.000000 4.272670 0.000000 
#    z -1.042690 0.000000 7.030630 
# 
# 
# High freq. dielectric constant tensor:
#      x y z
#    x 1.870370 0.000000 -0.028610 
#    y 0.000000 1.929830 0.000000 
#    z -0.028610 0.000000 1.954580 
# 
# From -- ./inp_files/12608.got.cif
#   From: 2010.06.25/outbox.cif.g09.slc.cpg/sg15_7_cif.got.tgz:12608.got - 2010.06.28 07:06:18.
