data_PCOD8131399
_publ_section_title
;
Structure prediction by ZEFSAII (Michael W. Deem and Ramdas Pophale) SiO2 
 PCOD8131399
Probable space group: C 2/C
;
_chemical_formula_sum "Si O2"
_cell_formula_units_Z 48
_cell_length_a 17.575087
_cell_length_b 29.785753
_cell_length_c 9.373327
_cell_angle_alpha 90.000000
_cell_angle_beta 27.964938
_cell_angle_gamma 90.000000
_cell_volume 2300.959239
_symmetry_space_group_name_H-M "C 2/C"
_symmetry_group_IT_number 15
_symmetry_cell_setting 'monoclinic'
loop_
_space_group_symop_operation_xyz
x,y,z
-x,y,1/2-z
-x,-y,-z
x,-y,1/2+z
1/2+x,1/2+y,z
1/2-x,1/2+y,1/2-z
1/2-x,1/2-y,-z
1/2+x,1/2-y,1/2+z
loop_
_atom_site_type_symbol
_atom_site_label
_atom_site_fract_x
_atom_site_fract_y
_atom_site_fract_z
Si Si1 0.318910 0.536568 0.502129
Si Si2 0.659698 0.225366 0.777058
Si Si3 0.632368 0.212699 0.404048
Si Si4 0.338960 0.362027 0.938319
Si Si5 0.686600 0.035692 0.414131
Si Si6 0.664105 0.372148 0.891050
O O1 0.286035 0.589189 0.583499
O O2 0.288089 0.524983 0.388511
O O3 0.193641 0.508083 0.803328
O O4 0.500000 0.523059 0.250000
O O5 0.750000 0.250000 0.500000
O O6 0.721921 0.251198 0.814935
O O7 0.699623 0.172564 0.712072
O O8 0.464719 0.227808 0.078470
O O9 0.707098 0.163407 0.261252
O O10 0.500000 0.211718 0.750000
O O11 0.500000 0.345106 0.750000
O O12 0.370905 0.362385 0.716684
O O13 0.763765 0.078272 0.205637
O O14 0.500000 0.047416 0.750000
O O15 0.500000 0.367696 0.250000
#
# Coordination Sequence:
#
# PCOD8131399 Si02
#       6
#     8   8   8   8   8   8
#     4  10  22  39  62  89 124 160 203 246 305 362
#     4  10  18  32  64  88 118 150 211 241 292 347
#     4  10  19  35  61  91 114 162 203 249 287 366
#     4  10  20  36  62  90 119 160 206 246 296 360
#     4  11  23  40  64  91 120 159 205 253 302 359
#     4  11  23  38  60  90 124 159 201 251 306 357
#
# _framework density 20.860865
#
# number of rings (size 3 to 8) (size 9 to 14) (size 15 to 20)
#    0.000    1.667    3.333    3.500    2.333    2.667 
#    0.000    0.833    0.000    0.000    0.000    0.000 
#    0.000    0.000    0.000    0.000    0.000    0.000 
#
# Total GULP energy -297589.940348 kJ/mol
# GULP energy per Si atom -12399.580848 kJ/mol
# Density = 2.081338 g / cm^3
# Si number density = 20.860865 Si / 1000 Ang^3
#
#
#
# Elastic Constant Matrix: (Units=GPa)
#
#
# Indices 1 2 3 4 5 6 
#
# 1 95.2344 58.4888 50.2098 0.0002 -36.9664 0.0002
# 2 58.4888 130.9993 46.5432 0.0000 -11.3944 0.0002
# 3 50.2098 46.5432 86.5328 -0.0010 -26.0832 -0.0002
# 4 0.0002 0.0000 -0.0010 23.8837 0.0003 -9.4760
# 5 -36.9664 -11.3944 -26.0832 0.0003 34.6322 0.0001
# 6 0.0002 0.0002 -0.0002 -9.4760 0.0001 26.6697
#
#
#
# Elastic Compliance Matrix: (Units=1/GPa)
#
#
# Indices 1 2 3 4 5 6 
#
# 1 0.026599 -0.008463 -0.004092 -0.000001 0.022525 -0.000001
# 2 -0.008463 0.012153 -0.004067 0.000000 -0.008098 0.000000
# 3 -0.004092 -0.004067 0.018627 0.000001 0.008323 0.000001
# 4 -0.000001 0.000000 0.000001 0.048741 -0.000001 0.017318
# 5 0.022525 -0.008098 0.008323 -0.000001 0.056522 0.000000
# 6 -0.000001 0.000000 0.000001 0.017318 0.000000 0.043649
#
#
# Mechanical properties :
#
#
# Convention : Reuss Voigt Hill
#
# Bulk Modulus (GPa) = 41.43434 69.25002 55.34218
# Shear Modulus (GPa) = 20.19560 27.53877 23.86719
#
# Velocity S-wave (km/s) = 3.11482 3.63728 3.38614
# Velocity P-wave (km/s) = 5.73075 7.13498 6.47107
#
# Compressibility (1/GPa) = 0.02413457
#
# Stress axis : x y z
#
# Youngs Moduli (GPa) = 37.59582 82.28631 53.68559
#
# Poissons Ratio (x) = 0.69636 0.21969
# Poissons Ratio (y) = 0.31816 0.21834
# Poissons Ratio (z) = 0.15385 0.33466
#
# Static dielectric constant tensor:
#      x y z
#    x 4.094650 0.000000 -0.558330 
#    y 0.000000 3.997740 0.000000 
#    z -0.558330 0.000000 3.550150 
# 
# 
# High freq. dielectric constant tensor:
#      x y z
#    x 1.814790 0.000000 -0.032890 
#    y 0.000000 1.832070 0.000000 
#    z -0.032890 0.000000 1.792170 
# 
# From -- ./inp_files/115052.got.cif
#   From: 2010.06.25/outbox.cif.g09.slc.cpg/sg15_58_cif.got.tgz:115052.got - 2010.06.28 07:06:18.
