data_PCOD8131540
_publ_section_title
;
Structure prediction by ZEFSAII (Michael W. Deem and Ramdas Pophale) SiO2 
 PCOD8131540
Probable space group: C 2/C
;
_chemical_formula_sum "Si O2"
_cell_formula_units_Z 48
_cell_length_a 21.918313
_cell_length_b 9.257309
_cell_length_c 8.982622
_cell_angle_alpha 90.000000
_cell_angle_beta 87.490155
_cell_angle_gamma 90.000000
_cell_volume 1820.866876
_symmetry_space_group_name_H-M "C 2/C"
_symmetry_group_IT_number 15
_symmetry_cell_setting 'monoclinic'
loop_
_space_group_symop_operation_xyz
x,y,z
-x,y,1/2-z
-x,-y,-z
x,-y,1/2+z
1/2+x,1/2+y,z
1/2-x,1/2+y,1/2-z
1/2-x,1/2-y,-z
1/2+x,1/2-y,1/2+z
loop_
_atom_site_type_symbol
_atom_site_label
_atom_site_fract_x
_atom_site_fract_y
_atom_site_fract_z
Si Si1 0.651347 0.809624 0.003628
Si Si2 0.303927 0.425831 0.209278
Si Si3 0.869908 0.790956 0.440396
Si Si4 0.430193 0.264271 0.733207
Si Si5 0.233142 0.419723 0.499522
Si Si6 0.067480 0.578098 0.268512
O O1 0.621163 0.705426 0.134244
O O2 0.690012 0.946917 0.058233
O O3 0.696344 0.717436 0.893524
O O4 0.591940 0.862732 0.921127
O O5 0.364893 0.416531 0.311588
O O6 0.244674 0.437117 0.322230
O O7 0.296444 0.560553 0.094314
O O8 0.906260 0.840535 0.583713
O O9 0.798865 0.737149 0.469369
O O10 0.898190 0.642583 0.377297
O O11 0.500000 0.320331 0.750000
O O12 0.428749 0.092662 0.723392
O O13 0.000000 0.635499 0.250000
#
# Coordination Sequence:
#
# PCOD8131540 Si02
#       6
#     8   8   8   8   8   8
#     4  11  22  38  59  91 126 163 200 246 303 368
#     4  11  26  38  60  83 119 168 215 250 298 350
#     4  11  22  38  59  91 126 163 200 246 303 368
#     4  11  20  35  62  95 128 158 183 242 323 386
#     4  12  22  42  57  86 127 166 206 258 290 350
#     4  10  18  33  57  90 126 162 188 234 309 380
#
# _framework density 26.361070999999999
#
# number of rings (size 3 to 8) (size 9 to 14) (size 15 to 20)
#    0.000    1.000    3.333    5.000    0.000    4.000 
#    0.000    0.000    0.000    0.000    0.000   58.333 
#    0.000    0.000    0.000    0.000    0.000    0.000 
#
# Total GULP energy -297381.612614 kJ/mol
# GULP energy per Si atom -12390.900526 kJ/mol
# Density = 2.630107 g / cm^3
# Si number density = 26.361071 Si / 1000 Ang^3
#
#
#
# Elastic Constant Matrix: (Units=GPa)
#
#
# Indices 1 2 3 4 5 6 
#
# 1 130.7622 33.8572 49.4967 0.0000 22.7111 0.0000
# 2 33.8572 74.1274 36.0044 0.0000 16.6122 0.0000
# 3 49.4967 36.0044 173.5700 0.0000 25.9433 0.0000
# 4 0.0000 0.0000 0.0000 39.8369 0.0000 6.1816
# 5 22.7111 16.6122 25.9433 0.0000 57.1278 0.0000
# 6 0.0000 0.0000 0.0000 6.1816 0.0000 13.7352
#
#
#
# Elastic Compliance Matrix: (Units=1/GPa)
#
#
# Indices 1 2 3 4 5 6 
#
# 1 0.009452 -0.002993 -0.001763 0.000000 -0.002087 0.000000
# 2 -0.002993 0.016502 -0.002178 0.000000 -0.002620 0.000000
# 3 -0.001763 -0.002178 0.006991 0.000000 -0.001841 0.000000
# 4 0.000000 0.000000 0.000000 0.026987 0.000000 -0.012146
# 5 -0.002087 -0.002620 -0.001841 0.000000 0.019932 0.000000
# 6 0.000000 0.000000 0.000000 -0.012146 0.000000 0.078272
#
#
# Mechanical properties :
#
#
# Convention : Reuss Voigt Hill
#
# Bulk Modulus (GPa) = 52.41785 68.57514 60.49649
# Shear Modulus (GPa) = 28.03259 39.41339 33.72299
#
# Velocity S-wave (km/s) = 3.26453 3.87089 3.58057
# Velocity P-wave (km/s) = 5.84271 6.78592 6.33190
#
# Compressibility (1/GPa) = 0.01907747
#
# Stress axis : x y z
#
# Youngs Moduli (GPa) = 105.79579 60.59698 143.04263
#
# Poissons Ratio (x) = 0.18139 0.25213
# Poissons Ratio (y) = 0.31669 0.31155
# Poissons Ratio (z) = 0.18648 0.13198
#
# Static dielectric constant tensor:
#      x y z
#    x 5.053200 0.000000 0.000680 
#    y 0.000000 4.547230 0.000000 
#    z 0.000680 0.000000 5.153880 
# 
# 
# High freq. dielectric constant tensor:
#      x y z
#    x 2.058610 0.000000 0.004610 
#    y 0.000000 2.052830 0.000000 
#    z 0.004610 0.000000 2.076820 
# 
# From -- ./inp_files/60605.got.cif
#   From: 2010.06.25/outbox.cif.g09.slc.cpg/sg15_31_cif.got.tgz:60605.got - 2010.06.28 07:06:18.
