data_PCOD8131947
_publ_section_title
;
Structure prediction by ZEFSAII (Michael W. Deem and Ramdas Pophale) SiO2 
 PCOD8131947
Probable space group: C 2/C
;
_chemical_formula_sum "Si O2"
_cell_formula_units_Z 60
_cell_length_a 26.004527
_cell_length_b 9.632602
_cell_length_c 17.934548
_cell_angle_alpha 90.000000
_cell_angle_beta 46.258782
_cell_angle_gamma 90.000000
_cell_volume 3245.658302
_symmetry_space_group_name_H-M "C 2/C"
_symmetry_group_IT_number 15
_symmetry_cell_setting 'monoclinic'
loop_
_space_group_symop_operation_xyz
x,y,z
-x,y,1/2-z
-x,-y,-z
x,-y,1/2+z
1/2+x,1/2+y,z
1/2-x,1/2+y,1/2-z
1/2-x,1/2-y,-z
1/2+x,1/2-y,1/2+z
loop_
_atom_site_type_symbol
_atom_site_label
_atom_site_fract_x
_atom_site_fract_y
_atom_site_fract_z
Si Si1 0.717670 0.937609 0.242500
Si Si2 0.401177 0.132646 0.099077
Si Si3 0.638146 0.572070 0.822734
Si Si4 0.000000 0.311915 0.750000
Si Si5 0.355049 0.326550 0.344892
Si Si6 0.131220 0.213700 0.399558
Si Si7 0.267425 0.615873 0.072741
Si Si8 0.026936 0.428712 0.570783
O O1 0.779774 0.916496 0.239188
O O2 0.667299 0.803344 0.296877
O O3 0.678696 0.078822 0.308540
O O4 0.746678 0.965860 0.129350
O O5 0.403710 0.299122 0.097586
O O6 0.446663 0.067006 0.121210
O O7 0.431995 0.071554 0.990477
O O8 0.633058 0.573983 0.738101
O O9 0.605312 0.431164 0.889809
O O10 0.066231 0.217939 0.708771
O O11 0.027164 0.414711 0.658794
O O12 0.314838 0.409307 0.451386
O O13 0.305934 0.195659 0.371956
O O14 0.185829 0.198687 0.413453
O O15 0.062436 0.293639 0.497586
#
# Coordination Sequence:
#
# PCOD8131947 Si02
#       8
#     8   8   8   4   8   8   8   8
#     4  10  18  35  56  83 112 147 190 242 277 331
#     4  10  20  36  56  82 116 144 193 237 284 332
#     4  11  19  34  56  83 114 146 188 234 286 337
#     4  12  20  36  58  84 120 146 200 234 294 340
#     4  11  21  34  55  86 111 152 189 240 286 347
#     4  10  20  33  57  85 113 150 193 233 284 346
#     4  10  19  34  55  82 114 147 192 242 283 336
#     4  10  21  36  57  84 111 153 188 240 282 345
#
# _framework density 18.486235000000001
#
# number of rings (size 3 to 8) (size 9 to 14) (size 15 to 20)
#    0.000    1.600    5.333    0.800    0.000    0.533 
#    0.000    0.667    0.000   12.000    0.000    0.000 
#    0.000    0.000    0.000    0.000    0.000    0.000 
#
# Total GULP energy -371898.229139 kJ/mol
# GULP energy per Si atom -12396.607638 kJ/mol
# Density = 1.844416 g / cm^3
# Si number density = 18.486235 Si / 1000 Ang^3
#
#
#
# Elastic Constant Matrix: (Units=GPa)
#
#
# Indices 1 2 3 4 5 6 
#
# 1 90.9696 17.3958 47.4474 0.0012 6.3836 -0.0017
# 2 17.3958 99.2455 57.1816 0.0012 17.3326 -0.0069
# 3 47.4474 57.1816 122.1857 0.0001 24.4232 -0.0021
# 4 0.0012 0.0012 0.0001 23.9716 -0.0013 6.4526
# 5 6.3836 17.3326 24.4232 -0.0013 32.2957 0.0020
# 6 -0.0017 -0.0069 -0.0021 6.4526 0.0020 24.3650
#
#
#
# Elastic Compliance Matrix: (Units=1/GPa)
#
#
# Indices 1 2 3 4 5 6 
#
# 1 0.013898 0.000808 -0.006055 -0.000001 0.001398 0.000001
# 2 0.000808 0.014089 -0.006319 -0.000002 -0.002942 0.000004
# 3 -0.006055 -0.006319 0.014815 0.000000 -0.006616 0.000000
# 4 -0.000001 -0.000002 0.000000 0.044918 0.000004 -0.011896
# 5 0.001398 -0.002942 -0.006616 0.000004 0.037270 -0.000005
# 6 0.000001 0.000004 0.000000 -0.011896 -0.000005 0.044193
#
#
# Mechanical properties :
#
#
# Convention : Reuss Voigt Hill
#
# Bulk Modulus (GPa) = 50.83632 61.82784 56.33208
# Shear Modulus (GPa) = 25.14195 28.81818 26.98006
#
# Velocity S-wave (km/s) = 3.69187 3.95257 3.82444
# Velocity P-wave (km/s) = 6.76258 7.37214 7.07392
#
# Compressibility (1/GPa) = 0.01967098
#
# Stress axis : x y z
#
# Youngs Moduli (GPa) = 71.95320 70.97656 67.49873
#
# Poissons Ratio (x) = -0.05737 0.40867
# Poissons Ratio (y) = -0.05815 0.42655
# Poissons Ratio (z) = 0.43564 0.44852
#
# Static dielectric constant tensor:
#      x y z
#    x 3.456920 0.000000 -0.000040 
#    y 0.000000 3.291490 0.000000 
#    z -0.000040 0.000000 3.585850 
# 
# 
# High freq. dielectric constant tensor:
#      x y z
#    x 1.719850 0.000000 -0.012240 
#    y 0.000000 1.690780 0.000000 
#    z -0.012240 0.000000 1.722760 
# 
# From -- ./inp_files/221884.got.cif
#   From: 2010.06.25/outbox.cif.g09.slc.cpg/sg15_111_cif.got.tgz:221884.got - 2010.06.28 07:06:18.
