data_PCOD8131404
_publ_section_title
;
Structure prediction by ZEFSAII (Michael W. Deem and Ramdas Pophale) SiO2 
 PCOD8131404
Probable space group: C 2/C
;
_chemical_formula_sum "Si O2"
_cell_formula_units_Z 56
_cell_length_a 18.370487
_cell_length_b 19.371049
_cell_length_c 8.928621
_cell_angle_alpha 90.000000
_cell_angle_beta 54.549689
_cell_angle_gamma 90.000000
_cell_volume 2588.288225
_symmetry_space_group_name_H-M "C 2/C"
_symmetry_group_IT_number 15
_symmetry_cell_setting 'monoclinic'
loop_
_space_group_symop_operation_xyz
x,y,z
-x,y,1/2-z
-x,-y,-z
x,-y,1/2+z
1/2+x,1/2+y,z
1/2-x,1/2+y,1/2-z
1/2-x,1/2-y,-z
1/2+x,1/2-y,1/2+z
loop_
_atom_site_type_symbol
_atom_site_label
_atom_site_fract_x
_atom_site_fract_y
_atom_site_fract_z
Si Si1 0.091444 0.259013 0.388787
Si Si2 0.000000 0.653004 0.250000
Si Si3 0.796227 0.961462 0.579263
Si Si4 0.659613 0.584828 0.797760
Si Si5 0.971061 0.116083 0.951296
Si Si6 0.220731 0.240599 0.705790
Si Si7 0.000000 0.654859 0.750000
Si Si8 0.877277 0.620311 0.146774
O O1 0.045526 0.184665 0.433981
O O2 0.197676 0.248917 0.277467
O O3 0.059990 0.300078 0.571872
O O4 0.067729 0.298630 0.265680
O O5 0.066172 0.605163 0.269538
O O6 0.797074 0.948429 0.402182
O O7 0.882265 0.929620 0.558637
O O8 0.708477 0.928064 0.756729
O O9 0.797462 0.043536 0.613463
O O10 0.552556 0.574110 0.929031
O O11 0.679648 0.665555 0.782052
O O12 0.000000 0.137941 0.750000
O O13 0.250000 0.250000 0.500000
O O14 0.146125 0.297930 0.829967
O O15 0.060278 0.605893 0.571847
#
# Coordination Sequence:
#
# PCOD8131404 Si02
#       8
#     8   4   8   8   8   8   4   8
#     4  11  19  36  60  95 131 163 218 270 322 374
#     4  10  18  32  66  91 121 164 222 276 298 380
#     4  11  23  41  63  91 131 171 209 264 327 395
#     4  11  23  39  64  98 131 167 212 260 327 388
#     4  10  19  38  64  91 127 175 214 254 309 397
#     4  12  20  39  73  99 117 172 235 274 305 385
#     4  10  26  36  56  97 135 168 202 286 346 382
#     4  11  22  42  65  97 129 167 226 270 333 379
#
# _framework density 21.635921
#
# number of rings (size 3 to 8) (size 9 to 14) (size 15 to 20)
#    0.000    1.143    5.000    3.000    0.000    1.714 
#    5.143    0.000    1.571   14.571    0.000    0.000 
#    0.000    0.000    0.000    0.000    0.000    0.000 
#
# Total GULP energy -347265.241210 kJ/mol
# GULP energy per Si atom -12402.330043 kJ/mol
# Density = 2.158668 g / cm^3
# Si number density = 21.635921 Si / 1000 Ang^3
#
#
#
# Elastic Constant Matrix: (Units=GPa)
#
#
# Indices 1 2 3 4 5 6 
#
# 1 127.6655 34.5751 45.9647 0.0000 -9.6258 0.0000
# 2 34.5751 74.2932 11.0918 0.0000 -8.2658 0.0000
# 3 45.9647 11.0918 81.4297 0.0000 -10.5763 0.0000
# 4 0.0000 0.0000 0.0000 12.5810 0.0000 -0.8068
# 5 -9.6258 -8.2658 -10.5763 0.0000 33.1495 0.0000
# 6 0.0000 0.0000 0.0000 -0.8068 0.0000 26.7512
#
#
#
# Elastic Compliance Matrix: (Units=1/GPa)
#
#
# Indices 1 2 3 4 5 6 
#
# 1 0.011029 -0.004257 -0.005599 0.000000 0.000354 0.000000
# 2 -0.004257 0.015665 0.000643 0.000000 0.002875 0.000000
# 3 -0.005599 0.000643 0.015819 0.000000 0.003581 0.000000
# 4 0.000000 0.000000 0.000000 0.079639 0.000000 0.002402
# 5 0.000354 0.002875 0.003581 0.000000 0.032129 0.000000
# 6 0.000000 0.000000 0.000000 0.002402 0.000000 0.037454
#
#
# Mechanical properties :
#
#
# Convention : Reuss Voigt Hill
#
# Bulk Modulus (GPa) = 41.51979 51.85019 46.68499
# Shear Modulus (GPa) = 22.91574 27.28012 25.09793
#
# Velocity S-wave (km/s) = 3.25799 3.55473 3.40959
# Velocity P-wave (km/s) = 5.77794 6.39257 6.09301
#
# Compressibility (1/GPa) = 0.02408490
#
# Stress axis : x y z
#
# Youngs Moduli (GPa) = 90.67265 63.83518 63.21563
#
# Poissons Ratio (x) = 0.27176 0.35397
# Poissons Ratio (y) = 0.38601 -0.04063
# Poissons Ratio (z) = 0.50772 -0.04102
#
# Static dielectric constant tensor:
#      x y z
#    x 4.353790 0.000000 -0.041910 
#    y 0.000000 3.624800 0.000000 
#    z -0.041910 0.000000 3.853350 
# 
# 
# High freq. dielectric constant tensor:
#      x y z
#    x 1.862490 0.000000 -0.013480 
#    y 0.000000 1.826880 0.000000 
#    z -0.013480 0.000000 1.841190 
# 
# From -- ./inp_files/50150.got.cif
#   From: 2010.06.25/outbox.cif.g09.slc.cpg/sg15_26_cif.got.tgz:50150.got - 2010.06.28 07:06:18.
