data_PCOD8131306
_publ_section_title
;
Structure prediction by ZEFSAII (Michael W. Deem and Ramdas Pophale) SiO2 
 PCOD8131306
Probable space group: C 2/C
;
_chemical_formula_sum "Si O2"
_cell_formula_units_Z 60
_cell_length_a 5.435296
_cell_length_b 27.024514
_cell_length_c 24.242652
_cell_angle_alpha 90.000000
_cell_angle_beta 55.671228
_cell_angle_gamma 90.000000
_cell_volume 2940.655136
_symmetry_space_group_name_H-M "C 2/C"
_symmetry_group_IT_number 15
_symmetry_cell_setting 'monoclinic'
loop_
_space_group_symop_operation_xyz
x,y,z
-x,y,1/2-z
-x,-y,-z
x,-y,1/2+z
1/2+x,1/2+y,z
1/2-x,1/2+y,1/2-z
1/2-x,1/2-y,-z
1/2+x,1/2-y,1/2+z
loop_
_atom_site_type_symbol
_atom_site_label
_atom_site_fract_x
_atom_site_fract_y
_atom_site_fract_z
Si Si1 0.683410 0.552557 0.071675
Si Si2 0.000000 0.651480 0.750000
Si Si3 0.116124 0.390532 0.600673
Si Si4 0.292377 0.056904 0.573179
Si Si5 0.642669 0.809274 0.792709
Si Si6 0.956812 0.854796 0.460593
Si Si7 0.472603 0.708526 0.859427
Si Si8 0.389177 0.868964 0.150229
O O1 0.356584 0.574569 0.100951
O O2 0.635821 0.496280 0.097261
O O3 0.867744 0.580837 0.096149
O O4 0.865965 0.552326 0.991009
O O5 0.803833 0.687249 0.812781
O O6 0.870253 0.616752 0.717814
O O7 0.295757 0.350697 0.540106
O O8 0.938838 0.361618 0.670377
O O9 0.114637 0.090720 0.553078
O O10 0.261538 0.082520 0.636595
O O11 0.500000 0.806379 0.750000
O O12 0.479291 0.767190 0.850321
O O13 0.000000 0.802317 0.750000
O O14 0.843086 0.809574 0.435384
O O15 0.309984 0.853977 0.419924
O O16 0.302974 0.680899 0.831576
#
# Coordination Sequence:
#
# PCOD8131306 Si02
#       8
#     8   4   8   8   8   8   8   8
#     4  10  21  37  64  93 122 167 207 257 306 360
#     4  10  18  32  56  80 124 156 202 252 302 374
#     4  11  23  42  63  93 127 161 211 263 312 359
#     4   9  19  33  60  91 129 159 204 247 309 385
#     4  12  26  45  68  88 116 169 225 257 301 368
#     4   9  20  35  60  95 131 152 191 257 326 370
#     4  10  21  37  60  90 120 159 207 255 306 383
#     4  10  18  33  55  90 125 159 197 251 313 377
#
# _framework density 20.403618999999999
#
# number of rings (size 3 to 8) (size 9 to 14) (size 15 to 20)
#    0.000    1.867    2.000    2.000    3.733    2.133 
#    0.000    0.667    1.467    6.400    0.000    0.000 
#    0.000    0.000    0.000    0.000    0.000    0.000 
#
# Total GULP energy -371705.644156 kJ/mol
# GULP energy per Si atom -12390.188139 kJ/mol
# Density = 2.035718 g / cm^3
# Si number density = 20.403619 Si / 1000 Ang^3
#
#
#
# Elastic Constant Matrix: (Units=GPa)
#
#
# Indices 1 2 3 4 5 6 
#
# 1 114.6164 40.2131 24.8421 0.0000 10.7865 0.0000
# 2 40.2131 110.9685 39.2807 0.0000 6.8808 0.0000
# 3 24.8421 39.2807 52.8593 0.0000 8.6733 0.0000
# 4 0.0000 0.0000 0.0000 24.7643 0.0000 -10.9294
# 5 10.7865 6.8808 8.6733 0.0000 22.7609 0.0000
# 6 0.0000 0.0000 0.0000 -10.9294 0.0000 6.5055
#
#
#
# Elastic Compliance Matrix: (Units=1/GPa)
#
#
# Indices 1 2 3 4 5 6 
#
# 1 0.010513 -0.002779 -0.002342 0.000000 -0.003250 0.000000
# 2 -0.002779 0.012964 -0.008428 0.000000 0.000609 0.000000
# 3 -0.002342 -0.008428 0.027395 0.000000 -0.006781 0.000000
# 4 0.000000 0.000000 0.000000 0.156186 0.000000 0.262397
# 5 -0.003250 0.000609 -0.006781 0.000000 0.047875 0.000000
# 6 0.000000 0.000000 0.000000 0.262397 0.000000 0.594553
#
#
# Mechanical properties :
#
#
# Convention : Reuss Voigt Hill
#
# Bulk Modulus (GPa) = 42.06421 54.12401 48.09411
# Shear Modulus (GPa) = 5.65285 22.41336 14.03311
#
# Velocity S-wave (km/s) = 1.66629 3.31796 2.62539
# Velocity P-wave (km/s) = 4.93587 6.42361 5.72824
#
# Compressibility (1/GPa) = 0.02377318
#
# Stress axis : x y z
#
# Youngs Moduli (GPa) = 95.11718 77.13553 36.50361
#
# Poissons Ratio (x) = 0.21437 0.08551
# Poissons Ratio (y) = 0.26435 0.30765
# Poissons Ratio (z) = 0.22281 0.65008
#
# Static dielectric constant tensor:
#      x y z
#    x 3.862830 0.000000 0.157520 
#    y 0.000000 3.568940 0.000000 
#    z 0.157520 0.000000 4.080910 
# 
# 
# High freq. dielectric constant tensor:
#      x y z
#    x 1.809850 0.000000 0.005510 
#    y 0.000000 1.778410 0.000000 
#    z 0.005510 0.000000 1.783000 
# 
# From -- ./inp_files/262084.got.cif
#   From: 2010.06.25/outbox.cif.g09.slc.cpg/sg15_132_cif.got.tgz:262084.got - 2010.06.28 07:06:18.
