data_PCOD8131802
_publ_section_title
;
Structure prediction by ZEFSAII (Michael W. Deem and Ramdas Pophale) SiO2 
 PCOD8131802
Probable space group: C 2/C
;
_chemical_formula_sum "Si O2"
_cell_formula_units_Z 56
_cell_length_a 27.159969
_cell_length_b 14.847603
_cell_length_c 14.239931
_cell_angle_alpha 90.000000
_cell_angle_beta 151.920595
_cell_angle_gamma 90.000000
_cell_volume 2702.918023
_symmetry_space_group_name_H-M "C 2/C"
_symmetry_group_IT_number 15
_symmetry_cell_setting 'monoclinic'
loop_
_space_group_symop_operation_xyz
x,y,z
-x,y,1/2-z
-x,-y,-z
x,-y,1/2+z
1/2+x,1/2+y,z
1/2-x,1/2+y,1/2-z
1/2-x,1/2-y,-z
1/2+x,1/2-y,1/2+z
loop_
_atom_site_type_symbol
_atom_site_label
_atom_site_fract_x
_atom_site_fract_y
_atom_site_fract_z
Si Si1 0.470661 0.277024 0.855132
Si Si2 0.876420 0.996127 0.562855
Si Si3 0.397746 0.894115 0.311607
Si Si4 0.847089 0.203377 0.962597
Si Si5 0.542538 0.996454 0.420712
Si Si6 0.241083 0.613060 0.209242
Si Si7 0.687142 0.579842 0.367606
O O1 0.469363 0.193758 0.924222
O O2 0.411660 0.255503 0.658229
O O3 0.415038 0.358465 0.815034
O O4 0.589787 0.299063 0.029450
O O5 0.820295 0.901672 0.437003
O O6 0.851047 0.005179 0.632438
O O7 0.000000 0.990884 0.750000
O O8 0.824134 0.082456 0.427257
O O9 0.397054 0.926513 0.418788
O O10 0.443341 0.968761 0.317015
O O11 0.280528 0.869463 0.081457
O O12 0.752803 0.277303 0.791905
O O13 0.500000 0.034471 0.250000
O O14 0.622296 0.913463 0.537069
O O15 0.273422 0.556998 0.170155
#
# Coordination Sequence:
#
# PCOD8131802 Si02
#       7
#     8   8   8   8   8   8   8
#     4  10  18  34  59  90 117 148 206 264 311 347
#     4  11  24  43  61  92 126 163 210 266 315 369
#     4  11  20  31  57  88 125 156 203 253 313 367
#     4  10  19  37  61  88 127 152 195 274 315 345
#     4  11  21  34  51  88 131 161 192 252 314 380
#     4  12  23  35  65  94 124 164 207 260 319 370
#     4  11  21  34  61  92 116 159 211 259 304 374
#
# _framework density 20.718350000000001
#
# number of rings (size 3 to 8) (size 9 to 14) (size 15 to 20)
#    0.000    1.143    8.571    0.429    2.000    0.571 
#    0.000    0.000    0.000    4.286    0.000    0.000 
#    0.000    0.000    0.000    0.000    0.000    0.000 
#
# Total GULP energy -346895.389908 kJ/mol
# GULP energy per Si atom -12389.121068 kJ/mol
# Density = 2.067119 g / cm^3
# Si number density = 20.718350 Si / 1000 Ang^3
#
#
#
# Elastic Constant Matrix: (Units=GPa)
#
#
# Indices 1 2 3 4 5 6 
#
# 1 97.9213 0.5386 25.8747 0.0000 5.3505 0.0000
# 2 0.5386 55.1976 19.2067 0.0000 -8.2232 0.0000
# 3 25.8747 19.2067 49.1297 0.0000 -0.2311 0.0000
# 4 0.0000 0.0000 0.0000 25.6316 0.0000 -1.5465
# 5 5.3505 -8.2232 -0.2311 0.0000 31.1105 0.0000
# 6 0.0000 0.0000 0.0000 -1.5465 0.0000 20.6280
#
#
#
# Elastic Compliance Matrix: (Units=1/GPa)
#
#
# Indices 1 2 3 4 5 6 
#
# 1 0.012214 0.002184 -0.007294 0.000000 -0.001578 0.000000
# 2 0.002184 0.022338 -0.009857 0.000000 0.005456 0.000000
# 3 -0.007294 -0.009857 0.028044 0.000000 -0.001143 0.000000
# 4 0.000000 0.000000 0.000000 0.039192 0.000000 0.002938
# 5 -0.001578 0.005456 -0.001143 0.000000 0.033848 0.000000
# 6 0.000000 0.000000 0.000000 0.002938 0.000000 0.048698
#
#
# Mechanical properties :
#
#
# Convention : Reuss Voigt Hill
#
# Bulk Modulus (GPa) = 30.61724 32.60983 31.61353
# Shear Modulus (GPa) = 22.20690 25.91592 24.06141
#
# Velocity S-wave (km/s) = 3.27746 3.54060 3.41157
# Velocity P-wave (km/s) = 5.39743 5.69984 5.55070
#
# Compressibility (1/GPa) = 0.03266134
#
# Stress axis : x y z
#
# Youngs Moduli (GPa) = 81.87495 44.76647 35.65856
#
# Poissons Ratio (x) = -0.09776 0.26008
# Poissons Ratio (y) = -0.17879 0.35149
# Poissons Ratio (z) = 0.59717 0.44127
#
# Static dielectric constant tensor:
#      x y z
#    x 4.153070 0.000000 0.227270 
#    y 0.000000 3.355580 0.000000 
#    z 0.227270 0.000000 3.430730 
# 
# 
# High freq. dielectric constant tensor:
#      x y z
#    x 1.838410 0.000000 0.028370 
#    y 0.000000 1.771820 0.000000 
#    z 0.028370 0.000000 1.768610 
# 
# From -- ./inp_files/178409.got.cif
#   From: 2010.06.25/outbox.cif.g09.slc.cpg/sg15_90_cif.got.tgz:178409.got - 2010.06.28 07:06:18.
