data_PCOD8131147
_publ_section_title
;
Structure prediction by ZEFSAII (Michael W. Deem and Ramdas Pophale) SiO2 
 PCOD8131147
Probable space group: C 2/C
;
_chemical_formula_sum "Si O2"
_cell_formula_units_Z 44
_cell_length_a 10.134097
_cell_length_b 25.785948
_cell_length_c 13.695170
_cell_angle_alpha 90.000000
_cell_angle_beta 136.007970
_cell_angle_gamma 90.000000
_cell_volume 2485.674709
_symmetry_space_group_name_H-M "C 2/C"
_symmetry_group_IT_number 15
_symmetry_cell_setting 'monoclinic'
loop_
_space_group_symop_operation_xyz
x,y,z
-x,y,1/2-z
-x,-y,-z
x,-y,1/2+z
1/2+x,1/2+y,z
1/2-x,1/2+y,1/2-z
1/2-x,1/2-y,-z
1/2+x,1/2-y,1/2+z
loop_
_atom_site_type_symbol
_atom_site_label
_atom_site_fract_x
_atom_site_fract_y
_atom_site_fract_z
Si Si1 0.500000 0.404432 0.750000
Si Si2 0.880835 0.989408 0.533434
Si Si3 0.500000 0.572082 0.750000
Si Si4 0.725854 0.788456 0.367947
Si Si5 0.313033 0.870811 0.299237
Si Si6 0.696252 0.176804 0.062558
Si Si7 0.000000 0.550148 0.750000
O O1 0.456401 0.438543 0.630583
O O2 0.678524 0.367598 0.819391
O O3 0.658188 0.984593 0.388209
O O4 0.902520 0.038436 0.614377
O O5 0.000000 0.000000 0.500000
O O6 0.333280 0.607515 0.701466
O O7 0.500000 0.787753 0.250000
O O8 0.798646 0.828651 0.325547
O O9 0.792645 0.809790 0.508812
O O10 0.804662 0.731686 0.380834
O O11 0.482702 0.843485 0.447376
O O12 0.394774 0.915687 0.274293
#
# Coordination Sequence:
#
# PCOD8131147 Si02
#       7
#     4   8   4   8   8   8   4
#     4  11  20  33  58  92 114 148 197 243 288 346
#     4  11  24  39  58  88 117 153 199 248 288 346
#     4  11  26  40  62  83 121 162 198 237 302 348
#     4   9  17  31  56  88 117 145 190 239 290 338
#     4  11  20  38  58  87 117 157 193 239 294 354
#     4  10  18  31  57  90 115 144 192 246 284 339
#     4  12  20  39  64  81 119 156 197 244 296 336
#
# _framework density 17.701430999999999
#
# number of rings (size 3 to 8) (size 9 to 14) (size 15 to 20)
#    0.000    1.455    7.273    0.000    0.000    2.182 
#    0.000    0.909    0.000    0.000    0.000    0.000 
#    0.000    0.000    0.000    0.000    0.000    0.000 
#
# Total GULP energy -272776.241437 kJ/mol
# GULP energy per Si atom -12398.920065 kJ/mol
# Density = 1.766114 g / cm^3
# Si number density = 17.701431 Si / 1000 Ang^3
#
#
#
# Elastic Constant Matrix: (Units=GPa)
#
#
# Indices 1 2 3 4 5 6 
#
# 1 108.9085 63.3672 37.7854 0.0000 -4.1378 0.0000
# 2 63.3672 127.8486 56.3055 0.0000 0.5439 0.0000
# 3 37.7854 56.3055 98.8096 0.0000 1.2783 0.0000
# 4 0.0000 0.0000 0.0000 38.6343 0.0000 5.9569
# 5 -4.1378 0.5439 1.2783 0.0000 18.2772 0.0000
# 6 0.0000 0.0000 0.0000 5.9569 0.0000 29.7706
#
#
#
# Elastic Compliance Matrix: (Units=1/GPa)
#
#
# Indices 1 2 3 4 5 6 
#
# 1 0.013324 -0.005815 -0.001825 0.000000 0.003317 0.000000
# 2 -0.005815 0.012980 -0.005156 0.000000 -0.001342 0.000000
# 3 -0.001825 -0.005156 0.013772 0.000000 -0.001223 0.000000
# 4 0.000000 0.000000 0.000000 0.026708 0.000000 -0.005344
# 5 0.003317 -0.001342 -0.001223 0.000000 0.055589 0.000000
# 6 0.000000 0.000000 0.000000 -0.005344 0.000000 0.034660
#
#
# Mechanical properties :
#
#
# Convention : Reuss Voigt Hill
#
# Bulk Modulus (GPa) = 69.03094 72.27588 70.65341
# Shear Modulus (GPa) = 26.67358 29.21034 27.94196
#
# Velocity S-wave (km/s) = 3.88604 4.06663 3.97736
# Velocity P-wave (km/s) = 7.69527 7.93531 7.81621
#
# Compressibility (1/GPa) = 0.01448626
#
# Stress axis : x y z
#
# Youngs Moduli (GPa) = 75.05088 77.04189 72.61114
#
# Poissons Ratio (x) = 0.44796 0.13251
# Poissons Ratio (y) = 0.43638 0.37435
# Poissons Ratio (z) = 0.13696 0.39720
#
# Static dielectric constant tensor:
#      x y z
#    x 2.945200 0.000000 -0.037890 
#    y 0.000000 3.616830 0.000000 
#    z -0.037890 0.000000 3.508070 
# 
# 
# High freq. dielectric constant tensor:
#      x y z
#    x 1.639740 0.000000 0.005080 
#    y 0.000000 1.701070 0.000000 
#    z 0.005080 0.000000 1.698630 
# 
# From -- ./inp_files/31442.got.cif
#   From: 2010.06.25/outbox.cif.g09.slc.cpg/sg15_16_cif.got.tgz:31442.got - 2010.06.28 07:06:18.
