data_PCOD8131218
_publ_section_title
;
Structure prediction by ZEFSAII (Michael W. Deem and Ramdas Pophale) SiO2 
 PCOD8131218
Probable space group: C 2/C
;
_chemical_formula_sum "Si O2"
_cell_formula_units_Z 48
_cell_length_a 8.894820
_cell_length_b 16.481631
_cell_length_c 19.773087
_cell_angle_alpha 90.000000
_cell_angle_beta 63.313825
_cell_angle_gamma 90.000000
_cell_volume 2589.980869
_symmetry_space_group_name_H-M "C 2/C"
_symmetry_group_IT_number 15
_symmetry_cell_setting 'monoclinic'
loop_
_space_group_symop_operation_xyz
x,y,z
-x,y,1/2-z
-x,-y,-z
x,-y,1/2+z
1/2+x,1/2+y,z
1/2-x,1/2+y,1/2-z
1/2-x,1/2-y,-z
1/2+x,1/2-y,1/2+z
loop_
_atom_site_type_symbol
_atom_site_label
_atom_site_fract_x
_atom_site_fract_y
_atom_site_fract_z
Si Si1 0.419120 0.527379 0.873836
Si Si2 0.931347 0.487827 0.124892
Si Si3 0.240778 0.088863 0.999231
Si Si4 0.182632 0.341724 0.877008
Si Si5 0.500000 0.907956 0.250000
Si Si6 0.000000 0.092501 0.250000
Si Si7 0.839166 0.159981 0.626323
O O1 0.247934 0.543083 0.866661
O O2 0.534526 0.464814 0.808156
O O3 0.519187 0.610588 0.862205
O O4 0.376770 0.486831 0.954901
O O5 0.948497 0.585558 0.112296
O O6 0.073910 0.444380 0.053011
O O7 0.945342 0.466601 0.200576
O O8 0.159862 0.132608 0.951634
O O9 0.253391 0.152436 0.058432
O O10 0.339267 0.350924 0.794260
O O11 0.103207 0.253578 0.880809
O O12 0.344597 0.851245 0.303598
#
# Coordination Sequence:
#
# PCOD8131218 Si02
#       7
#     8   8   8   8   4   4   8
#     4  10  18  33  55  76  99 134 172 207 245 301
#     4   9  19  37  55  71  99 139 170 200 251 309
#     4   9  19  35  53  73 103 140 169 197 249 311
#     4  10  18  32  52  76 102 131 167 213 250 288
#     4  10  21  36  53  72 100 136 170 202 251 312
#     4   8  17  32  51  68  96 140 172 196 247 308
#     4  11  20  31  52  81 103 127 169 215 249 288
#
# _framework density 18.532957
#
# number of rings (size 3 to 8) (size 9 to 14) (size 15 to 20)
#    0.000    2.667    0.000    5.500    0.000    0.000 
#    0.000    5.833    0.000   12.000    0.000    0.000 
#    0.000    0.000    0.000    0.000    0.000    0.000 
#
# Total GULP energy -297511.140039 kJ/mol
# GULP energy per Si atom -12396.297502 kJ/mol
# Density = 1.849077 g / cm^3
# Si number density = 18.532957 Si / 1000 Ang^3
#
#
#
# Elastic Constant Matrix: (Units=GPa)
#
#
# Indices 1 2 3 4 5 6 
#
# 1 74.2297 58.4247 34.8911 0.0000 2.8702 0.0000
# 2 58.4247 131.5160 26.6149 0.0000 2.7224 0.0000
# 3 34.8911 26.6149 106.5610 0.0000 2.2805 0.0000
# 4 0.0000 0.0000 0.0000 13.8470 0.0000 -1.5252
# 5 2.8702 2.7224 2.2805 0.0000 24.1040 0.0000
# 6 0.0000 0.0000 0.0000 -1.5252 0.0000 26.4838
#
#
#
# Elastic Compliance Matrix: (Units=1/GPa)
#
#
# Indices 1 2 3 4 5 6 
#
# 1 0.023283 -0.009248 -0.005288 0.000000 -0.001228 0.000000
# 2 -0.009248 0.011694 0.000112 0.000000 -0.000230 0.000000
# 3 -0.005288 0.000112 0.011097 0.000000 -0.000433 0.000000
# 4 0.000000 0.000000 0.000000 0.072679 0.000000 0.004186
# 5 -0.001228 -0.000230 -0.000433 0.000000 0.041700 0.000000
# 6 0.000000 0.000000 0.000000 0.004186 0.000000 0.038000
#
#
# Mechanical properties :
#
#
# Convention : Reuss Voigt Hill
#
# Bulk Modulus (GPa) = 58.04616 61.35198 59.69907
# Shear Modulus (GPa) = 21.45532 25.71201 23.58366
#
# Velocity S-wave (km/s) = 3.40617 3.72878 3.57112
# Velocity P-wave (km/s) = 6.84528 7.19128 7.02041
#
# Compressibility (1/GPa) = 0.01722767
#
# Stress axis : x y z
#
# Youngs Moduli (GPa) = 42.94892 85.51381 90.11578
#
# Poissons Ratio (x) = 0.79083 0.47650
# Poissons Ratio (y) = 0.39719 -0.01012
# Poissons Ratio (z) = 0.22710 -0.00960
#
# Static dielectric constant tensor:
#      x y z
#    x 3.117310 0.000000 -0.009050 
#    y 0.000000 3.258870 0.000000 
#    z -0.009050 0.000000 3.760070 
# 
# 
# High freq. dielectric constant tensor:
#      x y z
#    x 1.693600 0.000000 0.000380 
#    y 0.000000 1.705510 0.000000 
#    z 0.000380 0.000000 1.743990 
# 
# From -- ./inp_files/189821.got.cif
#   From: 2010.06.25/outbox.cif.g09.slc.cpg/sg15_95_cif.got.tgz:189821.got - 2010.06.28 07:06:18.
