data_PCOD8131459
_publ_section_title
;
Structure prediction by ZEFSAII (Michael W. Deem and Ramdas Pophale) SiO2 
 PCOD8131459
Probable space group: C 2/C
;
_chemical_formula_sum "Si O2"
_cell_formula_units_Z 56
_cell_length_a 30.526026
_cell_length_b 13.152231
_cell_length_c 27.328767
_cell_angle_alpha 90.000000
_cell_angle_beta 161.533499
_cell_angle_gamma 90.000000
_cell_volume 3475.414126
_symmetry_space_group_name_H-M "C 2/C"
_symmetry_group_IT_number 15
_symmetry_cell_setting 'monoclinic'
loop_
_space_group_symop_operation_xyz
x,y,z
-x,y,1/2-z
-x,-y,-z
x,-y,1/2+z
1/2+x,1/2+y,z
1/2-x,1/2+y,1/2-z
1/2-x,1/2-y,-z
1/2+x,1/2-y,1/2+z
loop_
_atom_site_type_symbol
_atom_site_label
_atom_site_fract_x
_atom_site_fract_y
_atom_site_fract_z
Si Si1 0.046643 0.870688 0.661676
Si Si2 0.391983 0.718501 0.175142
Si Si3 0.706251 0.044237 0.134554
Si Si4 0.151977 0.354154 0.679302
Si Si5 0.253684 0.446582 0.333898
Si Si6 0.031027 0.649361 0.662214
Si Si7 0.331235 0.158604 0.855362
O O1 0.119476 0.866190 0.793106
O O2 0.144742 0.915979 0.723717
O O3 0.004785 0.754410 0.603366
O O4 0.912939 0.942560 0.518998
O O5 0.500000 0.676179 0.250000
O O6 0.451317 0.822543 0.262001
O O7 0.250000 0.750000 0.000000
O O8 0.650774 0.097814 0.124454
O O9 0.706768 0.923776 0.143270
O O10 0.597828 0.073623 0.977612
O O11 0.208192 0.437687 0.776872
O O12 0.255317 0.260088 0.791916
O O13 0.995769 0.322747 0.527339
O O14 0.169711 0.403267 0.290524
O O15 0.228286 0.377611 0.259466
#
# Coordination Sequence:
#
# PCOD8131459 Si02
#       7
#     8   8   8   8   8   8   8
#     4  10  22  29  56  77 102 145 170 210 252 339
#     4  10  20  34  50  80 112 136 166 217 271 322
#     4  11  20  36  49  76 103 142 190 207 261 308
#     4  11  23  35  52  71 108 140 181 234 250 294
#     4  11  20  36  49  76 103 142 190 208 264 304
#     4  10  18  33  54  71 104 145 168 207 256 332
#     4  11  23  35  52  71 108 140 181 233 250 297
#
# _framework density 16.113188000000001
#
# number of rings (size 3 to 8) (size 9 to 14) (size 15 to 20)
#    0.857    0.571    2.857    5.143    4.000    1.143 
#    0.000    0.000    0.000    0.000    0.000    0.000 
#    0.000   22.857    0.000    0.000    0.000    0.000 
#
# Total GULP energy -347067.834114 kJ/mol
# GULP energy per Si atom -12395.279790 kJ/mol
# Density = 1.607651 g / cm^3
# Si number density = 16.113188 Si / 1000 Ang^3
#
#
#
# Elastic Constant Matrix: (Units=GPa)
#
#
# Indices 1 2 3 4 5 6 
#
# 1 48.4909 18.7711 12.8807 0.0062 3.6222 0.0028
# 2 18.7711 77.5750 21.8965 0.0126 -0.3219 0.0075
# 3 12.8807 21.8965 98.9985 0.0143 3.8787 0.0103
# 4 0.0062 0.0126 0.0143 25.9706 0.0076 2.7710
# 5 3.6222 -0.3219 3.8787 0.0076 28.5906 0.0058
# 6 0.0028 0.0075 0.0103 2.7710 0.0058 20.6739
#
#
#
# Elastic Compliance Matrix: (Units=1/GPa)
#
#
# Indices 1 2 3 4 5 6 
#
# 1 0.023295 -0.005144 -0.001785 -0.000001 -0.002767 0.000001
# 2 -0.005144 0.014894 -0.002671 -0.000005 0.001182 -0.000003
# 3 -0.001785 -0.002671 0.010975 -0.000004 -0.001293 -0.000003
# 4 -0.000001 -0.000005 -0.000004 0.039064 -0.000009 -0.005236
# 5 -0.002767 0.001182 -0.001293 -0.000009 0.035516 -0.000008
# 6 0.000001 -0.000003 -0.000003 -0.005236 -0.000008 0.049072
#
#
# Mechanical properties :
#
#
# Convention : Reuss Voigt Hill
#
# Bulk Modulus (GPa) = 33.37423 36.90677 35.14050
# Shear Modulus (GPa) = 24.75198 26.48141 25.61669
#
# Velocity S-wave (km/s) = 3.92360 4.05836 3.99155
# Velocity P-wave (km/s) = 6.42523 6.70185 6.56500
#
# Compressibility (1/GPa) = 0.02996324
#
# Stress axis : x y z
#
# Youngs Moduli (GPa) = 42.92836 67.13890 91.11734
#
# Poissons Ratio (x) = 0.34539 0.16261
# Poissons Ratio (y) = 0.22084 0.24340
# Poissons Ratio (z) = 0.07661 0.17935
#
# Static dielectric constant tensor:
#      x y z
#    x 2.883060 -0.000020 0.085880 
#    y -0.000020 3.012390 -0.000020 
#    z 0.085880 -0.000020 3.038110 
# 
# 
# High freq. dielectric constant tensor:
#      x y z
#    x 1.603050 0.000000 0.018270 
#    y 0.000000 1.598070 0.000000 
#    z 0.018270 0.000000 1.629210 
# 
# From -- ./inp_files/304284.got.cif
#   From: 2010.06.25/outbox.cif.g09.slc.cpg/sg15_153_cif.got.tgz:304284.got - 2010.06.28 07:06:18.
