data_PCOD8131334
_publ_section_title
;
Structure prediction by ZEFSAII (Michael W. Deem and Ramdas Pophale) SiO2 
 PCOD8131334
Probable space group: C 2/C
;
_chemical_formula_sum "Si O2"
_cell_formula_units_Z 56
_cell_length_a 9.370451
_cell_length_b 10.337900
_cell_length_c 30.582015
_cell_angle_alpha 90.000000
_cell_angle_beta 61.082879
_cell_angle_gamma 90.000000
_cell_volume 2593.139057
_symmetry_space_group_name_H-M "C 2/C"
_symmetry_group_IT_number 15
_symmetry_cell_setting 'monoclinic'
loop_
_space_group_symop_operation_xyz
x,y,z
-x,y,1/2-z
-x,-y,-z
x,-y,1/2+z
1/2+x,1/2+y,z
1/2-x,1/2+y,1/2-z
1/2-x,1/2-y,-z
1/2+x,1/2-y,1/2+z
loop_
_atom_site_type_symbol
_atom_site_label
_atom_site_fract_x
_atom_site_fract_y
_atom_site_fract_z
Si Si1 0.434548 0.801240 0.359559
Si Si2 0.354368 0.027995 0.305312
Si Si3 0.867368 0.187178 0.534667
Si Si4 0.500211 0.471241 0.659382
Si Si5 0.665079 0.820244 0.472611
Si Si6 0.589926 0.478910 0.550989
Si Si7 0.240965 0.789741 0.136894
O O1 0.300918 0.780645 0.417390
O O2 0.443467 0.667994 0.329069
O O3 0.607422 0.835376 0.356049
O O4 0.380002 0.917310 0.337177
O O5 0.500000 0.026085 0.250000
O O6 0.188937 0.998335 0.302092
O O7 0.351328 0.167359 0.329089
O O8 0.973684 0.318430 0.513226
O O9 0.971171 0.079571 0.544967
O O10 0.846225 0.136907 0.488430
O O11 0.494656 0.433381 0.608256
O O12 0.613340 0.590254 0.655928
O O13 0.750000 0.750000 0.500000
O O14 0.738414 0.962124 0.457967
O O15 0.701536 0.749781 0.420575
#
# Coordination Sequence:
#
# PCOD8131334 Si02
#       7
#     8   8   8   8   8   8   8
#     4  11  24  39  65  98 127 166 220 267 319 380
#     4  11  25  46  70  91 119 166 216 270 337 392
#     4  10  18  32  57  86 126 173 211 251 300 365
#     4  10  22  43  62  93 132 161 205 266 321 382
#     4   9  19  33  59  92 126 175 214 243 309 380
#     4   9  18  33  56  86 125 172 209 247 301 373
#     4  10  24  44  66  96 135 170 214 268 321 389
#
# _framework density 21.595445999999999
#
# number of rings (size 3 to 8) (size 9 to 14) (size 15 to 20)
#    0.000    2.000    1.429    1.714    4.000    6.857 
#    0.000    3.571    0.000    0.000    0.000    0.000 
#    0.000    0.000    0.000    0.000    0.000    0.000 
#
# Total GULP energy -347003.076963 kJ/mol
# GULP energy per Si atom -12392.967034 kJ/mol
# Density = 2.154629 g / cm^3
# Si number density = 21.595446 Si / 1000 Ang^3
#
#
#
# Elastic Constant Matrix: (Units=GPa)
#
#
# Indices 1 2 3 4 5 6 
#
# 1 90.2477 47.9614 35.4447 0.0000 -32.4378 0.0000
# 2 47.9614 80.9773 15.9613 0.0000 -18.9843 0.0000
# 3 35.4447 15.9613 85.0569 0.0000 -35.3602 0.0000
# 4 0.0000 0.0000 0.0000 15.2890 0.0000 -8.0792
# 5 -32.4378 -18.9843 -35.3602 0.0000 36.4929 0.0000
# 6 0.0000 0.0000 0.0000 -8.0792 0.0000 26.2409
#
#
#
# Elastic Compliance Matrix: (Units=1/GPa)
#
#
# Indices 1 2 3 4 5 6 
#
# 1 0.021135 -0.009313 -0.002116 0.000000 0.011891 0.000000
# 2 -0.009313 0.018191 0.001608 0.000000 0.002743 0.000000
# 3 -0.002116 0.001608 0.019932 0.000000 0.018268 0.000000
# 4 0.000000 0.000000 0.000000 0.078115 0.000000 0.024051
# 5 0.011891 0.002743 0.018268 0.000000 0.057100 0.000000
# 6 0.000000 0.000000 0.000000 0.024051 0.000000 0.045513
#
#
# Mechanical properties :
#
#
# Convention : Reuss Voigt Hill
#
# Bulk Modulus (GPa) = 25.24337 50.55739 37.90038
# Shear Modulus (GPa) = 18.32604 26.06553 22.19579
#
# Velocity S-wave (km/s) = 2.91625 3.47795 3.20941
# Velocity P-wave (km/s) = 4.80145 6.29207 5.59661
#
# Compressibility (1/GPa) = 0.03961436
#
# Stress axis : x y z
#
# Youngs Moduli (GPa) = 47.31433 54.97129 50.17175
#
# Poissons Ratio (x) = 0.51195 0.10618
# Poissons Ratio (y) = 0.44064 -0.08065
# Poissons Ratio (z) = 0.10013 -0.08837
#
# Static dielectric constant tensor:
#      x y z
#    x 4.185320 0.000000 -0.211020 
#    y 0.000000 4.259410 0.000000 
#    z -0.211020 0.000000 3.908020 
# 
# 
# High freq. dielectric constant tensor:
#      x y z
#    x 1.858380 0.000000 -0.015180 
#    y 0.000000 1.856180 0.000000 
#    z -0.015180 0.000000 1.831780 
# 
# From -- ./inp_files/307424.got.cif
#   From: 2010.06.25/outbox.cif.g09.slc.cpg/sg15_154_cif.got.tgz:307424.got - 2010.06.28 07:06:18.
