data_PCOD8131051
_publ_section_title
;
Structure prediction by ZEFSAII (Michael W. Deem and Ramdas Pophale) SiO2 
 PCOD8131051
Probable space group: C 2/C
;
_chemical_formula_sum "Si O2"
_cell_formula_units_Z 64
_cell_length_a 22.852206
_cell_length_b 12.107867
_cell_length_c 15.007228
_cell_angle_alpha 90.000000
_cell_angle_beta 63.734708
_cell_angle_gamma 90.000000
_cell_volume 3723.658951
_symmetry_space_group_name_H-M "C 2/C"
_symmetry_group_IT_number 15
_symmetry_cell_setting 'monoclinic'
loop_
_space_group_symop_operation_xyz
x,y,z
-x,y,1/2-z
-x,-y,-z
x,-y,1/2+z
1/2+x,1/2+y,z
1/2-x,1/2+y,1/2-z
1/2-x,1/2-y,-z
1/2+x,1/2-y,1/2+z
loop_
_atom_site_type_symbol
_atom_site_label
_atom_site_fract_x
_atom_site_fract_y
_atom_site_fract_z
Si Si1 0.229318 0.195937 0.371031
Si Si2 0.678851 0.137628 0.035372
Si Si3 0.782003 0.400422 0.517256
Si Si4 0.312582 0.438044 0.760652
Si Si5 0.574399 0.711315 0.699393
Si Si6 0.574964 0.539735 0.182640
Si Si7 0.163910 0.178610 0.793816
Si Si8 0.838376 0.171058 0.499951
O O1 0.258263 0.141826 0.441590
O O2 0.190467 0.302992 0.432402
O O3 0.184120 0.117071 0.340354
O O4 0.287129 0.224137 0.264187
O O5 0.615580 0.194486 0.121287
O O6 0.670978 0.007370 0.021003
O O7 0.744498 0.390331 0.637434
O O8 0.828594 0.295550 0.470508
O O9 0.726533 0.400912 0.477470
O O10 0.383483 0.424415 0.758486
O O11 0.298963 0.567320 0.759526
O O12 0.500000 0.750564 0.750000
O O13 0.583956 0.589676 0.649090
O O14 0.596656 0.698794 0.786525
O O15 0.500000 0.567260 0.250000
O O16 0.598425 0.614689 0.085258
O O17 0.145392 0.176776 0.908110
#
# Coordination Sequence:
#
# PCOD8131051 Si02
#       8
#     8   8   8   8   8   8   8   8
#     4  10  19  30  50  80 106 130 168 213 264 307
#     4  10  20  33  53  77 105 137 171 212 259 307
#     4  10  19  33  50  79 108 134 166 209 266 313
#     4  10  18  31  51  78 109 129 165 216 260 307
#     4   9  20  38  54  73 104 139 176 216 257 300
#     4   9  20  38  52  73 106 140 176 213 253 304
#     4  10  18  31  52  78 103 132 168 213 258 312
#     4  10  20  32  54  76 107 137 167 209 262 311
#
# _framework density 17.187396
#
# number of rings (size 3 to 8) (size 9 to 14) (size 15 to 20)
#    0.000    2.250    2.500    0.750    7.000    0.000 
#    2.250    2.500    0.000    0.750    0.000    0.000 
#    0.000    0.000    0.000    0.000    0.000    0.000 
#
# Total GULP energy -396616.967154 kJ/mol
# GULP energy per Si atom -12394.280224 kJ/mol
# Density = 1.714828 g / cm^3
# Si number density = 17.187396 Si / 1000 Ang^3
#
#
#
# Elastic Constant Matrix: (Units=GPa)
#
#
# Indices 1 2 3 4 5 6 
#
# 1 78.6855 38.5998 44.4983 0.0000 -6.0265 0.0000
# 2 38.5998 87.0687 32.8355 0.0000 -13.3902 0.0000
# 3 44.4983 32.8355 85.3937 0.0000 4.8864 0.0000
# 4 0.0000 0.0000 0.0000 25.5772 0.0000 -2.3417
# 5 -6.0265 -13.3902 4.8864 0.0000 26.4331 0.0000
# 6 0.0000 0.0000 0.0000 -2.3417 0.0000 21.9013
#
#
#
# Elastic Compliance Matrix: (Units=1/GPa)
#
#
# Indices 1 2 3 4 5 6 
#
# 1 0.020601 -0.005182 -0.008956 0.000000 0.003727 0.000000
# 2 -0.005182 0.016564 -0.004125 0.000000 0.007972 0.000000
# 3 -0.008956 -0.004125 0.018394 0.000000 -0.007532 0.000000
# 4 0.000000 0.000000 0.000000 0.039484 0.000000 0.004222
# 5 0.003727 0.007972 -0.007532 0.000000 0.044112 0.000000
# 6 0.000000 0.000000 0.000000 0.004222 0.000000 0.046111
#
#
# Mechanical properties :
#
#
# Convention : Reuss Voigt Hill
#
# Bulk Modulus (GPa) = 52.53846 53.66835 53.10341
# Shear Modulus (GPa) = 21.91664 23.79659 22.85661
#
# Velocity S-wave (km/s) = 3.57481 3.72497 3.65066
# Velocity P-wave (km/s) = 6.90459 7.05647 6.98094
#
# Compressibility (1/GPa) = 0.01903368
#
# Stress axis : x y z
#
# Youngs Moduli (GPa) = 48.54071 60.37085 54.36455
#
# Poissons Ratio (x) = 0.31287 0.48688
# Poissons Ratio (y) = 0.25156 0.22425
# Poissons Ratio (z) = 0.43472 0.24902
#
# Static dielectric constant tensor:
#      x y z
#    x 3.046510 0.000000 0.177380 
#    y 0.000000 3.250590 0.000000 
#    z 0.177380 0.000000 3.076120 
# 
# 
# High freq. dielectric constant tensor:
#      x y z
#    x 1.638810 0.000000 0.016030 
#    y 0.000000 1.665480 0.000000 
#    z 0.016030 0.000000 1.656830 
# 
# From -- ./inp_files/172958.got.cif
#   From: 2010.06.25/outbox.cif.g09.slc.cpg/sg15_87_cif.got.tgz:172958.got - 2010.06.28 07:06:18.
