data_PCOD8131553
_publ_section_title
;
Structure prediction by ZEFSAII (Michael W. Deem and Ramdas Pophale) SiO2 
 PCOD8131553
Probable space group: C 2/C
;
_chemical_formula_sum "Si O2"
_cell_formula_units_Z 48
_cell_length_a 18.629785
_cell_length_b 11.887828
_cell_length_c 11.203848
_cell_angle_alpha 90.000000
_cell_angle_beta 113.458960
_cell_angle_gamma 90.000000
_cell_volume 2276.200310
_symmetry_space_group_name_H-M "C 2/C"
_symmetry_group_IT_number 15
_symmetry_cell_setting 'monoclinic'
loop_
_space_group_symop_operation_xyz
x,y,z
-x,y,1/2-z
-x,-y,-z
x,-y,1/2+z
1/2+x,1/2+y,z
1/2-x,1/2+y,1/2-z
1/2-x,1/2-y,-z
1/2+x,1/2-y,1/2+z
loop_
_atom_site_type_symbol
_atom_site_label
_atom_site_fract_x
_atom_site_fract_y
_atom_site_fract_z
Si Si1 0.181451 0.621779 0.657967
Si Si2 0.024438 0.444761 0.141242
Si Si3 0.278382 0.931118 0.968379
Si Si4 0.908134 0.749409 0.591588
Si Si5 0.666068 0.428272 0.104802
Si Si6 0.149355 0.853342 0.715968
O O1 0.118315 0.568076 0.709193
O O2 0.174550 0.545740 0.533778
O O3 0.270478 0.618592 0.760625
O O4 0.157352 0.752074 0.624370
O O5 0.000000 0.508262 0.250000
O O6 0.986991 0.319713 0.121065
O O7 0.000000 0.500000 0.000000
O O8 0.236370 0.879345 0.823792
O O9 0.335060 0.835831 0.057781
O O10 0.212100 0.966375 0.017420
O O11 0.896245 0.831431 0.470121
O O12 0.910202 0.821223 0.716045
O O13 0.619063 0.535121 0.127496
#
# Coordination Sequence:
#
# PCOD8131553 Si02
#       6
#     8   8   8   8   8   8
#     4  11  20  34  58  92 119 157 210 256 321 379
#     4  12  24  39  67  96 127 172 209 264 325 387
#     4  10  18  33  58  85 119 152 199 263 310 372
#     4  11  19  39  60  87 123 165 213 260 320 382
#     4  10  20  35  59  89 119 163 210 257 309 376
#     4  10  19  33  58  83 119 161 204 250 313 376
#
# _framework density 21.087774
#
# number of rings (size 3 to 8) (size 9 to 14) (size 15 to 20)
#    0.000    1.333    6.667    1.000    0.000    0.667 
#    0.000    0.833   11.000    0.000    0.000    0.000 
#    0.000    0.000    0.000    0.000    0.000    0.000 
#
# Total GULP energy -297364.815723 kJ/mol
# GULP energy per Si atom -12390.200655 kJ/mol
# Density = 2.103978 g / cm^3
# Si number density = 21.087774 Si / 1000 Ang^3
#
#
#
# Elastic Constant Matrix: (Units=GPa)
#
#
# Indices 1 2 3 4 5 6 
#
# 1 39.9705 8.3523 4.8207 0.0000 -11.5392 0.0000
# 2 8.3523 113.5476 47.3190 0.0000 -14.8745 0.0000
# 3 4.8207 47.3190 85.4745 0.0000 -17.6088 0.0000
# 4 0.0000 0.0000 0.0000 47.9208 0.0000 -10.3074
# 5 -11.5392 -14.8745 -17.6088 0.0000 16.0822 0.0000
# 6 0.0000 0.0000 0.0000 -10.3074 0.0000 33.9325
#
#
#
# Elastic Compliance Matrix: (Units=1/GPa)
#
#
# Indices 1 2 3 4 5 6 
#
# 1 0.032523 -0.000512 0.004079 0.000000 0.027328 0.000000
# 2 -0.000512 0.011739 -0.005564 0.000000 0.004398 0.000000
# 3 0.004079 -0.005564 0.018197 0.000000 0.017705 0.000000
# 4 0.000000 0.000000 0.000000 0.022326 0.000000 0.006782
# 5 0.027328 0.004398 0.017705 0.000000 0.105243 0.000000
# 6 0.000000 0.000000 0.000000 0.006782 0.000000 0.031530
#
#
# Mechanical properties :
#
#
# Convention : Reuss Voigt Hill
#
# Bulk Modulus (GPa) = 17.10410 39.99741 28.55076
# Shear Modulus (GPa) = 20.40469 31.48715 25.94592
#
# Velocity S-wave (km/s) = 3.11401 3.86832 3.51148
# Velocity P-wave (km/s) = 4.58890 6.24180 5.47805
#
# Compressibility (1/GPa) = 0.05846550
#
# Stress axis : x y z
#
# Youngs Moduli (GPa) = 30.74742 85.18307 54.95378
#
# Poissons Ratio (x) = 0.04364 -0.22418
# Poissons Ratio (y) = 0.01575 0.30577
# Poissons Ratio (z) = -0.12543 0.47396
#
# Static dielectric constant tensor:
#      x y z
#    x 3.699840 0.000000 0.045060 
#    y 0.000000 4.073860 0.000000 
#    z 0.045060 0.000000 3.928020 
# 
# 
# High freq. dielectric constant tensor:
#      x y z
#    x 1.809240 0.000000 0.005550 
#    y 0.000000 1.818080 0.000000 
#    z 0.005550 0.000000 1.814480 
# 
# From -- ./inp_files/110638.got.cif
#   From: 2010.06.25/outbox.cif.g09.slc.cpg/sg15_56_cif.got.tgz:110638.got - 2010.06.28 07:06:18.
