data_PCOD8131928
_publ_section_title
;
Structure prediction by ZEFSAII (Michael W. Deem and Ramdas Pophale) SiO2 
 PCOD8131928
Probable space group: C 2/C
;
_chemical_formula_sum "Si O2"
_cell_formula_units_Z 44
_cell_length_a 16.920039
_cell_length_b 25.112680
_cell_length_c 12.475084
_cell_angle_alpha 90.000000
_cell_angle_beta 153.876507
_cell_angle_gamma 90.000000
_cell_volume 2333.962304
_symmetry_space_group_name_H-M "C 2/C"
_symmetry_group_IT_number 15
_symmetry_cell_setting 'monoclinic'
loop_
_space_group_symop_operation_xyz
x,y,z
-x,y,1/2-z
-x,-y,-z
x,-y,1/2+z
1/2+x,1/2+y,z
1/2-x,1/2+y,1/2-z
1/2-x,1/2-y,-z
1/2+x,1/2-y,1/2+z
loop_
_atom_site_type_symbol
_atom_site_label
_atom_site_fract_x
_atom_site_fract_y
_atom_site_fract_z
Si Si1 0.000000 0.019473 0.250000
Si Si2 0.714361 0.585972 0.667172
Si Si3 0.201776 0.518599 0.536940
Si Si4 0.948408 0.418326 0.063697
Si Si5 0.963625 0.194649 0.081159
Si Si6 0.141315 0.307095 0.519429
O O1 0.047753 0.056755 0.408743
O O2 0.834111 0.984817 0.094914
O O3 0.733670 0.568230 0.813705
O O4 0.680078 0.649358 0.625874
O O5 0.885249 0.566025 0.807465
O O6 0.199739 0.465822 0.612912
O O7 0.000000 0.528435 0.250000
O O8 0.886355 0.360549 0.943471
O O9 0.000000 0.409835 0.250000
O O10 0.882964 0.251843 0.945490
O O11 0.000000 0.192715 0.250000
O O12 0.154345 0.186004 0.262357
O O13 0.000000 0.304793 0.250000
#
# Coordination Sequence:
#
# PCOD8131928 Si02
#       6
#     4   8   8   8   8   8
#     4  12  22  38  58  82 118 148 188 236 288 336
#     4  12  22  36  58  82 118 153 186 233 283 335
#     4  11  24  41  57  82 115 154 195 234 277 332
#     4  10  18  35  55  80 114 149 184 226 283 333
#     4  11  19  32  50  80 115 147 182 224 283 344
#     4  10  19  30  50  79 113 150 178 221 286 351
#
# _framework density 18.852062
#
# number of rings (size 3 to 8) (size 9 to 14) (size 15 to 20)
#    0.000    1.091    4.545    7.636    0.000    0.000 
#    0.000    0.000    0.000    0.000    0.000    5.091 
#    0.000    0.000    0.000    0.000    0.000    0.000 
#
# Total GULP energy -272570.835036 kJ/mol
# GULP energy per Si atom -12389.583411 kJ/mol
# Density = 1.880915 g / cm^3
# Si number density = 18.852062 Si / 1000 Ang^3
#
#
#
# Elastic Constant Matrix: (Units=GPa)
#
#
# Indices 1 2 3 4 5 6 
#
# 1 60.9557 14.0233 26.2384 0.0000 16.8176 0.0000
# 2 14.0233 108.7834 17.9307 0.0000 -11.5258 0.0000
# 3 26.2384 17.9307 53.7763 0.0000 10.9538 0.0000
# 4 0.0000 0.0000 0.0000 9.2957 0.0000 -0.7878
# 5 16.8176 -11.5258 10.9538 0.0000 33.5473 0.0000
# 6 0.0000 0.0000 0.0000 -0.7878 0.0000 22.6384
#
#
#
# Elastic Compliance Matrix: (Units=1/GPa)
#
#
# Indices 1 2 3 4 5 6 
#
# 1 0.023408 -0.002657 -0.008526 0.000000 -0.009864 0.000000
# 2 -0.002657 0.010779 -0.003560 0.000000 0.006198 0.000000
# 3 -0.008526 -0.003560 0.024983 0.000000 -0.005106 0.000000
# 4 0.000000 0.000000 0.000000 0.107895 0.000000 0.003755
# 5 -0.009864 0.006198 -0.005106 0.000000 0.038550 0.000000
# 6 0.000000 0.000000 0.000000 0.003755 0.000000 0.044303
#
#
# Mechanical properties :
#
#
# Convention : Reuss Voigt Hill
#
# Bulk Modulus (GPa) = 33.68926 37.76667 35.72796
# Shear Modulus (GPa) = 17.28320 24.11781 20.70051
#
# Velocity S-wave (km/s) = 3.03112 3.58064 3.31728
# Velocity P-wave (km/s) = 5.49176 6.09683 5.80218
#
# Compressibility (1/GPa) = 0.02968305
#
# Stress axis : x y z
#
# Youngs Moduli (GPa) = 42.72019 92.77694 40.02789
#
# Poissons Ratio (x) = 0.24654 0.34128
# Poissons Ratio (y) = 0.11352 0.14249
# Poissons Ratio (z) = 0.36423 0.33026
#
# Static dielectric constant tensor:
#      x y z
#    x 3.188490 0.000000 0.308020 
#    y 0.000000 4.677040 0.000000 
#    z 0.308020 0.000000 3.272850 
# 
# 
# High freq. dielectric constant tensor:
#      x y z
#    x 1.704700 0.000000 0.049930 
#    y 0.000000 1.742030 0.000000 
#    z 0.049930 0.000000 1.705120 
# 
# From -- ./inp_files/91117.got.cif
#   From: 2010.06.25/outbox.cif.g09.slc.cpg/sg15_46_cif.got.tgz:91117.got - 2010.06.28 07:06:18.
