data_PCOD8131073
_publ_section_title
;
Structure prediction by ZEFSAII (Michael W. Deem and Ramdas Pophale) SiO2 
 PCOD8131073
Probable space group: C 2/C
;
_chemical_formula_sum "Si O2"
_cell_formula_units_Z 64
_cell_length_a 26.993190
_cell_length_b 12.371585
_cell_length_c 20.871839
_cell_angle_alpha 90.000000
_cell_angle_beta 28.459916
_cell_angle_gamma 90.000000
_cell_volume 3321.567767
_symmetry_space_group_name_H-M "C 2/C"
_symmetry_group_IT_number 15
_symmetry_cell_setting 'monoclinic'
loop_
_space_group_symop_operation_xyz
x,y,z
-x,y,1/2-z
-x,-y,-z
x,-y,1/2+z
1/2+x,1/2+y,z
1/2-x,1/2+y,1/2-z
1/2-x,1/2-y,-z
1/2+x,1/2-y,1/2+z
loop_
_atom_site_type_symbol
_atom_site_label
_atom_site_fract_x
_atom_site_fract_y
_atom_site_fract_z
Si Si1 0.119746 0.321815 0.104626
Si Si2 0.185083 0.233160 0.767113
Si Si3 0.896298 0.283970 0.174712
Si Si4 0.262128 0.621106 0.550546
Si Si5 0.527617 0.612786 0.500495
Si Si6 0.800197 0.063832 0.102179
Si Si7 0.170101 0.438119 0.349736
Si Si8 0.890108 0.651830 0.025574
O O1 0.181392 0.398648 0.084414
O O2 0.000000 0.346030 0.250000
O O3 0.144285 0.193232 0.085578
O O4 0.158287 0.350835 0.989721
O O5 0.223832 0.332841 0.678220
O O6 0.272685 0.140637 0.664677
O O7 0.179575 0.276422 0.846853
O O8 0.073771 0.187439 0.871007
O O9 0.792426 0.304674 0.332995
O O10 0.895762 0.168775 0.138913
O O11 0.910412 0.373615 0.103098
O O12 0.995342 0.295178 0.108785
O O13 0.303076 0.507382 0.533352
O O14 0.500000 0.500000 0.500000
O O15 0.584902 0.600292 0.504399
O O16 0.761186 0.989830 0.204157
O O17 0.101842 0.527461 0.462590
#
# Coordination Sequence:
#
# PCOD8131073 Si02
#       8
#     8   8   8   8   8   8   8   8
#     4  11  22  39  55  84 111 150 199 237 281 335
#     4  10  20  34  52  87 119 151 185 233 295 354
#     4  10  19  34  53  83 116 144 182 232 286 350
#     4  10  23  38  60  77 114 155 187 240 290 332
#     4  11  21  30  52  85 118 152 184 221 286 351
#     4  10  20  36  54  81 118 150 187 233 292 346
#     4  10  18  31  52  80 115 147 178 225 292 346
#     4  10  20  32  55  79 115 148 188 236 276 342
#
# _framework density 19.26801
#
# number of rings (size 3 to 8) (size 9 to 14) (size 15 to 20)
#    0.000    1.750    3.750    1.875    3.500    1.000 
#    0.000    1.250    0.000    0.750    0.000    0.875 
#    0.000    0.000    0.000    0.000    0.000    0.000 
#
# Total GULP energy -396646.213411 kJ/mol
# GULP energy per Si atom -12395.194169 kJ/mol
# Density = 1.922415 g / cm^3
# Si number density = 19.268010 Si / 1000 Ang^3
#
#
#
# Elastic Constant Matrix: (Units=GPa)
#
#
# Indices 1 2 3 4 5 6 
#
# 1 125.3010 43.9696 24.2965 0.0000 -16.4041 0.0000
# 2 43.9696 105.6783 18.9800 0.0000 -8.0518 0.0000
# 3 24.2965 18.9800 32.8683 0.0000 -11.9078 0.0000
# 4 0.0000 0.0000 0.0000 29.9805 0.0000 -3.4417
# 5 -16.4041 -8.0518 -11.9078 0.0000 21.4074 0.0000
# 6 0.0000 0.0000 0.0000 -3.4417 0.0000 36.0606
#
#
#
# Elastic Compliance Matrix: (Units=1/GPa)
#
#
# Indices 1 2 3 4 5 6 
#
# 1 0.010547 -0.003278 -0.004286 0.000000 0.004465 0.000000
# 2 -0.003278 0.011586 -0.004506 0.000000 -0.000661 0.000000
# 3 -0.004286 -0.004506 0.043071 0.000000 0.018979 0.000000
# 4 0.000000 0.000000 0.000000 0.033724 0.000000 0.003219
# 5 0.004465 -0.000661 0.018979 0.000000 0.060443 0.000000
# 6 0.000000 0.000000 0.000000 0.003219 0.000000 0.028038
#
#
# Mechanical properties :
#
#
# Convention : Reuss Voigt Hill
#
# Bulk Modulus (GPa) = 24.35317 48.70442 36.52880
# Shear Modulus (GPa) = 22.19891 29.26313 25.73102
#
# Velocity S-wave (km/s) = 3.39796 3.90133 3.65831
# Velocity P-wave (km/s) = 5.29731 6.75471 6.06991
#
# Compressibility (1/GPa) = 0.04106242
#
# Stress axis : x y z
#
# Youngs Moduli (GPa) = 94.81652 86.31359 23.21769
#
# Poissons Ratio (x) = 0.28296 0.09950
# Poissons Ratio (y) = 0.31083 0.10463
# Poissons Ratio (z) = 0.40634 0.38896
#
# Static dielectric constant tensor:
#      x y z
#    x 3.502920 0.000000 -0.210030 
#    y 0.000000 3.683220 0.000000 
#    z -0.210030 0.000000 3.315880 
# 
# 
# High freq. dielectric constant tensor:
#      x y z
#    x 1.734470 0.000000 -0.033640 
#    y 0.000000 1.746680 0.000000 
#    z -0.033640 0.000000 1.728830 
# 
# From -- ./inp_files/283492.got.cif
#   From: 2010.06.25/outbox.cif.g09.slc.cpg/sg15_142_cif.got.tgz:283492.got - 2010.06.28 07:06:18.
