data_PCOD8131529
_publ_section_title
;
Structure prediction by ZEFSAII (Michael W. Deem and Ramdas Pophale) SiO2 
 PCOD8131529
Probable space group: C 2/C
;
_chemical_formula_sum "Si O2"
_cell_formula_units_Z 64
_cell_length_a 22.071406
_cell_length_b 11.567124
_cell_length_c 18.185984
_cell_angle_alpha 90.000000
_cell_angle_beta 135.584831
_cell_angle_gamma 90.000000
_cell_volume 3249.366483
_symmetry_space_group_name_H-M "C 2/C"
_symmetry_group_IT_number 15
_symmetry_cell_setting 'monoclinic'
loop_
_space_group_symop_operation_xyz
x,y,z
-x,y,1/2-z
-x,-y,-z
x,-y,1/2+z
1/2+x,1/2+y,z
1/2-x,1/2+y,1/2-z
1/2-x,1/2-y,-z
1/2+x,1/2-y,1/2+z
loop_
_atom_site_type_symbol
_atom_site_label
_atom_site_fract_x
_atom_site_fract_y
_atom_site_fract_z
Si Si1 0.482164 0.326028 0.503293
Si Si2 0.004935 0.964750 0.384663
Si Si3 0.294703 0.940401 0.838162
Si Si4 0.210696 0.204332 0.616441
Si Si5 0.306633 0.497150 0.503479
Si Si6 0.868113 0.334263 0.365526
Si Si7 0.745125 0.811238 0.844449
Si Si8 0.671288 0.422426 0.322070
O O1 0.507085 0.356145 0.441530
O O2 0.518971 0.420769 0.590694
O O3 0.377985 0.325401 0.417114
O O4 0.534335 0.207668 0.570567
O O5 0.930092 0.947547 0.259899
O O6 0.092659 0.975761 0.416421
O O7 0.298585 0.842954 0.906257
O O8 0.293085 0.866925 0.762380
O O9 0.373657 0.032671 0.899740
O O10 0.210377 0.019157 0.781765
O O11 0.297553 0.172951 0.737783
O O12 0.214258 0.133385 0.542638
O O13 0.252769 0.585912 0.408228
O O14 0.281311 0.519862 0.566186
O O15 0.836052 0.249990 0.403375
O O16 0.682941 0.715739 0.827205
#
# Coordination Sequence:
#
# PCOD8131529 Si02
#       8
#     8   8   8   8   8   8   8   8
#     4  10  19  32  58  86 110 154 195 241 289 330
#     4  10  19  33  55  83 115 142 192 242 292 343
#     4  10  20  35  56  80 115 150 198 234 282 344
#     4  10  21  34  55  83 118 148 198 245 283 342
#     4  11  21  36  55  84 117 145 186 242 303 352
#     4  10  18  33  57  83 115 152 196 244 284 336
#     4  10  19  36  56  81 109 145 191 237 283 348
#     4  11  23  35  58  84 113 149 187 241 302 351
#
# _framework density 19.696147
#
# number of rings (size 3 to 8) (size 9 to 14) (size 15 to 20)
#    0.000    1.750    2.500    4.500    1.750    1.000 
#    0.000    0.000    0.000    0.000    0.000    0.000 
#    0.000    0.000    0.000    0.000    0.000    0.000 
#
# Total GULP energy -396447.907158 kJ/mol
# GULP energy per Si atom -12388.997099 kJ/mol
# Density = 1.965132 g / cm^3
# Si number density = 19.696147 Si / 1000 Ang^3
#
#
#
# Elastic Constant Matrix: (Units=GPa)
#
#
# Indices 1 2 3 4 5 6 
#
# 1 37.8455 17.2108 20.2663 0.0000 -5.2995 0.0000
# 2 17.2108 136.8956 36.1276 0.0000 -2.9351 0.0000
# 3 20.2663 36.1276 72.5021 0.0000 -1.5654 0.0000
# 4 0.0000 0.0000 0.0000 27.3123 0.0000 3.1291
# 5 -5.2995 -2.9351 -1.5654 0.0000 21.6696 0.0000
# 6 0.0000 0.0000 0.0000 3.1291 0.0000 27.5037
#
#
#
# Elastic Compliance Matrix: (Units=1/GPa)
#
#
# Indices 1 2 3 4 5 6 
#
# 1 0.032554 -0.001818 -0.008040 0.000000 0.007134 0.000000
# 2 -0.001818 0.008528 -0.003732 0.000000 0.000441 0.000000
# 3 -0.008040 -0.003732 0.017874 0.000000 -0.001180 0.000000
# 4 0.000000 0.000000 0.000000 0.037097 0.000000 -0.004221
# 5 0.007134 0.000441 -0.001180 0.000000 0.047867 0.000000
# 6 0.000000 0.000000 0.000000 -0.004221 0.000000 0.036839
#
#
# Mechanical properties :
#
#
# Convention : Reuss Voigt Hill
#
# Bulk Modulus (GPa) = 31.46928 43.82806 37.64867
# Shear Modulus (GPa) = 22.88012 26.87301 24.87656
#
# Velocity S-wave (km/s) = 3.41200 3.69776 3.55775
# Velocity P-wave (km/s) = 5.61555 6.36644 6.00275
#
# Compressibility (1/GPa) = 0.03177702
#
# Stress axis : x y z
#
# Youngs Moduli (GPa) = 30.71785 117.26556 55.94709
#
# Poissons Ratio (x) = 0.21320 0.44981
# Poissons Ratio (y) = 0.05585 0.20877
# Poissons Ratio (z) = 0.24697 0.43759
#
# Static dielectric constant tensor:
#      x y z
#    x 3.273920 0.000000 -0.005210 
#    y 0.000000 3.991480 0.000000 
#    z -0.005210 0.000000 3.411160 
# 
# 
# High freq. dielectric constant tensor:
#      x y z
#    x 1.739200 0.000000 0.003480 
#    y 0.000000 1.779790 0.000000 
#    z 0.003480 0.000000 1.748740 
# 
# From -- ./inp_files/257323.got.cif
#   From: 2010.06.25/outbox.cif.g09.slc.cpg/sg15_129_cif.got.tgz:257323.got - 2010.06.28 07:06:18.
