data_PCOD8131904
_publ_section_title
;
Structure prediction by ZEFSAII (Michael W. Deem and Ramdas Pophale) SiO2 
 PCOD8131904
Probable space group: C 2/C
;
_chemical_formula_sum "Si O2"
_cell_formula_units_Z 48
_cell_length_a 15.831567
_cell_length_b 11.043084
_cell_length_c 15.010926
_cell_angle_alpha 90.000000
_cell_angle_beta 87.401181
_cell_angle_gamma 90.000000
_cell_volume 2621.650917
_symmetry_space_group_name_H-M "C 2/C"
_symmetry_group_IT_number 15
_symmetry_cell_setting 'monoclinic'
loop_
_space_group_symop_operation_xyz
x,y,z
-x,y,1/2-z
-x,-y,-z
x,-y,1/2+z
1/2+x,1/2+y,z
1/2-x,1/2+y,1/2-z
1/2-x,1/2-y,-z
1/2+x,1/2-y,1/2+z
loop_
_atom_site_type_symbol
_atom_site_label
_atom_site_fract_x
_atom_site_fract_y
_atom_site_fract_z
Si Si1 0.181164 0.781325 0.575132
Si Si2 0.903715 0.077511 0.562243
Si Si3 0.271984 0.052935 0.841641
Si Si4 0.183505 0.355205 0.521627
Si Si5 0.915375 0.139725 0.936207
Si Si6 0.740536 0.523407 0.642703
O O1 0.250000 0.750000 0.500000
O O2 0.101270 0.834502 0.524706
O O3 0.162622 0.658931 0.631282
O O4 0.216956 0.882612 0.640022
O O5 0.824755 0.091819 0.632167
O O6 0.990822 0.113848 0.607806
O O7 0.903729 0.939408 0.526865
O O8 0.282701 0.043924 0.735829
O O9 0.296284 0.928458 0.889147
O O10 0.250000 0.250000 0.500000
O O11 0.094782 0.283063 0.538396
O O12 0.188962 0.445708 0.436688
O O13 0.844548 0.103059 0.866789
#
# Coordination Sequence:
#
# PCOD8131904 Si02
#       6
#     8   8   8   8   8   8
#     4   9  17  34  50  75 106 140 181 220 271 322
#     4   9  17  34  53  77 104 143 172 224 272 317
#     4  11  20  31  57  78 110 141 182 229 268 318
#     4  10  18  35  50  81 105 139 183 220 267 323
#     4   9  18  33  55  75 109 136 178 220 273 321
#     4  10  20  31  54  80 104 141 182 229 271 316
#
# _framework density 18.309075
#
# number of rings (size 3 to 8) (size 9 to 14) (size 15 to 20)
#    0.000    2.333    6.667    0.000    4.667    0.667 
#    0.000    0.833    0.000    1.000    0.000    0.000 
#    0.000    0.000    0.000    0.000    0.000    0.000 
#
# Total GULP energy -297359.794556 kJ/mol
# GULP energy per Si atom -12389.991440 kJ/mol
# Density = 1.826740 g / cm^3
# Si number density = 18.309075 Si / 1000 Ang^3
#
#
#
# Elastic Constant Matrix: (Units=GPa)
#
#
# Indices 1 2 3 4 5 6 
#
# 1 53.8629 25.6859 15.6868 0.0000 5.2619 0.0000
# 2 25.6859 102.7353 28.4703 0.0000 13.7677 0.0000
# 3 15.6868 28.4703 101.8265 0.0000 16.5822 0.0000
# 4 0.0000 0.0000 0.0000 22.9177 0.0000 -0.1429
# 5 5.2619 13.7677 16.5822 0.0000 16.6996 0.0000
# 6 0.0000 0.0000 0.0000 -0.1429 0.0000 19.7911
#
#
#
# Elastic Compliance Matrix: (Units=1/GPa)
#
#
# Indices 1 2 3 4 5 6 
#
# 1 0.021447 -0.004717 -0.001811 0.000000 -0.001071 0.000000
# 2 -0.004717 0.012296 -0.001554 0.000000 -0.007108 0.000000
# 3 -0.001811 -0.001554 0.012206 0.000000 -0.010269 0.000000
# 4 0.000000 0.000000 0.000000 0.043636 0.000000 0.000315
# 5 -0.001071 -0.007108 -0.010269 0.000000 0.076276 0.000000
# 6 0.000000 0.000000 0.000000 0.000315 0.000000 0.050530
#
#
# Mechanical properties :
#
#
# Convention : Reuss Voigt Hill
#
# Bulk Modulus (GPa) = 33.57194 44.23453 38.90323
# Shear Modulus (GPa) = 20.61993 24.45380 22.53686
#
# Velocity S-wave (km/s) = 3.35955 3.65857 3.51224
# Velocity P-wave (km/s) = 5.78142 6.48530 6.14345
#
# Compressibility (1/GPa) = 0.02978678
#
# Stress axis : x y z
#
# Youngs Moduli (GPa) = 46.62664 81.32573 81.92506
#
# Poissons Ratio (x) = 0.38360 0.14835
# Poissons Ratio (y) = 0.21993 0.12729
# Poissons Ratio (z) = 0.08443 0.12636
#
# Static dielectric constant tensor:
#      x y z
#    x 3.421540 0.000000 0.167800 
#    y 0.000000 2.095230 0.000000 
#    z 0.167800 0.000000 3.269430 
# 
# 
# High freq. dielectric constant tensor:
#      x y z
#    x 1.671410 0.000000 0.007880 
#    y 0.000000 1.722930 0.000000 
#    z 0.007880 0.000000 1.685960 
# 
# From -- ./inp_files/160000.got.cif
#   From: 2010.06.25/outbox.cif.g09.slc.cpg/sg15_80_cif.got.tgz:160000.got - 2010.06.28 07:06:18.
