data_PCOD8131942
_publ_section_title
;
Structure prediction by ZEFSAII (Michael W. Deem and Ramdas Pophale) SiO2 
 PCOD8131942
Probable space group: C 2/C
;
_chemical_formula_sum "Si O2"
_cell_formula_units_Z 48
_cell_length_a 15.942728
_cell_length_b 9.584701
_cell_length_c 22.568781
_cell_angle_alpha 90.000000
_cell_angle_beta 123.768942
_cell_angle_gamma 90.000000
_cell_volume 2866.815342
_symmetry_space_group_name_H-M "C 2/C"
_symmetry_group_IT_number 15
_symmetry_cell_setting 'monoclinic'
loop_
_space_group_symop_operation_xyz
x,y,z
-x,y,1/2-z
-x,-y,-z
x,-y,1/2+z
1/2+x,1/2+y,z
1/2-x,1/2+y,1/2-z
1/2-x,1/2-y,-z
1/2+x,1/2-y,1/2+z
loop_
_atom_site_type_symbol
_atom_site_label
_atom_site_fract_x
_atom_site_fract_y
_atom_site_fract_z
Si Si1 0.885747 0.884148 0.200788
Si Si2 0.246266 0.384476 0.854835
Si Si3 0.143798 0.881509 0.725483
Si Si4 0.088579 0.126898 0.378201
Si Si5 0.718130 0.817784 0.353174
Si Si6 0.890807 0.957067 0.479077
O O1 0.818747 0.751268 0.160179
O O2 0.000000 0.830937 0.250000
O O3 0.849415 0.959603 0.247219
O O4 0.874002 0.992538 0.142901
O O5 0.315573 0.371014 0.824215
O O6 0.177712 0.525170 0.821785
O O7 0.320190 0.405505 0.941058
O O8 0.209322 0.779604 0.792489
O O9 0.027014 0.835583 0.681738
O O10 0.154526 0.259072 0.383731
O O11 0.106166 0.094576 0.453153
O O12 0.837321 0.833434 0.418807
O O13 0.000000 0.000000 0.500000
#
# Coordination Sequence:
#
# PCOD8131942 Si02
#       6
#     8   8   8   8   8   8
#     4   9  20  33  53  78 106 140 174 214 267 304
#     4  10  20  32  53  81 105 136 172 223 255 309
#     4  10  18  35  56  77 104 141 178 214 255 315
#     4  10  18  36  56  74 106 141 175 215 259 317
#     4   9  20  31  54  82 100 137 179 218 253 305
#     4  10  20  35  54  79 104 141 177 210 268 313
#
# _framework density 16.743317000000001
#
# number of rings (size 3 to 8) (size 9 to 14) (size 15 to 20)
#    1.000    1.333    1.667    3.000    0.000    2.000 
#    0.000    0.000    0.000    4.000    0.000    0.000 
#    0.000    0.000    0.000    0.000    0.000    0.000 
#
# Total GULP energy -297329.839466 kJ/mol
# GULP energy per Si atom -12388.743311 kJ/mol
# Density = 1.670521 g / cm^3
# Si number density = 16.743317 Si / 1000 Ang^3
#
#
#
# Elastic Constant Matrix: (Units=GPa)
#
#
# Indices 1 2 3 4 5 6 
#
# 1 84.1002 53.8852 28.9832 0.0000 5.2118 0.0000
# 2 53.8852 93.3815 28.4663 0.0000 17.8768 0.0000
# 3 28.9832 28.4663 84.6878 0.0000 8.0854 0.0000
# 4 0.0000 0.0000 0.0000 28.4837 0.0000 11.5172
# 5 5.2118 17.8768 8.0854 0.0000 29.6682 0.0000
# 6 0.0000 0.0000 0.0000 11.5172 0.0000 26.2191
#
#
#
# Elastic Compliance Matrix: (Units=1/GPa)
#
#
# Indices 1 2 3 4 5 6 
#
# 1 0.020097 -0.011355 -0.003468 0.000000 0.004256 0.000000
# 2 -0.011355 0.019597 -0.001812 0.000000 -0.009320 0.000000
# 3 -0.003468 -0.001812 0.013800 0.000000 -0.002060 0.000000
# 4 0.000000 0.000000 0.000000 0.042690 0.000000 -0.018752
# 5 0.004256 -0.009320 -0.002060 0.000000 0.039136 0.000000
# 6 0.000000 0.000000 0.000000 -0.018752 0.000000 0.046377
#
#
# Mechanical properties :
#
#
# Convention : Reuss Voigt Hill
#
# Bulk Modulus (GPa) = 49.43827 53.87099 51.65463
# Shear Modulus (GPa) = 22.55217 26.92988 24.74103
#
# Velocity S-wave (km/s) = 3.67404 4.01483 3.84821
# Velocity P-wave (km/s) = 6.89851 7.33050 7.11778
#
# Compressibility (1/GPa) = 0.02022724
#
# Stress axis : x y z
#
# Youngs Moduli (GPa) = 49.75857 51.02737 72.46143
#
# Poissons Ratio (x) = 0.57940 0.25127
# Poissons Ratio (y) = 0.56499 0.13126
# Poissons Ratio (z) = 0.17255 0.09244
#
# Static dielectric constant tensor:
#      x y z
#    x 3.147860 0.000000 -0.011470 
#    y 0.000000 3.063960 0.000000 
#    z -0.011470 0.000000 3.207230 
# 
# 
# High freq. dielectric constant tensor:
#      x y z
#    x 1.641580 0.000000 -0.004550 
#    y 0.000000 1.633930 0.000000 
#    z -0.004550 0.000000 1.649310 
# 
# From -- ./inp_files/246694.got.cif
#   From: 2010.06.25/outbox.cif.g09.slc.cpg/sg15_124_cif.got.tgz:246694.got - 2010.06.28 07:06:18.
