data_PCOD8131019
_publ_section_title
;
Structure prediction by ZEFSAII (Michael W. Deem and Ramdas Pophale) SiO2 
 PCOD8131019
Probable space group: C 2/C
;
_chemical_formula_sum "Si O2"
_cell_formula_units_Z 40
_cell_length_a 24.227710
_cell_length_b 19.293661
_cell_length_c 5.138067
_cell_angle_alpha 90.000000
_cell_angle_beta 108.457811
_cell_angle_gamma 90.000000
_cell_volume 2278.191491
_symmetry_space_group_name_H-M "C 2/C"
_symmetry_group_IT_number 15
_symmetry_cell_setting 'monoclinic'
loop_
_space_group_symop_operation_xyz
x,y,z
-x,y,1/2-z
-x,-y,-z
x,-y,1/2+z
1/2+x,1/2+y,z
1/2-x,1/2+y,1/2-z
1/2-x,1/2-y,-z
1/2+x,1/2-y,1/2+z
loop_
_atom_site_type_symbol
_atom_site_label
_atom_site_fract_x
_atom_site_fract_y
_atom_site_fract_z
Si Si1 0.113511 0.454720 0.392678
Si Si2 0.000000 0.366037 0.250000
Si Si3 0.500000 0.774025 0.750000
Si Si4 0.306419 0.834223 0.136355
Si Si5 0.314742 0.696521 0.890668
Si Si6 0.623234 0.278888 0.525568
O O1 0.115782 0.516586 0.188250
O O2 0.054534 0.412868 0.257231
O O3 0.169159 0.405671 0.438318
O O4 0.016180 0.319730 0.523087
O O5 0.445924 0.724065 0.608570
O O6 0.244113 0.849027 0.179647
O O7 0.352056 0.800148 0.410321
O O8 0.296776 0.778450 0.887028
O O9 0.347231 0.681747 0.670957
O O10 0.359545 0.677431 0.191232
#
# Coordination Sequence:
#
# PCOD8131019 Si02
#       6
#     8   4   4   8   8   8
#     4  12  25  35  49  68  97 135 176 214 236 272
#     4  12  22  39  46  62  96 144 182 203 234 260
#     4  12  20  31  56  68 102 128 162 219 232 290
#     4   9  20  34  51  67  93 119 170 200 250 285
#     4   9  19  31  55  68  88 118 164 204 244 304
#     4  10  18  31  47  76  88 122 156 195 254 284
#
# _framework density 17.557786
#
# number of rings (size 3 to 8) (size 9 to 14) (size 15 to 20)
#    1.200    0.400    2.000    4.800    2.800    0.000 
#    0.000    0.000    0.000    0.000    0.000    0.000 
#    0.000    0.000    0.000   18.000    0.000    2.400 
#
# Total GULP energy -247935.338487 kJ/mol
# GULP energy per Si atom -12396.766924 kJ/mol
# Density = 1.751782 g / cm^3
# Si number density = 17.557786 Si / 1000 Ang^3
#
#
#
# Elastic Constant Matrix: (Units=GPa)
#
#
# Indices 1 2 3 4 5 6 
#
# 1 121.2231 26.1054 24.0164 0.0000 9.3659 0.0000
# 2 26.1054 22.0686 0.9727 0.0000 2.2625 0.0000
# 3 24.0164 0.9727 76.4367 0.0000 -11.2980 0.0000
# 4 0.0000 0.0000 0.0000 11.4145 0.0000 -9.5909
# 5 9.3659 2.2625 -11.2980 0.0000 35.4744 0.0000
# 6 0.0000 0.0000 0.0000 -9.5909 0.0000 15.2499
#
#
#
# Elastic Compliance Matrix: (Units=1/GPa)
#
#
# Indices 1 2 3 4 5 6 
#
# 1 0.012429 -0.014130 -0.004279 0.000000 -0.003743 0.000000
# 2 -0.014130 0.061758 0.003802 0.000000 0.001003 0.000000
# 3 -0.004279 0.003802 0.015227 0.000000 0.005737 0.000000
# 4 0.000000 0.000000 0.000000 0.185780 0.000000 0.116840
# 5 -0.003743 0.001003 0.005737 0.000000 0.030941 0.000000
# 6 0.000000 0.000000 0.000000 0.116840 0.000000 0.139056
#
#
# Mechanical properties :
#
#
# Convention : Reuss Voigt Hill
#
# Bulk Modulus (GPa) = 16.61134 35.76858 26.18996
# Shear Modulus (GPa) = 10.11181 23.67003 16.89092
#
# Velocity S-wave (km/s) = 2.40243 3.67566 3.10501
# Velocity P-wave (km/s) = 4.14452 6.19920 5.27291
#
# Compressibility (1/GPa) = 0.06019984
#
# Stress axis : x y z
#
# Youngs Moduli (GPa) = 80.45656 16.19227 65.67449
#
# Poissons Ratio (x) = 0.22880 0.28100
# Poissons Ratio (y) = 1.13687 -0.24970
# Poissons Ratio (z) = 0.34425 -0.06156
#
# Static dielectric constant tensor:
#      x y z
#    x 3.286340 0.000000 -0.022540 
#    y 0.000000 2.661690 0.000000 
#    z -0.022540 0.000000 3.280670 
# 
# 
# High freq. dielectric constant tensor:
#      x y z
#    x 1.690220 0.000000 -0.003640 
#    y 0.000000 1.600820 0.000000 
#    z -0.003640 0.000000 1.690420 
# 
# From -- ./inp_files/16969.got.cif
#   From: 2010.06.25/outbox.cif.g09.slc.cpg/sg15_9_cif.got.tgz:16969.got - 2010.06.28 07:06:18.
