data_PCOD8131272
_publ_section_title
;
Structure prediction by ZEFSAII (Michael W. Deem and Ramdas Pophale) SiO2 
 PCOD8131272
Probable space group: C 2/C
;
_chemical_formula_sum "Si O2"
_cell_formula_units_Z 48
_cell_length_a 9.439952
_cell_length_b 23.838653
_cell_length_c 10.768183
_cell_angle_alpha 90.000000
_cell_angle_beta 94.030710
_cell_angle_gamma 90.000000
_cell_volume 2417.232225
_symmetry_space_group_name_H-M "C 2/C"
_symmetry_group_IT_number 15
_symmetry_cell_setting 'monoclinic'
loop_
_space_group_symop_operation_xyz
x,y,z
-x,y,1/2-z
-x,-y,-z
x,-y,1/2+z
1/2+x,1/2+y,z
1/2-x,1/2+y,1/2-z
1/2-x,1/2-y,-z
1/2+x,1/2-y,1/2+z
loop_
_atom_site_type_symbol
_atom_site_label
_atom_site_fract_x
_atom_site_fract_y
_atom_site_fract_z
Si Si1 0.636872 0.265676 0.175444
Si Si2 0.525745 0.328163 0.951971
Si Si3 0.202074 0.647133 0.155654
Si Si4 0.991093 0.544395 0.109293
Si Si5 0.149932 0.275398 0.099718
Si Si6 0.780966 0.367361 0.562250
O O1 0.500000 0.257986 0.250000
O O2 0.655154 0.207575 0.096552
O O3 0.776094 0.281068 0.262942
O O4 0.613289 0.318216 0.083340
O O5 0.630873 0.362281 0.866377
O O6 0.483857 0.266411 0.894820
O O7 0.387740 0.365918 0.974156
O O8 0.188377 0.660389 0.301743
O O9 0.107856 0.594481 0.105157
O O10 0.833711 0.568931 0.077029
O O11 0.000000 0.518151 0.250000
O O12 0.000000 0.500000 0.000000
O O13 0.250000 0.250000 0.000000
O O14 0.123763 0.337501 0.040370
#
# Coordination Sequence:
#
# PCOD8131272 Si02
#       6
#     8   8   8   8   8   8
#     4  12  19  32  53  84 126 166 191 221 281 351
#     4  11  21  33  51  88 122 150 194 238 277 347
#     4  11  21  35  58  84 116 153 198 235 288 347
#     4  10  23  45  68  85 108 152 205 259 309 358
#     4  10  18  32  54  82 122 161 192 222 276 354
#     4  10  19  37  61  80 114 159 194 233 288 353
#
# _framework density 19.857422
#
# number of rings (size 3 to 8) (size 9 to 14) (size 15 to 20)
#    0.000    1.333    6.667    3.500    0.000    0.000 
#    3.000    0.833    0.000    0.000    0.000    0.000 
#    0.000    0.000    0.000    0.000    0.000    0.000 
#
# Total GULP energy -297314.042349 kJ/mol
# GULP energy per Si atom -12388.085098 kJ/mol
# Density = 1.981223 g / cm^3
# Si number density = 19.857422 Si / 1000 Ang^3
#
#
#
# Elastic Constant Matrix: (Units=GPa)
#
#
# Indices 1 2 3 4 5 6 
#
# 1 86.7916 35.6951 45.8868 0.0000 -1.7614 0.0000
# 2 35.6951 75.9996 61.4931 0.0000 0.3483 0.0000
# 3 45.8868 61.4931 116.8910 0.0000 22.0037 0.0000
# 4 0.0000 0.0000 0.0000 32.1513 0.0000 0.1017
# 5 -1.7614 0.3483 22.0037 0.0000 27.4410 0.0000
# 6 0.0000 0.0000 0.0000 0.1017 0.0000 19.5071
#
#
#
# Elastic Compliance Matrix: (Units=1/GPa)
#
#
# Indices 1 2 3 4 5 6 
#
# 1 0.015869 -0.002716 -0.005888 0.000000 0.005774 0.000000
# 2 -0.002716 0.026616 -0.015122 0.000000 0.011613 0.000000
# 3 -0.005888 -0.015122 0.022209 0.000000 -0.017994 0.000000
# 4 0.000000 0.000000 0.000000 0.031103 0.000000 -0.000162
# 5 0.005774 0.011613 -0.017994 0.000000 0.051094 0.000000
# 6 0.000000 0.000000 0.000000 -0.000162 0.000000 0.051264
#
#
# Mechanical properties :
#
#
# Convention : Reuss Voigt Hill
#
# Bulk Modulus (GPa) = 57.99583 62.87025 60.43304
# Shear Modulus (GPa) = 19.89239 24.92703 22.40971
#
# Velocity S-wave (km/s) = 3.16849 3.54687 3.36301
# Velocity P-wave (km/s) = 6.53111 6.96443 6.75124
#
# Compressibility (1/GPa) = 0.01724262
#
# Stress axis : x y z
#
# Youngs Moduli (GPa) = 63.01681 37.57188 45.02754
#
# Poissons Ratio (x) = 0.10204 0.26511
# Poissons Ratio (y) = 0.17114 0.68090
# Poissons Ratio (z) = 0.37102 0.56815
#
# Static dielectric constant tensor:
#      x y z
#    x 3.891170 0.000000 -0.052850 
#    y 0.000000 3.503830 0.000000 
#    z -0.052850 0.000000 4.129650 
# 
# 
# High freq. dielectric constant tensor:
#      x y z
#    x 1.780380 0.000000 0.008710 
#    y 0.000000 1.716020 0.000000 
#    z 0.008710 0.000000 1.779090 
# 
# From -- ./inp_files/79391.got.cif
#   From: 2010.06.25/outbox.cif.g09.slc.cpg/sg15_40_cif.got.tgz:79391.got - 2010.06.28 07:06:18.
