data_PCOD8131061
_publ_section_title
;
Structure prediction by ZEFSAII (Michael W. Deem and Ramdas Pophale) SiO2 
 PCOD8131061
Probable space group: C 2/C
;
_chemical_formula_sum "Si O2"
_cell_formula_units_Z 56
_cell_length_a 21.322292
_cell_length_b 18.289121
_cell_length_c 9.139150
_cell_angle_alpha 90.000000
_cell_angle_beta 126.134938
_cell_angle_gamma 90.000000
_cell_volume 2878.360663
_symmetry_space_group_name_H-M "C 2/C"
_symmetry_group_IT_number 15
_symmetry_cell_setting 'monoclinic'
loop_
_space_group_symop_operation_xyz
x,y,z
-x,y,1/2-z
-x,-y,-z
x,-y,1/2+z
1/2+x,1/2+y,z
1/2-x,1/2+y,1/2-z
1/2-x,1/2-y,-z
1/2+x,1/2-y,1/2+z
loop_
_atom_site_type_symbol
_atom_site_label
_atom_site_fract_x
_atom_site_fract_y
_atom_site_fract_z
Si Si1 0.080989 0.474763 0.801921
Si Si2 0.986056 0.669657 0.396574
Si Si3 0.871311 0.009000 0.273119
Si Si4 0.490418 0.407222 0.083913
Si Si5 0.689640 0.600204 0.580757
Si Si6 0.945069 0.205656 0.044731
Si Si7 0.637104 0.905559 0.166315
O O1 0.060280 0.406907 0.666207
O O2 0.127974 0.535861 0.782400
O O3 0.000000 0.508074 0.750000
O O4 0.133598 0.446689 0.006659
O O5 0.934829 0.727158 0.417882
O O6 0.000000 0.697513 0.250000
O O7 0.071242 0.657253 0.586744
O O8 0.950047 0.975045 0.313770
O O9 0.820252 0.947532 0.284515
O O10 0.901698 0.066274 0.438126
O O11 0.824798 0.050416 0.081978
O O12 0.500000 0.362567 0.250000
O O13 0.510509 0.359786 0.971934
O O14 0.636848 0.673514 0.511251
O O15 0.777873 0.629643 0.698503
O O16 0.000000 0.233502 0.250000
#
# Coordination Sequence:
#
# PCOD8131061 Si02
#       7
#     8   8   8   8   8   8   8
#     4   9  18  36  63  90 108 140 186 230 278 338
#     4   9  20  39  59  79 109 149 190 228 271 338
#     4  10  19  30  51  78 110 143 182 229 270 318
#     4  10  18  31  52  75 102 149 194 223 257 319
#     4  11  21  35  54  86 118 144 179 236 285 327
#     4  11  22  35  55  80 112 150 194 225 268 331
#     4  10  20  36  61  87 115 140 179 235 290 326
#
# _framework density 19.455518000000001
#
# number of rings (size 3 to 8) (size 9 to 14) (size 15 to 20)
#    0.000    2.286    2.857    3.000    0.000    1.714 
#    0.000    3.571    3.143    0.000    0.000    0.000 
#    0.000    0.000    0.000    0.000    0.000    0.000 
#
# Total GULP energy -347058.203152 kJ/mol
# GULP energy per Si atom -12394.935827 kJ/mol
# Density = 1.941124 g / cm^3
# Si number density = 19.455518 Si / 1000 Ang^3
#
#
#
# Elastic Constant Matrix: (Units=GPa)
#
#
# Indices 1 2 3 4 5 6 
#
# 1 73.2636 36.7501 36.4061 0.0000 13.1378 0.0000
# 2 36.7501 60.1334 15.5918 0.0000 -0.5829 0.0000
# 3 36.4061 15.5918 87.5403 0.0000 2.4759 0.0000
# 4 0.0000 0.0000 0.0000 17.5337 0.0000 -10.7753
# 5 13.1378 -0.5829 2.4759 0.0000 30.5041 0.0000
# 6 0.0000 0.0000 0.0000 -10.7753 0.0000 28.5364
#
#
#
# Elastic Compliance Matrix: (Units=1/GPa)
#
#
# Indices 1 2 3 4 5 6 
#
# 1 0.027106 -0.014504 -0.008370 0.000000 -0.011272 0.000000
# 2 -0.014504 0.025207 0.001355 0.000000 0.006619 0.000000
# 3 -0.008370 0.001355 0.014594 0.000000 0.002446 0.000000
# 4 0.000000 0.000000 0.000000 0.074267 0.000000 0.028043
# 5 -0.011272 0.006619 0.002446 0.000000 0.037565 0.000000
# 6 0.000000 0.000000 0.000000 0.028043 0.000000 0.045632
#
#
# Mechanical properties :
#
#
# Convention : Reuss Voigt Hill
#
# Bulk Modulus (GPa) = 41.89870 44.27038 43.08454
# Shear Modulus (GPa) = 18.15774 24.12748 21.14261
#
# Velocity S-wave (km/s) = 3.05830 3.52538 3.30011
# Velocity P-wave (km/s) = 5.83552 6.27496 6.05923
#
# Compressibility (1/GPa) = 0.02386709
#
# Stress axis : x y z
#
# Youngs Moduli (GPa) = 36.89264 39.67204 68.52208
#
# Poissons Ratio (x) = 0.57542 0.57356
# Poissons Ratio (y) = 0.53510 -0.09287
# Poissons Ratio (z) = 0.30881 -0.05377
#
# Static dielectric constant tensor:
#      x y z
#    x 3.502260 0.000000 -0.046300 
#    y 0.000000 3.241000 0.000000 
#    z -0.046300 0.000000 3.633870 
# 
# 
# High freq. dielectric constant tensor:
#      x y z
#    x 1.739430 0.000000 -0.012470 
#    y 0.000000 1.729790 0.000000 
#    z -0.012470 0.000000 1.768800 
# 
# From -- ./inp_files/62777.got.cif
#   From: 2010.06.25/outbox.cif.g09.slc.cpg/sg15_32_cif.got.tgz:62777.got - 2010.06.28 07:06:18.
