data_PCOD8131436
_publ_section_title
;
Structure prediction by ZEFSAII (Michael W. Deem and Ramdas Pophale) SiO2 
 PCOD8131436
Probable space group: C 2/C
;
_chemical_formula_sum "Si O2"
_cell_formula_units_Z 56
_cell_length_a 16.116402
_cell_length_b 8.429946
_cell_length_c 24.366915
_cell_angle_alpha 90.000000
_cell_angle_beta 62.057162
_cell_angle_gamma 90.000000
_cell_volume 2924.546034
_symmetry_space_group_name_H-M "C 2/C"
_symmetry_group_IT_number 15
_symmetry_cell_setting 'monoclinic'
loop_
_space_group_symop_operation_xyz
x,y,z
-x,y,1/2-z
-x,-y,-z
x,-y,1/2+z
1/2+x,1/2+y,z
1/2-x,1/2+y,1/2-z
1/2-x,1/2-y,-z
1/2+x,1/2-y,1/2+z
loop_
_atom_site_type_symbol
_atom_site_label
_atom_site_fract_x
_atom_site_fract_y
_atom_site_fract_z
Si Si1 0.226873 0.524544 0.097813
Si Si2 0.478364 0.881499 0.589049
Si Si3 0.919899 0.891890 0.496843
Si Si4 0.895737 0.344894 0.445293
Si Si5 0.200779 0.696702 0.413661
Si Si6 0.055755 0.265744 0.677753
Si Si7 0.378416 0.464241 0.893813
O O1 0.179609 0.473134 0.054381
O O2 0.249214 0.358930 0.122759
O O3 0.155099 0.640760 0.151494
O O4 0.325591 0.618604 0.062415
O O5 0.535886 0.780512 0.526161
O O6 0.367915 0.865406 0.612149
O O7 0.494628 0.830361 0.646398
O O8 0.508273 0.063931 0.570384
O O9 0.882692 0.947662 0.449853
O O10 0.000000 0.000000 0.500000
O O11 0.853804 0.260229 0.512444
O O12 0.920655 0.212285 0.391289
O O13 0.273105 0.556034 0.403844
O O14 0.000000 0.300829 0.750000
O O15 0.068586 0.075043 0.666853
#
# Coordination Sequence:
#
# PCOD8131436 Si02
#       7
#     8   8   8   8   8   8   8
#     4  10  19  34  58  82 117 153 184 230 297 344
#     4  10  22  32  59  85 121 151 187 229 293 354
#     4  11  18  32  54  93 119 152 180 232 292 366
#     4  10  18  33  52  88 124 148 174 230 297 371
#     4  11  18  35  53  93 123 144 174 234 299 367
#     4  10  24  43  57  74 107 156 210 248 275 337
#     4  10  20  35  57  78 118 146 191 235 296 346
#
# _framework density 19.14827
#
# number of rings (size 3 to 8) (size 9 to 14) (size 15 to 20)
#    0.000    1.714    4.286    1.286    2.000    1.714 
#    0.000    7.857    0.000    0.000    0.000    0.000 
#    0.000    0.000    0.000    0.000    0.000    0.000 
#
# Total GULP energy -346985.155119 kJ/mol
# GULP energy per Si atom -12392.326969 kJ/mol
# Density = 1.910469 g / cm^3
# Si number density = 19.148270 Si / 1000 Ang^3
#
#
#
# Elastic Constant Matrix: (Units=GPa)
#
#
# Indices 1 2 3 4 5 6 
#
# 1 133.3268 43.4711 35.7968 0.0000 -10.9888 0.0001
# 2 43.4711 105.7384 37.0784 0.0000 -8.0305 0.0002
# 3 35.7968 37.0784 89.7744 0.0000 -10.6880 0.0000
# 4 0.0000 0.0000 0.0000 18.2843 0.0000 -3.9786
# 5 -10.9888 -8.0305 -10.6880 0.0000 13.2685 0.0000
# 6 0.0001 0.0002 0.0000 -3.9786 0.0000 34.1360
#
#
#
# Elastic Compliance Matrix: (Units=1/GPa)
#
#
# Indices 1 2 3 4 5 6 
#
# 1 0.009317 -0.002780 -0.002045 0.000000 0.004387 0.000000
# 2 -0.002780 0.012024 -0.003611 0.000000 0.002065 0.000000
# 3 -0.002045 -0.003611 0.014361 0.000000 0.007689 0.000000
# 4 0.000000 0.000000 0.000000 0.056115 0.000000 0.006540
# 5 0.004387 0.002065 0.007689 0.000000 0.086444 0.000000
# 6 0.000000 0.000000 0.000000 0.006540 0.000000 0.030057
#
#
# Mechanical properties :
#
#
# Convention : Reuss Voigt Hill
#
# Bulk Modulus (GPa) = 53.10826 62.39247 57.75036
# Shear Modulus (GPa) = 21.60135 27.30398 24.45266
#
# Velocity S-wave (km/s) = 3.36238 3.78024 3.57741
# Velocity P-wave (km/s) = 6.54749 7.19084 6.87669
#
# Compressibility (1/GPa) = 0.01882946
#
# Stress axis : x y z
#
# Youngs Moduli (GPa) = 107.32546 83.16951 69.63158
#
# Poissons Ratio (x) = 0.23125 0.14237
# Poissons Ratio (y) = 0.29841 0.25147
# Poissons Ratio (z) = 0.21944 0.30036
#
# Static dielectric constant tensor:
#      x y z
#    x 3.770380 0.000000 -0.057590 
#    y 0.000000 3.806540 0.000000 
#    z -0.057590 0.000000 2.970120 
# 
# 
# High freq. dielectric constant tensor:
#      x y z
#    x 1.761990 0.000000 0.000070 
#    y 0.000000 1.757840 0.000000 
#    z 0.000070 0.000000 1.672050 
# 
# From -- ./inp_files/246945.got.cif
#   From: 2010.06.25/outbox.cif.g09.slc.cpg/sg15_124_cif.got.tgz:246945.got - 2010.06.28 07:06:18.
