data_PCOD8131385
_publ_section_title
;
Structure prediction by ZEFSAII (Michael W. Deem and Ramdas Pophale) SiO2 
 PCOD8131385
Probable space group: C 2/C
;
_chemical_formula_sum "Si O2"
_cell_formula_units_Z 60
_cell_length_a 5.183628
_cell_length_b 30.700216
_cell_length_c 19.075934
_cell_angle_alpha 90.000000
_cell_angle_beta 109.902891
_cell_angle_gamma 90.000000
_cell_volume 2854.395109
_symmetry_space_group_name_H-M "C 2/C"
_symmetry_group_IT_number 15
_symmetry_cell_setting 'monoclinic'
loop_
_space_group_symop_operation_xyz
x,y,z
-x,y,1/2-z
-x,-y,-z
x,-y,1/2+z
1/2+x,1/2+y,z
1/2-x,1/2+y,1/2-z
1/2-x,1/2-y,-z
1/2+x,1/2-y,1/2+z
loop_
_atom_site_type_symbol
_atom_site_label
_atom_site_fract_x
_atom_site_fract_y
_atom_site_fract_z
Si Si1 0.452768 0.380635 0.663196
Si Si2 0.832351 0.166694 0.557260
Si Si3 0.000000 0.316464 0.250000
Si Si4 0.978048 0.763438 0.328976
Si Si5 0.564968 0.126797 0.878543
Si Si6 0.598095 0.479179 0.838423
Si Si7 0.398844 0.832005 0.613386
Si Si8 0.901681 0.471632 0.161371
O O1 0.500000 0.377251 0.750000
O O2 0.422294 0.430146 0.634314
O O3 0.715965 0.359357 0.650477
O O4 0.172773 0.356955 0.616409
O O5 0.594214 0.134893 0.563548
O O6 0.777844 0.178407 0.471635
O O7 0.811814 0.211518 0.600368
O O8 0.125476 0.144146 0.591623
O O9 0.820012 0.283940 0.184597
O O10 0.112636 0.350020 0.200576
O O11 0.000000 0.776855 0.250000
O O12 0.003602 0.712307 0.341015
O O13 0.583889 0.075556 0.870586
O O14 0.500000 0.480158 0.750000
O O15 0.407126 0.509635 0.869377
O O16 0.908960 0.496679 0.868538
O O17 0.000000 0.469967 0.250000
#
# Coordination Sequence:
#
# PCOD8131385 Si02
#       8
#     8   8   4   8   8   8   8   8
#     4  11  23  43  66  95 123 165 216 269 313 363
#     4  11  25  42  60  91 132 175 203 257 314 377
#     4  10  22  38  60  98 124 160 194 272 306 360
#     4  11  23  41  65  93 129 159 216 263 315 364
#     4  11  21  39  63  89 133 159 211 244 319 375
#     4   9  19  34  58  92 128 152 198 267 324 358
#     4  12  26  41  66  90 128 171 216 253 313 379
#     4  10  18  32  60  96 123 157 201 260 320 374
#
# _framework density 21.020213999999999
#
# number of rings (size 3 to 8) (size 9 to 14) (size 15 to 20)
#    0.000    1.333    2.000    4.000    2.800    2.133 
#    0.000    3.333    0.000   16.000    0.000    0.000 
#    0.000    0.000    0.000    0.000    0.000    0.000 
#
# Total GULP energy -371847.178550 kJ/mol
# GULP energy per Si atom -12394.905952 kJ/mol
# Density = 2.097237 g / cm^3
# Si number density = 21.020214 Si / 1000 Ang^3
#
#
#
# Elastic Constant Matrix: (Units=GPa)
#
#
# Indices 1 2 3 4 5 6 
#
# 1 112.8133 48.8509 1.3316 0.0000 -7.8002 0.0000
# 2 48.8509 157.7403 29.8007 0.0000 2.0306 0.0000
# 3 1.3316 29.8007 72.8902 0.0000 -4.8121 0.0000
# 4 0.0000 0.0000 0.0000 12.4967 0.0000 0.7377
# 5 -7.8002 2.0306 -4.8121 0.0000 21.2208 0.0000
# 6 0.0000 0.0000 0.0000 0.7377 0.0000 32.8586
#
#
#
# Elastic Compliance Matrix: (Units=1/GPa)
#
#
# Indices 1 2 3 4 5 6 
#
# 1 0.010773 -0.003704 0.001627 0.000000 0.004683 0.000000
# 2 -0.003704 0.008180 -0.003470 0.000000 -0.002931 0.000000
# 3 0.001627 -0.003470 0.015400 0.000000 0.004422 0.000000
# 4 0.000000 0.000000 0.000000 0.080128 0.000000 -0.001799
# 5 0.004683 -0.002931 0.004422 0.000000 0.050128 0.000000
# 6 0.000000 0.000000 0.000000 -0.001799 0.000000 0.030474
#
#
# Mechanical properties :
#
#
# Convention : Reuss Voigt Hill
#
# Bulk Modulus (GPa) = 42.99564 55.93448 49.46506
# Shear Modulus (GPa) = 23.37215 30.87923 27.12569
#
# Velocity S-wave (km/s) = 3.33812 3.83694 3.59619
# Velocity P-wave (km/s) = 5.94611 6.80420 6.38958
#
# Compressibility (1/GPa) = 0.02325817
#
# Stress axis : x y z
#
# Youngs Moduli (GPa) = 92.82783 122.25108 64.93402
#
# Poissons Ratio (x) = 0.45279 -0.10562
# Poissons Ratio (y) = 0.34381 0.22533
# Poissons Ratio (z) = -0.15100 0.42423
#
# Static dielectric constant tensor:
#      x y z
#    x 4.050180 0.000000 0.061030 
#    y 0.000000 3.862990 0.000000 
#    z 0.061030 0.000000 3.665390 
# 
# 
# High freq. dielectric constant tensor:
#      x y z
#    x 1.829110 0.000000 -0.004990 
#    y 0.000000 1.834460 0.000000 
#    z -0.004990 0.000000 1.802510 
# 
# From -- ./inp_files/186752.got.cif
#   From: 2010.06.25/outbox.cif.g09.slc.cpg/sg15_94_cif.got.tgz:186752.got - 2010.06.28 07:06:18.
