data_PCOD8131765
_publ_section_title
;
Structure prediction by ZEFSAII (Michael W. Deem and Ramdas Pophale) SiO2 
 PCOD8131765
Probable space group: C 2/C
;
_chemical_formula_sum "Si O2"
_cell_formula_units_Z 48
_cell_length_a 12.748465
_cell_length_b 20.276268
_cell_length_c 16.379698
_cell_angle_alpha 90.000000
_cell_angle_beta 37.549982
_cell_angle_gamma 90.000000
_cell_volume 2580.430861
_symmetry_space_group_name_H-M "C 2/C"
_symmetry_group_IT_number 15
_symmetry_cell_setting 'monoclinic'
loop_
_space_group_symop_operation_xyz
x,y,z
-x,y,1/2-z
-x,-y,-z
x,-y,1/2+z
1/2+x,1/2+y,z
1/2-x,1/2+y,1/2-z
1/2-x,1/2-y,-z
1/2+x,1/2-y,1/2+z
loop_
_atom_site_type_symbol
_atom_site_label
_atom_site_fract_x
_atom_site_fract_y
_atom_site_fract_z
Si Si1 0.361942 0.789036 0.273997
Si Si2 0.623223 0.181393 0.480648
Si Si3 0.835779 0.467370 0.901482
Si Si4 0.298939 0.610556 0.518364
Si Si5 0.556263 0.058959 0.409325
Si Si6 0.617287 0.559753 0.397367
O O1 0.500000 0.757149 0.250000
O O2 0.197179 0.741031 0.380251
O O3 0.312551 0.862625 0.336384
O O4 0.445071 0.795032 0.132995
O O5 0.761972 0.157501 0.463383
O O6 0.576832 0.124683 0.447157
O O7 0.739361 0.535506 0.983699
O O8 0.715829 0.418193 0.920499
O O9 0.000000 0.491640 0.750000
O O10 0.900423 0.428636 0.941381
O O11 0.499075 0.614702 0.425457
O O12 0.735668 0.037643 0.256767
O O13 0.500000 0.000000 0.500000
O O14 0.500000 0.500000 0.500000
#
# Coordination Sequence:
#
# PCOD8131765 Si02
#       6
#     8   8   8   8   8   8
#     4  10  22  36  56  84 120 155 188 230 293 348
#     4  11  23  36  58  86 120 150 194 237 290 348
#     4   9  17  35  53  81 112 151 187 220 286 344
#     4  10  18  34  58  83 119 147 186 234 286 348
#     4  11  22  35  57  84 117 152 189 239 291 340
#     4   9  21  34  57  80 112 153 187 230 286 345
#
# _framework density 18.601545000000002
#
# number of rings (size 3 to 8) (size 9 to 14) (size 15 to 20)
#    0.000    2.000    1.667    3.500    9.333    0.000 
#    0.000    0.000    0.000    1.000    0.000    0.000 
#    0.000    0.000    0.000    0.000    0.000    0.000 
#
# Total GULP energy -297330.692752 kJ/mol
# GULP energy per Si atom -12388.778865 kJ/mol
# Density = 1.855921 g / cm^3
# Si number density = 18.601545 Si / 1000 Ang^3
#
#
#
# Elastic Constant Matrix: (Units=GPa)
#
#
# Indices 1 2 3 4 5 6 
#
# 1 133.7405 42.2965 58.5934 0.0057 -1.9706 0.0015
# 2 42.2965 76.7271 44.6512 0.0051 3.6144 -0.0067
# 3 58.5934 44.6512 125.6146 -0.0056 4.6707 -0.0140
# 4 0.0057 0.0051 -0.0056 30.3200 0.0005 -5.4403
# 5 -1.9706 3.6144 4.6707 0.0005 23.5688 0.0015
# 6 0.0015 -0.0067 -0.0140 -5.4403 0.0015 20.5838
#
#
#
# Elastic Compliance Matrix: (Units=1/GPa)
#
#
# Indices 1 2 3 4 5 6 
#
# 1 0.010222 -0.003674 -0.003541 -0.000003 0.002120 -0.000005
# 2 -0.003674 0.017797 -0.004533 -0.000003 -0.002138 0.000002
# 3 -0.003541 -0.004533 0.011292 0.000005 -0.001839 0.000008
# 4 -0.000003 -0.000003 0.000005 0.034624 -0.000002 0.009151
# 5 0.002120 -0.002138 -0.001839 -0.000002 0.043298 -0.000006
# 6 -0.000005 0.000002 0.000008 0.009151 -0.000006 0.051001
#
#
# Mechanical properties :
#
#
# Convention : Reuss Voigt Hill
#
# Bulk Modulus (GPa) = 63.22940 69.68495 66.45718
# Shear Modulus (GPa) = 25.38060 27.59725 26.48893
#
# Velocity S-wave (km/s) = 3.69783 3.85593 3.77771
# Velocity P-wave (km/s) = 7.23168 7.57413 7.40489
#
# Compressibility (1/GPa) = 0.01581543
#
# Stress axis : x y z
#
# Youngs Moduli (GPa) = 97.83207 56.18847 88.55748
#
# Poissons Ratio (x) = 0.20644 0.31356
# Poissons Ratio (y) = 0.35944 0.40143
# Poissons Ratio (z) = 0.34640 0.25470
#
# Static dielectric constant tensor:
#      x y z
#    x 3.948850 -0.000030 -0.135330 
#    y -0.000030 4.040610 0.000040 
#    z -0.135330 0.000040 3.551350 
# 
# 
# High freq. dielectric constant tensor:
#      x y z
#    x 1.715180 0.000000 -0.004810 
#    y 0.000000 1.691070 0.000000 
#    z -0.004810 0.000000 1.728490 
# 
# From -- ./inp_files/58405.got.cif
#   From: 2010.06.25/outbox.cif.g09.slc.cpg/sg15_30_cif.got.tgz:58405.got - 2010.06.28 07:06:18.
