data_PCOD8131959
_publ_section_title
;
Structure prediction by ZEFSAII (Michael W. Deem and Ramdas Pophale) SiO2 
 PCOD8131959
Probable space group: C 2/C
;
_chemical_formula_sum "Si O2"
_cell_formula_units_Z 64
_cell_length_a 24.931047
_cell_length_b 21.738120
_cell_length_c 14.642464
_cell_angle_alpha 90.000000
_cell_angle_beta 25.682243
_cell_angle_gamma 90.000000
_cell_volume 3439.104186
_symmetry_space_group_name_H-M "C 2/C"
_symmetry_group_IT_number 15
_symmetry_cell_setting 'monoclinic'
loop_
_space_group_symop_operation_xyz
x,y,z
-x,y,1/2-z
-x,-y,-z
x,-y,1/2+z
1/2+x,1/2+y,z
1/2-x,1/2+y,1/2-z
1/2-x,1/2-y,-z
1/2+x,1/2-y,1/2+z
loop_
_atom_site_type_symbol
_atom_site_label
_atom_site_fract_x
_atom_site_fract_y
_atom_site_fract_z
Si Si1 0.203185 0.558761 0.776632
Si Si2 0.976628 0.793401 0.179158
Si Si3 0.455594 0.483313 0.919681
Si Si4 0.364834 0.041369 0.980521
Si Si5 0.328467 0.614149 0.136493
Si Si6 0.257945 0.626579 0.045320
Si Si7 0.282764 0.508261 0.462011
Si Si8 0.500589 0.152203 0.140706
O O1 0.339419 0.563088 0.616554
O O2 0.130451 0.502548 0.937349
O O3 0.221654 0.545278 0.640544
O O4 0.124986 0.621327 0.909067
O O5 0.838802 0.820241 0.369771
O O6 0.000000 0.803688 0.250000
O O7 0.994122 0.723457 0.122050
O O8 0.079863 0.833011 0.966858
O O9 0.500000 0.472525 0.750000
O O10 0.581616 0.466941 0.783164
O O11 0.406750 0.552194 0.005340
O O12 0.281342 0.101977 0.123069
O O13 0.500000 0.065488 0.750000
O O14 0.312692 0.004495 0.973963
O O15 0.259818 0.638028 0.150511
O O16 0.318988 0.560232 0.937223
O O17 0.119593 0.621896 0.219086
O O18 0.500000 0.142745 0.250000
#
# Coordination Sequence:
#
# PCOD8131959 Si02
#       8
#     8   8   8   8   8   8   8   8
#     4  10  21  35  52  79 119 147 173 224 286 335
#     4   9  19  36  59  79 107 142 191 236 275 325
#     4   9  15  33  53  80 103 141 185 219 267 323
#     4  11  23  34  51  87 115 140 183 224 280 343
#     4  10  18  35  57  78 105 144 187 233 266 327
#     4  11  18  33  61  80 107 146 183 228 285 328
#     4  11  20  33  59  81 112 147 180 229 278 332
#     4  11  23  36  50  84 118 146 180 229 285 346
#
# _framework density 18.609497999999999
#
# number of rings (size 3 to 8) (size 9 to 14) (size 15 to 20)
#    0.000    1.750    5.000    2.625    1.750    3.000 
#    2.250    0.000    0.000    3.000    0.000    0.000 
#    0.000    0.000    0.000    0.000    0.000    0.000 
#
# Total GULP energy -396506.312653 kJ/mol
# GULP energy per Si atom -12390.822270 kJ/mol
# Density = 1.856714 g / cm^3
# Si number density = 18.609498 Si / 1000 Ang^3
#
#
#
# Elastic Constant Matrix: (Units=GPa)
#
#
# Indices 1 2 3 4 5 6 
#
# 1 52.4862 8.6390 24.2984 0.0016 -10.2439 -0.0001
# 2 8.6390 86.9630 54.9095 0.0056 0.6999 -0.0024
# 3 24.2984 54.9095 149.9890 0.0102 -13.1635 -0.0054
# 4 0.0016 0.0056 0.0102 31.0527 -0.0044 -2.6984
# 5 -10.2439 0.6999 -13.1635 -0.0044 28.0035 0.0014
# 6 -0.0001 -0.0024 -0.0054 -2.6984 0.0014 14.6623
#
#
#
# Elastic Compliance Matrix: (Units=1/GPa)
#
#
# Indices 1 2 3 4 5 6 
#
# 1 0.021707 -0.000466 -0.002762 0.000001 0.006654 -0.000001
# 2 -0.000466 0.015225 -0.005785 -0.000001 -0.003270 0.000000
# 3 -0.002762 -0.005785 0.009550 -0.000001 0.003624 0.000002
# 4 0.000001 -0.000001 -0.000001 0.032727 0.000005 0.006023
# 5 0.006654 -0.003270 0.003624 0.000005 0.039929 -0.000002
# 6 -0.000001 0.000000 0.000002 0.006023 -0.000002 0.069311
#
#
# Mechanical properties :
#
#
# Convention : Reuss Voigt Hill
#
# Bulk Modulus (GPa) = 35.14244 51.68131 43.41188
# Shear Modulus (GPa) = 23.15254 28.18311 25.66782
#
# Velocity S-wave (km/s) = 3.53104 3.89581 3.71790
# Velocity P-wave (km/s) = 5.96234 6.93313 6.46598
#
# Compressibility (1/GPa) = 0.02845562
#
# Stress axis : x y z
#
# Youngs Moduli (GPa) = 46.06889 65.68351 104.70685
#
# Poissons Ratio (x) = 0.03061 0.28920
# Poissons Ratio (y) = 0.02147 0.60574
# Poissons Ratio (z) = 0.12724 0.37998
#
# Static dielectric constant tensor:
#      x y z
#    x 3.353340 0.000000 -0.239830 
#    y 0.000000 3.219270 0.000010 
#    z -0.239830 0.000010 3.849020 
# 
# 
# High freq. dielectric constant tensor:
#      x y z
#    x 1.710830 0.000000 -0.019510 
#    y 0.000000 1.683850 0.000000 
#    z -0.019510 0.000000 1.734550 
# 
# From -- ./inp_files/225928.got.cif
#   From: 2010.06.25/outbox.cif.g09.slc.cpg/sg15_113_cif.got.tgz:225928.got - 2010.06.28 07:06:18.
