data_PCOD8131391
_publ_section_title
;
Structure prediction by ZEFSAII (Michael W. Deem and Ramdas Pophale) SiO2 
 PCOD8131391
Probable space group: C 2/C
;
_chemical_formula_sum "Si O2"
_cell_formula_units_Z 52
_cell_length_a 8.091560
_cell_length_b 16.788338
_cell_length_c 29.545398
_cell_angle_alpha 90.000000
_cell_angle_beta 139.784387
_cell_angle_gamma 90.000000
_cell_volume 2591.418702
_symmetry_space_group_name_H-M "C 2/C"
_symmetry_group_IT_number 15
_symmetry_cell_setting 'monoclinic'
loop_
_space_group_symop_operation_xyz
x,y,z
-x,y,1/2-z
-x,-y,-z
x,-y,1/2+z
1/2+x,1/2+y,z
1/2-x,1/2+y,1/2-z
1/2-x,1/2-y,-z
1/2+x,1/2-y,1/2+z
loop_
_atom_site_type_symbol
_atom_site_label
_atom_site_fract_x
_atom_site_fract_y
_atom_site_fract_z
Si Si1 0.018439 0.194115 0.965298
Si Si2 0.376846 0.874884 0.770410
Si Si3 0.900374 0.142299 0.420012
Si Si4 0.897806 0.814499 0.631455
Si Si5 0.500000 0.518490 0.250000
Si Si6 0.699205 0.984888 0.605336
Si Si7 0.364499 0.519826 0.540950
O O1 0.031326 0.106912 0.947232
O O2 0.758209 0.233984 0.892405
O O3 0.250000 0.250000 0.000000
O O4 0.012501 0.190058 0.018087
O O5 0.500000 0.914015 0.750000
O O6 0.602312 0.838524 0.848088
O O7 0.179433 0.805646 0.712782
O O8 0.214002 0.935451 0.765881
O O9 0.083973 0.171167 0.418393
O O10 0.931973 0.046447 0.432659
O O11 0.748671 0.890113 0.621685
O O12 0.668085 0.470999 0.323189
O O13 0.396347 0.999257 0.540842
O O14 0.827675 0.018127 0.587054
#
# Coordination Sequence:
#
# PCOD8131391 Si02
#       7
#     8   8   8   8   4   8   8
#     4  12  22  34  57  93 123 159 201 250 306 363
#     4   9  19  35  60  90 116 152 208 254 296 367
#     4  10  21  37  61  87 116 161 207 251 298 367
#     4   9  19  37  58  89 119 157 200 252 310 365
#     4  10  18  32  62  88 114 158 208 244 304 362
#     4   9  18  35  59  91 117 160 200 254 298 362
#     4  10  20  36  59  91 126 154 208 256 299 355
#
# _framework density 20.066227999999999
#
# number of rings (size 3 to 8) (size 9 to 14) (size 15 to 20)
#    0.000    2.154    1.538    2.769    2.154    0.000 
#    0.000    0.000    0.000   16.615    6.000    0.000 
#    0.000    0.000    0.000    0.000    0.000    0.000 
#
# Total GULP energy -322213.580257 kJ/mol
# GULP energy per Si atom -12392.830010 kJ/mol
# Density = 2.002056 g / cm^3
# Si number density = 20.066228 Si / 1000 Ang^3
#
#
#
# Elastic Constant Matrix: (Units=GPa)
#
#
# Indices 1 2 3 4 5 6 
#
# 1 77.9457 21.7250 37.5424 -0.0001 6.4453 0.0000
# 2 21.7250 76.1964 35.8916 -0.0001 9.2600 0.0000
# 3 37.5424 35.8916 159.2092 -0.0004 0.3666 0.0003
# 4 -0.0001 -0.0001 -0.0004 22.7711 -0.0002 3.9133
# 5 6.4453 9.2600 0.3666 -0.0002 31.5366 0.0001
# 6 0.0000 0.0000 0.0003 3.9133 0.0001 14.1491
#
#
#
# Elastic Compliance Matrix: (Units=1/GPa)
#
#
# Indices 1 2 3 4 5 6 
#
# 1 0.015193 -0.002649 -0.002980 0.000000 -0.002292 0.000000
# 2 -0.002649 0.015745 -0.002915 0.000000 -0.004048 0.000000
# 3 -0.002980 -0.002915 0.007638 0.000000 0.001376 0.000000
# 4 0.000000 0.000000 0.000000 0.046107 0.000000 -0.012752
# 5 -0.002292 -0.004048 0.001376 0.000000 0.033350 0.000000
# 6 0.000000 0.000000 0.000000 -0.012752 0.000000 0.074203
#
#
# Mechanical properties :
#
#
# Convention : Reuss Voigt Hill
#
# Bulk Modulus (GPa) = 46.54287 55.96327 51.25307
# Shear Modulus (GPa) = 23.09620 28.23753 25.66687
#
# Velocity S-wave (km/s) = 3.39632 3.75536 3.58034
# Velocity P-wave (km/s) = 6.21490 6.83765 6.53370
#
# Compressibility (1/GPa) = 0.02148557
#
# Stress axis : x y z
#
# Youngs Moduli (GPa) = 65.82085 63.51414 130.92791
#
# Poissons Ratio (x) = 0.16828 0.39016
# Poissons Ratio (y) = 0.17439 0.38170
# Poissons Ratio (z) = 0.19614 0.18516
#
# Static dielectric constant tensor:
#      x y z
#    x 3.814210 0.000000 -0.078390 
#    y 0.000000 3.282400 0.000000 
#    z -0.078390 0.000000 4.197100 
# 
# 
# High freq. dielectric constant tensor:
#      x y z
#    x 1.801030 0.000000 -0.002370 
#    y 0.000000 1.725230 0.000000 
#    z -0.002370 0.000000 1.799500 
# 
# From -- ./inp_files/289620.got.cif
#   From: 2010.06.25/outbox.cif.g09.slc.cpg/sg15_145_cif.got.tgz:289620.got - 2010.06.28 07:06:18.
