data_PCOD8131191
_publ_section_title
;
Structure prediction by ZEFSAII (Michael W. Deem and Ramdas Pophale) SiO2 
 PCOD8131191
Probable space group: C 2/C
;
_chemical_formula_sum "Si O2"
_cell_formula_units_Z 48
_cell_length_a 21.039765
_cell_length_b 10.745753
_cell_length_c 13.393859
_cell_angle_alpha 90.000000
_cell_angle_beta 60.846213
_cell_angle_gamma 90.000000
_cell_volume 2644.566687
_symmetry_space_group_name_H-M "C 2/C"
_symmetry_group_IT_number 15
_symmetry_cell_setting 'monoclinic'
loop_
_space_group_symop_operation_xyz
x,y,z
-x,y,1/2-z
-x,-y,-z
x,-y,1/2+z
1/2+x,1/2+y,z
1/2-x,1/2+y,1/2-z
1/2-x,1/2-y,-z
1/2+x,1/2-y,1/2+z
loop_
_atom_site_type_symbol
_atom_site_label
_atom_site_fract_x
_atom_site_fract_y
_atom_site_fract_z
Si Si1 0.748591 0.170993 0.341130
Si Si2 0.686375 0.708392 0.414806
Si Si3 0.067090 0.364779 0.433347
Si Si4 0.150533 0.392514 0.170286
Si Si5 0.587499 0.120726 0.516369
Si Si6 0.751162 0.942123 0.471778
O O1 0.770904 0.147565 0.210262
O O2 0.783987 0.295662 0.359043
O O3 0.660703 0.174194 0.409432
O O4 0.778847 0.057603 0.385285
O O5 0.604549 0.738782 0.443476
O O6 0.725215 0.836776 0.415360
O O7 0.684153 0.611956 0.508532
O O8 0.105345 0.419216 0.304380
O O9 0.076325 0.472046 0.509002
O O10 0.984677 0.319302 0.476214
O O11 0.093603 0.345883 0.129225
O O12 0.186181 0.517246 0.096628
#
# Coordination Sequence:
#
# PCOD8131191 Si02
#       6
#     8   8   8   8   8   8
#     4  10  20  34  55  79 105 139 178 216 262 315
#     4  10  20  33  54  79 106 139 175 224 258 317
#     4  10  19  31  51  79 109 137 164 216 274 313
#     4  10  19  33  54  79 104 140 178 214 257 319
#     4  10  18  32  50  78 111 131 169 218 267 317
#     4  10  19  33  52  78 108 133 179 220 261 302
#
# _framework density 18.150421999999999
#
# number of rings (size 3 to 8) (size 9 to 14) (size 15 to 20)
#    0.000    2.000    3.333    3.500    2.333    0.000 
#    0.000    0.000    0.000    4.000   17.333    0.000 
#    0.000    0.000    0.000    0.000    0.000    0.000 
#
# Total GULP energy -297429.566402 kJ/mol
# GULP energy per Si atom -12392.898600 kJ/mol
# Density = 1.810911 g / cm^3
# Si number density = 18.150422 Si / 1000 Ang^3
#
#
#
# Elastic Constant Matrix: (Units=GPa)
#
#
# Indices 1 2 3 4 5 6 
#
# 1 139.3212 32.7050 48.8309 0.0000 2.3099 0.0000
# 2 32.7050 51.6312 37.3537 0.0000 0.3597 0.0000
# 3 48.8309 37.3537 70.6055 0.0000 12.3768 0.0000
# 4 0.0000 0.0000 0.0000 31.0294 0.0000 11.6563
# 5 2.3099 0.3597 12.3768 0.0000 24.0346 0.0000
# 6 0.0000 0.0000 0.0000 11.6563 0.0000 33.2287
#
#
#
# Elastic Compliance Matrix: (Units=1/GPa)
#
#
# Indices 1 2 3 4 5 6 
#
# 1 0.009718 -0.001646 -0.006255 0.000000 0.002312 0.000000
# 2 -0.001646 0.033482 -0.018153 0.000000 0.009005 0.000000
# 3 -0.006255 -0.018153 0.030713 0.000000 -0.014943 0.000000
# 4 0.000000 0.000000 0.000000 0.037119 0.000000 -0.013021
# 5 0.002312 0.009005 -0.014943 0.000000 0.048945 0.000000
# 6 0.000000 0.000000 0.000000 -0.013021 0.000000 0.034662
#
#
# Mechanical properties :
#
#
# Convention : Reuss Voigt Hill
#
# Bulk Modulus (GPa) = 45.86631 55.48190 50.67410
# Shear Modulus (GPa) = 19.68377 27.16977 23.42677
#
# Velocity S-wave (km/s) = 3.29672 3.87321 3.59653
# Velocity P-wave (km/s) = 6.31000 7.11593 6.72505
#
# Compressibility (1/GPa) = 0.02180249
#
# Stress axis : x y z
#
# Youngs Moduli (GPa) = 102.89889 29.86703 32.55961
#
# Poissons Ratio (x) = 0.04917 0.20367
# Poissons Ratio (y) = 0.16941 0.59107
# Poissons Ratio (z) = 0.64368 0.54219
#
# Static dielectric constant tensor:
#      x y z
#    x 3.604680 0.000000 0.265440 
#    y 0.000000 3.145060 0.000000 
#    z 0.265440 0.000000 3.391370 
# 
# 
# High freq. dielectric constant tensor:
#      x y z
#    x 1.707870 0.000000 0.026980 
#    y 0.000000 1.676920 0.000000 
#    z 0.026980 0.000000 1.702440 
# 
# From -- ./inp_files/166127.got.cif
#   From: 2010.06.25/outbox.cif.g09.slc.cpg/sg15_84_cif.got.tgz:166127.got - 2010.06.28 07:06:18.
