data_PCOD8131350
_publ_section_title
;
Structure prediction by ZEFSAII (Michael W. Deem and Ramdas Pophale) SiO2 
 PCOD8131350
Probable space group: C 2/C
;
_chemical_formula_sum "Si O2"
_cell_formula_units_Z 60
_cell_length_a 15.030615
_cell_length_b 12.840970
_cell_length_c 16.931845
_cell_angle_alpha 90.000000
_cell_angle_beta 110.261047
_cell_angle_gamma 90.000000
_cell_volume 3065.768684
_symmetry_space_group_name_H-M "C 2/C"
_symmetry_group_IT_number 15
_symmetry_cell_setting 'monoclinic'
loop_
_space_group_symop_operation_xyz
x,y,z
-x,y,1/2-z
-x,-y,-z
x,-y,1/2+z
1/2+x,1/2+y,z
1/2-x,1/2+y,1/2-z
1/2-x,1/2-y,-z
1/2+x,1/2-y,1/2+z
loop_
_atom_site_type_symbol
_atom_site_label
_atom_site_fract_x
_atom_site_fract_y
_atom_site_fract_z
Si Si1 0.771230 0.379570 0.784414
Si Si2 0.148551 0.799477 0.877003
Si Si3 0.000000 0.093011 0.250000
Si Si4 0.759553 0.110637 0.950829
Si Si5 0.881357 0.195377 0.572025
Si Si6 0.760728 0.375631 0.595786
Si Si7 0.662958 0.434430 0.290898
Si Si8 0.894631 0.791598 0.364043
O O1 0.691915 0.308286 0.802587
O O2 0.755027 0.362953 0.687087
O O3 0.761583 0.501944 0.806645
O O4 0.871628 0.332145 0.847069
O O5 0.165340 0.683268 0.914843
O O6 0.038263 0.832799 0.833534
O O7 0.202026 0.884625 0.948138
O O8 0.082774 0.018713 0.243586
O O9 0.845924 0.154673 0.924352
O O10 0.725043 0.996386 0.919475
O O11 0.849895 0.310579 0.589494
O O12 0.835701 0.167685 0.473414
O O13 0.845345 0.108321 0.622937
O O14 0.993758 0.190913 0.597338
O O15 0.652279 0.339198 0.228735
#
# Coordination Sequence:
#
# PCOD8131350 Si02
#       8
#     8   8   4   8   8   8   8   8
#     4  10  21  36  58  84 120 151 195 238 305 345
#     4   9  21  38  59  83 118 156 195 246 294 353
#     4  10  18  32  58  84 108 150 194 240 290 338
#     4  10  21  40  61  83 118 159 198 237 301 350
#     4  11  24  38  60  89 126 151 197 245 301 346
#     4  11  22  37  58  89 121 157 192 248 296 355
#     4  11  19  35  59  85 115 152 190 245 293 339
#     4  11  21  37  61  89 114 154 201 245 281 362
#
# _framework density 19.570948999999999
#
# number of rings (size 3 to 8) (size 9 to 14) (size 15 to 20)
#    0.000    1.600    4.000    1.600    0.000    2.667 
#    0.000    1.333    0.000   16.800    0.000    0.000 
#    0.000    0.000    0.000    0.000    0.000    0.000 
#
# Total GULP energy -371790.348189 kJ/mol
# GULP energy per Si atom -12393.011606 kJ/mol
# Density = 1.952640 g / cm^3
# Si number density = 19.570949 Si / 1000 Ang^3
#
#
#
# Elastic Constant Matrix: (Units=GPa)
#
#
# Indices 1 2 3 4 5 6 
#
# 1 51.3356 41.7964 22.3825 0.0000 -2.2749 0.0000
# 2 41.7964 124.5288 43.7929 0.0000 11.7186 0.0000
# 3 22.3825 43.7929 88.3898 0.0000 -6.1814 0.0000
# 4 0.0000 0.0000 0.0000 26.6051 0.0000 0.6543
# 5 -2.2749 11.7186 -6.1814 0.0000 24.6717 0.0000
# 6 0.0000 0.0000 0.0000 0.6543 0.0000 31.4616
#
#
#
# Elastic Compliance Matrix: (Units=1/GPa)
#
#
# Indices 1 2 3 4 5 6 
#
# 1 0.028320 -0.009400 -0.002055 0.000000 0.006561 0.000000
# 2 -0.009400 0.013779 -0.005053 0.000000 -0.008677 0.000000
# 3 -0.002055 -0.005053 0.014751 0.000000 0.005906 0.000000
# 4 0.000000 0.000000 0.000000 0.037606 0.000000 -0.000782
# 5 0.006561 -0.008677 0.005906 0.000000 0.046739 0.000000
# 6 0.000000 0.000000 0.000000 -0.000782 0.000000 0.031801
#
#
# Mechanical properties :
#
#
# Convention : Reuss Voigt Hill
#
# Bulk Modulus (GPa) = 41.95963 53.35531 47.65747
# Shear Modulus (GPa) = 23.36933 26.96652 25.16792
#
# Velocity S-wave (km/s) = 3.45930 3.71601 3.58995
# Velocity P-wave (km/s) = 6.11898 6.76265 6.44885
#
# Compressibility (1/GPa) = 0.02383243
#
# Stress axis : x y z
#
# Youngs Moduli (GPa) = 35.31127 72.57505 67.79327
#
# Poissons Ratio (x) = 0.68218 0.13933
# Poissons Ratio (y) = 0.33192 0.34258
# Poissons Ratio (z) = 0.07257 0.36675
#
# Static dielectric constant tensor:
#      x y z
#    x 3.544210 0.000000 0.046870 
#    y 0.000000 3.833750 0.000000 
#    z 0.046870 0.000000 3.745490 
# 
# 
# High freq. dielectric constant tensor:
#      x y z
#    x 1.732320 0.000000 -0.010250 
#    y 0.000000 1.769540 0.000000 
#    z -0.010250 0.000000 1.773030 
# 
# From -- ./inp_files/210646.got.cif
#   From: 2010.06.25/outbox.cif.g09.slc.cpg/sg15_106_cif.got.tgz:210646.got - 2010.06.28 07:06:18.
