data_PCOD8131613
_publ_section_title
;
Structure prediction by ZEFSAII (Michael W. Deem and Ramdas Pophale) SiO2 
 PCOD8131613
Probable space group: C 2/C
;
_chemical_formula_sum "Si O2"
_cell_formula_units_Z 40
_cell_length_a 27.506131
_cell_length_b 18.363855
_cell_length_c 11.649085
_cell_angle_alpha 90.000000
_cell_angle_beta 20.648203
_cell_angle_gamma 90.000000
_cell_volume 2074.929001
_symmetry_space_group_name_H-M "C 2/C"
_symmetry_group_IT_number 15
_symmetry_cell_setting 'monoclinic'
loop_
_space_group_symop_operation_xyz
x,y,z
-x,y,1/2-z
-x,-y,-z
x,-y,1/2+z
1/2+x,1/2+y,z
1/2-x,1/2+y,1/2-z
1/2-x,1/2-y,-z
1/2+x,1/2-y,1/2+z
loop_
_atom_site_type_symbol
_atom_site_label
_atom_site_fract_x
_atom_site_fract_y
_atom_site_fract_z
Si Si1 0.500000 0.266007 0.250000
Si Si2 0.167971 0.824164 0.687506
Si Si3 0.410426 0.900711 0.267320
Si Si4 0.000000 0.717614 0.750000
Si Si5 0.776973 0.177195 0.683351
Si Si6 0.907392 0.557492 0.347395
O O1 0.469352 0.315771 0.430703
O O2 0.367054 0.217471 0.521000
O O3 0.250000 0.750000 0.500000
O O4 0.264392 0.884962 0.531569
O O5 0.136338 0.842580 0.624344
O O6 0.468213 0.832013 0.210145
O O7 0.384262 0.970700 0.405708
O O8 0.523169 0.919112 0.923962
O O9 0.130942 0.770757 0.438887
O O10 0.739298 0.099828 0.824672
O O11 0.000000 0.582344 0.250000
#
# Coordination Sequence:
#
# PCOD8131613 Si02
#       6
#     4   8   8   4   8   8
#     4  10  18  33  63  84 106 162 206 240 298 365
#     4  10  18  36  60  86 115 158 205 249 300 363
#     4  11  22  38  62  95 123 159 211 261 295 371
#     4  12  24  37  61 100 130 148 212 272 300 347
#     4  11  22  38  61  90 125 161 201 257 307 367
#     4  11  21  38  65  87 123 169 209 245 311 369
#
# _framework density 19.277767999999998
#
# number of rings (size 3 to 8) (size 9 to 14) (size 15 to 20)
#    0.000    1.200    8.000    1.200    0.000    0.800 
#    0.000    1.000    0.000    2.400    0.000    0.000 
#    0.000    0.000    0.000    0.000    0.000    0.000 
#
# Total GULP energy -247879.560971 kJ/mol
# GULP energy per Si atom -12393.978049 kJ/mol
# Density = 1.923389 g / cm^3
# Si number density = 19.277768 Si / 1000 Ang^3
#
#
#
# Elastic Constant Matrix: (Units=GPa)
#
#
# Indices 1 2 3 4 5 6 
#
# 1 58.6850 41.4505 23.7708 -0.0003 0.1113 0.0001
# 2 41.4505 122.6454 48.3251 -0.0001 -2.9051 0.0000
# 3 23.7708 48.3251 101.0604 -0.0009 16.5419 0.0004
# 4 -0.0003 -0.0001 -0.0009 24.5941 0.0002 -10.6275
# 5 0.1113 -2.9051 16.5419 0.0002 36.2298 -0.0001
# 6 0.0001 0.0000 0.0004 -10.6275 -0.0001 19.9990
#
#
#
# Elastic Compliance Matrix: (Units=1/GPa)
#
#
# Indices 1 2 3 4 5 6 
#
# 1 0.022731 -0.006831 -0.002139 0.000000 0.000359 0.000000
# 2 -0.006831 0.012464 -0.004886 0.000000 0.003251 0.000000
# 3 -0.002139 -0.004886 0.013831 0.000001 -0.006700 0.000000
# 4 0.000000 0.000000 0.000001 0.052780 0.000000 0.028047
# 5 0.000359 0.003251 -0.006700 0.000000 0.030920 0.000000
# 6 0.000000 0.000000 0.000000 0.028047 0.000000 0.064907
#
#
# Mechanical properties :
#
#
# Convention : Reuss Voigt Hill
#
# Bulk Modulus (GPa) = 46.91511 56.60928 51.76220
# Shear Modulus (GPa) = 21.51006 27.42087 24.46546
#
# Velocity S-wave (km/s) = 3.34398 3.77558 3.56631
# Velocity P-wave (km/s) = 6.26887 6.95956 6.62323
#
# Compressibility (1/GPa) = 0.02131509
#
# Stress axis : x y z
#
# Youngs Moduli (GPa) = 43.99334 80.22900 72.30095
#
# Poissons Ratio (x) = 0.54805 0.15464
# Poissons Ratio (y) = 0.30052 0.35323
# Poissons Ratio (z) = 0.09410 0.39197
#
# Static dielectric constant tensor:
#      x y z
#    x 3.489360 0.000000 0.237300 
#    y 0.000000 3.800150 0.000000 
#    z 0.237300 0.000000 3.757940 
# 
# 
# High freq. dielectric constant tensor:
#      x y z
#    x 1.741270 0.000000 0.018570 
#    y 0.000000 1.749150 0.000000 
#    z 0.018570 0.000000 1.734260 
# 
# From -- ./inp_files/76767.got.cif
#   From: 2010.06.25/outbox.cif.g09.slc.cpg/sg15_39_cif.got.tgz:76767.got - 2010.06.28 07:06:18.
