data_PCOD8131973
_publ_section_title
;
Structure prediction by ZEFSAII (Michael W. Deem and Ramdas Pophale) SiO2 
 PCOD8131973
Probable space group: C 2/C
;
_chemical_formula_sum "Si O2"
_cell_formula_units_Z 44
_cell_length_a 9.104122
_cell_length_b 16.537072
_cell_length_c 18.624775
_cell_angle_alpha 90.000000
_cell_angle_beta 131.663021
_cell_angle_gamma 90.000000
_cell_volume 2094.823749
_symmetry_space_group_name_H-M "C 2/C"
_symmetry_group_IT_number 15
_symmetry_cell_setting 'monoclinic'
loop_
_space_group_symop_operation_xyz
x,y,z
-x,y,1/2-z
-x,-y,-z
x,-y,1/2+z
1/2+x,1/2+y,z
1/2-x,1/2+y,1/2-z
1/2-x,1/2-y,-z
1/2+x,1/2-y,1/2+z
loop_
_atom_site_type_symbol
_atom_site_label
_atom_site_fract_x
_atom_site_fract_y
_atom_site_fract_z
Si Si1 0.882564 0.085005 0.834179
Si Si2 0.923775 0.287026 0.405652
Si Si3 0.284946 0.527447 0.033891
Si Si4 0.720331 0.322590 0.064672
Si Si5 0.000000 0.201181 0.750000
Si Si6 0.637910 0.972636 0.129688
O O1 0.757093 0.134233 0.851680
O O2 0.738651 0.028199 0.740371
O O3 0.998772 0.145183 0.820029
O O4 0.034572 0.030387 0.928438
O O5 0.705655 0.247675 0.319730
O O6 0.884773 0.381413 0.409803
O O7 0.069308 0.280090 0.383466
O O8 0.037954 0.241236 0.507425
O O9 0.263057 0.526640 0.114177
O O10 0.327075 0.616299 0.016731
O O11 0.082582 0.492050 0.933832
#
# Coordination Sequence:
#
# PCOD8131973 Si02
#       6
#     8   8   8   8   4   8
#     4  11  19  37  60  88 113 164 198 251 289 374
#     4   9  19  40  55  87 111 161 191 255 292 371
#     4  10  18  35  57  90 111 158 195 252 290 355
#     4  10  22  34  62  84 125 147 206 247 311 339
#     4  10  20  36  64  78 118 156 212 230 304 364
#     4   9  19  35  64  80 122 159 206 231 306 362
#
# _framework density 21.004154
#
# number of rings (size 3 to 8) (size 9 to 14) (size 15 to 20)
#    0.000    2.182    3.636    0.545    0.000    7.273 
#    0.000    1.818   52.000    0.000    0.000    0.000 
#    0.000    0.000    0.000    0.000    0.000    0.000 
#
# Total GULP energy -272538.354107 kJ/mol
# GULP energy per Si atom -12388.107005 kJ/mol
# Density = 2.095635 g / cm^3
# Si number density = 21.004154 Si / 1000 Ang^3
#
#
#
# Elastic Constant Matrix: (Units=GPa)
#
#
# Indices 1 2 3 4 5 6 
#
# 1 96.8385 22.1971 70.0904 0.0000 14.4926 0.0000
# 2 22.1971 34.1058 23.1075 0.0000 -5.5866 0.0000
# 3 70.0904 23.1075 121.9800 0.0000 15.2960 0.0000
# 4 0.0000 0.0000 0.0000 25.6587 0.0000 1.1580
# 5 14.4926 -5.5866 15.2960 0.0000 47.7266 0.0000
# 6 0.0000 0.0000 0.0000 1.1580 0.0000 28.9460
#
#
#
# Elastic Compliance Matrix: (Units=1/GPa)
#
#
# Indices 1 2 3 4 5 6 
#
# 1 0.019113 -0.006772 -0.009244 0.000000 -0.003634 0.000000
# 2 -0.006772 0.037914 -0.004278 0.000000 0.007865 0.000000
# 3 -0.009244 -0.004278 0.014618 0.000000 -0.002379 0.000000
# 4 0.000000 0.000000 0.000000 0.039044 0.000000 -0.001562
# 5 -0.003634 0.007865 -0.002379 0.000000 0.023739 0.000000
# 6 0.000000 0.000000 0.000000 -0.001562 0.000000 0.034610
#
#
# Mechanical properties :
#
#
# Convention : Reuss Voigt Hill
#
# Bulk Modulus (GPa) = 32.19658 53.74604 42.97131
# Shear Modulus (GPa) = 22.72953 29.63486 26.18219
#
# Velocity S-wave (km/s) = 3.29316 3.76028 3.53445
# Velocity P-wave (km/s) = 5.46094 6.67059 6.09584
#
# Compressibility (1/GPa) = 0.03105920
#
# Stress axis : x y z
#
# Youngs Moduli (GPa) = 52.31967 26.37530 68.40683
#
# Poissons Ratio (x) = 0.17860 0.63236
# Poissons Ratio (y) = 0.35429 0.29262
# Poissons Ratio (z) = 0.48365 0.11282
#
# Static dielectric constant tensor:
#      x y z
#    x 4.166150 0.000000 0.426220 
#    y 0.000000 3.452080 0.000000 
#    z 0.426220 0.000000 3.844870 
# 
# 
# High freq. dielectric constant tensor:
#      x y z
#    x 1.833410 0.000000 0.025290 
#    y 0.000000 1.772500 0.000000 
#    z 0.025290 0.000000 1.813040 
# 
# From -- ./inp_files/191175.got.cif
#   From: 2010.06.25/outbox.cif.g09.slc.cpg/sg15_96_cif.got.tgz:191175.got - 2010.06.28 07:06:18.
