data_PCOD8131029
_publ_section_title
;
Structure prediction by ZEFSAII (Michael W. Deem and Ramdas Pophale) SiO2 
 PCOD8131029
Probable space group: C 2/C
;
_chemical_formula_sum "Si O2"
_cell_formula_units_Z 40
_cell_length_a 15.774771
_cell_length_b 18.040934
_cell_length_c 12.030467
_cell_angle_alpha 90.000000
_cell_angle_beta 34.067893
_cell_angle_gamma 90.000000
_cell_volume 1917.909897
_symmetry_space_group_name_H-M "C 2/C"
_symmetry_group_IT_number 15
_symmetry_cell_setting 'monoclinic'
loop_
_space_group_symop_operation_xyz
x,y,z
-x,y,1/2-z
-x,-y,-z
x,-y,1/2+z
1/2+x,1/2+y,z
1/2-x,1/2+y,1/2-z
1/2-x,1/2-y,-z
1/2+x,1/2-y,1/2+z
loop_
_atom_site_type_symbol
_atom_site_label
_atom_site_fract_x
_atom_site_fract_y
_atom_site_fract_z
Si Si1 0.552514 0.408737 0.567648
Si Si2 0.654762 0.599571 0.633908
Si Si3 0.011285 0.789196 0.457641
Si Si4 0.193343 0.650738 0.247984
Si Si5 0.284765 0.511586 0.247748
O O1 0.500000 0.415151 0.750000
O O2 0.571349 0.322862 0.510731
O O3 0.699386 0.459818 0.380922
O O4 0.434716 0.438772 0.603123
O O5 0.500000 0.563179 0.750000
O O6 0.602848 0.671213 0.759032
O O7 0.774437 0.625014 0.412548
O O8 0.742705 0.538508 0.613540
O O9 0.044118 0.701274 0.417326
O O10 0.831567 0.798625 0.641343
O O11 0.160591 0.575689 0.356734
#
# Coordination Sequence:
#
# PCOD8131029 Si02
#       5
#     8   8   8   8   8
#     4   9  15  27  45  67  93 121 158 202 234 266
#     4   9  16  28  48  72  95 120 158 205 237 265
#     4   9  19  30  46  72 100 126 156 191 240 290
#     4  10  18  31  49  74 100 123 154 198 241 284
#     4   9  16  25  45  73  93 118 162 204 235 267
#
# _framework density 20.856037000000001
#
# number of rings (size 3 to 8) (size 9 to 14) (size 15 to 20)
#    0.000    2.800    0.000    6.000    0.000    0.000 
#    0.000    4.000    0.000    4.800    0.000   22.400 
#    0.000    0.000    0.000    0.000    0.000    0.000 
#
# Total GULP energy -247764.596272 kJ/mol
# GULP energy per Si atom -12388.229814 kJ/mol
# Density = 2.080857 g / cm^3
# Si number density = 20.856037 Si / 1000 Ang^3
#
#
#
# Elastic Constant Matrix: (Units=GPa)
#
#
# Indices 1 2 3 4 5 6 
#
# 1 51.5936 36.0093 35.1167 -0.0013 28.7804 0.0018
# 2 36.0093 106.6884 41.2363 0.0017 21.0286 -0.0011
# 3 35.1167 41.2363 55.6941 -0.0009 26.2464 0.0013
# 4 -0.0013 0.0017 -0.0009 23.0757 0.0015 -7.7453
# 5 28.7804 21.0286 26.2464 0.0015 28.7220 -0.0028
# 6 0.0018 -0.0011 0.0013 -7.7453 -0.0028 27.8511
#
#
#
# Elastic Compliance Matrix: (Units=1/GPa)
#
#
# Indices 1 2 3 4 5 6 
#
# 1 0.051866 -0.006016 -0.010244 0.000003 -0.038206 -0.000006
# 2 -0.006016 0.013855 -0.007949 -0.000001 0.003148 0.000001
# 3 -0.010244 -0.007949 0.039904 0.000002 -0.020380 -0.000003
# 4 0.000003 -0.000001 0.000002 0.047797 -0.000005 0.013292
# 5 -0.038206 0.003148 -0.020380 -0.000005 0.089419 0.000011
# 6 -0.000006 0.000001 -0.000003 0.013292 0.000011 0.039602
#
#
# Mechanical properties :
#
#
# Convention : Reuss Voigt Hill
#
# Bulk Modulus (GPa) = 17.47999 48.74453 33.11226
# Shear Modulus (GPa) = 14.28860 22.70401 18.49631
#
# Velocity S-wave (km/s) = 2.62029 3.30298 2.98124
# Velocity P-wave (km/s) = 4.18975 6.16189 5.26892
#
# Compressibility (1/GPa) = 0.05720826
#
# Stress axis : x y z
#
# Youngs Moduli (GPa) = 19.28060 72.17384 25.06022
#
# Poissons Ratio (x) = 0.43418 0.25671
# Poissons Ratio (y) = 0.11599 0.19920
# Poissons Ratio (z) = 0.19751 0.57370
#
# Static dielectric constant tensor:
#      x y z
#    x 3.541000 0.000000 0.325720 
#    y 0.000000 4.003530 0.000000 
#    z 0.325720 0.000000 3.206350 
# 
# 
# High freq. dielectric constant tensor:
#      x y z
#    x 1.779580 0.000000 0.037400 
#    y 0.000000 1.830700 0.000000 
#    z 0.037400 0.000000 1.769460 
# 
# From -- ./inp_files/96678.got.cif
#   From: 2010.06.25/outbox.cif.g09.slc.cpg/sg15_49_cif.got.tgz:96678.got - 2010.06.28 07:06:18.
