data_PCOD8131333
_publ_section_title
;
Structure prediction by ZEFSAII (Michael W. Deem and Ramdas Pophale) SiO2 
 PCOD8131333
Probable space group: C 2/C
;
_chemical_formula_sum "Si O2"
_cell_formula_units_Z 56
_cell_length_a 28.201304
_cell_length_b 17.567844
_cell_length_c 9.386542
_cell_angle_alpha 90.000000
_cell_angle_beta 37.853686
_cell_angle_gamma 90.000000
_cell_volume 2853.724286
_symmetry_space_group_name_H-M "C 2/C"
_symmetry_group_IT_number 15
_symmetry_cell_setting 'monoclinic'
loop_
_space_group_symop_operation_xyz
x,y,z
-x,y,1/2-z
-x,-y,-z
x,-y,1/2+z
1/2+x,1/2+y,z
1/2-x,1/2+y,1/2-z
1/2-x,1/2-y,-z
1/2+x,1/2-y,1/2+z
loop_
_atom_site_type_symbol
_atom_site_label
_atom_site_fract_x
_atom_site_fract_y
_atom_site_fract_z
Si Si1 0.804962 0.921159 0.941313
Si Si2 0.484524 0.076624 0.122585
Si Si3 0.579777 0.352076 0.606759
Si Si4 0.190809 0.908054 0.118220
Si Si5 0.560476 0.819903 0.224385
Si Si6 0.274818 0.112857 0.137896
Si Si7 0.812750 0.441320 0.038515
O O1 0.875562 0.891527 0.869094
O O2 0.777110 0.865449 0.878450
O O3 0.834039 0.002899 0.812859
O O4 0.726764 0.928152 0.216522
O O5 0.500000 0.061679 0.250000
O O6 0.395114 0.097571 0.330643
O O7 0.533190 0.147102 0.942014
O O8 0.500000 0.000000 0.000000
O O9 0.500000 0.394328 0.750000
O O10 0.629118 0.353472 0.342938
O O11 0.555241 0.270317 0.725333
O O12 0.269878 0.897494 0.015094
O O13 0.208405 0.883700 0.915707
O O14 0.500000 0.855305 0.250000
O O15 0.652504 0.835354 0.989631
O O16 0.314083 0.031777 0.011745
#
# Coordination Sequence:
#
# PCOD8131333 Si02
#       7
#     8   8   8   8   8   8   8
#     4   9  19  37  61  87 111 149 196 257 298 346
#     4  12  23  34  58  91 125 167 202 238 290 348
#     4  10  23  42  57  80 119 155 194 251 315 366
#     4   9  19  36  61  85 108 150 199 251 304 350
#     4  11  23  38  56  83 126 167 194 242 299 358
#     4  10  18  32  57  86 116 147 199 247 285 359
#     4   9  18  32  55  85 122 149 197 242 282 349
#
# _framework density 19.623480000000001
#
# number of rings (size 3 to 8) (size 9 to 14) (size 15 to 20)
#    0.000    2.000    1.429    3.000    4.000    1.714 
#    0.000    5.000    0.000    0.000    0.000    0.000 
#    0.000    0.000    0.000    0.000    0.000    0.000 
#
# Total GULP energy -346871.804595 kJ/mol
# GULP energy per Si atom -12388.278736 kJ/mol
# Density = 1.957882 g / cm^3
# Si number density = 19.623480 Si / 1000 Ang^3
#
#
#
# Elastic Constant Matrix: (Units=GPa)
#
#
# Indices 1 2 3 4 5 6 
#
# 1 153.9269 20.4026 67.5288 0.0000 -4.4511 0.0000
# 2 20.4026 54.5993 40.9669 0.0000 0.0765 0.0000
# 3 67.5288 40.9669 94.4658 0.0000 -0.4093 0.0000
# 4 0.0000 0.0000 0.0000 23.3551 0.0000 -9.0427
# 5 -4.4511 0.0765 -0.4093 0.0000 41.1545 0.0000
# 6 0.0000 0.0000 0.0000 -9.0427 0.0000 -3.9205
#
#
#
# Elastic Compliance Matrix: (Units=1/GPa)
#
#
# Indices 1 2 3 4 5 6 
#
# 1 0.009699 0.002332 -0.007941 0.000000 0.000966 0.000000
# 2 0.002332 0.027711 -0.013685 0.000000 0.000065 0.000000
# 3 -0.007941 -0.013685 0.022194 0.000000 -0.000613 0.000000
# 4 0.000000 0.000000 0.000000 0.022618 0.000000 -0.052169
# 5 0.000966 0.000065 -0.000613 0.000000 0.024397 0.000000
# 6 0.000000 0.000000 0.000000 -0.052169 0.000000 -0.134741
#
#
# Mechanical properties :
#
#
# Convention : Reuss Voigt Hill
#
# Bulk Modulus (GPa) = 47.57638 62.30984 54.94311
# Shear Modulus (GPa) = 286.18594 23.72406 154.95500
#
# Velocity S-wave (km/s) = 12.08946 3.48079 8.89581
# Velocity P-wave (km/s) = 14.80442 6.92648 11.55740
#
# Compressibility (1/GPa) = 0.02101883
#
# Stress axis : x y z
#
# Youngs Moduli (GPa) = 103.10390 36.08612 45.05701
#
# Poissons Ratio (x) = -0.08416 0.35778
# Poissons Ratio (y) = -0.24047 0.61659
# Poissons Ratio (z) = 0.81870 0.49382
#
# Static dielectric constant tensor:
#      x y z
#    x 3.717570 0.000000 -0.035190 
#    y 0.000000 3.225850 0.000000 
#    z -0.035190 0.000000 3.646700 
# 
# 
# High freq. dielectric constant tensor:
#      x y z
#    x 1.783910 0.000000 0.002450 
#    y 0.000000 1.723560 0.000000 
#    z 0.002450 0.000000 1.765060 
# 
# From -- ./inp_files/57786.got.cif
#   From: 2010.06.25/outbox.cif.g09.slc.cpg/sg15_29_cif.got.tgz:57786.got - 2010.06.28 07:06:18.
