data_PCOD8131058
_publ_section_title
;
Structure prediction by ZEFSAII (Michael W. Deem and Ramdas Pophale) SiO2 
 PCOD8131058
Probable space group: C 2/C
;
_chemical_formula_sum "Si O2"
_cell_formula_units_Z 56
_cell_length_a 16.717934
_cell_length_b 22.143798
_cell_length_c 8.978117
_cell_angle_alpha 90.000000
_cell_angle_beta 82.274648
_cell_angle_gamma 90.000000
_cell_volume 3293.519545
_symmetry_space_group_name_H-M "C 2/C"
_symmetry_group_IT_number 15
_symmetry_cell_setting 'monoclinic'
loop_
_space_group_symop_operation_xyz
x,y,z
-x,y,1/2-z
-x,-y,-z
x,-y,1/2+z
1/2+x,1/2+y,z
1/2-x,1/2+y,1/2-z
1/2-x,1/2-y,-z
1/2+x,1/2-y,1/2+z
loop_
_atom_site_type_symbol
_atom_site_label
_atom_site_fract_x
_atom_site_fract_y
_atom_site_fract_z
Si Si1 0.657804 0.067419 0.039195
Si Si2 0.620676 0.251524 0.613747
Si Si3 0.812308 0.702352 0.415959
Si Si4 0.831259 0.546497 0.120944
Si Si5 0.767984 0.328917 0.598860
Si Si6 0.040262 0.721875 0.938429
Si Si7 0.006613 0.587052 0.579139
O O1 0.697908 0.134220 0.013203
O O2 0.653882 0.044098 0.207794
O O3 0.567656 0.064249 0.999538
O O4 0.705697 0.017294 0.928555
O O5 0.675566 0.311104 0.591751
O O6 0.673030 0.194774 0.544258
O O7 0.600461 0.237210 0.789606
O O8 0.538263 0.265988 0.540084
O O9 0.750000 0.750000 0.500000
O O10 0.801520 0.700621 0.242742
O O11 0.904954 0.723455 0.426539
O O12 0.766840 0.598864 0.101845
O O13 0.913451 0.561781 0.015476
O O14 0.994037 0.659240 0.922320
O O15 0.000000 0.563066 0.750000
#
# Coordination Sequence:
#
# PCOD8131058 Si02
#       7
#     8   8   8   8   8   8   8
#     4  10  23  32  50  68 102 138 173 208 250 305
#     4  10  18  32  48  80  97 138 167 217 251 303
#     4  10  20  35  51  76 103 135 169 217 259 302
#     4  11  20  36  45  72  99 139 171 208 249 305
#     4  10  20  32  53  71 109 129 176 211 259 298
#     4  10  18  31  52  73 107 133 174 205 258 305
#     4  11  18  30  49  72 100 140 172 206 241 302
#
# _framework density 17.003087000000001
#
# number of rings (size 3 to 8) (size 9 to 14) (size 15 to 20)
#    0.000    1.714    4.286    1.714    0.000    1.714 
#    0.000    0.000    0.000    0.000    0.000    1.000 
#    0.000    0.000    0.000    0.000    0.000    0.000 
#
# Total GULP energy -347012.102812 kJ/mol
# GULP energy per Si atom -12393.289386 kJ/mol
# Density = 1.696439 g / cm^3
# Si number density = 17.003087 Si / 1000 Ang^3
#
#
#
# Elastic Constant Matrix: (Units=GPa)
#
#
# Indices 1 2 3 4 5 6 
#
# 1 97.9520 48.1416 36.0174 0.0000 7.6938 0.0000
# 2 48.1416 95.3629 40.1949 0.0000 0.1918 0.0000
# 3 36.0174 40.1949 73.4900 0.0000 4.3356 0.0000
# 4 0.0000 0.0000 0.0000 15.5537 0.0000 -8.2794
# 5 7.6938 0.1918 4.3356 0.0000 21.2050 0.0000
# 6 0.0000 0.0000 0.0000 -8.2794 0.0000 12.5377
#
#
#
# Elastic Compliance Matrix: (Units=1/GPa)
#
#
# Indices 1 2 3 4 5 6 
#
# 1 0.014858 -0.005894 -0.003789 0.000000 -0.004563 0.000000
# 2 -0.005894 0.016009 -0.006058 0.000000 0.003232 0.000000
# 3 -0.003789 -0.006058 0.018921 0.000000 -0.002439 0.000000
# 4 0.000000 0.000000 0.000000 0.099144 0.000000 0.065471
# 5 -0.004563 0.003232 -0.002439 0.000000 0.049284 0.000000
# 6 0.000000 0.000000 0.000000 0.065471 0.000000 0.122994
#
#
# Mechanical properties :
#
#
# Convention : Reuss Voigt Hill
#
# Bulk Modulus (GPa) = 54.62674 57.27918 55.95296
# Shear Modulus (GPa) = 13.93564 19.35600 16.64582
#
# Velocity S-wave (km/s) = 2.86596 3.37765 3.13227
# Velocity P-wave (km/s) = 6.56879 6.99800 6.78679
#
# Compressibility (1/GPa) = 0.01830605
#
# Stress axis : x y z
#
# Youngs Moduli (GPa) = 67.30583 62.46601 52.85073
#
# Poissons Ratio (x) = 0.36820 0.20023
# Poissons Ratio (y) = 0.39673 0.32015
# Poissons Ratio (z) = 0.25499 0.37840
#
# Static dielectric constant tensor:
#      x y z
#    x 3.147450 0.000000 0.155090 
#    y 0.000000 3.538750 0.000000 
#    z 0.155090 0.000000 3.267650 
# 
# 
# High freq. dielectric constant tensor:
#      x y z
#    x 1.633000 0.000000 0.014330 
#    y 0.000000 1.643920 0.000000 
#    z 0.014330 0.000000 1.662790 
# 
# From -- ./inp_files/50951.got.cif
#   From: 2010.06.25/outbox.cif.g09.slc.cpg/sg15_26_cif.got.tgz:50951.got - 2010.06.28 07:06:18.
