data_PCOD8131102
_publ_section_title
;
Structure prediction by ZEFSAII (Michael W. Deem and Ramdas Pophale) SiO2 
 PCOD8131102
Probable space group: C 2/C
;
_chemical_formula_sum "Si O2"
_cell_formula_units_Z 48
_cell_length_a 14.934959
_cell_length_b 16.468609
_cell_length_c 9.214735
_cell_angle_alpha 90.000000
_cell_angle_beta 92.533270
_cell_angle_gamma 90.000000
_cell_volume 2264.222859
_symmetry_space_group_name_H-M "C 2/C"
_symmetry_group_IT_number 15
_symmetry_cell_setting 'monoclinic'
loop_
_space_group_symop_operation_xyz
x,y,z
-x,y,1/2-z
-x,-y,-z
x,-y,1/2+z
1/2+x,1/2+y,z
1/2-x,1/2+y,1/2-z
1/2-x,1/2-y,-z
1/2+x,1/2-y,1/2+z
loop_
_atom_site_type_symbol
_atom_site_label
_atom_site_fract_x
_atom_site_fract_y
_atom_site_fract_z
Si Si1 0.410046 0.773467 0.835595
Si Si2 0.015974 0.376520 0.409323
Si Si3 0.590175 0.593852 0.669677
Si Si4 0.860675 0.518745 0.006828
Si Si5 0.593669 0.443085 0.837881
Si Si6 0.275095 0.091747 0.258300
O O1 0.500000 0.778136 0.750000
O O2 0.366233 0.682924 0.842819
O O3 0.333179 0.826819 0.757982
O O4 0.435644 0.805634 0.996798
O O5 0.078391 0.455934 0.397806
O O6 0.000000 0.338752 0.250000
O O7 0.921182 0.403719 0.470057
O O8 0.500000 0.609893 0.750000
O O9 0.637938 0.527797 0.777687
O O10 0.576072 0.555295 0.508572
O O11 0.818687 0.473280 0.868806
O O12 0.778803 0.551187 0.099555
O O13 0.500000 0.423443 0.750000
O O14 0.674135 0.381931 0.799522
#
# Coordination Sequence:
#
# PCOD8131102 Si02
#       6
#     8   8   8   8   8   8
#     4  10  21  37  62  94 129 157 188 248 319 365
#     4  10  18  31  53  88 133 167 185 227 288 374
#     4  10  22  42  68  88 114 156 209 259 310 353
#     4  10  19  30  54  89 128 162 199 227 285 371
#     4  11  23  42  67  87 113 162 219 255 291 351
#     4  11  21  36  61  93 125 164 200 245 302 363
#
# _framework density 21.199328000000001
#
# number of rings (size 3 to 8) (size 9 to 14) (size 15 to 20)
#    0.000    1.667    3.333    3.000    0.000    1.333 
#    0.000    0.000    3.667    4.000    0.000    0.000 
#    0.000    0.000    0.000    0.000    0.000    0.000 
#
# Total GULP energy -297362.399202 kJ/mol
# GULP energy per Si atom -12390.099967 kJ/mol
# Density = 2.115108 g / cm^3
# Si number density = 21.199328 Si / 1000 Ang^3
#
#
#
# Elastic Constant Matrix: (Units=GPa)
#
#
# Indices 1 2 3 4 5 6 
#
# 1 95.1643 27.7738 13.7442 0.0000 -13.4319 0.0000
# 2 27.7738 100.8180 56.6945 0.0000 -1.2938 0.0000
# 3 13.7442 56.6945 121.1893 0.0000 -15.1168 0.0000
# 4 0.0000 0.0000 0.0000 16.5567 0.0000 0.6919
# 5 -13.4319 -1.2938 -15.1168 0.0000 25.2668 0.0000
# 6 0.0000 0.0000 0.0000 0.6919 0.0000 7.3545
#
#
#
# Elastic Compliance Matrix: (Units=1/GPa)
#
#
# Indices 1 2 3 4 5 6 
#
# 1 0.012552 -0.004175 0.001443 0.000000 0.007322 0.000000
# 2 -0.004175 0.015113 -0.007323 0.000000 -0.005827 0.000000
# 3 0.001443 -0.007323 0.012495 0.000000 0.007868 0.000000
# 4 0.000000 0.000000 0.000000 0.060637 0.000000 -0.005705
# 5 0.007322 -0.005827 0.007868 0.000000 0.047879 0.000000
# 6 0.000000 0.000000 0.000000 -0.005705 0.000000 0.136507
#
#
# Mechanical properties :
#
#
# Convention : Reuss Voigt Hill
#
# Bulk Modulus (GPa) = 49.87878 57.06627 53.47252
# Shear Modulus (GPa) = 16.02683 24.43288 20.22985
#
# Velocity S-wave (km/s) = 2.75254 3.39858 3.09248
# Velocity P-wave (km/s) = 5.80358 6.50982 6.16682
#
# Compressibility (1/GPa) = 0.02004861
#
# Stress axis : x y z
#
# Youngs Moduli (GPa) = 79.66990 66.17020 80.03036
#
# Poissons Ratio (x) = 0.27629 -0.11550
# Poissons Ratio (y) = 0.33265 0.58608
# Poissons Ratio (z) = -0.11498 0.48458
#
# Static dielectric constant tensor:
#      x y z
#    x 3.818940 0.000000 -0.166850 
#    y 0.000000 4.063680 0.000000 
#    z -0.166850 0.000000 3.818510 
# 
# 
# High freq. dielectric constant tensor:
#      x y z
#    x 1.821090 0.000000 -0.016370 
#    y 0.000000 1.812610 0.000000 
#    z -0.016370 0.000000 1.840510 
# 
# From -- ./inp_files/39604.got.cif
#   From: 2010.06.25/outbox.cif.g09.slc.cpg/sg15_20_cif.got.tgz:39604.got - 2010.06.28 07:06:18.
