data_PCOD8131757
_publ_section_title
;
Structure prediction by ZEFSAII (Michael W. Deem and Ramdas Pophale) SiO2 
 PCOD8131757
Probable space group: C 2/C
;
_chemical_formula_sum "Si O2"
_cell_formula_units_Z 48
_cell_length_a 21.003531
_cell_length_b 10.262881
_cell_length_c 18.839254
_cell_angle_alpha 90.000000
_cell_angle_beta 39.097499
_cell_angle_gamma 90.000000
_cell_volume 2560.991581
_symmetry_space_group_name_H-M "C 2/C"
_symmetry_group_IT_number 15
_symmetry_cell_setting 'monoclinic'
loop_
_space_group_symop_operation_xyz
x,y,z
-x,y,1/2-z
-x,-y,-z
x,-y,1/2+z
1/2+x,1/2+y,z
1/2-x,1/2+y,1/2-z
1/2-x,1/2-y,-z
1/2+x,1/2-y,1/2+z
loop_
_atom_site_type_symbol
_atom_site_label
_atom_site_fract_x
_atom_site_fract_y
_atom_site_fract_z
Si Si1 0.511910 0.489156 0.818590
Si Si2 0.335983 0.602873 0.561669
Si Si3 0.846273 0.771324 0.761055
Si Si4 0.080538 0.609452 0.916347
Si Si5 0.727329 0.912968 0.746523
Si Si6 0.556757 0.288767 0.392485
O O1 0.500000 0.546889 0.750000
O O2 0.597043 0.376217 0.739805
O O3 0.545981 0.603606 0.841335
O O4 0.406934 0.423735 0.933278
O O5 0.250463 0.710077 0.614384
O O6 0.280660 0.468614 0.630229
O O7 0.405190 0.648443 0.567236
O O8 0.923592 0.662343 0.662329
O O9 0.808550 0.834121 0.720227
O O10 0.189267 0.536545 0.828751
O O11 0.000000 0.500000 0.000000
O O12 0.053689 0.723974 0.996068
O O13 0.635775 0.821529 0.799306
#
# Coordination Sequence:
#
# PCOD8131757 Si02
#       6
#     8   8   8   8   8   8
#     4  12  24  37  53  79 119 157 182 216 277 343
#     4  10  19  35  60  80 105 141 189 243 273 312
#     4  10  19  34  55  82 112 139 187 229 279 322
#     4   9  17  30  56  86 105 132 180 243 278 311
#     4   9  18  31  57  88 105 132 181 245 277 312
#     4  10  18  34  58  82 110 140 188 231 274 321
#
# _framework density 18.742740000000001
#
# number of rings (size 3 to 8) (size 9 to 14) (size 15 to 20)
#    0.000    2.000    3.333    1.500    0.000    0.667 
#    0.000    0.833    0.000    7.000    0.000    0.000 
#    0.000    0.000    0.000    0.000    0.000    0.000 
#
# Total GULP energy -297331.577954 kJ/mol
# GULP energy per Si atom -12388.815748 kJ/mol
# Density = 1.870008 g / cm^3
# Si number density = 18.742740 Si / 1000 Ang^3
#
#
#
# Elastic Constant Matrix: (Units=GPa)
#
#
# Indices 1 2 3 4 5 6 
#
# 1 42.1421 23.7003 41.4171 0.0000 2.7174 0.0000
# 2 23.7003 87.7428 44.4980 0.0001 -2.6984 -0.0001
# 3 41.4171 44.4980 105.6097 0.0000 -5.0083 0.0000
# 4 0.0000 0.0001 0.0000 24.0989 0.0000 -7.9058
# 5 2.7174 -2.6984 -5.0083 0.0000 21.3240 0.0000
# 6 0.0000 -0.0001 0.0000 -7.9058 0.0000 17.0692
#
#
#
# Elastic Compliance Matrix: (Units=1/GPa)
#
#
# Indices 1 2 3 4 5 6 
#
# 1 0.041203 -0.003811 -0.014992 0.000000 -0.009254 0.000000
# 2 -0.003811 0.014850 -0.004703 0.000000 0.001260 0.000000
# 3 -0.014992 -0.004703 0.017588 0.000000 0.005446 0.000000
# 4 0.000000 0.000000 0.000000 0.048930 0.000000 0.022663
# 5 -0.009254 0.001260 0.005446 0.000000 0.049513 0.000000
# 6 0.000000 0.000000 0.000000 0.022663 0.000000 0.069081
#
#
# Mechanical properties :
#
#
# Convention : Reuss Voigt Hill
#
# Bulk Modulus (GPa) = 37.55149 50.52503 44.03826
# Shear Modulus (GPa) = 16.83200 20.89038 18.86119
#
# Velocity S-wave (km/s) = 3.00001 3.34216 3.17570
# Velocity P-wave (km/s) = 5.66381 6.47372 6.08226
#
# Compressibility (1/GPa) = 0.02663010
#
# Stress axis : x y z
#
# Youngs Moduli (GPa) = 24.27007 67.34012 56.85759
#
# Poissons Ratio (x) = 0.25664 0.85239
# Poissons Ratio (y) = 0.09249 0.26738
# Poissons Ratio (z) = 0.36385 0.31667
#
# Static dielectric constant tensor:
#      x y z
#    x 2.959930 0.000000 -0.490270 
#    y 0.000000 3.944890 0.000000 
#    z -0.490270 0.000000 3.912590 
# 
# 
# High freq. dielectric constant tensor:
#      x y z
#    x 1.657820 0.000000 -0.037220 
#    y 0.000000 1.750820 0.000000 
#    z -0.037220 0.000000 1.741670 
# 
# From -- ./inp_files/166995.got.cif
#   From: 2010.06.25/outbox.cif.g09.slc.cpg/sg15_84_cif.got.tgz:166995.got - 2010.06.28 07:06:18.
