data_PCOD8131894
_publ_section_title
;
Structure prediction by ZEFSAII (Michael W. Deem and Ramdas Pophale) SiO2 
 PCOD8131894
Probable space group: C 2/C
;
_chemical_formula_sum "Si O2"
_cell_formula_units_Z 40
_cell_length_a 13.873117
_cell_length_b 18.573334
_cell_length_c 14.745227
_cell_angle_alpha 90.000000
_cell_angle_beta 150.759262
_cell_angle_gamma 90.000000
_cell_volume 1855.933196
_symmetry_space_group_name_H-M "C 2/C"
_symmetry_group_IT_number 15
_symmetry_cell_setting 'monoclinic'
loop_
_space_group_symop_operation_xyz
x,y,z
-x,y,1/2-z
-x,-y,-z
x,-y,1/2+z
1/2+x,1/2+y,z
1/2-x,1/2+y,1/2-z
1/2-x,1/2-y,-z
1/2+x,1/2-y,1/2+z
loop_
_atom_site_type_symbol
_atom_site_label
_atom_site_fract_x
_atom_site_fract_y
_atom_site_fract_z
Si Si1 0.815956 0.161652 0.476007
Si Si2 0.904499 0.668108 0.830709
Si Si3 0.083520 0.675549 0.449906
Si Si4 0.536290 0.416794 0.014067
Si Si5 0.653916 0.324872 0.794856
O O1 0.904971 0.240241 0.559077
O O2 0.747478 0.135943 0.520521
O O3 0.634520 0.152998 0.258054
O O4 0.990270 0.115502 0.575458
O O5 0.760736 0.606653 0.670907
O O6 0.828738 0.747239 0.739701
O O7 0.884761 0.656143 0.921115
O O8 0.131051 0.657169 0.985719
O O9 0.398772 0.386247 0.820872
O O10 0.500000 0.500000 0.000000
O O11 0.500000 0.321979 0.750000
#
# Coordination Sequence:
#
# PCOD8131894 Si02
#       5
#     8   8   8   8   8
#     4  10  19  35  59  96 131 166 218 271 332 403
#     4  12  22  42  75  97 134 178 232 296 342 399
#     4  10  18  34  66  95 123 167 221 277 327 394
#     4  12  27  45  65 101 144 181 225 284 354 419
#     4  12  25  45  73 104 131 181 248 290 337 410
#
# _framework density 21.552499999999998
#
# number of rings (size 3 to 8) (size 9 to 14) (size 15 to 20)
#    0.000    0.800    6.000    1.800    0.000    3.200 
#    3.600    2.000    0.000    0.000    0.000    0.000 
#    0.000    0.000    0.000    0.000    0.000    0.000 
#
# Total GULP energy -247904.770253 kJ/mol
# GULP energy per Si atom -12395.238513 kJ/mol
# Density = 2.150345 g / cm^3
# Si number density = 21.552500 Si / 1000 Ang^3
#
#
#
# Elastic Constant Matrix: (Units=GPa)
#
#
# Indices 1 2 3 4 5 6 
#
# 1 109.3893 20.2498 23.9156 0.0001 11.1057 -0.0163
# 2 20.2498 107.6602 40.1271 -0.0002 6.8130 -0.0007
# 3 23.9156 40.1271 71.4808 0.0001 33.7531 -0.0452
# 4 0.0001 -0.0002 0.0001 21.3025 0.0001 0.1638
# 5 11.1057 6.8130 33.7531 0.0001 40.6369 -0.0127
# 6 -0.0163 -0.0007 -0.0452 0.1638 -0.0127 -42.1540
#
#
#
# Elastic Compliance Matrix: (Units=1/GPa)
#
#
# Indices 1 2 3 4 5 6 
#
# 1 0.009919 -0.000843 -0.002685 0.000000 -0.000339 -0.000001
# 2 -0.000843 0.012702 -0.009792 0.000000 0.006235 0.000009
# 3 -0.002685 -0.009792 0.031694 0.000000 -0.023950 -0.000026
# 4 0.000000 0.000000 0.000000 0.046941 0.000000 0.000182
# 5 -0.000339 0.006235 -0.023950 0.000000 0.043548 0.000013
# 6 -0.000001 0.000009 -0.000026 0.000182 0.000013 -0.023722
#
#
# Mechanical properties :
#
#
# Convention : Reuss Voigt Hill
#
# Bulk Modulus (GPa) = 36.13489 50.79058 43.46273
# Shear Modulus (GPa) = 31.85712 17.57293 24.71502
#
# Velocity S-wave (km/s) = 3.84880 2.85854 3.39002
# Velocity P-wave (km/s) = 6.04594 5.87470 5.96094
#
# Compressibility (1/GPa) = 0.02767408
#
# Stress axis : x y z
#
# Youngs Moduli (GPa) = 100.81387 78.72504 31.55138
#
# Poissons Ratio (x) = 0.06640 0.08472
# Poissons Ratio (y) = 0.08503 0.30897
# Poissons Ratio (z) = 0.27069 0.77091
#
# Static dielectric constant tensor:
#      x y z
#    x 4.553470 0.000000 0.075700 
#    y 0.000000 3.450270 -0.000010 
#    z 0.075700 -0.000010 4.321610 
# 
# 
# High freq. dielectric constant tensor:
#      x y z
#    x 1.868060 0.000000 0.010550 
#    y 0.000000 1.782460 0.000000 
#    z 0.010550 0.000000 1.864180 
# 
# From -- ./inp_files/155603.got.cif
#   From: 2010.06.25/outbox.cif.g09.slc.cpg/sg15_78_cif.got.tgz:155603.got - 2010.06.28 07:06:18.
