data_PCOD8131969
_publ_section_title
;
Structure prediction by ZEFSAII (Michael W. Deem and Ramdas Pophale) SiO2 
 PCOD8131969
Probable space group: C 2/C
;
_chemical_formula_sum "Si O2"
_cell_formula_units_Z 48
_cell_length_a 11.980464
_cell_length_b 17.818756
_cell_length_c 12.887287
_cell_angle_alpha 90.000000
_cell_angle_beta 113.533860
_cell_angle_gamma 90.000000
_cell_volume 2522.310915
_symmetry_space_group_name_H-M "C 2/C"
_symmetry_group_IT_number 15
_symmetry_cell_setting 'monoclinic'
loop_
_space_group_symop_operation_xyz
x,y,z
-x,y,1/2-z
-x,-y,-z
x,-y,1/2+z
1/2+x,1/2+y,z
1/2-x,1/2+y,1/2-z
1/2-x,1/2-y,-z
1/2+x,1/2-y,1/2+z
loop_
_atom_site_type_symbol
_atom_site_label
_atom_site_fract_x
_atom_site_fract_y
_atom_site_fract_z
Si Si1 0.131767 0.782426 0.753126
Si Si2 0.132410 0.466733 0.746526
Si Si3 0.727891 0.910635 0.576832
Si Si4 0.950128 0.981339 0.127285
Si Si5 0.358671 0.875132 0.183078
Si Si6 0.371272 0.598941 0.406587
O O1 0.206034 0.839950 0.849675
O O2 0.198579 0.700741 0.786491
O O3 0.115542 0.815362 0.630031
O O4 0.000000 0.771689 0.750000
O O5 0.129145 0.441080 0.624506
O O6 0.186345 0.551500 0.772038
O O7 0.227185 0.417780 0.848721
O O8 0.000000 0.458788 0.750000
O O9 0.822471 0.976339 0.587675
O O10 0.665641 0.883170 0.448611
O O11 0.000000 0.943101 0.250000
O O12 0.055583 0.040770 0.138572
O O13 0.930376 0.911485 0.041832
O O14 0.500000 0.870617 0.250000
#
# Coordination Sequence:
#
# PCOD8131969 Si02
#       6
#     8   8   8   8   8   8
#     4  10  18  35  57  86 114 139 186 248 293 327
#     4  10  21  35  54  85 114 154 191 232 280 341
#     4  11  19  36  57  86 113 148 198 244 275 336
#     4  11  18  32  57  90 113 143 192 240 293 320
#     4  10  22  35  53  85 113 150 191 233 291 332
#     4  10  19  33  58  87 116 144 187 246 284 336
#
# _framework density 19.030168
#
# number of rings (size 3 to 8) (size 9 to 14) (size 15 to 20)
#    0.000    1.667    6.667    0.500    0.000    2.667 
#    0.000    0.000    0.000    1.000   21.667    1.167 
#    0.000    0.000    0.000    0.000    0.000    0.000 
#
# Total GULP energy -297326.650053 kJ/mol
# GULP energy per Si atom -12388.610419 kJ/mol
# Density = 1.898685 g / cm^3
# Si number density = 19.030168 Si / 1000 Ang^3
#
#
#
# Elastic Constant Matrix: (Units=GPa)
#
#
# Indices 1 2 3 4 5 6 
#
# 1 75.0689 9.4091 17.4969 0.0000 -5.3703 0.0000
# 2 9.4091 86.7872 44.1589 0.0000 -17.0247 0.0000
# 3 17.4969 44.1589 155.5434 0.0000 -5.4938 0.0000
# 4 0.0000 0.0000 0.0000 63.9760 0.0000 -1.7244
# 5 -5.3703 -17.0247 -5.4938 0.0000 20.3826 0.0000
# 6 0.0000 0.0000 0.0000 -1.7244 0.0000 15.1813
#
#
#
# Elastic Compliance Matrix: (Units=1/GPa)
#
#
# Indices 1 2 3 4 5 6 
#
# 1 0.013894 -0.000178 -0.001402 0.000000 0.003134 0.000000
# 2 -0.000178 0.016027 -0.004098 0.000000 0.012235 0.000000
# 3 -0.001402 -0.004098 0.007689 0.000000 -0.001720 0.000000
# 4 0.000000 0.000000 0.000000 0.015679 0.000000 0.001781
# 5 0.003134 0.012235 -0.001720 0.000000 0.059643 0.000000
# 6 0.000000 0.000000 0.000000 0.001781 0.000000 0.066073
#
#
# Mechanical properties :
#
#
# Convention : Reuss Voigt Hill
#
# Bulk Modulus (GPa) = 38.08805 51.05881 44.57343
# Shear Modulus (GPa) = 25.11135 36.33028 30.72081
#
# Velocity S-wave (km/s) = 3.63651 4.37405 4.02222
# Velocity P-wave (km/s) = 6.13924 7.23868 6.71151
#
# Compressibility (1/GPa) = 0.02625496
#
# Stress axis : x y z
#
# Youngs Moduli (GPa) = 71.97175 62.39482 130.04925
#
# Poissons Ratio (x) = 0.01113 0.18228
# Poissons Ratio (y) = 0.01284 0.53292
# Poissons Ratio (z) = 0.10088 0.25569
#
# Static dielectric constant tensor:
#      x y z
#    x 3.159410 0.000000 -0.506520 
#    y 0.000000 4.474070 0.000000 
#    z -0.506520 0.000000 3.117820 
# 
# 
# High freq. dielectric constant tensor:
#      x y z
#    x 1.723970 0.000000 0.012680 
#    y 0.000000 1.724320 0.000000 
#    z 0.012680 0.000000 1.747920 
# 
# From -- ./inp_files/87896.got.cif
#   From: 2010.06.25/outbox.cif.g09.slc.cpg/sg15_44_cif.got.tgz:87896.got - 2010.06.28 07:06:18.
