data_PCOD8131512
_publ_section_title
;
Structure prediction by ZEFSAII (Michael W. Deem and Ramdas Pophale) SiO2 
 PCOD8131512
Probable space group: C 2/C
;
_chemical_formula_sum "Si O2"
_cell_formula_units_Z 60
_cell_length_a 7.945403
_cell_length_b 27.587594
_cell_length_c 25.034116
_cell_angle_alpha 90.000000
_cell_angle_beta 147.323179
_cell_angle_gamma 90.000000
_cell_volume 2962.615002
_symmetry_space_group_name_H-M "C 2/C"
_symmetry_group_IT_number 15
_symmetry_cell_setting 'monoclinic'
loop_
_space_group_symop_operation_xyz
x,y,z
-x,y,1/2-z
-x,-y,-z
x,-y,1/2+z
1/2+x,1/2+y,z
1/2-x,1/2+y,1/2-z
1/2-x,1/2-y,-z
1/2+x,1/2-y,1/2+z
loop_
_atom_site_type_symbol
_atom_site_label
_atom_site_fract_x
_atom_site_fract_y
_atom_site_fract_z
Si Si1 0.151112 0.516204 0.398355
Si Si2 0.500000 0.028556 0.750000
Si Si3 0.088723 0.733234 0.036033
Si Si4 0.480835 0.320443 0.076454
Si Si5 0.395994 0.604945 0.807304
Si Si6 0.881439 0.116023 0.450600
Si Si7 0.459581 0.077479 0.891898
Si Si8 0.192540 0.208290 0.135887
O O1 0.500000 0.500000 0.500000
O O2 0.126365 0.574482 0.397835
O O3 0.048209 0.507075 0.311139
O O4 0.938138 0.481626 0.379743
O O5 0.801778 0.062829 0.823349
O O6 0.405186 0.708377 0.100577
O O7 0.166578 0.774333 0.101595
O O8 0.878512 0.692863 0.008028
O O9 0.885966 0.754637 0.932723
O O10 0.635470 0.342726 0.171624
O O11 0.485508 0.362128 0.034099
O O12 0.753828 0.594709 0.886685
O O13 0.168027 0.604179 0.695506
O O14 0.743682 0.155398 0.372550
O O15 0.186365 0.093389 0.503599
O O16 0.500000 0.225177 0.250000
#
# Coordination Sequence:
#
# PCOD8131512 Si02
#       8
#     8   4   8   8   8   8   8   8
#     4   9  18  34  54  79 113 150 185 230 284 325
#     4  10  20  34  54  82 114 146 192 242 274 340
#     4   9  21  41  58  85 117 144 191 245 289 349
#     4  10  19  37  60  82 115 148 186 245 289 341
#     4  10  18  33  56  83 115 147 193 234 291 334
#     4  10  20  36  58  79 116 153 190 231 281 344
#     4   9  19  34  53  85 118 149 186 242 279 342
#     4  10  21  41  61  82 114 151 191 233 294 352
#
# _framework density 20.252379000000001
#
# number of rings (size 3 to 8) (size 9 to 14) (size 15 to 20)
#    0.000    2.400    0.000    3.200    0.933    0.000 
#   14.400   12.667    5.867    0.000    0.000    0.000 
#    0.000    0.000    0.000    0.000    0.000    0.000 
#
# Total GULP energy -371790.365635 kJ/mol
# GULP energy per Si atom -12393.012188 kJ/mol
# Density = 2.020628 g / cm^3
# Si number density = 20.252379 Si / 1000 Ang^3
#
#
#
# Elastic Constant Matrix: (Units=GPa)
#
#
# Indices 1 2 3 4 5 6 
#
# 1 79.9868 23.2934 4.3074 0.0000 6.7497 -0.0001
# 2 23.2934 96.5896 21.2011 0.0000 -3.4905 0.0000
# 3 4.3074 21.2011 56.6759 -0.0008 7.7813 0.0002
# 4 0.0000 0.0000 -0.0008 18.4295 0.0002 5.0138
# 5 6.7497 -3.4905 7.7813 0.0002 12.6165 -0.0001
# 6 -0.0001 0.0000 0.0002 5.0138 -0.0001 21.1494
#
#
#
# Elastic Compliance Matrix: (Units=1/GPa)
#
#
# Indices 1 2 3 4 5 6 
#
# 1 0.014498 -0.004275 0.001884 0.000000 -0.010101 0.000000
# 2 -0.004275 0.013010 -0.005845 0.000000 0.009491 0.000000
# 3 0.001884 -0.005845 0.021902 0.000001 -0.016134 -0.000001
# 4 0.000000 0.000000 0.000001 0.058002 -0.000002 -0.013750
# 5 -0.010101 0.009491 -0.016134 -0.000002 0.097242 0.000001
# 6 0.000000 0.000000 -0.000001 -0.013750 0.000001 0.050542
#
#
# Mechanical properties :
#
#
# Convention : Reuss Voigt Hill
#
# Bulk Modulus (GPa) = 30.35922 36.76180 33.56051
# Shear Modulus (GPa) = 17.68991 22.73576 20.21283
#
# Velocity S-wave (km/s) = 2.95866 3.35419 3.16262
# Velocity P-wave (km/s) = 5.16668 5.76125 5.47205
#
# Compressibility (1/GPa) = 0.03293892
#
# Stress axis : x y z
#
# Youngs Moduli (GPa) = 68.97558 76.86434 45.65690
#
# Poissons Ratio (x) = 0.32858 -0.08602
# Poissons Ratio (y) = 0.29486 0.26686
# Poissons Ratio (z) = -0.12996 0.44927
#
# Static dielectric constant tensor:
#      x y z
#    x 3.856940 0.000000 -0.040270 
#    y 0.000000 3.529190 0.000010 
#    z -0.040270 0.000010 3.289380 
# 
# 
# High freq. dielectric constant tensor:
#      x y z
#    x 1.792580 0.000000 -0.005320 
#    y 0.000000 1.791440 0.000000 
#    z -0.005320 0.000000 1.765690 
# 
# From -- ./inp_files/290308.got.cif
#   From: 2010.06.25/outbox.cif.g09.slc.cpg/sg15_146_cif.got.tgz:290308.got - 2010.06.28 07:06:18.
