data_PCOD8131374
_publ_section_title
;
Structure prediction by ZEFSAII (Michael W. Deem and Ramdas Pophale) SiO2 
 PCOD8131374
Probable space group: C 2/C
;
_chemical_formula_sum "Si O2"
_cell_formula_units_Z 60
_cell_length_a 11.818927
_cell_length_b 22.730433
_cell_length_c 21.374127
_cell_angle_alpha 90.000000
_cell_angle_beta 147.507764
_cell_angle_gamma 90.000000
_cell_volume 3084.595912
_symmetry_space_group_name_H-M "C 2/C"
_symmetry_group_IT_number 15
_symmetry_cell_setting 'monoclinic'
loop_
_space_group_symop_operation_xyz
x,y,z
-x,y,1/2-z
-x,-y,-z
x,-y,1/2+z
1/2+x,1/2+y,z
1/2-x,1/2+y,1/2-z
1/2-x,1/2-y,-z
1/2+x,1/2-y,1/2+z
loop_
_atom_site_type_symbol
_atom_site_label
_atom_site_fract_x
_atom_site_fract_y
_atom_site_fract_z
Si Si1 0.821900 0.596573 0.291538
Si Si2 0.983066 0.521783 0.921536
Si Si3 0.942604 0.689539 0.027697
Si Si4 0.060102 0.068014 0.997643
Si Si5 0.790742 0.134351 0.691480
Si Si6 0.411699 0.459233 0.557825
Si Si7 0.475359 0.315413 0.087293
Si Si8 0.000000 0.412962 0.750000
O O1 0.574590 0.583128 0.170128
O O2 0.919360 0.624283 0.272662
O O3 0.931978 0.533925 0.354702
O O4 0.870874 0.643484 0.368520
O O5 0.807419 0.572028 0.835055
O O6 0.199912 0.549408 0.997924
O O7 0.000000 0.500000 0.000000
O O8 0.029614 0.755535 0.075497
O O9 0.869593 0.674654 0.923390
O O10 0.749744 0.683432 0.984928
O O11 0.036674 0.135861 0.971443
O O12 0.018045 0.028525 0.915232
O O13 0.294150 0.050150 0.132612
O O14 0.891970 0.057411 0.974897
O O15 0.841549 0.171827 0.777147
O O16 0.000000 0.119960 0.750000
#
# Coordination Sequence:
#
# PCOD8131374 Si02
#       8
#     8   8   8   8   8   8   8   4
#     4  11  21  36  59  88 123 156 199 248 300 358
#     4  12  23  37  61  85 127 160 194 250 296 375
#     4  10  20  38  58  92 122 151 204 253 304 352
#     4  10  19  38  57  88 124 151 199 250 293 357
#     4  10  23  39  59  89 120 155 197 252 304 360
#     4  10  23  36  58  91 119 161 195 243 306 363
#     4  10  20  37  63  86 120 158 202 255 303 348
#     4  10  18  32  60  80 124 152 188 254 290 336
#
# _framework density 19.451495999999999
#
# number of rings (size 3 to 8) (size 9 to 14) (size 15 to 20)
#    0.000    1.600    4.000    0.800    3.733    2.133 
#    2.400    0.000    0.000    4.800    0.000    0.000 
#    0.000    0.000    0.000    0.000    0.000    0.000 
#
# Total GULP energy -371771.722265 kJ/mol
# GULP energy per Si atom -12392.390742 kJ/mol
# Density = 1.940722 g / cm^3
# Si number density = 19.451496 Si / 1000 Ang^3
#
#
#
# Elastic Constant Matrix: (Units=GPa)
#
#
# Indices 1 2 3 4 5 6 
#
# 1 85.4525 25.8070 39.0986 -0.0025 3.7614 -0.0002
# 2 25.8070 142.6322 61.8318 0.0008 -3.8481 -0.0003
# 3 39.0986 61.8318 112.0154 -0.0105 -8.6978 0.0031
# 4 -0.0025 0.0008 -0.0105 29.0276 -0.0010 0.0660
# 5 3.7614 -3.8481 -8.6978 -0.0010 20.8706 0.0003
# 6 -0.0002 -0.0003 0.0031 0.0660 0.0003 18.1864
#
#
#
# Elastic Compliance Matrix: (Units=1/GPa)
#
#
# Indices 1 2 3 4 5 6 
#
# 1 0.014414 -0.000519 -0.005120 -0.000001 -0.004827 0.000001
# 2 -0.000519 0.009239 -0.004939 -0.000002 -0.000261 0.000001
# 3 -0.005120 -0.004939 0.013891 0.000005 0.005801 -0.000003
# 4 -0.000001 -0.000002 0.000005 0.034450 0.000003 -0.000125
# 5 -0.004827 -0.000261 0.005801 0.000003 0.051154 -0.000002
# 6 0.000001 0.000001 -0.000003 -0.000125 -0.000002 0.054987
#
#
# Mechanical properties :
#
#
# Convention : Reuss Voigt Hill
#
# Bulk Modulus (GPa) = 61.01602 65.95276 63.48439
# Shear Modulus (GPa) = 24.41970 27.84108 26.13039
#
# Velocity S-wave (km/s) = 3.54703 3.78737 3.66917
# Velocity P-wave (km/s) = 6.94346 7.28735 7.11748
#
# Compressibility (1/GPa) = 0.01638914
#
# Stress axis : x y z
#
# Youngs Moduli (GPa) = 69.37687 108.23720 71.98862
#
# Poissons Ratio (x) = 0.05616 0.36855
# Poissons Ratio (y) = 0.03600 0.35555
# Poissons Ratio (z) = 0.35518 0.53459
#
# Static dielectric constant tensor:
#      x y z
#    x 3.403740 0.000000 -0.158160 
#    y 0.000000 3.548530 -0.000010 
#    z -0.158160 -0.000010 3.720310 
# 
# 
# High freq. dielectric constant tensor:
#      x y z
#    x 1.739300 0.000000 -0.017590 
#    y 0.000000 1.740400 0.000000 
#    z -0.017590 0.000000 1.762640 
# 
# From -- ./inp_files/240872.got.cif
#   From: 2010.06.25/outbox.cif.g09.slc.cpg/sg15_121_cif.got.tgz:240872.got - 2010.06.28 07:06:18.
