data_PCOD8131004
_publ_section_title
;
Structure prediction by ZEFSAII (Michael W. Deem and Ramdas Pophale) SiO2 
 PCOD8131004
Probable space group: C 2/C
;
_chemical_formula_sum "Si O2"
_cell_formula_units_Z 60
_cell_length_a 10.942713
_cell_length_b 15.153477
_cell_length_c 19.840673
_cell_angle_alpha 90.000000
_cell_angle_beta 121.413222
_cell_angle_gamma 90.000000
_cell_volume 2807.772291
_symmetry_space_group_name_H-M "C 2/C"
_symmetry_group_IT_number 15
_symmetry_cell_setting 'monoclinic'
loop_
_space_group_symop_operation_xyz
x,y,z
-x,y,1/2-z
-x,-y,-z
x,-y,1/2+z
1/2+x,1/2+y,z
1/2-x,1/2+y,1/2-z
1/2-x,1/2-y,-z
1/2+x,1/2-y,1/2+z
loop_
_atom_site_type_symbol
_atom_site_label
_atom_site_fract_x
_atom_site_fract_y
_atom_site_fract_z
Si Si1 0.000000 0.559151 0.250000
Si Si2 0.742098 0.053747 0.828015
Si Si3 0.166388 0.337413 0.176375
Si Si4 0.071895 0.795605 0.086642
Si Si5 0.917145 0.768331 0.556917
Si Si6 0.591694 0.613757 0.839201
Si Si7 0.031738 0.933122 0.665358
Si Si8 0.788561 0.332100 0.780080
O O1 0.892223 0.495401 0.176708
O O2 0.912366 0.614146 0.278639
O O3 0.692131 0.086724 0.739011
O O4 0.795122 0.136734 0.886184
O O5 0.869114 0.982157 0.861021
O O6 0.241153 0.368185 0.127661
O O7 0.245981 0.248234 0.220228
O O8 0.998817 0.314029 0.116240
O O9 0.142219 0.703520 0.131111
O O10 0.957799 0.836518 0.106656
O O11 0.005651 0.780315 0.994011
O O12 0.750000 0.750000 0.500000
O O13 0.935195 0.858004 0.603998
O O14 0.500000 0.652186 0.750000
O O15 0.571199 0.507933 0.834050
O O16 0.143697 0.889801 0.752331
#
# Coordination Sequence:
#
# PCOD8131004 Si02
#       8
#     4   8   8   8   8   8   8   8
#     4  10  18  30  60  94 122 140 200 272 304 342
#     4   9  19  35  62  93 114 158 203 266 306 354
#     4  10  20  40  63  87 125 160 209 257 308 361
#     4  10  21  38  60  88 123 167 206 246 318 375
#     4  11  26  43  56  86 135 176 203 242 313 396
#     4  11  18  36  67  93 116 151 212 277 308 351
#     4   9  20  37  61  88 117 156 208 255 305 364
#     4   9  17  35  59  91 115 156 208 260 293 360
#
# _framework density 21.369254000000002
#
# number of rings (size 3 to 8) (size 9 to 14) (size 15 to 20)
#    0.000    2.133    4.000    0.800    1.867    3.733 
#    0.000    2.000    0.000    0.000    0.000    0.000 
#    0.000    0.000    0.000    0.000    0.000    0.000 
#
# Total GULP energy -371710.854867 kJ/mol
# GULP energy per Si atom -12390.361829 kJ/mol
# Density = 2.132062 g / cm^3
# Si number density = 21.369254 Si / 1000 Ang^3
#
#
#
# Elastic Constant Matrix: (Units=GPa)
#
#
# Indices 1 2 3 4 5 6 
#
# 1 80.2619 28.6738 15.6780 0.0000 21.8071 0.0000
# 2 28.6738 85.4332 13.9146 0.0000 13.0524 0.0000
# 3 15.6780 13.9146 63.8689 0.0000 1.1338 0.0000
# 4 0.0000 0.0000 0.0000 18.5561 0.0000 5.7108
# 5 21.8071 13.0524 1.1338 0.0000 32.2826 0.0000
# 6 0.0000 0.0000 0.0000 5.7108 0.0000 36.6538
#
#
#
# Elastic Compliance Matrix: (Units=1/GPa)
#
#
# Indices 1 2 3 4 5 6 
#
# 1 0.017113 -0.003699 -0.003218 0.000000 -0.009951 0.000000
# 2 -0.003699 0.013733 -0.002031 0.000000 -0.002982 0.000000
# 3 -0.003218 -0.002031 0.016847 0.000000 0.002403 0.000000
# 4 0.000000 0.000000 0.000000 0.056605 0.000000 -0.008819
# 5 -0.009951 -0.002982 0.002403 0.000000 0.038820 0.000000
# 6 0.000000 0.000000 0.000000 -0.008819 0.000000 0.028656
#
#
# Mechanical properties :
#
#
# Convention : Reuss Voigt Hill
#
# Bulk Modulus (GPa) = 33.56108 38.45522 36.00815
# Shear Modulus (GPa) = 25.04973 28.91833 26.98403
#
# Velocity S-wave (km/s) = 3.42750 3.68267 3.55737
# Velocity P-wave (km/s) = 5.60385 6.00978 5.81036
#
# Compressibility (1/GPa) = 0.02979642
#
# Stress axis : x y z
#
# Youngs Moduli (GPa) = 58.43455 72.81721 59.35827
#
# Poissons Ratio (x) = 0.26936 0.19103
# Poissons Ratio (y) = 0.21616 0.12055
# Poissons Ratio (z) = 0.18806 0.14789
#
# Static dielectric constant tensor:
#      x y z
#    x 3.854870 0.000000 0.132430 
#    y 0.000000 4.220900 0.000000 
#    z 0.132430 0.000000 3.645060 
# 
# 
# High freq. dielectric constant tensor:
#      x y z
#    x 1.838880 0.000000 0.006970 
#    y 0.000000 1.854980 0.000000 
#    z 0.006970 0.000000 1.795190 
# 
# From -- ./inp_files/238797.got.cif
#   From: 2010.06.25/outbox.cif.g09.slc.cpg/sg15_120_cif.got.tgz:238797.got - 2010.06.28 07:06:18.
