data_PCOD8131041
_publ_section_title
;
Structure prediction by ZEFSAII (Michael W. Deem and Ramdas Pophale) SiO2 
 PCOD8131041
Probable space group: C 2/C
;
_chemical_formula_sum "Si O2"
_cell_formula_units_Z 48
_cell_length_a 23.964047
_cell_length_b 17.784738
_cell_length_c 5.239875
_cell_angle_alpha 90.000000
_cell_angle_beta 94.055089
_cell_angle_gamma 90.000000
_cell_volume 2227.614059
_symmetry_space_group_name_H-M "C 2/C"
_symmetry_group_IT_number 15
_symmetry_cell_setting 'monoclinic'
loop_
_space_group_symop_operation_xyz
x,y,z
-x,y,1/2-z
-x,-y,-z
x,-y,1/2+z
1/2+x,1/2+y,z
1/2-x,1/2+y,1/2-z
1/2-x,1/2-y,-z
1/2+x,1/2-y,1/2+z
loop_
_atom_site_type_symbol
_atom_site_label
_atom_site_fract_x
_atom_site_fract_y
_atom_site_fract_z
Si Si1 0.752116 0.823996 0.844584
Si Si2 0.066362 0.543507 0.271454
Si Si3 0.734730 0.472844 0.381261
Si Si4 0.111419 0.037046 0.279464
Si Si5 0.371173 0.197582 0.231457
Si Si6 0.134049 0.205744 0.288349
O O1 0.689718 0.838980 0.722010
O O2 0.799757 0.814011 0.642729
O O3 0.750000 0.750000 0.000000
O O4 0.773040 0.886389 0.053275
O O5 0.088805 0.499199 0.527204
O O6 0.086576 0.629222 0.286496
O O7 0.000000 0.546289 0.250000
O O8 0.767623 0.516769 0.621921
O O9 0.677232 0.516138 0.289848
O O10 0.101194 0.126646 0.263209
O O11 0.083088 0.002007 0.523155
O O12 0.389472 0.248026 0.479111
O O13 0.373278 0.247905 0.976296
#
# Coordination Sequence:
#
# PCOD8131041 Si02
#       6
#     8   8   8   8   8   8
#     4  10  22  34  50  75 116 162 188 236 291 337
#     4  10  22  44  69  90 117 152 197 258 315 360
#     4  10  20  31  48  66  93 144 199 229 253 321
#     4  10  18  31  51  68 101 151 197 224 258 318
#     4  11  24  36  56  85 115 148 195 240 298 363
#     4  11  21  36  52  79 122 154 192 238 287 344
#
# _framework density 21.547720000000002
#
# number of rings (size 3 to 8) (size 9 to 14) (size 15 to 20)
#    0.000    1.667    3.333    2.500    7.000    4.000 
#    0.000    0.000    0.000    0.000    0.000    0.000 
#    0.000   13.333    0.000    0.000    0.000    0.000 
#
# Total GULP energy -297385.713279 kJ/mol
# GULP energy per Si atom -12391.071387 kJ/mol
# Density = 2.149868 g / cm^3
# Si number density = 21.547720 Si / 1000 Ang^3
#
#
#
# Elastic Constant Matrix: (Units=GPa)
#
#
# Indices 1 2 3 4 5 6 
#
# 1 10.8317 14.5386 14.0906 0.0000 -1.3051 0.0000
# 2 14.5386 160.2450 57.9107 0.0000 -3.9123 0.0000
# 3 14.0906 57.9107 181.1694 0.0000 -7.4101 0.0000
# 4 0.0000 0.0000 0.0000 45.9421 0.0000 -4.2156
# 5 -1.3051 -3.9123 -7.4101 0.0000 9.9815 0.0000
# 6 0.0000 0.0000 0.0000 -4.2156 0.0000 27.1090
#
#
#
# Elastic Compliance Matrix: (Units=1/GPa)
#
#
# Indices 1 2 3 4 5 6 
#
# 1 0.111288 -0.007801 -0.005870 0.000000 0.007136 0.000000
# 2 -0.007801 0.007615 -0.001802 0.000000 0.000627 0.000000
# 3 -0.005870 -0.001802 0.006695 0.000000 0.003497 0.000000
# 4 0.000000 0.000000 0.000000 0.022082 0.000000 0.003434
# 5 0.007136 0.000627 0.003497 0.000000 0.103960 0.000000
# 6 0.000000 0.000000 0.000000 0.003434 0.000000 0.037422
#
#
# Mechanical properties :
#
#
# Convention : Reuss Voigt Hill
#
# Bulk Modulus (GPa) = 10.56500 58.36955 34.46727
# Shear Modulus (GPa) = 14.22239 34.32028 24.27133
#
# Velocity S-wave (km/s) = 2.57191 3.99527 3.35983
# Velocity P-wave (km/s) = 3.70586 6.95918 5.57510
#
# Compressibility (1/GPa) = 0.09465216
#
# Stress axis : x y z
#
# Youngs Moduli (GPa) = 8.98568 131.32617 149.36216
#
# Poissons Ratio (x) = 1.02452 0.87675
# Poissons Ratio (y) = 0.07010 0.26909
# Poissons Ratio (z) = 0.05275 0.23660
#
# Static dielectric constant tensor:
#      x y z
#    x 3.798580 0.000000 -0.084550 
#    y 0.000000 3.989290 0.000000 
#    z -0.084550 0.000000 4.503470 
# 
# 
# High freq. dielectric constant tensor:
#      x y z
#    x 1.771400 0.000000 -0.009190 
#    y 0.000000 1.868740 0.000000 
#    z -0.009190 0.000000 1.866560 
# 
# From -- ./inp_files/15331.got.cif
#   From: 2010.06.25/outbox.cif.g09.slc.cpg/sg15_8_cif.got.tgz:15331.got - 2010.06.28 07:06:18.
