data_PCOD8131199
_publ_section_title
;
Structure prediction by ZEFSAII (Michael W. Deem and Ramdas Pophale) SiO2 
 PCOD8131199
Probable space group: C 2/C
;
_chemical_formula_sum "Si O2"
_cell_formula_units_Z 64
_cell_length_a 17.068431
_cell_length_b 29.867491
_cell_length_c 8.947016
_cell_angle_alpha 90.000000
_cell_angle_beta 58.447981
_cell_angle_gamma 90.000000
_cell_volume 3886.820378
_symmetry_space_group_name_H-M "C 2/C"
_symmetry_group_IT_number 15
_symmetry_cell_setting 'monoclinic'
loop_
_space_group_symop_operation_xyz
x,y,z
-x,y,1/2-z
-x,-y,-z
x,-y,1/2+z
1/2+x,1/2+y,z
1/2-x,1/2+y,1/2-z
1/2-x,1/2-y,-z
1/2+x,1/2-y,1/2+z
loop_
_atom_site_type_symbol
_atom_site_label
_atom_site_fract_x
_atom_site_fract_y
_atom_site_fract_z
Si Si1 0.806297 0.708072 0.262537
Si Si2 0.312712 0.794412 0.110007
Si Si3 0.501945 0.780437 0.414816
Si Si4 0.101052 0.953995 0.469991
Si Si5 0.680609 0.360353 0.390035
Si Si6 0.994745 0.177094 0.090863
Si Si7 0.313164 0.635944 0.262950
Si Si8 0.607303 0.456226 0.812059
O O1 0.740462 0.749613 0.278626
O O2 0.816952 0.706461 0.428422
O O3 0.768877 0.660343 0.241762
O O4 0.905841 0.713191 0.091952
O O5 0.415365 0.800132 0.070142
O O6 0.264198 0.839629 0.214925
O O7 0.500000 0.802012 0.250000
O O8 0.525119 0.728807 0.376007
O O9 0.166962 0.912440 0.363023
O O10 0.103137 0.963957 0.641469
O O11 0.995441 0.943940 0.525200
O O12 0.142253 0.997638 0.348635
O O13 0.591127 0.333794 0.416142
O O14 0.696363 0.353099 0.551307
O O15 0.907477 0.155294 0.097112
O O16 0.000000 0.154082 0.250000
O O17 0.318238 0.582723 0.225252
#
# Coordination Sequence:
#
# PCOD8131199 Si02
#       8
#     8   8   8   8   8   8   8   8
#     4  11  23  35  48  72 105 134 163 207 258 300
#     4  11  23  35  48  72 105 134 163 207 258 300
#     4  11  21  35  55  72  93 133 177 212 244 289
#     4   9  17  29  47  71 101 132 165 207 250 294
#     4  10  18  32  51  72  97 134 178 210 240 290
#     4   9  16  27  48  72  96 127 170 213 239 272
#     4  10  18  32  51  72  97 134 178 210 240 290
#     4   9  17  29  47  71 101 132 165 207 250 294
#
# _framework density 16.465902
#
# number of rings (size 3 to 8) (size 9 to 14) (size 15 to 20)
#    0.000    2.000    3.750    1.125    0.000    2.000 
#    0.000    0.625    0.000    0.000    0.000    0.875 
#    0.000    0.000    0.000    0.000    0.000    0.000 
#
# Total GULP energy -396643.774603 kJ/mol
# GULP energy per Si atom -12395.117956 kJ/mol
# Density = 1.642842 g / cm^3
# Si number density = 16.465902 Si / 1000 Ang^3
#
#
#
# Elastic Constant Matrix: (Units=GPa)
#
#
# Indices 1 2 3 4 5 6 
#
# 1 85.4195 32.1549 33.3146 0.0000 -5.0522 0.0000
# 2 32.1549 89.3225 33.8405 0.0000 2.7892 0.0000
# 3 33.3146 33.8405 73.7138 0.0000 -9.2962 0.0000
# 4 0.0000 0.0000 0.0000 25.6777 0.0000 1.7013
# 5 -5.0522 2.7892 -9.2962 0.0000 20.1882 0.0000
# 6 0.0000 0.0000 0.0000 1.7013 0.0000 24.1738
#
#
#
# Elastic Compliance Matrix: (Units=1/GPa)
#
#
# Indices 1 2 3 4 5 6 
#
# 1 0.015110 -0.003647 -0.004899 0.000000 0.002029 0.000000
# 2 -0.003647 0.014931 -0.005926 0.000000 -0.005704 0.000000
# 3 -0.004899 -0.005926 0.019587 0.000000 0.008612 0.000000
# 4 0.000000 0.000000 0.000000 0.039127 0.000000 -0.002754
# 5 0.002029 -0.005704 0.008612 0.000000 0.054796 0.000000
# 6 0.000000 0.000000 0.000000 -0.002754 0.000000 0.041561
#
#
# Mechanical properties :
#
#
# Convention : Reuss Voigt Hill
#
# Bulk Modulus (GPa) = 48.34438 49.67510 49.00974
# Shear Modulus (GPa) = 22.62954 23.95098 23.29026
#
# Velocity S-wave (km/s) = 3.71121 3.81803 3.76500
# Velocity P-wave (km/s) = 6.91290 7.04773 6.98064
#
# Compressibility (1/GPa) = 0.02068493
#
# Stress axis : x y z
#
# Youngs Moduli (GPa) = 66.17945 66.97283 51.05547
#
# Poissons Ratio (x) = 0.24425 0.25012
# Poissons Ratio (y) = 0.24135 0.30255
# Poissons Ratio (z) = 0.32421 0.39687
#
# Static dielectric constant tensor:
#      x y z
#    x 3.031730 0.000000 0.036250 
#    y 0.000000 3.073330 0.000000 
#    z 0.036250 0.000000 2.979940 
# 
# 
# High freq. dielectric constant tensor:
#      x y z
#    x 1.615000 0.000000 0.004870 
#    y 0.000000 1.624320 0.000000 
#    z 0.004870 0.000000 1.621770 
# 
# From -- ./inp_files/43501.got.cif
#   From: 2010.06.25/outbox.cif.g09.slc.cpg/sg15_22_cif.got.tgz:43501.got - 2010.06.28 07:06:18.
