data_PCOD8131777
_publ_section_title
;
Structure prediction by ZEFSAII (Michael W. Deem and Ramdas Pophale) SiO2 
 PCOD8131777
Probable space group: C 2/C
;
_chemical_formula_sum "Si O2"
_cell_formula_units_Z 56
_cell_length_a 15.564510
_cell_length_b 13.712083
_cell_length_c 18.876234
_cell_angle_alpha 90.000000
_cell_angle_beta 138.296339
_cell_angle_gamma 90.000000
_cell_volume 2680.139753
_symmetry_space_group_name_H-M "C 2/C"
_symmetry_group_IT_number 15
_symmetry_cell_setting 'monoclinic'
loop_
_space_group_symop_operation_xyz
x,y,z
-x,y,1/2-z
-x,-y,-z
x,-y,1/2+z
1/2+x,1/2+y,z
1/2-x,1/2+y,1/2-z
1/2-x,1/2-y,-z
1/2+x,1/2-y,1/2+z
loop_
_atom_site_type_symbol
_atom_site_label
_atom_site_fract_x
_atom_site_fract_y
_atom_site_fract_z
Si Si1 0.500000 0.023203 0.250000
Si Si2 0.284554 0.719519 0.116976
Si Si3 0.368848 0.289309 0.817934
Si Si4 0.568464 0.850158 0.392296
Si Si5 0.705372 0.186778 0.348833
Si Si6 0.565869 0.588496 0.942421
Si Si7 0.097910 0.105347 0.528129
Si Si8 0.000000 0.153976 0.750000
O O1 0.617155 0.089792 0.294752
O O2 0.546654 0.954217 0.342978
O O3 0.327353 0.669356 0.215752
O O4 0.404454 0.757983 0.143867
O O5 0.193312 0.642049 0.020444
O O6 0.210727 0.818468 0.090846
O O7 0.438433 0.182658 0.853897
O O8 0.245137 0.286375 0.792896
O O9 0.466216 0.367115 0.908693
O O10 0.832644 0.175681 0.477174
O O11 0.626843 0.279591 0.327097
O O12 0.643714 0.491968 0.015510
O O13 0.519833 0.587676 0.832301
O O14 0.434880 0.593445 0.908841
#
# Coordination Sequence:
#
# PCOD8131777 Si02
#       8
#     4   8   8   8   8   8   8   4
#     4  11  20  40  57  88 114 158 199 242 294 365
#     4  10  18  34  58  87 119 152 192 251 302 349
#     4  10  19  37  57  86 118 154 195 243 298 361
#     4  10  20  33  59  88 113 155 200 243 296 359
#     4  10  23  38  62  81 120 156 196 242 302 354
#     4  10  20  39  58  85 117 155 202 238 296 356
#     4   9  20  35  58  87 119 155 192 244 297 356
#     4  11  22  40  59  88 110 156 199 250 284 359
#
# _framework density 20.894432999999999
#
# number of rings (size 3 to 8) (size 9 to 14) (size 15 to 20)
#    0.000    2.000    1.429    2.143    0.000    0.000 
#   12.857    0.714    0.000    0.000    0.000    0.000 
#    0.000    0.000    0.000    0.000    0.000    0.000 
#
# Total GULP energy -347052.825876 kJ/mol
# GULP energy per Si atom -12394.743781 kJ/mol
# Density = 2.084688 g / cm^3
# Si number density = 20.894433 Si / 1000 Ang^3
#
#
#
# Elastic Constant Matrix: (Units=GPa)
#
#
# Indices 1 2 3 4 5 6 
#
# 1 111.5288 38.5676 36.8593 0.0000 -13.6330 0.0000
# 2 38.5676 60.2072 12.1434 0.0000 -1.9560 0.0000
# 3 36.8593 12.1434 102.3057 0.0000 -29.7430 0.0000
# 4 0.0000 0.0000 0.0000 17.4580 0.0000 -4.0186
# 5 -13.6330 -1.9560 -29.7430 0.0000 37.2971 0.0000
# 6 0.0000 0.0000 0.0000 -4.0186 0.0000 26.4233
#
#
#
# Elastic Compliance Matrix: (Units=1/GPa)
#
#
# Indices 1 2 3 4 5 6 
#
# 1 0.012847 -0.007521 -0.003235 0.000000 0.001721 0.000000
# 2 -0.007521 0.021445 -0.000401 0.000000 -0.001944 0.000000
# 3 -0.003235 -0.000401 0.013849 0.000000 0.009840 0.000000
# 4 0.000000 0.000000 0.000000 0.059358 0.000000 0.009027
# 5 0.001721 -0.001944 0.009840 0.000000 0.035186 0.000000
# 6 0.000000 0.000000 0.000000 0.009027 0.000000 0.039218
#
#
# Mechanical properties :
#
#
# Convention : Reuss Voigt Hill
#
# Bulk Modulus (GPa) = 38.72117 49.90917 44.31517
# Shear Modulus (GPa) = 23.49337 28.66710 26.08024
#
# Velocity S-wave (km/s) = 3.35682 3.70807 3.53681
# Velocity P-wave (km/s) = 5.79624 6.50163 6.15904
#
# Compressibility (1/GPa) = 0.02582567
#
# Stress axis : x y z
#
# Youngs Moduli (GPa) = 77.84067 46.63143 72.20894
#
# Poissons Ratio (x) = 0.35071 0.23362
# Poissons Ratio (y) = 0.58543 0.02896
# Poissons Ratio (z) = 0.25184 0.01870
#
# Static dielectric constant tensor:
#      x y z
#    x 4.163640 0.000000 -0.065330 
#    y 0.000000 3.490370 0.000000 
#    z -0.065330 0.000000 3.825370 
# 
# 
# High freq. dielectric constant tensor:
#      x y z
#    x 1.828870 0.000000 0.005610 
#    y 0.000000 1.788080 0.000000 
#    z 0.005610 0.000000 1.822530 
# 
# From -- ./inp_files/205522.got.cif
#   From: 2010.06.25/outbox.cif.g09.slc.cpg/sg15_103_cif.got.tgz:205522.got - 2010.06.28 07:06:18.
