data_PCOD8131927
_publ_section_title
;
Structure prediction by ZEFSAII (Michael W. Deem and Ramdas Pophale) SiO2 
 PCOD8131927
Probable space group: C 2/C
;
_chemical_formula_sum "Si O2"
_cell_formula_units_Z 52
_cell_length_a 20.584607
_cell_length_b 15.755753
_cell_length_c 17.912844
_cell_angle_alpha 90.000000
_cell_angle_beta 153.647255
_cell_angle_gamma 90.000000
_cell_volume 2578.860189
_symmetry_space_group_name_H-M "C 2/C"
_symmetry_group_IT_number 15
_symmetry_cell_setting 'monoclinic'
loop_
_space_group_symop_operation_xyz
x,y,z
-x,y,1/2-z
-x,-y,-z
x,-y,1/2+z
1/2+x,1/2+y,z
1/2-x,1/2+y,1/2-z
1/2-x,1/2-y,-z
1/2+x,1/2-y,1/2+z
loop_
_atom_site_type_symbol
_atom_site_label
_atom_site_fract_x
_atom_site_fract_y
_atom_site_fract_z
Si Si1 0.628333 0.653908 0.667966
Si Si2 0.323422 0.661169 0.556700
Si Si3 0.692876 0.686711 0.124722
Si Si4 0.704426 0.519992 0.860441
Si Si5 0.281085 0.145100 0.373465
Si Si6 0.047578 0.192541 0.428108
Si Si7 0.000000 0.088435 0.250000
O O1 0.477520 0.697530 0.535384
O O2 0.753654 0.716389 0.826413
O O3 0.645024 0.562528 0.723348
O O4 0.632264 0.644292 0.582431
O O5 0.500000 0.663304 0.750000
O O6 0.250000 0.750000 0.500000
O O7 0.285438 0.638043 0.431705
O O8 0.241866 0.591577 0.525711
O O9 0.773660 0.636473 0.275278
O O10 0.817326 0.446729 0.948790
O O11 0.575395 0.471820 0.768555
O O12 0.411831 0.207978 0.530617
O O13 0.127873 0.183673 0.245340
O O14 0.101438 0.149743 0.405866
#
# Coordination Sequence:
#
# PCOD8131927 Si02
#       7
#     8   8   8   8   8   8   4
#     4  10  19  34  57  78 108 139 188 216 269 324
#     4  12  21  35  58  84 115 146 178 223 276 324
#     4  10  18  35  55  80 105 149 176 219 273 331
#     4  11  20  33  54  86 108 140 185 235 254 325
#     4   9  21  36  60  78 108 142 189 220 270 323
#     4   9  20  36  57  81 105 148 178 223 276 328
#     4  10  20  34  58  80 112 136 184 230 276 312
#
# _framework density 20.163945999999999
#
# number of rings (size 3 to 8) (size 9 to 14) (size 15 to 20)
#    0.000    1.846    3.846    0.000    0.000    9.231 
#    0.000    0.000    5.077   18.462    0.000    0.000 
#    0.000    0.000    0.000    0.000    0.000    0.000 
#
# Total GULP energy -322117.099070 kJ/mol
# GULP energy per Si atom -12389.119195 kJ/mol
# Density = 2.011805 g / cm^3
# Si number density = 20.163946 Si / 1000 Ang^3
#
#
#
# Elastic Constant Matrix: (Units=GPa)
#
#
# Indices 1 2 3 4 5 6 
#
# 1 92.8407 78.6850 30.4329 0.0010 -34.1545 0.0009
# 2 78.6850 140.7669 49.6387 0.0008 -33.2683 0.0008
# 3 30.4329 49.6387 50.1785 0.0003 -18.4244 0.0002
# 4 0.0010 0.0008 0.0003 21.0800 0.0002 -6.9147
# 5 -34.1545 -33.2683 -18.4244 0.0002 29.4773 0.0001
# 6 0.0009 0.0008 0.0002 -6.9147 0.0001 47.7923
#
#
#
# Elastic Compliance Matrix: (Units=1/GPa)
#
#
# Indices 1 2 3 4 5 6 
#
# 1 0.026659 -0.010886 0.001857 -0.000001 0.019764 -0.000001
# 2 -0.010886 0.016685 -0.009890 0.000000 0.000036 0.000000
# 3 0.001857 -0.009890 0.032807 0.000000 0.011495 0.000000
# 4 -0.000001 0.000000 0.000000 0.049802 -0.000002 0.007205
# 5 0.019764 0.000036 0.011495 -0.000002 0.064050 -0.000001
# 6 -0.000001 0.000000 0.000000 0.007205 -0.000001 0.021966
#
#
# Mechanical properties :
#
#
# Convention : Reuss Voigt Hill
#
# Bulk Modulus (GPa) = 26.10041 66.81103 46.45572
# Shear Modulus (GPa) = 19.04195 28.00522 23.52358
#
# Velocity S-wave (km/s) = 3.07637 3.73081 3.41928
# Velocity P-wave (km/s) = 5.05875 7.19475 6.21914
#
# Compressibility (1/GPa) = 0.03831357
#
# Stress axis : x y z
#
# Youngs Moduli (GPa) = 37.51049 59.93509 30.48130
#
# Poissons Ratio (x) = 0.65243 -0.05660
# Poissons Ratio (y) = 0.40832 0.30146
# Poissons Ratio (z) = -0.06965 0.59275
#
# Static dielectric constant tensor:
#      x y z
#    x 4.548990 0.000000 -0.575330 
#    y 0.000000 3.882450 0.000000 
#    z -0.575330 0.000000 3.514140 
# 
# 
# High freq. dielectric constant tensor:
#      x y z
#    x 1.802730 0.000000 -0.032480 
#    y 0.000000 1.783290 0.000000 
#    z -0.032480 0.000000 1.750580 
# 
# From -- ./inp_files/61448.got.cif
#   From: 2010.06.25/outbox.cif.g09.slc.cpg/sg15_31_cif.got.tgz:61448.got - 2010.06.28 07:06:18.
