data_PCOD8131052
_publ_section_title
;
Structure prediction by ZEFSAII (Michael W. Deem and Ramdas Pophale) SiO2 
 PCOD8131052
Probable space group: C 2/C
;
_chemical_formula_sum "Si O2"
_cell_formula_units_Z 64
_cell_length_a 21.399740
_cell_length_b 8.261662
_cell_length_c 21.518488
_cell_angle_alpha 90.000000
_cell_angle_beta 109.246028
_cell_angle_gamma 90.000000
_cell_volume 3591.791613
_symmetry_space_group_name_H-M "C 2/C"
_symmetry_group_IT_number 15
_symmetry_cell_setting 'monoclinic'
loop_
_space_group_symop_operation_xyz
x,y,z
-x,y,1/2-z
-x,-y,-z
x,-y,1/2+z
1/2+x,1/2+y,z
1/2-x,1/2+y,1/2-z
1/2-x,1/2-y,-z
1/2+x,1/2-y,1/2+z
loop_
_atom_site_type_symbol
_atom_site_label
_atom_site_fract_x
_atom_site_fract_y
_atom_site_fract_z
Si Si1 0.213994 0.017287 0.963280
Si Si2 0.739202 0.169600 0.397664
Si Si3 0.799681 0.556787 0.234414
Si Si4 0.671776 0.836945 0.568991
Si Si5 0.651110 0.145149 0.642567
Si Si6 0.586673 0.590986 0.476889
Si Si7 0.827529 0.126469 0.816657
Si Si8 0.438028 0.422997 0.904401
O O1 0.206491 0.177520 0.919967
O O2 0.266065 0.888080 0.953307
O O3 0.139871 0.950868 0.941215
O O4 0.233051 0.050928 0.040956
O O5 0.688309 0.068000 0.336694
O O6 0.794002 0.232701 0.366702
O O7 0.837065 0.411153 0.282159
O O8 0.824620 0.729657 0.266595
O O9 0.721572 0.517590 0.220674
O O10 0.609271 0.767842 0.509591
O O11 0.696784 0.698327 0.624749
O O12 0.644024 0.990001 0.596558
O O13 0.582791 0.240888 0.619208
O O14 0.582743 0.461231 0.531511
O O15 0.516387 0.583615 0.419568
O O16 0.901941 0.053388 0.847045
#
# Coordination Sequence:
#
# PCOD8131052 Si02
#       8
#     8   8   8   8   8   8   8   8
#     4  10  19  33  54  79 112 134 172 218 257 328
#     4  10  18  31  53  84 105 135 168 216 273 309
#     4  11  18  30  54  80 106 134 171 221 276 298
#     4   9  20  31  52  83 107 133 171 216 267 312
#     4  10  18  32  51  82 111 129 172 223 262 310
#     4  10  19  33  52  76 107 147 169 211 269 314
#     4  10  18  31  51  83 105 130 173 222 266 308
#     4  10  19  33  52  76 111 136 177 216 260 320
#
# _framework density 17.818406
#
# number of rings (size 3 to 8) (size 9 to 14) (size 15 to 20)
#    0.000    2.000    3.750    1.125    0.000    0.500 
#    0.000    0.000    0.000    0.750    3.250    0.000 
#    0.000    0.000    0.000    0.000    0.000    0.000 
#
# Total GULP energy -396438.893097 kJ/mol
# GULP energy per Si atom -12388.715409 kJ/mol
# Density = 1.777785 g / cm^3
# Si number density = 17.818406 Si / 1000 Ang^3
#
#
#
# Elastic Constant Matrix: (Units=GPa)
#
#
# Indices 1 2 3 4 5 6 
#
# 1 102.3305 60.5846 54.4181 0.0000 20.6494 0.0000
# 2 60.5846 59.3858 40.1969 0.0000 12.7013 0.0000
# 3 54.4181 40.1969 102.9884 0.0000 10.8248 0.0000
# 4 0.0000 0.0000 0.0000 33.7087 0.0000 4.4802
# 5 20.6494 12.7013 10.8248 0.0000 25.9590 0.0000
# 6 0.0000 0.0000 0.0000 4.4802 0.0000 19.2034
#
#
#
# Elastic Compliance Matrix: (Units=1/GPa)
#
#
# Indices 1 2 3 4 5 6 
#
# 1 0.027892 -0.023411 -0.004678 0.000000 -0.008782 0.000000
# 2 -0.023411 0.044158 -0.004760 0.000000 -0.000998 0.000000
# 3 -0.004678 -0.004760 0.014018 0.000000 0.000204 0.000000
# 4 0.000000 0.000000 0.000000 0.030615 0.000000 -0.007143
# 5 -0.008782 -0.000998 0.000204 0.000000 0.045911 0.000000
# 6 0.000000 0.000000 0.000000 -0.007143 0.000000 0.053741
#
#
# Mechanical properties :
#
#
# Convention : Reuss Voigt Hill
#
# Bulk Modulus (GPa) = 49.08925 63.90043 56.49484
# Shear Modulus (GPa) = 17.31163 23.07455 20.19309
#
# Velocity S-wave (km/s) = 3.12037 3.60249 3.37006
# Velocity P-wave (km/s) = 6.37117 7.29684 6.84966
#
# Compressibility (1/GPa) = 0.02037106
#
# Stress axis : x y z
#
# Youngs Moduli (GPa) = 35.85213 22.64586 71.33789
#
# Poissons Ratio (x) = 0.53016 0.33369
# Poissons Ratio (y) = 0.83933 0.33958
# Poissons Ratio (z) = 0.16770 0.10780
#
# Static dielectric constant tensor:
#      x y z
#    x 2.975900 0.000000 0.108450 
#    y 0.000000 3.590570 0.000000 
#    z 0.108450 0.000000 3.525560 
# 
# 
# High freq. dielectric constant tensor:
#      x y z
#    x 1.640910 0.000000 0.011480 
#    y 0.000000 1.706850 0.000000 
#    z 0.011480 0.000000 1.690150 
# 
# From -- ./inp_files/251606.got.cif
#   From: 2010.06.25/outbox.cif.g09.slc.cpg/sg15_126_cif.got.tgz:251606.got - 2010.06.28 07:06:18.
