data_PCOD8131957
_publ_section_title
;
Structure prediction by ZEFSAII (Michael W. Deem and Ramdas Pophale) SiO2 
 PCOD8131957
Probable space group: C 2/C
;
_chemical_formula_sum "Si O2"
_cell_formula_units_Z 64
_cell_length_a 17.331108
_cell_length_b 9.239894
_cell_length_c 20.364541
_cell_angle_alpha 90.000000
_cell_angle_beta 85.494889
_cell_angle_gamma 90.000000
_cell_volume 3251.052929
_symmetry_space_group_name_H-M "C 2/C"
_symmetry_group_IT_number 15
_symmetry_cell_setting 'monoclinic'
loop_
_space_group_symop_operation_xyz
x,y,z
-x,y,1/2-z
-x,-y,-z
x,-y,1/2+z
1/2+x,1/2+y,z
1/2-x,1/2+y,1/2-z
1/2-x,1/2-y,-z
1/2+x,1/2-y,1/2+z
loop_
_atom_site_type_symbol
_atom_site_label
_atom_site_fract_x
_atom_site_fract_y
_atom_site_fract_z
Si Si1 0.790580 0.318826 0.186079
Si Si2 0.490646 0.765481 0.496611
Si Si3 0.684503 0.853250 0.780354
Si Si4 0.442442 0.677044 0.639635
Si Si5 0.947014 0.607059 0.308037
Si Si6 0.752162 0.838480 0.565715
Si Si7 0.092854 0.128646 0.385262
Si Si8 0.598036 0.010436 0.055116
O O1 0.758860 0.243649 0.255211
O O2 0.789583 0.491550 0.193418
O O3 0.736415 0.272945 0.127509
O O4 0.878017 0.259132 0.164843
O O5 0.461351 0.675896 0.560795
O O6 0.518325 0.667209 0.434207
O O7 0.564157 0.865463 0.509932
O O8 0.416155 0.857168 0.477946
O O9 0.633536 0.772827 0.838971
O O10 0.637897 0.871843 0.715433
O O11 0.514703 0.736797 0.676830
O O12 0.427651 0.509643 0.658700
O O13 0.948007 0.509627 0.372839
O O14 0.000000 0.527295 0.250000
O O15 0.750000 0.750000 0.500000
O O16 0.835509 0.914522 0.570984
O O17 0.687802 0.963604 0.564678
#
# Coordination Sequence:
#
# PCOD8131957 Si02
#       8
#     8   8   8   8   8   8   8   8
#     4  10  23  36  67  86 118 161 204 251 302 372
#     4  10  21  32  62  88 124 155 203 253 305 365
#     4  11  21  40  61  87 115 158 207 243 307 366
#     4  10  22  37  61  86 122 159 197 249 310 364
#     4   9  19  33  60  77 112 154 195 237 296 360
#     4  10  20  36  62  86 120 157 205 251 308 366
#     4  10  21  38  60  88 120 159 202 252 309 362
#     4  10  18  35  56  90 115 155 206 245 303 365
#
# _framework density 19.685929999999999
#
# number of rings (size 3 to 8) (size 9 to 14) (size 15 to 20)
#    0.750    1.250    2.500    1.125    8.750    0.000 
#    0.000    0.625   16.500    0.000    0.000    0.000 
#    0.000    0.000    0.000    0.000    0.000    0.000 
#
# Total GULP energy -396557.873337 kJ/mol
# GULP energy per Si atom -12392.433542 kJ/mol
# Density = 1.964112 g / cm^3
# Si number density = 19.685930 Si / 1000 Ang^3
#
#
#
# Elastic Constant Matrix: (Units=GPa)
#
#
# Indices 1 2 3 4 5 6 
#
# 1 59.2025 21.0095 17.4739 0.0000 -2.5169 0.0000
# 2 21.0095 85.3145 22.9511 0.0000 -6.0946 0.0000
# 3 17.4739 22.9511 71.8212 0.0000 -15.4423 0.0000
# 4 0.0000 0.0000 0.0000 27.0298 0.0000 -1.3372
# 5 -2.5169 -6.0946 -15.4423 0.0000 33.2576 0.0000
# 6 0.0000 0.0000 0.0000 -1.3372 0.0000 29.5630
#
#
#
# Elastic Compliance Matrix: (Units=1/GPa)
#
#
# Indices 1 2 3 4 5 6 
#
# 1 0.019295 -0.003831 -0.003674 0.000000 -0.000948 0.000000
# 2 -0.003831 0.013592 -0.003264 0.000000 0.000685 0.000000
# 3 -0.003674 -0.003264 0.017410 0.000000 0.007208 0.000000
# 4 0.000000 0.000000 0.000000 0.037079 0.000000 0.001677
# 5 -0.000948 0.000685 0.007208 0.000000 0.033469 0.000000
# 6 0.000000 0.000000 0.000000 0.001677 0.000000 0.033902
#
#
# Mechanical properties :
#
#
# Convention : Reuss Voigt Hill
#
# Bulk Modulus (GPa) = 34.77172 37.68971 36.23071
# Shear Modulus (GPa) = 26.90043 28.29698 27.59871
#
# Velocity S-wave (km/s) = 3.70060 3.79545 3.74833
# Velocity P-wave (km/s) = 5.99674 6.19631 6.09734
#
# Compressibility (1/GPa) = 0.02875901
#
# Stress axis : x y z
#
# Youngs Moduli (GPa) = 51.82759 73.57403 57.43790
#
# Poissons Ratio (x) = 0.28185 0.21102
# Poissons Ratio (y) = 0.19854 0.18748
# Poissons Ratio (z) = 0.19041 0.24014
#
# Static dielectric constant tensor:
#      x y z
#    x 3.577420 0.000000 -0.174210 
#    y 0.000000 3.264490 0.000000 
#    z -0.174210 0.000000 3.671570 
# 
# 
# High freq. dielectric constant tensor:
#      x y z
#    x 1.750830 0.000000 -0.017260 
#    y 0.000000 1.739540 0.000000 
#    z -0.017260 0.000000 1.776250 
# 
# From -- ./inp_files/276289.got.cif
#   From: 2010.06.25/outbox.cif.g09.slc.cpg/sg15_139_cif.got.tgz:276289.got - 2010.06.28 07:06:18.
