data_PCOD8131460
_publ_section_title
;
Structure prediction by ZEFSAII (Michael W. Deem and Ramdas Pophale) SiO2 
 PCOD8131460
Probable space group: C 2/C
;
_chemical_formula_sum "Si O2"
_cell_formula_units_Z 56
_cell_length_a 16.723885
_cell_length_b 21.169325
_cell_length_c 11.365650
_cell_angle_alpha 90.000000
_cell_angle_beta 123.799695
_cell_angle_gamma 90.000000
_cell_volume 3343.743196
_symmetry_space_group_name_H-M "C 2/C"
_symmetry_group_IT_number 15
_symmetry_cell_setting 'monoclinic'
loop_
_space_group_symop_operation_xyz
x,y,z
-x,y,1/2-z
-x,-y,-z
x,-y,1/2+z
1/2+x,1/2+y,z
1/2-x,1/2+y,1/2-z
1/2-x,1/2-y,-z
1/2+x,1/2-y,1/2+z
loop_
_atom_site_type_symbol
_atom_site_label
_atom_site_fract_x
_atom_site_fract_y
_atom_site_fract_z
Si Si1 0.092646 0.453402 0.748307
Si Si2 0.821432 0.677650 0.115950
Si Si3 0.932805 0.256883 0.903338
Si Si4 0.541271 0.108880 0.968886
Si Si5 0.349638 0.256218 0.921126
Si Si6 0.353657 0.086729 0.679001
Si Si7 0.243255 0.790667 0.113420
O O1 0.148214 0.394547 0.848834
O O2 0.053597 0.438849 0.586888
O O3 0.166452 0.513062 0.805187
O O4 0.000000 0.472438 0.750000
O O5 0.893448 0.726233 0.241305
O O6 0.713634 0.685571 0.079683
O O7 0.827639 0.694652 0.983461
O O8 0.862519 0.209666 0.915283
O O9 0.931325 0.320750 0.975563
O O10 0.037931 0.225377 0.981576
O O11 0.432494 0.111504 0.835431
O O12 0.612522 0.086053 0.927133
O O13 0.320591 0.241159 0.764037
O O14 0.263821 0.134613 0.612405
O O15 0.250000 0.750000 0.000000
#
# Coordination Sequence:
#
# PCOD8131460 Si02
#       7
#     8   8   8   8   8   8   8
#     4  11  21  31  52  76 105 134 169 212 264 320
#     4   9  20  33  51  81 102 131 169 212 266 313
#     4  10  18  33  54  73 105 133 171 219 254 306
#     4  10  19  33  49  74 101 138 169 208 260 314
#     4  10  19  34  54  72 105 134 170 218 259 304
#     4  11  21  32  49  73 107 139 169 208 260 315
#     4  11  22  32  49  75 104 139 179 209 256 310
#
# _framework density 16.747698
#
# number of rings (size 3 to 8) (size 9 to 14) (size 15 to 20)
#    0.000    1.714    4.286    2.571    0.000    0.571 
#    0.000    0.000    0.000    0.857    0.000    0.000 
#   12.857    0.000    0.000    0.000    0.000    0.000 
#
# Total GULP energy -347115.140595 kJ/mol
# GULP energy per Si atom -12396.969307 kJ/mol
# Density = 1.670958 g / cm^3
# Si number density = 16.747698 Si / 1000 Ang^3
#
#
#
# Elastic Constant Matrix: (Units=GPa)
#
#
# Indices 1 2 3 4 5 6 
#
# 1 88.5507 47.7613 39.4322 0.0000 13.9064 0.0000
# 2 47.7613 97.5470 28.7572 0.0000 0.1809 0.0000
# 3 39.4322 28.7572 86.2700 0.0000 -11.3535 0.0000
# 4 0.0000 0.0000 0.0000 20.1329 0.0000 9.9909
# 5 13.9064 0.1809 -11.3535 0.0000 32.4818 0.0000
# 6 0.0000 0.0000 0.0000 9.9909 0.0000 20.8745
#
#
#
# Elastic Compliance Matrix: (Units=1/GPa)
#
#
# Indices 1 2 3 4 5 6 
#
# 1 0.021311 -0.007840 -0.008724 0.000000 -0.012130 0.000000
# 2 -0.007840 0.014319 -0.000795 0.000000 0.002999 0.000000
# 3 -0.008724 -0.000795 0.017124 0.000000 0.009725 0.000000
# 4 0.000000 0.000000 0.000000 0.065142 0.000000 -0.031178
# 5 -0.012130 0.002999 0.009725 0.000000 0.039362 0.000000
# 6 0.000000 0.000000 0.000000 -0.031178 0.000000 0.062828
#
#
# Mechanical properties :
#
#
# Convention : Reuss Voigt Hill
#
# Bulk Modulus (GPa) = 55.44346 56.02989 55.73667
# Shear Modulus (GPa) = 19.17062 25.12565 22.14814
#
# Velocity S-wave (km/s) = 3.38697 3.87750 3.64051
# Velocity P-wave (km/s) = 6.96221 7.31947 7.14307
#
# Compressibility (1/GPa) = 0.01803639
#
# Stress axis : x y z
#
# Youngs Moduli (GPa) = 46.92332 69.83740 58.39847
#
# Poissons Ratio (x) = 0.54754 0.50946
# Poissons Ratio (y) = 0.36789 0.04641
# Poissons Ratio (z) = 0.40935 0.05551
#
# Static dielectric constant tensor:
#      x y z
#    x 3.141590 0.000000 -0.057980 
#    y 0.000000 3.099920 0.000000 
#    z -0.057980 0.000000 3.401270 
# 
# 
# High freq. dielectric constant tensor:
#      x y z
#    x 1.635580 0.000000 -0.022400 
#    y 0.000000 1.626320 0.000000 
#    z -0.022400 0.000000 1.654830 
# 
# From -- ./inp_files/106348.got.cif
#   From: 2010.06.25/outbox.cif.g09.slc.cpg/sg15_54_cif.got.tgz:106348.got - 2010.06.28 07:06:18.
