data_PCOD8131905
_publ_section_title
;
Structure prediction by ZEFSAII (Michael W. Deem and Ramdas Pophale) SiO2 
 PCOD8131905
Probable space group: C 2/C
;
_chemical_formula_sum "Si O2"
_cell_formula_units_Z 48
_cell_length_a 18.671044
_cell_length_b 22.677282
_cell_length_c 9.171886
_cell_angle_alpha 90.000000
_cell_angle_beta 44.455176
_cell_angle_gamma 90.000000
_cell_volume 2719.781645
_symmetry_space_group_name_H-M "C 2/C"
_symmetry_group_IT_number 15
_symmetry_cell_setting 'monoclinic'
loop_
_space_group_symop_operation_xyz
x,y,z
-x,y,1/2-z
-x,-y,-z
x,-y,1/2+z
1/2+x,1/2+y,z
1/2-x,1/2+y,1/2-z
1/2-x,1/2-y,-z
1/2+x,1/2-y,1/2+z
loop_
_atom_site_type_symbol
_atom_site_label
_atom_site_fract_x
_atom_site_fract_y
_atom_site_fract_z
Si Si1 0.191923 0.681244 0.928324
Si Si2 0.389314 0.748621 0.207739
Si Si3 0.107385 0.559603 0.670205
Si Si4 0.795856 0.675694 0.073484
Si Si5 0.380729 0.758326 0.697172
Si Si6 0.108004 0.441405 0.518399
O O1 0.152033 0.696522 0.826159
O O2 0.308582 0.701066 0.784882
O O3 0.115853 0.718538 0.142751
O O4 0.185404 0.610654 0.950388
O O5 0.325446 0.689099 0.265469
O O6 0.364336 0.771217 0.405587
O O7 0.508464 0.736842 0.014556
O O8 0.185962 0.611639 0.519462
O O9 0.151670 0.500850 0.528971
O O10 0.000000 0.575853 0.750000
O O11 0.095342 0.551000 0.861780
O O12 0.833382 0.683618 0.185088
O O13 0.000000 0.426617 0.750000
#
# Coordination Sequence:
#
# PCOD8131905 Si02
#       6
#     8   8   8   8   8   8
#     4  10  21  33  52  78 105 135 172 208 259 307
#     4  10  18  35  51  76 106 132 167 212 255 302
#     4  11  22  35  52  76 102 138 174 211 260 305
#     4  10  21  31  52  78 103 134 170 207 254 309
#     4  10  20  33  53  78 104 138 167 210 259 305
#     4  11  22  35  53  74 104 137 173 214 256 308
#
# _framework density 17.648475999999999
#
# number of rings (size 3 to 8) (size 9 to 14) (size 15 to 20)
#    0.000    1.667    1.667    5.000    4.667    0.000 
#    0.000    0.000    0.000    1.000    0.000    0.000 
#    0.000    0.000    0.000    0.000    0.000    0.000 
#
# Total GULP energy -297490.461909 kJ/mol
# GULP energy per Si atom -12395.435913 kJ/mol
# Density = 1.760831 g / cm^3
# Si number density = 17.648476 Si / 1000 Ang^3
#
#
#
# Elastic Constant Matrix: (Units=GPa)
#
#
# Indices 1 2 3 4 5 6 
#
# 1 68.6022 45.4992 39.0092 0.0000 -4.5024 0.0000
# 2 45.4992 125.9259 44.0001 0.0000 -8.1131 0.0000
# 3 39.0092 44.0001 87.5918 0.0000 -7.7576 0.0000
# 4 0.0000 0.0000 0.0000 31.4285 0.0000 -0.7924
# 5 -4.5024 -8.1131 -7.7576 0.0000 29.9340 0.0000
# 6 0.0000 0.0000 0.0000 -0.7924 0.0000 18.0008
#
#
#
# Elastic Compliance Matrix: (Units=1/GPa)
#
#
# Indices 1 2 3 4 5 6 
#
# 1 0.022338 -0.005573 -0.007149 0.000000 -0.000003 0.000000
# 2 -0.005573 0.011079 -0.002959 0.000000 0.001398 0.000000
# 3 -0.007149 -0.002959 0.016295 0.000000 0.002346 0.000000
# 4 0.000000 0.000000 0.000000 0.031854 0.000000 0.001402
# 5 -0.000003 0.001398 0.002346 0.000000 0.034393 0.000000
# 6 0.000000 0.000000 0.000000 0.001402 0.000000 0.055615
#
#
# Mechanical properties :
#
#
# Convention : Reuss Voigt Hill
#
# Bulk Modulus (GPa) = 54.50089 59.90409 57.20249
# Shear Modulus (GPa) = 23.91735 26.11340 25.01537
#
# Velocity S-wave (km/s) = 3.68531 3.85078 3.76895
# Velocity P-wave (km/s) = 7.00407 7.33403 7.17095
#
# Compressibility (1/GPa) = 0.01834832
#
# Stress axis : x y z
#
# Youngs Moduli (GPa) = 44.76642 90.26023 61.36948
#
# Poissons Ratio (x) = 0.50306 0.43873
# Poissons Ratio (y) = 0.24950 0.18162
# Poissons Ratio (z) = 0.32003 0.26712
#
# Static dielectric constant tensor:
#      x y z
#    x 3.207090 0.000000 0.246190 
#    y 0.000000 3.172950 0.000000 
#    z 0.246190 0.000000 3.429220 
# 
# 
# High freq. dielectric constant tensor:
#      x y z
#    x 1.678060 0.000000 0.028380 
#    y 0.000000 1.663180 0.000000 
#    z 0.028380 0.000000 1.690460 
# 
# From -- ./inp_files/51136.got.cif
#   From: 2010.06.25/outbox.cif.g09.slc.cpg/sg15_26_cif.got.tgz:51136.got - 2010.06.28 07:06:18.
