data_PCOD8131146
_publ_section_title
;
Structure prediction by ZEFSAII (Michael W. Deem and Ramdas Pophale) SiO2 
 PCOD8131146
Probable space group: C 2/C
;
_chemical_formula_sum "Si O2"
_cell_formula_units_Z 56
_cell_length_a 18.210314
_cell_length_b 15.997093
_cell_length_c 13.401488
_cell_angle_alpha 90.000000
_cell_angle_beta 43.380629
_cell_angle_gamma 90.000000
_cell_volume 2681.441087
_symmetry_space_group_name_H-M "C 2/C"
_symmetry_group_IT_number 15
_symmetry_cell_setting 'monoclinic'
loop_
_space_group_symop_operation_xyz
x,y,z
-x,y,1/2-z
-x,-y,-z
x,-y,1/2+z
1/2+x,1/2+y,z
1/2-x,1/2+y,1/2-z
1/2-x,1/2-y,-z
1/2+x,1/2-y,1/2+z
loop_
_atom_site_type_symbol
_atom_site_label
_atom_site_fract_x
_atom_site_fract_y
_atom_site_fract_z
Si Si1 0.008045 0.350850 0.133277
Si Si2 0.317330 0.283645 0.527440
Si Si3 0.021103 0.458007 0.838694
Si Si4 0.362074 0.859162 0.111678
Si Si5 0.539017 0.554873 0.609071
Si Si6 0.694967 0.116613 0.305278
Si Si7 0.338005 0.535465 0.670741
O O1 0.000000 0.306037 0.250000
O O2 0.966252 0.444304 0.188991
O O3 0.919184 0.311411 0.147691
O O4 0.125093 0.347258 0.966391
O O5 0.250000 0.250000 0.500000
O O6 0.378825 0.201020 0.500889
O O7 0.399958 0.358551 0.422448
O O8 0.250549 0.306339 0.693582
O O9 0.130338 0.424943 0.777977
O O10 0.000000 0.417205 0.750000
O O11 0.926296 0.442129 0.012651
O O12 0.241848 0.886142 0.256963
O O13 0.500000 0.513885 0.750000
O O14 0.435713 0.567865 0.641528
O O15 0.619020 0.487797 0.481598
O O16 0.779592 0.049428 0.267801
#
# Coordination Sequence:
#
# PCOD8131146 Si02
#       7
#     8   8   8   8   8   8   8
#     4  10  20  34  57  86 109 147 197 245 286 340
#     4  11  24  38  60  90 120 157 191 245 321 376
#     4  10  18  31  57  89 115 141 186 244 293 347
#     4  11  20  36  57  86 119 153 194 242 305 352
#     4  10  23  39  58  85 120 155 200 242 295 362
#     4  10  19  38  56  85 121 154 195 242 303 354
#     4  10  20  37  58  81 116 158 200 241 286 351
#
# _framework density 20.884293
#
# number of rings (size 3 to 8) (size 9 to 14) (size 15 to 20)
#    0.000    1.714    2.857    2.571    0.000    7.429 
#    0.000    0.714    0.000    8.571    0.000    0.000 
#    0.000    0.000    0.000    0.000    0.000    0.000 
#
# Total GULP energy -346952.755970 kJ/mol
# GULP energy per Si atom -12391.169856 kJ/mol
# Density = 2.083676 g / cm^3
# Si number density = 20.884293 Si / 1000 Ang^3
#
#
#
# Elastic Constant Matrix: (Units=GPa)
#
#
# Indices 1 2 3 4 5 6 
#
# 1 125.3321 24.2778 38.0961 0.0000 8.1589 0.0000
# 2 24.2778 42.7510 4.9335 0.0000 -0.4978 0.0000
# 3 38.0961 4.9335 114.9267 0.0000 8.0362 0.0000
# 4 0.0000 0.0000 0.0000 17.4208 0.0000 1.0425
# 5 8.1589 -0.4978 8.0362 0.0000 37.8526 0.0000
# 6 0.0000 0.0000 0.0000 1.0425 0.0000 29.2180
#
#
#
# Elastic Compliance Matrix: (Units=1/GPa)
#
#
# Indices 1 2 3 4 5 6 
#
# 1 0.010030 -0.005370 -0.002982 0.000000 -0.001599 0.000000
# 2 -0.005370 0.026394 0.000550 0.000000 0.001388 0.000000
# 3 -0.002982 0.000550 0.009766 0.000000 -0.001423 0.000000
# 4 0.000000 0.000000 0.000000 0.057525 0.000000 -0.002053
# 5 -0.001599 0.001388 -0.001423 0.000000 0.027083 0.000000
# 6 0.000000 0.000000 0.000000 -0.002053 0.000000 0.034299
#
#
# Mechanical properties :
#
#
# Convention : Reuss Voigt Hill
#
# Bulk Modulus (GPa) = 32.69671 46.40275 39.54973
# Shear Modulus (GPa) = 26.19225 31.27842 28.73534
#
# Velocity S-wave (km/s) = 3.54525 3.87421 3.71338
# Velocity P-wave (km/s) = 5.69636 6.50230 6.11263
#
# Compressibility (1/GPa) = 0.03058412
#
# Stress axis : x y z
#
# Youngs Moduli (GPa) = 99.70416 37.88792 102.39938
#
# Poissons Ratio (x) = 0.20347 0.30539
# Poissons Ratio (y) = 0.53543 -0.05633
# Poissons Ratio (z) = 0.29735 -0.02084
#
# Static dielectric constant tensor:
#      x y z
#    x 4.251910 0.000000 0.137620 
#    y 0.000000 3.487820 0.000000 
#    z 0.137620 0.000000 3.917520 
# 
# 
# High freq. dielectric constant tensor:
#      x y z
#    x 1.823610 0.000000 -0.000700 
#    y 0.000000 1.786010 0.000000 
#    z -0.000700 0.000000 1.824700 
# 
# From -- ./inp_files/163062.got.cif
#   From: 2010.06.25/outbox.cif.g09.slc.cpg/sg15_82_cif.got.tgz:163062.got - 2010.06.28 07:06:18.
