data_PCOD8131435
_publ_section_title
;
Structure prediction by ZEFSAII (Michael W. Deem and Ramdas Pophale) SiO2 
 PCOD8131435
Probable space group: C 2/C
;
_chemical_formula_sum "Si O2"
_cell_formula_units_Z 60
_cell_length_a 19.649670
_cell_length_b 15.044231
_cell_length_c 11.273115
_cell_angle_alpha 90.000000
_cell_angle_beta 127.586550
_cell_angle_gamma 90.000000
_cell_volume 2640.776601
_symmetry_space_group_name_H-M "C 2/C"
_symmetry_group_IT_number 15
_symmetry_cell_setting 'monoclinic'
loop_
_space_group_symop_operation_xyz
x,y,z
-x,y,1/2-z
-x,-y,-z
x,-y,1/2+z
1/2+x,1/2+y,z
1/2-x,1/2+y,1/2-z
1/2-x,1/2-y,-z
1/2+x,1/2-y,1/2+z
loop_
_atom_site_type_symbol
_atom_site_label
_atom_site_fract_x
_atom_site_fract_y
_atom_site_fract_z
Si Si1 0.082439 0.178983 0.198471
Si Si2 0.433246 0.019920 0.279089
Si Si3 0.913662 0.033504 0.469311
Si Si4 0.648710 0.287977 0.266151
Si Si5 0.887578 0.850548 0.514988
Si Si6 0.063253 0.361453 0.042025
Si Si7 0.500000 0.640986 0.750000
Si Si8 0.805853 0.632209 0.025014
O O1 0.130601 0.109436 0.161129
O O2 0.139082 0.181747 0.380866
O O3 0.062684 0.276466 0.126181
O O4 0.989660 0.138721 0.125380
O O5 0.500000 0.984440 0.250000
O O6 0.472585 0.110105 0.383129
O O7 0.342620 0.040616 0.117815
O O8 0.410286 0.946046 0.350840
O O9 0.930796 0.080537 0.612194
O O10 0.853121 0.948841 0.437004
O O11 0.000000 0.000000 0.500000
O O12 0.550676 0.299139 0.207679
O O13 0.708578 0.372010 0.371999
O O14 0.692589 0.200772 0.363697
O O15 0.646810 0.281531 0.120637
O O16 0.132341 0.337106 0.015837
#
# Coordination Sequence:
#
# PCOD8131435 Si02
#       8
#     8   8   8   8   8   8   4   8
#     4  10  19  33  58  90 118 158 205 257 308 362
#     4   9  20  37  66  95 125 158 211 264 307 376
#     4  10  18  33  52  87 123 149 202 247 296 355
#     4  11  23  39  62  88 122 159 209 256 307 376
#     4  10  21  34  54  90 124 153 198 260 302 366
#     4  10  20  39  64  93 121 163 210 256 317 372
#     4  12  20  34  62  88 112 162 200 248 294 364
#     4  10  23  42  59  90 124 162 205 257 317 377
#
# _framework density 22.720590000000001
#
# number of rings (size 3 to 8) (size 9 to 14) (size 15 to 20)
#    0.000    1.867    2.667    3.200    4.667    0.000 
#    4.800    0.667    0.000    0.000    0.000    0.000 
#    0.000    0.000    0.000    0.000    0.000    0.000 
#
# Total GULP energy -371657.610082 kJ/mol
# GULP energy per Si atom -12388.587003 kJ/mol
# Density = 2.266888 g / cm^3
# Si number density = 22.720590 Si / 1000 Ang^3
#
#
#
# Elastic Constant Matrix: (Units=GPa)
#
#
# Indices 1 2 3 4 5 6 
#
# 1 36.2760 17.2990 37.2527 0.0000 -11.0337 0.0000
# 2 17.2990 89.8009 32.2058 0.0000 -25.0466 0.0000
# 3 37.2527 32.2058 141.8483 0.0000 -38.4949 0.0000
# 4 0.0000 0.0000 0.0000 28.3610 0.0000 -7.1834
# 5 -11.0337 -25.0466 -38.4949 0.0000 43.0096 0.0000
# 6 0.0000 0.0000 0.0000 -7.1834 0.0000 16.6072
#
#
#
# Elastic Compliance Matrix: (Units=1/GPa)
#
#
# Indices 1 2 3 4 5 6 
#
# 1 0.039182 -0.004417 -0.009586 0.000000 -0.001100 0.000000
# 2 -0.004417 0.013953 -0.000146 0.000000 0.006862 0.000000
# 3 -0.009586 -0.000146 0.011768 0.000000 0.007989 0.000000
# 4 0.000000 0.000000 0.000000 0.039598 0.000000 0.017128
# 5 -0.001100 0.006862 0.007989 0.000000 0.034115 0.000000
# 6 0.000000 0.000000 0.000000 0.017128 0.000000 0.067624
#
#
# Mechanical properties :
#
#
# Convention : Reuss Voigt Hill
#
# Bulk Modulus (GPa) = 27.31772 49.04891 38.18331
# Shear Modulus (GPa) = 20.26433 29.67341 24.96887
#
# Velocity S-wave (km/s) = 2.98970 3.61780 3.31864
# Velocity P-wave (km/s) = 4.89563 6.25188 5.61486
#
# Compressibility (1/GPa) = 0.03660628
#
# Stress axis : x y z
#
# Youngs Moduli (GPa) = 25.52184 71.67064 84.97303
#
# Poissons Ratio (x) = 0.31656 0.81454
# Poissons Ratio (y) = 0.11273 0.01238
# Poissons Ratio (z) = 0.24465 0.01044
#
# Static dielectric constant tensor:
#      x y z
#    x 3.799480 0.000000 -0.387690 
#    y 0.000000 4.112180 0.000000 
#    z -0.387690 0.000000 4.531520 
# 
# 
# High freq. dielectric constant tensor:
#      x y z
#    x 1.851880 0.000000 -0.034180 
#    y 0.000000 1.885110 0.000000 
#    z -0.034180 0.000000 1.907070 
# 
# From -- ./inp_files/118793.got.cif
#   From: 2010.06.25/outbox.cif.g09.slc.cpg/sg15_60_cif.got.tgz:118793.got - 2010.06.28 07:06:18.
