data_PCOD8131143
_publ_section_title
;
Structure prediction by ZEFSAII (Michael W. Deem and Ramdas Pophale) SiO2 
 PCOD8131143
Probable space group: C 2/C
;
_chemical_formula_sum "Si O2"
_cell_formula_units_Z 52
_cell_length_a 19.801613
_cell_length_b 8.703942
_cell_length_c 15.197270
_cell_angle_alpha 90.000000
_cell_angle_beta 92.983410
_cell_angle_gamma 90.000000
_cell_volume 2615.731212
_symmetry_space_group_name_H-M "C 2/C"
_symmetry_group_IT_number 15
_symmetry_cell_setting 'monoclinic'
loop_
_space_group_symop_operation_xyz
x,y,z
-x,y,1/2-z
-x,-y,-z
x,-y,1/2+z
1/2+x,1/2+y,z
1/2-x,1/2+y,1/2-z
1/2-x,1/2-y,-z
1/2+x,1/2-y,1/2+z
loop_
_atom_site_type_symbol
_atom_site_label
_atom_site_fract_x
_atom_site_fract_y
_atom_site_fract_z
Si Si1 0.395302 0.601529 0.329924
Si Si2 0.500000 0.811846 0.250000
Si Si3 0.637016 0.357104 0.307149
Si Si4 0.838622 0.915524 0.007767
Si Si5 0.308283 0.937285 0.494940
Si Si6 0.116309 0.512739 0.335309
Si Si7 0.795785 0.365245 0.301036
O O1 0.460303 0.707615 0.317504
O O2 0.400609 0.447156 0.273275
O O3 0.391589 0.555606 0.432836
O O4 0.327366 0.694361 0.300750
O O5 0.549419 0.917005 0.310708
O O6 0.627282 0.459008 0.396156
O O7 0.601681 0.191631 0.314710
O O8 0.716189 0.341371 0.291173
O O9 0.816009 0.740050 0.021678
O O10 0.767028 0.002346 0.986966
O O11 0.362623 0.023213 0.561386
O O12 0.321309 0.954873 0.391259
O O13 0.179337 0.462780 0.279568
#
# Coordination Sequence:
#
# PCOD8131143 Si02
#       7
#     8   4   8   8   8   8   8
#     4  10  19  35  52  72 107 139 165 206 252 299
#     4  10  24  38  50  68 100 144 180 206 246 296
#     4  10  18  31  57  82 101 129 168 211 258 302
#     4   8  15  29  51  80 103 126 161 205 259 311
#     4   8  14  28  52  77 104 131 160 202 257 308
#     4  10  19  34  52  76 105 135 172 210 243 296
#     4   9  17  31  54  84 107 129 159 203 265 314
#
# _framework density 19.879719000000001
#
# number of rings (size 3 to 8) (size 9 to 14) (size 15 to 20)
#    0.000    2.769    0.000    4.615    0.000    0.615 
#    0.000   16.154    0.000   11.077    0.000    0.000 
#    0.000    0.000    0.000    0.000    0.000    0.000 
#
# Total GULP energy -322234.536536 kJ/mol
# GULP energy per Si atom -12393.636021 kJ/mol
# Density = 1.983447 g / cm^3
# Si number density = 19.879719 Si / 1000 Ang^3
#
#
#
# Elastic Constant Matrix: (Units=GPa)
#
#
# Indices 1 2 3 4 5 6 
#
# 1 73.0058 17.5321 12.3743 0.0000 -6.4538 0.0000
# 2 17.5321 44.6539 6.4682 0.0000 -5.7608 0.0000
# 3 12.3743 6.4682 55.5034 0.0000 -19.5047 0.0000
# 4 0.0000 0.0000 0.0000 22.8705 0.0000 -1.8941
# 5 -6.4538 -5.7608 -19.5047 0.0000 17.5930 0.0000
# 6 0.0000 0.0000 0.0000 -1.8941 0.0000 18.1540
#
#
#
# Elastic Compliance Matrix: (Units=1/GPa)
#
#
# Indices 1 2 3 4 5 6 
#
# 1 0.015556 -0.005604 -0.002383 0.000000 0.001230 0.000000
# 2 -0.005604 0.025401 0.000802 0.000000 0.007151 0.000000
# 3 -0.002383 0.000802 0.029882 0.000000 0.032518 0.000000
# 4 0.000000 0.000000 0.000000 0.044106 0.000000 0.004602
# 5 0.001230 0.007151 0.032518 0.000000 0.095685 0.000000
# 6 0.000000 0.000000 0.000000 0.004602 0.000000 0.055564
#
#
# Mechanical properties :
#
#
# Convention : Reuss Voigt Hill
#
# Bulk Modulus (GPa) = 17.70859 27.32359 22.51609
# Shear Modulus (GPa) = 16.70087 20.84273 18.77180
#
# Velocity S-wave (km/s) = 2.90159 3.24148 3.07623
# Velocity P-wave (km/s) = 4.48919 5.27104 4.89575
#
# Compressibility (1/GPa) = 0.05646976
#
# Stress axis : x y z
#
# Youngs Moduli (GPa) = 64.28437 39.36857 33.46509
#
# Poissons Ratio (x) = 0.22061 0.07974
# Poissons Ratio (y) = 0.36023 -0.02685
# Poissons Ratio (z) = 0.15318 -0.03158
#
# Static dielectric constant tensor:
#      x y z
#    x 3.364630 0.000000 -0.070380 
#    y 0.000000 3.287440 0.000000 
#    z -0.070380 0.000000 3.862540 
# 
# 
# High freq. dielectric constant tensor:
#      x y z
#    x 1.752230 0.000000 -0.007430 
#    y 0.000000 1.739420 0.000000 
#    z -0.007430 0.000000 1.785890 
# 
# From -- ./inp_files/166346.got.cif
#   From: 2010.06.25/outbox.cif.g09.slc.cpg/sg15_84_cif.got.tgz:166346.got - 2010.06.28 07:06:18.
