data_PCOD8131490
_publ_section_title
;
Structure prediction by ZEFSAII (Michael W. Deem and Ramdas Pophale) SiO2 
 PCOD8131490
Probable space group: C 2/C
;
_chemical_formula_sum "Si O2"
_cell_formula_units_Z 64
_cell_length_a 19.978209
_cell_length_b 18.131842
_cell_length_c 17.629040
_cell_angle_alpha 90.000000
_cell_angle_beta 144.048496
_cell_angle_gamma 90.000000
_cell_volume 3749.207069
_symmetry_space_group_name_H-M "C 2/C"
_symmetry_group_IT_number 15
_symmetry_cell_setting 'monoclinic'
loop_
_space_group_symop_operation_xyz
x,y,z
-x,y,1/2-z
-x,-y,-z
x,-y,1/2+z
1/2+x,1/2+y,z
1/2-x,1/2+y,1/2-z
1/2-x,1/2-y,-z
1/2+x,1/2-y,1/2+z
loop_
_atom_site_type_symbol
_atom_site_label
_atom_site_fract_x
_atom_site_fract_y
_atom_site_fract_z
Si Si1 0.408803 0.946246 0.499147
Si Si2 0.918384 0.690024 0.544087
Si Si3 0.631712 0.175299 0.647317
Si Si4 0.612882 0.045752 0.890404
Si Si5 0.262176 0.420608 0.387072
Si Si6 0.339547 0.046874 0.299160
Si Si7 0.486872 0.349957 0.650308
Si Si8 0.794519 0.172302 0.244077
O O1 0.351639 0.870227 0.415918
O O2 0.544306 0.934634 0.640737
O O3 0.345718 0.979500 0.515579
O O4 0.386567 0.008429 0.416848
O O5 0.928436 0.619481 0.606056
O O6 0.790404 0.701526 0.398390
O O7 0.997809 0.673634 0.544197
O O8 0.956466 0.763253 0.623437
O O9 0.699938 0.142556 0.781602
O O10 0.668880 0.259394 0.669180
O O11 0.500000 0.012224 0.750000
O O12 0.710987 0.069190 0.923463
O O13 0.247645 0.497258 0.329339
O O14 0.393036 0.398729 0.520342
O O15 0.264933 0.117002 0.252680
O O16 0.500000 0.375525 0.750000
O O17 0.601042 0.364034 0.706293
#
# Coordination Sequence:
#
# PCOD8131490 Si02
#       8
#     8   8   8   8   8   8   8   8
#     4  10  18  33  55  82 106 135 181 228 270 305
#     4  11  19  33  52  79 113 143 180 213 260 323
#     4  10  20  34  54  80 107 138 182 229 263 310
#     4  12  19  29  55  87 107 139 170 222 279 308
#     4  11  22  35  53  80 112 139 185 219 261 328
#     4  10  19  35  56  78 105 140 182 230 262 308
#     4  11  25  35  47  77 118 156 174 203 266 333
#     4  11  21  35  56  76 107 151 177 218 269 313
#
# _framework density 17.070276
#
# number of rings (size 3 to 8) (size 9 to 14) (size 15 to 20)
#    0.000    1.250    6.250    1.875    1.750    1.500 
#    0.000    0.000    0.000    0.750    0.000    0.000 
#    0.000    0.000    0.000    0.000    0.000    0.000 
#
# Total GULP energy -396646.988609 kJ/mol
# GULP energy per Si atom -12395.218394 kJ/mol
# Density = 1.703142 g / cm^3
# Si number density = 17.070276 Si / 1000 Ang^3
#
#
#
# Elastic Constant Matrix: (Units=GPa)
#
#
# Indices 1 2 3 4 5 6 
#
# 1 38.1553 41.7194 25.9295 0.0000 5.8328 0.0000
# 2 41.7194 89.0051 30.6374 0.0000 -2.3122 0.0000
# 3 25.9295 30.6374 89.4820 0.0000 8.0422 0.0000
# 4 0.0000 0.0000 0.0000 11.6486 0.0000 8.8244
# 5 5.8328 -2.3122 8.0422 0.0000 25.8867 0.0000
# 6 0.0000 0.0000 0.0000 8.8244 0.0000 22.7987
#
#
#
# Elastic Compliance Matrix: (Units=1/GPa)
#
#
# Indices 1 2 3 4 5 6 
#
# 1 0.063970 -0.027692 -0.007754 0.000000 -0.014478 0.000000
# 2 -0.027692 0.024891 -0.001295 0.000000 0.008865 0.000000
# 3 -0.007754 -0.001295 0.014113 0.000000 -0.002753 0.000000
# 4 0.000000 0.000000 0.000000 0.121461 0.000000 -0.047012
# 5 -0.014478 0.008865 -0.002753 0.000000 0.043539 0.000000
# 6 0.000000 0.000000 0.000000 -0.047012 0.000000 0.062059
#
#
# Mechanical properties :
#
#
# Convention : Reuss Voigt Hill
#
# Bulk Modulus (GPa) = 33.90661 45.91276 39.90968
# Shear Modulus (GPa) = 12.09642 19.95721 16.02682
#
# Velocity S-wave (km/s) = 2.66489 3.42295 3.06743
# Velocity P-wave (km/s) = 5.41986 6.52509 5.99799
#
# Compressibility (1/GPa) = 0.02949278
#
# Stress axis : x y z
#
# Youngs Moduli (GPa) = 15.63234 40.17483 70.85560
#
# Poissons Ratio (x) = 1.11250 0.54944
# Poissons Ratio (y) = 0.43288 0.09175
# Poissons Ratio (z) = 0.12122 0.05202
#
# Static dielectric constant tensor:
#      x y z
#    x 3.085530 0.000000 0.037710 
#    y 0.000000 3.176300 0.000000 
#    z 0.037710 0.000000 3.236180 
# 
# 
# High freq. dielectric constant tensor:
#      x y z
#    x 1.634810 0.000000 0.004750 
#    y 0.000000 1.647030 0.000000 
#    z 0.004750 0.000000 1.660820 
# 
# From -- ./inp_files/113486.got.cif
#   From: 2010.06.25/outbox.cif.g09.slc.cpg/sg15_57_cif.got.tgz:113486.got - 2010.06.28 07:06:18.
