data_PCOD8131499
_publ_section_title
;
Structure prediction by ZEFSAII (Michael W. Deem and Ramdas Pophale) SiO2 
 PCOD8131499
Probable space group: C 2/C
;
_chemical_formula_sum "Si O2"
_cell_formula_units_Z 48
_cell_length_a 30.716942
_cell_length_b 13.526442
_cell_length_c 12.799978
_cell_angle_alpha 90.000000
_cell_angle_beta 28.163774
_cell_angle_gamma 90.000000
_cell_volume 2510.190906
_symmetry_space_group_name_H-M "C 2/C"
_symmetry_group_IT_number 15
_symmetry_cell_setting 'monoclinic'
loop_
_space_group_symop_operation_xyz
x,y,z
-x,y,1/2-z
-x,-y,-z
x,-y,1/2+z
1/2+x,1/2+y,z
1/2-x,1/2+y,1/2-z
1/2-x,1/2-y,-z
1/2+x,1/2-y,1/2+z
loop_
_atom_site_type_symbol
_atom_site_label
_atom_site_fract_x
_atom_site_fract_y
_atom_site_fract_z
Si Si1 0.296791 0.516642 0.784691
Si Si2 0.958837 0.639753 0.113825
Si Si3 0.889819 0.158811 0.967649
Si Si4 0.341662 0.315161 0.334177
Si Si5 0.659180 0.128670 0.935754
Si Si6 0.362373 0.044680 0.735615
O O1 0.361746 0.438551 0.590581
O O2 0.355401 0.587151 0.736647
O O3 0.249369 0.595859 0.808366
O O4 0.226119 0.451878 0.003144
O O5 0.930279 0.745750 0.129252
O O6 0.927686 0.623263 0.300694
O O7 0.912508 0.559938 0.137188
O O8 0.069104 0.632513 0.873739
O O9 0.848935 0.146887 0.937651
O O10 0.000000 0.170093 0.750000
O O11 0.839488 0.259668 0.114068
O O12 0.250000 0.250000 0.500000
O O13 0.658066 0.052316 0.843391
#
# Coordination Sequence:
#
# PCOD8131499 Si02
#       6
#     8   8   8   8   8   8
#     4  11  23  36  62  91 115 159 201 246 300 348
#     4   9  19  32  58  86 114 156 199 237 298 358
#     4  11  24  41  62  88 119 159 204 245 294 363
#     4  11  19  42  64  84 115 169 199 235 297 375
#     4  10  19  36  59  81 115 159 197 238 292 361
#     4  10  18  33  55  91 118 145 200 255 293 341
#
# _framework density 19.122052
#
# number of rings (size 3 to 8) (size 9 to 14) (size 15 to 20)
#    0.000    1.667    5.000    3.500    0.000    1.333 
#    0.000    1.667    0.000    0.000    0.000    0.000 
#    0.000    0.000    0.000    0.000    0.000    0.000 
#
# Total GULP energy -297340.146458 kJ/mol
# GULP energy per Si atom -12389.172769 kJ/mol
# Density = 1.907853 g / cm^3
# Si number density = 19.122052 Si / 1000 Ang^3
#
#
#
# Elastic Constant Matrix: (Units=GPa)
#
#
# Indices 1 2 3 4 5 6 
#
# 1 126.9122 55.8812 39.6816 0.0000 10.8699 0.0000
# 2 55.8812 114.4574 45.8675 0.0000 3.1174 0.0000
# 3 39.6816 45.8675 58.0342 0.0000 -10.9046 0.0000
# 4 0.0000 0.0000 0.0000 35.9727 0.0000 4.3645
# 5 10.8699 3.1174 -10.9046 0.0000 15.5189 0.0000
# 6 0.0000 0.0000 0.0000 4.3645 0.0000 47.9931
#
#
#
# Elastic Compliance Matrix: (Units=1/GPa)
#
#
# Indices 1 2 3 4 5 6 
#
# 1 0.013555 -0.001705 -0.011107 0.000000 -0.016957 0.000000
# 2 -0.001705 0.014925 -0.012637 0.000000 -0.010683 0.000000
# 3 -0.011107 -0.012637 0.042343 0.000000 0.040071 0.000000
# 4 0.000000 0.000000 0.000000 0.028109 0.000000 -0.002556
# 5 -0.016957 -0.010683 0.040071 0.000000 0.106617 0.000000
# 6 0.000000 0.000000 0.000000 -0.002556 0.000000 0.021069
#
#
# Mechanical properties :
#
#
# Convention : Reuss Voigt Hill
#
# Bulk Modulus (GPa) = 50.19045 64.69605 57.44325
# Shear Modulus (GPa) = 17.59586 30.42853 24.01219
#
# Velocity S-wave (km/s) = 3.03675 3.99341 3.54748
# Velocity P-wave (km/s) = 6.21291 7.42764 6.84726
#
# Compressibility (1/GPa) = 0.01992411
#
# Stress axis : x y z
#
# Youngs Moduli (GPa) = 73.77094 67.00365 23.61671
#
# Poissons Ratio (x) = 0.11426 0.26231
# Poissons Ratio (y) = 0.12580 0.29845
# Poissons Ratio (z) = 0.81938 0.84673
#
# Static dielectric constant tensor:
#      x y z
#    x 3.759100 0.000000 -0.052340 
#    y 0.000000 3.729280 0.000000 
#    z -0.052340 0.000000 3.312020 
# 
# 
# High freq. dielectric constant tensor:
#      x y z
#    x 1.764250 0.000000 -0.004550 
#    y 0.000000 1.747670 0.000000 
#    z -0.004550 0.000000 1.702990 
# 
# From -- ./inp_files/126835.got.cif
#   From: 2010.06.25/outbox.cif.g09.slc.cpg/sg15_64_cif.got.tgz:126835.got - 2010.06.28 07:06:18.
