data_PCOD8131580
_publ_section_title
;
Structure prediction by ZEFSAII (Michael W. Deem and Ramdas Pophale) SiO2 
 PCOD8131580
Probable space group: C 2/C
;
_chemical_formula_sum "Si O2"
_cell_formula_units_Z 44
_cell_length_a 12.135356
_cell_length_b 11.191014
_cell_length_c 17.798672
_cell_angle_alpha 90.000000
_cell_angle_beta 104.412009
_cell_angle_gamma 90.000000
_cell_volume 2341.116861
_symmetry_space_group_name_H-M "C 2/C"
_symmetry_group_IT_number 15
_symmetry_cell_setting 'monoclinic'
loop_
_space_group_symop_operation_xyz
x,y,z
-x,y,1/2-z
-x,-y,-z
x,-y,1/2+z
1/2+x,1/2+y,z
1/2-x,1/2+y,1/2-z
1/2-x,1/2-y,-z
1/2+x,1/2-y,1/2+z
loop_
_atom_site_type_symbol
_atom_site_label
_atom_site_fract_x
_atom_site_fract_y
_atom_site_fract_z
Si Si1 0.500000 0.542904 0.750000
Si Si2 0.931902 0.638458 0.910084
Si Si3 0.512587 0.390094 0.606241
Si Si4 0.668788 0.469245 0.504318
Si Si5 0.829215 0.806641 0.132392
Si Si6 0.413501 0.075189 0.073263
O O1 0.531812 0.457642 0.687051
O O2 0.603430 0.628872 0.789586
O O3 0.997587 0.748608 0.882884
O O4 0.800770 0.665721 0.867753
O O5 0.984578 0.515148 0.883710
O O6 0.953715 0.640003 0.003512
O O7 0.621767 0.428195 0.576389
O O8 0.396541 0.419437 0.542425
O O9 0.647966 0.357172 0.446358
O O10 0.801414 0.503359 0.534067
O O11 0.874511 0.669372 0.131661
#
# Coordination Sequence:
#
# PCOD8131580 Si02
#       6
#     4   8   8   8   8   8
#     4  10  24  36  56  72 114 156 190 220 300 348
#     4  10  19  33  61  86 116 137 189 248 286 341
#     4  10  18  35  54  82 107 153 187 235 284 346
#     4   9  17  32  62  78 109 146 190 230 292 333
#     4  10  18  39  54  83 112 152 188 236 282 352
#     4  10  18  33  59  91 108 144 184 245 296 334
#
# _framework density 18.794447999999999
#
# number of rings (size 3 to 8) (size 9 to 14) (size 15 to 20)
#    0.000    2.182    3.636    1.091    0.000    0.727 
#    3.273    2.727    0.000    0.000    0.000    0.000 
#    0.000    0.000    0.000    0.000    0.000    0.000 
#
# Total GULP energy -272572.538324 kJ/mol
# GULP energy per Si atom -12389.660833 kJ/mol
# Density = 1.875167 g / cm^3
# Si number density = 18.794448 Si / 1000 Ang^3
#
#
#
# Elastic Constant Matrix: (Units=GPa)
#
#
# Indices 1 2 3 4 5 6 
#
# 1 97.1660 66.8466 29.7041 0.0000 13.7784 0.0000
# 2 66.8466 138.0428 40.6503 0.0000 19.6602 0.0000
# 3 29.7041 40.6503 65.0170 0.0000 8.9896 0.0000
# 4 0.0000 0.0000 0.0000 17.2692 0.0000 -0.2460
# 5 13.7784 19.6602 8.9896 0.0000 17.2248 0.0000
# 6 0.0000 0.0000 0.0000 -0.2460 0.0000 32.1631
#
#
#
# Elastic Compliance Matrix: (Units=1/GPa)
#
#
# Indices 1 2 3 4 5 6 
#
# 1 0.016138 -0.006401 -0.002798 0.000000 -0.004143 0.000000
# 2 -0.006401 0.012509 -0.003913 0.000000 -0.007116 0.000000
# 3 -0.002798 -0.003913 0.019592 0.000000 -0.003521 0.000000
# 4 0.000000 0.000000 0.000000 0.057913 0.000000 0.000443
# 5 -0.004143 -0.007116 -0.003521 0.000000 0.071329 0.000000
# 6 0.000000 0.000000 0.000000 0.000443 0.000000 0.031095
#
#
# Mechanical properties :
#
#
# Convention : Reuss Voigt Hill
#
# Bulk Modulus (GPa) = 45.42192 63.84754 54.63473
# Shear Modulus (GPa) = 20.64926 24.19973 22.42449
#
# Velocity S-wave (km/s) = 3.31824 3.59221 3.45794
# Velocity P-wave (km/s) = 6.23708 7.15895 6.71386
#
# Compressibility (1/GPa) = 0.02201580
#
# Stress axis : x y z
#
# Youngs Moduli (GPa) = 61.96532 79.93997 51.04048
#
# Poissons Ratio (x) = 0.51167 0.14282
# Poissons Ratio (y) = 0.39662 0.19972
# Poissons Ratio (z) = 0.17339 0.31281
#
# Static dielectric constant tensor:
#      x y z
#    x 3.602660 0.000000 0.147510 
#    y 0.000000 3.598650 0.000000 
#    z 0.147510 0.000000 3.174700 
# 
# 
# High freq. dielectric constant tensor:
#      x y z
#    x 1.731870 0.000000 0.004880 
#    y 0.000000 1.727590 0.000000 
#    z 0.004880 0.000000 1.696030 
# 
# From -- ./inp_files/195948.got.cif
#   From: 2010.06.25/outbox.cif.g09.slc.cpg/sg15_98_cif.got.tgz:195948.got - 2010.06.28 07:06:18.
