data_PCOD8131632
_publ_section_title
;
Structure prediction by ZEFSAII (Michael W. Deem and Ramdas Pophale) SiO2 
 PCOD8131632
Probable space group: C 2/C
;
_chemical_formula_sum "Si O2"
_cell_formula_units_Z 48
_cell_length_a 10.974450
_cell_length_b 16.387503
_cell_length_c 19.503014
_cell_angle_alpha 90.000000
_cell_angle_beta 129.360859
_cell_angle_gamma 90.000000
_cell_volume 2711.880771
_symmetry_space_group_name_H-M "C 2/C"
_symmetry_group_IT_number 15
_symmetry_cell_setting 'monoclinic'
loop_
_space_group_symop_operation_xyz
x,y,z
-x,y,1/2-z
-x,-y,-z
x,-y,1/2+z
1/2+x,1/2+y,z
1/2-x,1/2+y,1/2-z
1/2-x,1/2-y,-z
1/2+x,1/2-y,1/2+z
loop_
_atom_site_type_symbol
_atom_site_label
_atom_site_fract_x
_atom_site_fract_y
_atom_site_fract_z
Si Si1 0.149475 0.315733 0.503518
Si Si2 0.617448 0.242091 0.146904
Si Si3 0.195503 0.691007 0.420281
Si Si4 0.522779 0.407862 0.444836
Si Si5 0.415226 0.418178 0.555043
Si Si6 0.135420 0.232745 0.152548
O O1 0.250000 0.250000 0.500000
O O2 0.144771 0.292253 0.581216
O O3 0.238767 0.401917 0.522747
O O4 0.975030 0.310155 0.407858
O O5 0.493608 0.180498 0.140340
O O6 0.544631 0.333108 0.123204
O O7 0.782490 0.246758 0.245267
O O8 0.250000 0.750000 0.500000
O O9 0.296418 0.608083 0.465644
O O10 0.232491 0.727429 0.358881
O O11 0.408702 0.416881 0.469973
O O12 0.526384 0.491302 0.401514
O O13 0.535905 0.350294 0.625352
#
# Coordination Sequence:
#
# PCOD8131632 Si02
#       6
#     8   8   8   8   8   8
#     4  10  18  34  50  79 106 141 178 219 264 321
#     4  11  19  32  58  79 106 141 187 221 267 326
#     4   9  16  33  55  75 100 137 180 219 262 326
#     4   9  17  34  56  77 100 150 177 218 271 323
#     4   9  18  34  54  75 111 138 180 222 273 315
#     4  10  19  32  56  81 103 137 182 225 268 328
#
# _framework density 17.699892999999999
#
# number of rings (size 3 to 8) (size 9 to 14) (size 15 to 20)
#    0.000    2.333    6.667    0.500    0.000    2.667 
#    0.000    2.500   14.667    4.000    0.000    0.000 
#    0.000    0.000    0.000    0.000    0.000    0.000 
#
# Total GULP energy -297352.346787 kJ/mol
# GULP energy per Si atom -12389.681116 kJ/mol
# Density = 1.765961 g / cm^3
# Si number density = 17.699893 Si / 1000 Ang^3
#
#
#
# Elastic Constant Matrix: (Units=GPa)
#
#
# Indices 1 2 3 4 5 6 
#
# 1 118.0876 37.5062 45.0891 0.0000 3.7590 0.0000
# 2 37.5062 96.5719 29.8316 0.0000 7.6449 0.0000
# 3 45.0891 29.8316 114.2275 0.0000 17.1634 0.0000
# 4 0.0000 0.0000 0.0000 14.0711 0.0000 -0.7154
# 5 3.7590 7.6449 17.1634 0.0000 14.3697 0.0000
# 6 0.0000 0.0000 0.0000 -0.7154 0.0000 23.6589
#
#
#
# Elastic Compliance Matrix: (Units=1/GPa)
#
#
# Indices 1 2 3 4 5 6 
#
# 1 0.010928 -0.003298 -0.004005 0.000000 0.003680 0.000000
# 2 -0.003298 0.012368 -0.001303 0.000000 -0.004161 0.000000
# 3 -0.004005 -0.001303 0.012692 0.000000 -0.013419 0.000000
# 4 0.000000 0.000000 0.000000 0.071177 0.000000 0.002152
# 5 0.003680 -0.004161 -0.013419 0.000000 0.086870 0.000000
# 6 0.000000 0.000000 0.000000 0.002152 0.000000 0.042332
#
#
# Mechanical properties :
#
#
# Convention : Reuss Voigt Hill
#
# Bulk Modulus (GPa) = 53.26186 61.52675 57.39431
# Shear Modulus (GPa) = 19.24279 24.85061 22.04670
#
# Velocity S-wave (km/s) = 3.30080 3.75106 3.53311
# Velocity P-wave (km/s) = 6.68461 7.32101 7.01004
#
# Compressibility (1/GPa) = 0.01877516
#
# Stress axis : x y z
#
# Youngs Moduli (GPa) = 91.50800 80.85518 78.79037
#
# Poissons Ratio (x) = 0.26668 0.31557
# Poissons Ratio (y) = 0.30182 0.10265
# Poissons Ratio (z) = 0.36651 0.10534
#
# Static dielectric constant tensor:
#      x y z
#    x 4.213150 0.000000 0.206570 
#    y 0.000000 3.670220 0.000000 
#    z 0.206570 0.000000 3.122900 
# 
# 
# High freq. dielectric constant tensor:
#      x y z
#    x 1.698600 0.000000 0.000590 
#    y 0.000000 1.655830 0.000000 
#    z 0.000590 0.000000 1.660760 
# 
# From -- ./inp_files/144693.got.cif
#   From: 2010.06.25/outbox.cif.g09.slc.cpg/sg15_73_cif.got.tgz:144693.got - 2010.06.28 07:06:18.
