data_PCOD8131861
_publ_section_title
;
Structure prediction by ZEFSAII (Michael W. Deem and Ramdas Pophale) SiO2 
 PCOD8131861
Probable space group: C 2/C
;
_chemical_formula_sum "Si O2"
_cell_formula_units_Z 52
_cell_length_a 21.306801
_cell_length_b 16.564860
_cell_length_c 12.252415
_cell_angle_alpha 90.000000
_cell_angle_beta 40.209800
_cell_angle_gamma 90.000000
_cell_volume 2791.794080
_symmetry_space_group_name_H-M "C 2/C"
_symmetry_group_IT_number 15
_symmetry_cell_setting 'monoclinic'
loop_
_space_group_symop_operation_xyz
x,y,z
-x,y,1/2-z
-x,-y,-z
x,-y,1/2+z
1/2+x,1/2+y,z
1/2-x,1/2+y,1/2-z
1/2-x,1/2-y,-z
1/2+x,1/2-y,1/2+z
loop_
_atom_site_type_symbol
_atom_site_label
_atom_site_fract_x
_atom_site_fract_y
_atom_site_fract_z
Si Si1 0.694016 0.872794 0.554902
Si Si2 0.487438 0.243360 0.495574
Si Si3 0.993105 0.428789 0.425906
Si Si4 0.332497 0.949592 0.462108
Si Si5 0.000000 0.690144 0.250000
Si Si6 0.713856 0.702707 0.152923
Si Si7 0.201290 0.249021 0.731737
O O1 0.578084 0.869254 0.698625
O O2 0.736475 0.824323 0.396997
O O3 0.722968 0.830782 0.631556
O O4 0.718794 0.966989 0.508443
O O5 0.515658 0.154807 0.500165
O O6 0.457907 0.244554 0.405790
O O7 0.402536 0.287318 0.676500
O O8 0.591509 0.286728 0.370268
O O9 0.895465 0.450416 0.488985
O O10 0.000000 0.500000 0.500000
O O11 0.092759 0.419068 0.227734
O O12 0.240618 0.890552 0.599009
O O13 0.771007 0.737239 0.180529
O O14 0.750000 0.750000 0.000000
#
# Coordination Sequence:
#
# PCOD8131861 Si02
#       7
#     8   8   8   8   4   8   8
#     4  10  20  39  62  91 122 155 209 258 305 358
#     4  11  21  38  61  87 122 162 209 249 302 373
#     4  11  21  35  58  90 126 153 191 259 318 366
#     4  11  23  36  57  93 123 158 203 248 312 367
#     4  10  18  34  62  90 118 152 202 258 314 350
#     4  12  24  40  59  89 129 167 201 242 312 384
#     4  10  22  40  62  90 122 165 206 254 305 366
#
# _framework density 18.626014999999999
#
# number of rings (size 3 to 8) (size 9 to 14) (size 15 to 20)
#    0.000    1.231    4.615    3.692    0.000    0.615 
#    0.000    0.769    0.000    0.000    4.000    0.000 
#    0.000    0.000    0.000    0.000    0.000    0.000 
#
# Total GULP energy -322238.288897 kJ/mol
# GULP energy per Si atom -12393.780342 kJ/mol
# Density = 1.858362 g / cm^3
# Si number density = 18.626015 Si / 1000 Ang^3
#
#
#
# Elastic Constant Matrix: (Units=GPa)
#
#
# Indices 1 2 3 4 5 6 
#
# 1 77.7701 26.3992 32.5849 0.0000 18.2548 0.0000
# 2 26.3992 91.5536 47.2788 0.0000 -1.0363 0.0000
# 3 32.5849 47.2788 100.4152 0.0000 11.4444 0.0000
# 4 0.0000 0.0000 0.0000 31.2071 0.0000 -3.2817
# 5 18.2548 -1.0363 11.4444 0.0000 33.1906 0.0000
# 6 0.0000 0.0000 0.0000 -3.2817 0.0000 22.6642
#
#
#
# Elastic Compliance Matrix: (Units=1/GPa)
#
#
# Indices 1 2 3 4 5 6 
#
# 1 0.017335 -0.003566 -0.002963 0.000000 -0.008624 0.000000
# 2 -0.003566 0.015440 -0.006652 0.000000 0.004737 0.000000
# 3 -0.002963 -0.006652 0.014459 0.000000 -0.003563 0.000000
# 4 0.000000 0.000000 0.000000 0.032539 0.000000 0.004712
# 5 -0.008624 0.004737 -0.003563 0.000000 0.036248 0.000000
# 6 0.000000 0.000000 0.000000 0.004712 0.000000 0.044805
#
#
# Mechanical properties :
#
#
# Convention : Reuss Voigt Hill
#
# Bulk Modulus (GPa) = 47.91581 53.58498 50.75040
# Shear Modulus (GPa) = 25.75397 28.31078 27.03238
#
# Velocity S-wave (km/s) = 3.72249 3.90289 3.81376
# Velocity P-wave (km/s) = 6.65259 7.01010 6.83368
#
# Compressibility (1/GPa) = 0.02086994
#
# Stress axis : x y z
#
# Youngs Moduli (GPa) = 57.68808 64.76850 69.16338
#
# Poissons Ratio (x) = 0.23094 0.20496
# Poissons Ratio (y) = 0.20570 0.46010
# Poissons Ratio (z) = 0.17096 0.43086
#
# Static dielectric constant tensor:
#      x y z
#    x 3.471000 0.000000 0.103760 
#    y 0.000000 3.308040 0.000000 
#    z 0.103760 0.000000 3.723280 
# 
# 
# High freq. dielectric constant tensor:
#      x y z
#    x 1.721700 0.000000 0.014220 
#    y 0.000000 1.697070 0.000000 
#    z 0.014220 0.000000 1.740390 
# 
# From -- ./inp_files/98180.got.cif
#   From: 2010.06.25/outbox.cif.g09.slc.cpg/sg15_50_cif.got.tgz:98180.got - 2010.06.28 07:06:18.
