data_PCOD8131694
_publ_section_title
;
Structure prediction by ZEFSAII (Michael W. Deem and Ramdas Pophale) SiO2 
 PCOD8131694
Probable space group: C 2/C
;
_chemical_formula_sum "Si O2"
_cell_formula_units_Z 64
_cell_length_a 25.609746
_cell_length_b 21.915428
_cell_length_c 19.564189
_cell_angle_alpha 90.000000
_cell_angle_beta 18.641764
_cell_angle_gamma 90.000000
_cell_volume 3509.876884
_symmetry_space_group_name_H-M "C 2/C"
_symmetry_group_IT_number 15
_symmetry_cell_setting 'monoclinic'
loop_
_space_group_symop_operation_xyz
x,y,z
-x,y,1/2-z
-x,-y,-z
x,-y,1/2+z
1/2+x,1/2+y,z
1/2-x,1/2+y,1/2-z
1/2-x,1/2-y,-z
1/2+x,1/2-y,1/2+z
loop_
_atom_site_type_symbol
_atom_site_label
_atom_site_fract_x
_atom_site_fract_y
_atom_site_fract_z
Si Si1 0.550221 0.806888 0.111303
Si Si2 0.576753 0.066517 0.257236
Si Si3 0.406977 0.634522 0.600168
Si Si4 0.855794 0.962402 0.711404
Si Si5 0.254080 0.572658 0.910067
Si Si6 0.420383 0.874584 0.071605
Si Si7 0.016783 0.435723 0.089049
Si Si8 0.092736 0.751400 0.840426
O O1 0.500000 0.788698 0.250000
O O2 0.523871 0.879509 0.134040
O O3 0.430104 0.771052 0.208904
O O4 0.734467 0.785425 0.866796
O O5 0.417924 0.084726 0.412059
O O6 0.569535 0.105390 0.336464
O O7 0.587224 0.993315 0.255367
O O8 0.735092 0.086331 0.014941
O O9 0.568177 0.603499 0.365983
O O10 0.385321 0.615647 0.707482
O O11 0.251917 0.611087 0.750035
O O12 0.441273 0.705896 0.550664
O O13 0.798055 0.000398 0.849390
O O14 0.704811 0.956755 0.845506
O O15 0.000000 0.000000 0.500000
O O16 0.434771 0.915902 0.120500
O O17 0.426226 0.803736 0.082795
#
# Coordination Sequence:
#
# PCOD8131694 Si02
#       8
#     8   8   8   8   8   8   8   8
#     4  11  23  36  56  79 109 141 178 222 266 315
#     4   9  17  32  53  78 112 131 174 224 265 313
#     4  10  18  34  56  76 106 139 183 219 262 320
#     4   9  17  30  52  80 104 139 176 215 261 318
#     4   8  17  30  52  81 104 138 173 221 265 306
#     4  10  21  35  54  80 103 145 180 219 271 316
#     4  10  20  32  56  81 104 140 180 217 266 326
#     4  11  21  38  55  78 106 144 182 218 264 322
#
# _framework density 18.234258000000001
#
# number of rings (size 3 to 8) (size 9 to 14) (size 15 to 20)
#    0.000    2.250    2.500    1.500    3.500    0.000 
#    0.000    0.625    0.000    6.000    0.000    0.000 
#    0.000    0.000    0.000    0.000    0.000    0.000 
#
# Total GULP energy -396460.059861 kJ/mol
# GULP energy per Si atom -12389.376871 kJ/mol
# Density = 1.819276 g / cm^3
# Si number density = 18.234258 Si / 1000 Ang^3
#
#
#
# Elastic Constant Matrix: (Units=GPa)
#
#
# Indices 1 2 3 4 5 6 
#
# 1 77.7167 33.7939 35.8436 -0.0330 16.4491 0.0282
# 2 33.7939 95.5507 30.3988 -0.0369 18.6637 0.0232
# 3 35.8436 30.3988 68.1159 -0.0578 15.6434 0.0453
# 4 -0.0330 -0.0369 -0.0578 22.3671 0.0328 -0.4276
# 5 16.4491 18.6637 15.6434 0.0328 31.6587 -0.0298
# 6 0.0282 0.0232 0.0453 -0.4276 -0.0298 17.6486
#
#
#
# Elastic Compliance Matrix: (Units=1/GPa)
#
#
# Indices 1 2 3 4 5 6 
#
# 1 0.018598 -0.003467 -0.007320 0.000008 -0.004002 -0.000013
# 2 -0.003467 0.013613 -0.003183 0.000016 -0.004651 -0.000012
# 3 -0.007320 -0.003183 0.021036 0.000044 -0.004715 -0.000045
# 4 0.000008 0.000016 0.000044 0.044730 -0.000081 0.001083
# 5 -0.004002 -0.004651 -0.004715 -0.000081 0.038738 0.000088
# 6 -0.000013 -0.000012 -0.000045 0.001083 0.000088 0.056688
#
#
# Mechanical properties :
#
#
# Convention : Reuss Voigt Hill
#
# Bulk Modulus (GPa) = 39.51404 49.05067 44.28235
# Shear Modulus (GPa) = 21.76011 23.75802 22.75906
#
# Velocity S-wave (km/s) = 3.45826 3.61353 3.53675
# Velocity P-wave (km/s) = 6.13705 6.66099 6.40438
#
# Compressibility (1/GPa) = 0.02530746
#
# Stress axis : x y z
#
# Youngs Moduli (GPa) = 53.76913 73.45977 47.53756
#
# Poissons Ratio (x) = 0.25469 0.34798
# Poissons Ratio (y) = 0.18642 0.15129
# Poissons Ratio (z) = 0.39360 0.23379
#
# Static dielectric constant tensor:
#      x y z
#    x 3.339750 -0.000040 0.091780 
#    y -0.000040 3.786120 0.000110 
#    z 0.091780 0.000110 3.563110 
# 
# 
# High freq. dielectric constant tensor:
#      x y z
#    x 1.686250 -0.000010 0.002720 
#    y -0.000010 1.710820 0.000010 
#    z 0.002720 0.000010 1.696850 
# 
# From -- ./inp_files/220410.got.cif
#   From: 2010.06.25/outbox.cif.g09.slc.cpg/sg15_111_cif.got.tgz:220410.got - 2010.06.28 07:06:18.
