data_PCOD8131420
_publ_section_title
;
Structure prediction by ZEFSAII (Michael W. Deem and Ramdas Pophale) SiO2 
 PCOD8131420
Probable space group: C 2/C
;
_chemical_formula_sum "Si O2"
_cell_formula_units_Z 56
_cell_length_a 17.971545
_cell_length_b 19.254423
_cell_length_c 23.390268
_cell_angle_alpha 90.000000
_cell_angle_beta 21.661452
_cell_angle_gamma 90.000000
_cell_volume 2987.586837
_symmetry_space_group_name_H-M "C 2/C"
_symmetry_group_IT_number 15
_symmetry_cell_setting 'monoclinic'
loop_
_space_group_symop_operation_xyz
x,y,z
-x,y,1/2-z
-x,-y,-z
x,-y,1/2+z
1/2+x,1/2+y,z
1/2-x,1/2+y,1/2-z
1/2-x,1/2-y,-z
1/2+x,1/2-y,1/2+z
loop_
_atom_site_type_symbol
_atom_site_label
_atom_site_fract_x
_atom_site_fract_y
_atom_site_fract_z
Si Si1 0.155845 0.198242 0.190686
Si Si2 0.651013 0.634999 0.310166
Si Si3 0.495085 0.912735 0.431395
Si Si4 0.397552 0.734914 0.678137
Si Si5 0.278832 0.308446 0.384768
Si Si6 0.057338 0.436938 0.513537
Si Si7 0.797148 0.843398 0.140647
O O1 0.062011 0.156994 0.311709
O O2 0.210130 0.277715 0.167485
O O3 0.000000 0.198162 0.250000
O O4 0.355965 0.155732 0.031246
O O5 0.773345 0.699485 0.246677
O O6 0.812684 0.572236 0.192647
O O7 0.461906 0.616085 0.484910
O O8 0.615696 0.922445 0.405415
O O9 0.631490 0.900313 0.277687
O O10 0.380689 0.986866 0.506987
O O11 0.282697 0.706107 0.814743
O O12 0.631531 0.754592 0.522464
O O13 0.399384 0.678659 0.626906
O O14 0.500000 0.300937 0.250000
O O15 0.187247 0.385000 0.459908
#
# Coordination Sequence:
#
# PCOD8131420 Si02
#       7
#     8   8   8   8   8   8   8
#     4  10  21  35  54  85 113 140 178 228 279 328
#     4   9  19  33  55  79 109 143 180 225 269 320
#     4  10  20  36  57  76 104 146 182 224 266 323
#     4  10  18  33  50  81 110 137 179 224 269 323
#     4  11  20  32  54  81 109 140 177 225 278 322
#     4   9  20  37  53  76 106 143 190 215 260 333
#     4  11  19  32  57  80 106 140 178 229 274 312
#
# _framework density 18.744223999999999
#
# number of rings (size 3 to 8) (size 9 to 14) (size 15 to 20)
#    0.000    2.000    2.857    3.000    0.000    3.429 
#    0.000    0.000    0.000    0.000    3.714    0.000 
#    0.000    0.000    0.000    0.000    0.000    0.000 
#
# Total GULP energy -346957.128270 kJ/mol
# GULP energy per Si atom -12391.326010 kJ/mol
# Density = 1.870156 g / cm^3
# Si number density = 18.744224 Si / 1000 Ang^3
#
#
#
# Elastic Constant Matrix: (Units=GPa)
#
#
# Indices 1 2 3 4 5 6 
#
# 1 45.7380 11.5607 20.5777 0.0645 1.7334 -0.0407
# 2 11.5607 73.2615 18.4360 0.0085 -0.6681 -0.0550
# 3 20.5777 18.4360 93.8432 -0.0614 22.9001 -0.0622
# 4 0.0645 0.0085 -0.0614 9.0402 -0.0591 8.1404
# 5 1.7334 -0.6681 22.9001 -0.0591 33.7378 0.0117
# 6 -0.0407 -0.0550 -0.0622 8.1404 0.0117 10.7397
#
#
#
# Elastic Compliance Matrix: (Units=1/GPa)
#
#
# Indices 1 2 3 4 5 6 
#
# 1 0.024911 -0.002507 -0.005567 -0.000753 0.002448 0.000618
# 2 -0.002507 0.014810 -0.002952 -0.000133 0.002425 0.000148
# 3 -0.005567 -0.002952 0.014863 0.000077 -0.009861 0.000002
# 4 -0.000753 -0.000133 0.000077 0.348485 0.000686 -0.264148
# 5 0.002448 0.002425 -0.009861 0.000686 0.036257 -0.000595
# 6 0.000618 0.000148 0.000002 -0.264148 -0.000595 0.293335
#
#
# Mechanical properties :
#
#
# Convention : Reuss Voigt Hill
#
# Bulk Modulus (GPa) = 30.73867 34.88794 32.81330
# Shear Modulus (GPa) = 6.53119 21.52142 14.02631
#
# Velocity S-wave (km/s) = 1.86867 3.39213 2.73848
# Velocity P-wave (km/s) = 4.59244 5.83053 5.24813
#
# Compressibility (1/GPa) = 0.03253231
#
# Stress axis : x y z
#
# Youngs Moduli (GPa) = 40.14302 67.52029 67.28094
#
# Poissons Ratio (x) = 0.16928 0.37457
# Poissons Ratio (y) = 0.10064 0.19859
# Poissons Ratio (z) = 0.22349 0.19930
#
# Static dielectric constant tensor:
#      x y z
#    x 3.393790 0.000090 0.362200 
#    y 0.000090 3.427090 0.000600 
#    z 0.362200 0.000600 3.676860 
# 
# 
# High freq. dielectric constant tensor:
#      x y z
#    x 1.706880 0.000000 0.017000 
#    y 0.000000 1.715980 0.000030 
#    z 0.017000 0.000030 1.727150 
# 
# From -- ./inp_files/57911.got.cif
#   From: 2010.06.25/outbox.cif.g09.slc.cpg/sg15_29_cif.got.tgz:57911.got - 2010.06.28 07:06:18.
