data_PCOD8131519
_publ_section_title
;
Structure prediction by ZEFSAII (Michael W. Deem and Ramdas Pophale) SiO2 
 PCOD8131519
Probable space group: C 2/C
;
_chemical_formula_sum "Si O2"
_cell_formula_units_Z 52
_cell_length_a 32.331943
_cell_length_b 8.800391
_cell_length_c 14.925758
_cell_angle_alpha 90.000000
_cell_angle_beta 142.483808
_cell_angle_gamma 90.000000
_cell_volume 2586.289869
_symmetry_space_group_name_H-M "C 2/C"
_symmetry_group_IT_number 15
_symmetry_cell_setting 'monoclinic'
loop_
_space_group_symop_operation_xyz
x,y,z
-x,y,1/2-z
-x,-y,-z
x,-y,1/2+z
1/2+x,1/2+y,z
1/2-x,1/2+y,1/2-z
1/2-x,1/2-y,-z
1/2+x,1/2-y,1/2+z
loop_
_atom_site_type_symbol
_atom_site_label
_atom_site_fract_x
_atom_site_fract_y
_atom_site_fract_z
Si Si1 0.388800 0.636167 0.428056
Si Si2 0.790910 0.784254 0.900102
Si Si3 0.104825 0.633895 0.298565
Si Si4 0.161632 0.852129 0.250456
Si Si5 0.500000 0.738003 0.750000
Si Si6 0.287300 0.558824 0.010572
Si Si7 0.641068 0.175992 0.785482
O O1 0.317444 0.705190 0.343912
O O2 0.384262 0.460973 0.389833
O O3 0.445517 0.636379 0.603082
O O4 0.404740 0.745280 0.370690
O O5 0.710783 0.748686 0.770923
O O6 0.808568 0.953403 0.965047
O O7 0.831216 0.657240 0.026014
O O8 0.112723 0.744298 0.225668
O O9 0.036188 0.662190 0.235949
O O10 0.098882 0.459828 0.257078
O O11 0.209854 0.956937 0.394645
O O12 0.211012 0.614218 0.864381
O O13 0.340307 0.697987 0.107432
#
# Coordination Sequence:
#
# PCOD8131519 Si02
#       7
#     8   8   8   8   4   8   8
#     4  10  24  35  56  83 120 155 199 237 287 349
#     4  10  18  34  54  89 122 147 177 241 300 353
#     4  10  19  37  63  79 117 152 197 237 294 345
#     4  10  18  34  58  89 110 153 185 238 303 353
#     4  10  24  44  54  78 114 168 208 250 274 336
#     4   9  17  31  54  85 123 138 177 223 304 364
#     4  10  18  33  56  89 109 156 179 235 292 356
#
# _framework density 20.106023
#
# number of rings (size 3 to 8) (size 9 to 14) (size 15 to 20)
#    0.000    2.154    3.077    0.923    2.154    1.231 
#    0.000    3.077    0.000   15.692    0.000    0.000 
#    0.000    0.000    0.000    0.000    0.000    0.000 
#
# Total GULP energy -322283.701886 kJ/mol
# GULP energy per Si atom -12395.526996 kJ/mol
# Density = 2.006026 g / cm^3
# Si number density = 20.106023 Si / 1000 Ang^3
#
#
#
# Elastic Constant Matrix: (Units=GPa)
#
#
# Indices 1 2 3 4 5 6 
#
# 1 116.0568 55.1469 25.3087 0.0000 11.9420 0.0000
# 2 55.1469 131.6415 30.7691 0.0000 -3.3360 0.0000
# 3 25.3087 30.7691 64.8703 0.0000 -1.6944 0.0000
# 4 0.0000 0.0000 0.0000 17.1736 0.0000 -1.5531
# 5 11.9420 -3.3360 -1.6944 0.0000 20.8994 0.0000
# 6 0.0000 0.0000 0.0000 -1.5531 0.0000 14.3464
#
#
#
# Elastic Compliance Matrix: (Units=1/GPa)
#
#
# Indices 1 2 3 4 5 6 
#
# 1 0.012274 -0.004697 -0.002769 0.000000 -0.007988 0.000000
# 2 -0.004697 0.010363 -0.002976 0.000000 0.004097 0.000000
# 3 -0.002769 -0.002976 0.017974 0.000000 0.002565 0.000000
# 4 0.000000 0.000000 0.000000 0.058804 0.000000 0.006366
# 5 -0.007988 0.004097 0.002565 0.000000 0.053274 0.000000
# 6 0.000000 0.000000 0.000000 0.006366 0.000000 0.070393
#
#
# Mechanical properties :
#
#
# Convention : Reuss Voigt Hill
#
# Bulk Modulus (GPa) = 50.69171 59.44643 55.06907
# Shear Modulus (GPa) = 19.95652 23.90682 21.93167
#
# Velocity S-wave (km/s) = 3.15392 3.45198 3.30631
# Velocity P-wave (km/s) = 6.20724 6.74677 6.48262
#
# Compressibility (1/GPa) = 0.01972709
#
# Stress axis : x y z
#
# Youngs Moduli (GPa) = 81.47150 96.49286 55.63445
#
# Poissons Ratio (x) = 0.45323 0.15408
# Poissons Ratio (y) = 0.38267 0.16557
# Poissons Ratio (z) = 0.22563 0.28717
#
# Static dielectric constant tensor:
#      x y z
#    x 3.568550 0.000000 -0.109910 
#    y 0.000000 3.773220 0.000000 
#    z -0.109910 0.000000 3.397070 
# 
# 
# High freq. dielectric constant tensor:
#      x y z
#    x 1.774910 0.000000 -0.011410 
#    y 0.000000 1.786000 0.000000 
#    z -0.011410 0.000000 1.754640 
# 
# From -- ./inp_files/181212.got.cif
#   From: 2010.06.25/outbox.cif.g09.slc.cpg/sg15_91_cif.got.tgz:181212.got - 2010.06.28 07:06:18.
