data_PCOD8131812
_publ_section_title
;
Structure prediction by ZEFSAII (Michael W. Deem and Ramdas Pophale) SiO2 
 PCOD8131812
Probable space group: C 2/C
;
_chemical_formula_sum "Si O2"
_cell_formula_units_Z 56
_cell_length_a 20.513160
_cell_length_b 16.432094
_cell_length_c 9.119794
_cell_angle_alpha 90.000000
_cell_angle_beta 110.186369
_cell_angle_gamma 90.000000
_cell_volume 2885.224130
_symmetry_space_group_name_H-M "C 2/C"
_symmetry_group_IT_number 15
_symmetry_cell_setting 'monoclinic'
loop_
_space_group_symop_operation_xyz
x,y,z
-x,y,1/2-z
-x,-y,-z
x,-y,1/2+z
1/2+x,1/2+y,z
1/2-x,1/2+y,1/2-z
1/2-x,1/2-y,-z
1/2+x,1/2-y,1/2+z
loop_
_atom_site_type_symbol
_atom_site_label
_atom_site_fract_x
_atom_site_fract_y
_atom_site_fract_z
Si Si1 0.240697 0.243978 0.165412
Si Si2 0.715321 0.667374 0.542659
Si Si3 0.833340 0.550228 0.600760
Si Si4 0.901014 0.687414 0.830290
Si Si5 0.025793 0.719753 0.116145
Si Si6 0.156388 0.605341 0.209123
Si Si7 0.436309 0.314904 0.624332
O O1 0.284813 0.314902 0.282257
O O2 0.159970 0.256123 0.146797
O O3 0.272103 0.157540 0.245596
O O4 0.250000 0.250000 0.000000
O O5 0.750000 0.750000 0.500000
O O6 0.755762 0.585456 0.538750
O O7 0.638893 0.643982 0.425751
O O8 0.876288 0.600079 0.755042
O O9 0.860637 0.558839 0.455817
O O10 0.834573 0.456487 0.648501
O O11 0.931782 0.731059 0.711251
O O12 0.961491 0.670775 0.994393
O O13 0.091275 0.662026 0.194956
O O14 0.000000 0.756000 0.250000
O O15 0.046003 0.796080 0.030528
O O16 0.500000 0.366357 0.750000
#
# Coordination Sequence:
#
# PCOD8131812 Si02
#       7
#     8   8   8   8   8   8   8
#     4  11  21  35  61  83 111 147 199 248 283 327
#     4  11  17  39  61  79 108 155 195 247 279 340
#     4  11  24  37  58  83 118 155 197 231 291 349
#     4  10  20  38  56  78 109 158 195 230 281 346
#     4  11  22  35  53  83 117 148 194 238 283 333
#     4  12  24  40  54  85 122 154 191 237 289 347
#     4  10  18  34  60  82 105 145 196 243 288 337
#
# _framework density 19.409237999999998
#
# number of rings (size 3 to 8) (size 9 to 14) (size 15 to 20)
#    0.000    1.143    7.143    0.857    6.000    0.571 
#    0.000    0.000    0.000    0.000    0.000   12.000 
#    0.000    0.000    0.000    0.000    0.000    0.000 
#
# Total GULP energy -346960.031678 kJ/mol
# GULP energy per Si atom -12391.429703 kJ/mol
# Density = 1.936506 g / cm^3
# Si number density = 19.409238 Si / 1000 Ang^3
#
#
#
# Elastic Constant Matrix: (Units=GPa)
#
#
# Indices 1 2 3 4 5 6 
#
# 1 106.5182 10.2265 29.8607 0.0000 17.8466 0.0000
# 2 10.2265 32.0697 6.7921 0.0000 0.3505 0.0000
# 3 29.8607 6.7921 95.5147 0.0000 -11.7824 0.0000
# 4 0.0000 0.0000 0.0000 23.8215 0.0000 -0.5739
# 5 17.8466 0.3505 -11.7824 0.0000 48.2481 0.0000
# 6 0.0000 0.0000 0.0000 -0.5739 0.0000 17.8926
#
#
#
# Elastic Compliance Matrix: (Units=1/GPa)
#
#
# Indices 1 2 3 4 5 6 
#
# 1 0.011700 -0.002802 -0.004114 0.000000 -0.005312 0.000000
# 2 -0.002802 0.032360 -0.001368 0.000000 0.000467 0.000000
# 3 -0.004114 -0.001368 0.012416 0.000000 0.004564 0.000000
# 4 0.000000 0.000000 0.000000 0.042011 0.000000 0.001348
# 5 -0.005312 0.000467 0.004564 0.000000 0.023802 0.000000
# 6 0.000000 0.000000 0.000000 0.001348 0.000000 0.055932
#
#
# Mechanical properties :
#
#
# Convention : Reuss Voigt Hill
#
# Bulk Modulus (GPa) = 25.05645 36.42901 30.74273
# Shear Modulus (GPa) = 24.02784 30.47399 27.25092
#
# Velocity S-wave (km/s) = 3.52228 3.96672 3.75109
# Velocity P-wave (km/s) = 5.42951 6.30789 5.88511
#
# Compressibility (1/GPa) = 0.03990988
#
# Stress axis : x y z
#
# Youngs Moduli (GPa) = 85.46747 30.90230 80.54160
#
# Poissons Ratio (x) = 0.08658 0.33134
# Poissons Ratio (y) = 0.23945 0.11015
# Poissons Ratio (z) = 0.35161 0.04226
#
# Static dielectric constant tensor:
#      x y z
#    x 3.937210 0.000000 0.196660 
#    y 0.000000 2.982100 0.000000 
#    z 0.196660 0.000000 3.949580 
# 
# 
# High freq. dielectric constant tensor:
#      x y z
#    x 1.769030 0.000000 0.003400 
#    y 0.000000 1.686300 0.000000 
#    z 0.003400 0.000000 1.780920 
# 
# From -- ./inp_files/56164.got.cif
#   From: 2010.06.25/outbox.cif.g09.slc.cpg/sg15_29_cif.got.tgz:56164.got - 2010.06.28 07:06:18.
