data_PCOD8131866
_publ_section_title
;
Structure prediction by ZEFSAII (Michael W. Deem and Ramdas Pophale) SiO2 
 PCOD8131866
Probable space group: C 2/C
;
_chemical_formula_sum "Si O2"
_cell_formula_units_Z 60
_cell_length_a 21.181194
_cell_length_b 9.101509
_cell_length_c 27.983331
_cell_angle_alpha 90.000000
_cell_angle_beta 147.420025
_cell_angle_gamma 90.000000
_cell_volume 2904.891090
_symmetry_space_group_name_H-M "C 2/C"
_symmetry_group_IT_number 15
_symmetry_cell_setting 'monoclinic'
loop_
_space_group_symop_operation_xyz
x,y,z
-x,y,1/2-z
-x,-y,-z
x,-y,1/2+z
1/2+x,1/2+y,z
1/2-x,1/2+y,1/2-z
1/2-x,1/2-y,-z
1/2+x,1/2-y,1/2+z
loop_
_atom_site_type_symbol
_atom_site_label
_atom_site_fract_x
_atom_site_fract_y
_atom_site_fract_z
Si Si1 0.808734 0.361655 0.255635
Si Si2 0.220065 0.459206 0.853233
Si Si3 0.500000 0.874916 0.250000
Si Si4 0.338732 0.472661 0.766270
Si Si5 0.593472 0.447446 0.953324
Si Si6 0.065821 0.350565 0.394753
Si Si7 0.373635 0.644712 0.694549
Si Si8 0.239353 0.088961 0.972421
O O1 0.750182 0.459420 0.176939
O O2 0.752425 0.411476 0.269772
O O3 0.782552 0.190062 0.228785
O O4 0.946861 0.397519 0.345620
O O5 0.113675 0.527745 0.814396
O O6 0.181574 0.292644 0.818484
O O7 0.337224 0.476858 0.959387
O O8 0.529173 0.786926 0.318030
O O9 0.454871 0.465237 0.873579
O O10 0.376283 0.522383 0.737320
O O11 0.627651 0.275662 0.965967
O O12 0.623737 0.525626 0.923067
O O13 0.146353 0.493498 0.441505
O O14 0.500000 0.669986 0.750000
O O15 0.279522 0.587960 0.596023
O O16 0.250000 0.250000 0.000000
#
# Coordination Sequence:
#
# PCOD8131866 Si02
#       8
#     8   8   4   8   8   8   8   8
#     4  10  25  45  70  92 131 177 223 268 329 392
#     4  11  22  40  65  95 130 173 211 265 326 389
#     4  10  18  34  62  94 126 166 210 250 326 376
#     4  11  25  47  67  97 129 175 225 272 325 396
#     4  11  23  39  64  96 133 168 215 273 330 382
#     4  10  23  39  64  92 131 170 214 272 321 390
#     4  12  24  40  67  99 135 172 220 270 327 390
#     4  12  23  38  60 101 135 169 214 267 336 381
#
# _framework density 20.654820000000001
#
# number of rings (size 3 to 8) (size 9 to 14) (size 15 to 20)
#    0.000    1.067    4.667    1.200    3.733    3.733 
#    1.200    0.667    0.000    0.000    0.000    0.000 
#    0.000    0.000    0.000    0.000    0.000    0.000 
#
# Total GULP energy -371894.740337 kJ/mol
# GULP energy per Si atom -12396.491345 kJ/mol
# Density = 2.060781 g / cm^3
# Si number density = 20.654820 Si / 1000 Ang^3
#
#
#
# Elastic Constant Matrix: (Units=GPa)
#
#
# Indices 1 2 3 4 5 6 
#
# 1 97.3919 45.0978 30.0836 0.0000 -1.9631 0.0000
# 2 45.0978 135.3223 35.7952 0.0000 -0.5509 -0.0002
# 3 30.0836 35.7952 85.3786 0.0003 -8.7363 0.0002
# 4 0.0000 0.0000 0.0003 28.5094 0.0002 -1.3873
# 5 -1.9631 -0.5509 -8.7363 0.0002 22.6440 0.0001
# 6 0.0000 -0.0002 0.0002 -1.3873 0.0001 25.6395
#
#
#
# Elastic Compliance Matrix: (Units=1/GPa)
#
#
# Indices 1 2 3 4 5 6 
#
# 1 0.012818 -0.003457 -0.003084 0.000000 -0.000163 0.000000
# 2 -0.003457 0.009275 -0.002788 0.000000 -0.001150 0.000000
# 3 -0.003084 -0.002788 0.014506 0.000000 0.005262 0.000000
# 4 0.000000 0.000000 0.000000 0.035169 0.000000 0.001903
# 5 -0.000163 -0.001150 0.005262 0.000000 0.046150 0.000000
# 6 0.000000 0.000000 0.000000 0.001903 0.000000 0.039105
#
#
# Mechanical properties :
#
#
# Convention : Reuss Voigt Hill
#
# Bulk Modulus (GPa) = 55.73619 60.00512 57.87066
# Shear Modulus (GPa) = 27.52395 29.16631 28.34513
#
# Velocity S-wave (km/s) = 3.65440 3.76185 3.70851
# Velocity P-wave (km/s) = 6.69696 6.92698 6.81294
#
# Compressibility (1/GPa) = 0.01794166
#
# Stress axis : x y z
#
# Youngs Moduli (GPa) = 78.01730 107.82216 68.93500
#
# Poissons Ratio (x) = 0.37270 0.21258
# Poissons Ratio (y) = 0.26967 0.19220
# Poissons Ratio (z) = 0.24059 0.30062
#
# Static dielectric constant tensor:
#      x y z
#    x 3.655180 0.000000 -0.026320 
#    y 0.000000 3.244170 0.000000 
#    z -0.026320 0.000000 3.813810 
# 
# 
# High freq. dielectric constant tensor:
#      x y z
#    x 1.801610 0.000000 0.001590 
#    y 0.000000 1.811460 0.000000 
#    z 0.001590 0.000000 1.805570 
# 
# From -- ./inp_files/213869.got.cif
#   From: 2010.06.25/outbox.cif.g09.slc.cpg/sg15_107_cif.got.tgz:213869.got - 2010.06.28 07:06:18.
