data_PCOD8131748
_publ_section_title
;
Structure prediction by ZEFSAII (Michael W. Deem and Ramdas Pophale) SiO2 
 PCOD8131748
Probable space group: C 2/C
;
_chemical_formula_sum "Si O2"
_cell_formula_units_Z 64
_cell_length_a 21.429464
_cell_length_b 9.964496
_cell_length_c 21.968913
_cell_angle_alpha 90.000000
_cell_angle_beta 49.554152
_cell_angle_gamma 90.000000
_cell_volume 3570.022596
_symmetry_space_group_name_H-M "C 2/C"
_symmetry_group_IT_number 15
_symmetry_cell_setting 'monoclinic'
loop_
_space_group_symop_operation_xyz
x,y,z
-x,y,1/2-z
-x,-y,-z
x,-y,1/2+z
1/2+x,1/2+y,z
1/2-x,1/2+y,1/2-z
1/2-x,1/2-y,-z
1/2+x,1/2-y,1/2+z
loop_
_atom_site_type_symbol
_atom_site_label
_atom_site_fract_x
_atom_site_fract_y
_atom_site_fract_z
Si Si1 0.014769 0.370739 0.449893
Si Si2 0.987348 0.541465 0.358761
Si Si3 0.287677 0.456786 0.544860
Si Si4 0.615701 0.978566 0.186169
Si Si5 0.627384 0.181878 0.978328
Si Si6 0.251201 0.042085 0.064077
Si Si7 0.089421 0.817951 0.677251
Si Si8 0.873915 0.220073 0.484741
O O1 0.027331 0.420868 0.372926
O O2 0.091934 0.295204 0.432175
O O3 0.000000 0.500000 0.500000
O O4 0.936222 0.273532 0.496622
O O5 0.060389 0.574853 0.265044
O O6 0.908992 0.495410 0.369166
O O7 0.950262 0.656191 0.426634
O O8 0.207741 0.471348 0.637949
O O9 0.327188 0.313305 0.529083
O O10 0.261695 0.469705 0.491662
O O11 0.349753 0.573705 0.524595
O O12 0.603184 0.819894 0.206952
O O13 0.691292 0.057430 0.933201
O O14 0.161210 0.074827 0.149812
O O15 0.294180 0.186030 0.029856
O O16 0.087963 0.791689 0.606162
O O17 0.000000 0.878706 0.750000
#
# Coordination Sequence:
#
# PCOD8131748 Si02
#       8
#     8   8   8   8   8   8   8   8
#     4  10  18  34  58  78 107 146 193 218 269 334
#     4  10  19  32  57  85 104 141 189 231 269 336
#     4  11  21  33  56  83 112 143 182 236 279 326
#     4  11  17  31  59  85 107 134 186 235 287 323
#     4  11  22  36  56  80 113 158 182 220 279 337
#     4  11  19  34  54  85 110 135 188 229 273 321
#     4  11  18  30  55  88 108 134 179 239 287 306
#     4  11  18  35  57  83 106 139 193 235 260 326
#
# _framework density 17.927057999999999
#
# number of rings (size 3 to 8) (size 9 to 14) (size 15 to 20)
#    0.000    1.250    8.750    1.125    0.000    0.500 
#    0.000    2.500   11.000    0.000    0.000    0.000 
#    0.000    0.000    0.000    0.000    0.000    0.000 
#
# Total GULP energy -396450.946974 kJ/mol
# GULP energy per Si atom -12389.092093 kJ/mol
# Density = 1.788626 g / cm^3
# Si number density = 17.927058 Si / 1000 Ang^3
#
#
#
# Elastic Constant Matrix: (Units=GPa)
#
#
# Indices 1 2 3 4 5 6 
#
# 1 103.2916 31.0703 41.9681 0.0000 -11.4624 -0.0001
# 2 31.0703 80.9054 38.4290 -0.0001 -13.4079 -0.0001
# 3 41.9681 38.4290 102.0350 0.0000 -27.3737 0.0000
# 4 0.0000 -0.0001 0.0000 17.3291 0.0000 -7.3943
# 5 -11.4624 -13.4079 -27.3737 0.0000 27.0426 0.0000
# 6 -0.0001 -0.0001 0.0000 -7.3943 0.0000 19.6175
#
#
#
# Elastic Compliance Matrix: (Units=1/GPa)
#
#
# Indices 1 2 3 4 5 6 
#
# 1 0.012120 -0.002799 -0.004015 0.000000 -0.000315 0.000000
# 2 -0.002799 0.015811 -0.004144 0.000000 0.002458 0.000000
# 3 -0.004015 -0.004144 0.016480 0.000000 0.012926 0.000000
# 4 0.000000 0.000000 0.000000 0.068767 0.000000 0.025920
# 5 -0.000315 0.002458 0.012926 0.000000 0.051148 0.000000
# 6 0.000000 0.000000 0.000000 0.025920 0.000000 0.060745
#
#
# Mechanical properties :
#
#
# Convention : Reuss Voigt Hill
#
# Bulk Modulus (GPa) = 44.45655 56.57410 50.51533
# Shear Modulus (GPa) = 19.64749 24.44879 22.04814
#
# Velocity S-wave (km/s) = 3.31413 3.69696 3.51077
# Velocity P-wave (km/s) = 6.28467 7.06044 6.68382
#
# Compressibility (1/GPa) = 0.02249387
#
# Stress axis : x y z
#
# Youngs Moduli (GPa) = 82.50919 63.24777 60.67790
#
# Poissons Ratio (x) = 0.17706 0.24364
# Poissons Ratio (y) = 0.23098 0.25145
# Poissons Ratio (z) = 0.33129 0.26209
#
# Static dielectric constant tensor:
#      x y z
#    x 3.756960 0.000000 -0.087620 
#    y 0.000000 3.146800 0.000000 
#    z -0.087620 0.000000 3.209230 
# 
# 
# High freq. dielectric constant tensor:
#      x y z
#    x 1.692330 0.000000 -0.016240 
#    y 0.000000 1.672610 0.000000 
#    z -0.016240 0.000000 1.676540 
# 
# From -- ./inp_files/279560.got.cif
#   From: 2010.06.25/outbox.cif.g09.slc.cpg/sg15_140_cif.got.tgz:279560.got - 2010.06.28 07:06:18.
