data_PCOD8131106
_publ_section_title
;
Structure prediction by ZEFSAII (Michael W. Deem and Ramdas Pophale) SiO2 
 PCOD8131106
Probable space group: C 2/C
;
_chemical_formula_sum "Si O2"
_cell_formula_units_Z 56
_cell_length_a 20.254125
_cell_length_b 11.837297
_cell_length_c 26.539179
_cell_angle_alpha 90.000000
_cell_angle_beta 30.918812
_cell_angle_gamma 90.000000
_cell_volume 3269.392149
_symmetry_space_group_name_H-M "C 2/C"
_symmetry_group_IT_number 15
_symmetry_cell_setting 'monoclinic'
loop_
_space_group_symop_operation_xyz
x,y,z
-x,y,1/2-z
-x,-y,-z
x,-y,1/2+z
1/2+x,1/2+y,z
1/2-x,1/2+y,1/2-z
1/2-x,1/2-y,-z
1/2+x,1/2-y,1/2+z
loop_
_atom_site_type_symbol
_atom_site_label
_atom_site_fract_x
_atom_site_fract_y
_atom_site_fract_z
Si Si1 0.487688 0.520657 0.067904
Si Si2 0.787366 0.530505 0.732776
Si Si3 0.891556 0.348999 0.937345
Si Si4 0.395446 0.754663 0.106957
Si Si5 0.781939 0.891868 0.535168
Si Si6 0.657043 0.874746 0.718799
Si Si7 0.024370 0.598310 0.446616
O O1 0.365738 0.451921 0.170255
O O2 0.464173 0.654074 0.092630
O O3 0.500000 0.500000 0.000000
O O4 0.610409 0.482867 0.019784
O O5 0.863324 0.642337 0.665709
O O6 0.824095 0.496639 0.766092
O O7 0.831056 0.420261 0.669972
O O8 0.787204 0.419722 0.972931
O O9 0.017195 0.323476 0.821236
O O10 0.927159 0.420324 0.963407
O O11 0.840704 0.231162 0.991160
O O12 0.264468 0.713230 0.167311
O O13 0.495826 0.786710 0.995929
O O14 0.671894 0.892496 0.649626
O O15 0.000000 0.500000 0.500000
#
# Coordination Sequence:
#
# PCOD8131106 Si02
#       7
#     8   8   8   8   8   8   8
#     4  11  19  32  49  75 110 137 174 218 257 313
#     4   9  19  31  50  75 103 141 174 220 260 312
#     4  10  20  32  52  75 109 140 169 207 268 321
#     4  10  18  31  54  76 105 135 179 217 266 306
#     4  11  20  33  49  79 111 138 170 213 267 318
#     4  10  18  33  50  76 107 138 174 217 256 326
#     4   9  17  33  53  74 101 132 178 215 256 310
#
# _framework density 17.128567
#
# number of rings (size 3 to 8) (size 9 to 14) (size 15 to 20)
#    0.000    2.000    4.286    1.286    0.000    2.286 
#    0.000    0.000    0.000    7.714    0.000    0.000 
#    0.000    0.000    0.000    0.000    0.000    0.000 
#
# Total GULP energy -346883.553088 kJ/mol
# GULP energy per Si atom -12388.698325 kJ/mol
# Density = 1.708958 g / cm^3
# Si number density = 17.128567 Si / 1000 Ang^3
#
#
#
# Elastic Constant Matrix: (Units=GPa)
#
#
# Indices 1 2 3 4 5 6 
#
# 1 93.8756 38.1761 43.3916 -0.0005 3.2553 -0.0001
# 2 38.1761 75.4478 36.2266 0.0005 5.8722 -0.0003
# 3 43.3916 36.2266 103.2886 0.0003 5.0270 -0.0004
# 4 -0.0005 0.0005 0.0003 30.3740 0.0004 -0.4273
# 5 3.2553 5.8722 5.0270 0.0004 22.0618 -0.0001
# 6 -0.0001 -0.0003 -0.0004 -0.4273 -0.0001 19.4224
#
#
#
# Elastic Compliance Matrix: (Units=1/GPa)
#
#
# Indices 1 2 3 4 5 6 
#
# 1 0.014872 -0.005458 -0.004346 0.000000 0.000249 0.000000
# 2 -0.005458 0.018140 -0.003917 0.000000 -0.003131 0.000000
# 3 -0.004346 -0.003917 0.012943 0.000000 -0.001265 0.000000
# 4 0.000000 0.000000 0.000000 0.032933 -0.000001 0.000725
# 5 0.000249 -0.003131 -0.001265 -0.000001 0.046412 0.000000
# 6 0.000000 0.000000 0.000000 0.000725 0.000000 0.051503
#
#
# Mechanical properties :
#
#
# Convention : Reuss Voigt Hill
#
# Bulk Modulus (GPa) = 54.01411 56.46674 55.24042
# Shear Modulus (GPa) = 23.76249 24.69280 24.22765
#
# Velocity S-wave (km/s) = 3.72869 3.80098 3.76501
# Velocity P-wave (km/s) = 7.08099 7.23196 7.15688
#
# Compressibility (1/GPa) = 0.01851368
#
# Stress axis : x y z
#
# Youngs Moduli (GPa) = 67.24062 55.12567 77.26397
#
# Poissons Ratio (x) = 0.30087 0.33575
# Poissons Ratio (y) = 0.36699 0.30266
# Poissons Ratio (z) = 0.29220 0.21594
#
# Static dielectric constant tensor:
#      x y z
#    x 3.153740 0.000000 -0.341490 
#    y 0.000000 3.241290 -0.000010 
#    z -0.341490 -0.000010 0.852170 
# 
# 
# High freq. dielectric constant tensor:
#      x y z
#    x 1.640090 0.000000 0.010970 
#    y 0.000000 1.639660 0.000000 
#    z 0.010970 0.000000 1.685060 
# 
# From -- ./inp_files/279777.got.cif
#   From: 2010.06.25/outbox.cif.g09.slc.cpg/sg15_140_cif.got.tgz:279777.got - 2010.06.28 07:06:18.
