data_PCOD8131641
_publ_section_title
;
Structure prediction by ZEFSAII (Michael W. Deem and Ramdas Pophale) SiO2 
 PCOD8131641
Probable space group: C 2/C
;
_chemical_formula_sum "Si O2"
_cell_formula_units_Z 44
_cell_length_a 15.946770
_cell_length_b 17.482955
_cell_length_c 8.962815
_cell_angle_alpha 90.000000
_cell_angle_beta 105.459360
_cell_angle_gamma 90.000000
_cell_volume 2408.395627
_symmetry_space_group_name_H-M "C 2/C"
_symmetry_group_IT_number 15
_symmetry_cell_setting 'monoclinic'
loop_
_space_group_symop_operation_xyz
x,y,z
-x,y,1/2-z
-x,-y,-z
x,-y,1/2+z
1/2+x,1/2+y,z
1/2-x,1/2+y,1/2-z
1/2-x,1/2-y,-z
1/2+x,1/2-y,1/2+z
loop_
_atom_site_type_symbol
_atom_site_label
_atom_site_fract_x
_atom_site_fract_y
_atom_site_fract_z
Si Si1 0.000000 0.700738 0.250000
Si Si2 0.342507 0.589843 0.261706
Si Si3 0.456349 0.337034 0.032258
Si Si4 0.203496 0.837492 0.339746
Si Si5 0.813012 0.339507 0.668621
Si Si6 0.372841 0.567446 0.930242
O O1 0.989766 0.752330 0.094278
O O2 0.916282 0.645932 0.231419
O O3 0.403681 0.660671 0.348735
O O4 0.240589 0.608795 0.239986
O O5 0.372731 0.519690 0.379025
O O6 0.356772 0.571634 0.097790
O O7 0.387630 0.361098 0.126662
O O8 0.534908 0.396078 0.066068
O O9 0.207531 0.748399 0.302955
O O10 0.283408 0.859407 0.485579
O O11 0.205884 0.886723 0.188938
#
# Coordination Sequence:
#
# PCOD8131641 Si02
#       6
#     4   8   8   8   8   8
#     4  10  18  36  66  74 110 142 192 222 270 322
#     4  11  24  32  54  80 120 145 182 219 277 324
#     4  10  18  34  52  83 108 150 173 214 270 330
#     4   9  18  34  58  75 112 140 186 215 274 327
#     4   9  18  36  55  81 100 151 181 225 266 323
#     4  12  21  35  52  83 114 149 175 226 267 337
#
# _framework density 18.269423
#
# number of rings (size 3 to 8) (size 9 to 14) (size 15 to 20)
#    0.000    1.818    3.636    4.364    0.000    2.182 
#    0.000    0.000    0.000    4.364    0.000    0.000 
#    0.000    0.000    0.000    0.000    0.000    0.000 
#
# Total GULP energy -272654.827779 kJ/mol
# GULP energy per Si atom -12393.401263 kJ/mol
# Density = 1.822784 g / cm^3
# Si number density = 18.269423 Si / 1000 Ang^3
#
#
#
# Elastic Constant Matrix: (Units=GPa)
#
#
# Indices 1 2 3 4 5 6 
#
# 1 127.2528 36.7157 38.0229 0.0000 19.7433 0.0000
# 2 36.7157 43.6022 29.3204 0.0000 -1.5608 0.0000
# 3 38.0229 29.3204 130.9507 0.0000 1.6316 0.0000
# 4 0.0000 0.0000 0.0000 27.4900 0.0000 -1.0489
# 5 19.7433 -1.5608 1.6316 0.0000 22.6427 0.0000
# 6 0.0000 0.0000 0.0000 -1.0489 0.0000 28.6859
#
#
#
# Elastic Compliance Matrix: (Units=1/GPa)
#
#
# Indices 1 2 3 4 5 6 
#
# 1 0.013220 -0.010699 -0.001291 0.000000 -0.012171 0.000000
# 2 -0.010699 0.035779 -0.005056 0.000000 0.012160 0.000000
# 3 -0.001291 -0.005056 0.009142 0.000000 0.000119 0.000000
# 4 0.000000 0.000000 0.000000 0.036428 0.000000 0.001332
# 5 -0.012171 0.012160 0.000119 0.000000 0.055607 0.000000
# 6 0.000000 0.000000 0.000000 0.001332 0.000000 0.034909
#
#
# Mechanical properties :
#
#
# Convention : Reuss Voigt Hill
#
# Bulk Modulus (GPa) = 41.58347 56.65820 49.12084
# Shear Modulus (GPa) = 22.00778 28.94685 25.47731
#
# Velocity S-wave (km/s) = 3.47453 3.98482 3.73840
# Velocity P-wave (km/s) = 6.23756 7.22853 6.75125
#
# Compressibility (1/GPa) = 0.02404801
#
# Stress axis : x y z
#
# Youngs Moduli (GPa) = 75.64582 27.94929 109.38567
#
# Poissons Ratio (x) = 0.29903 0.14124
# Poissons Ratio (y) = 0.80934 0.55306
# Poissons Ratio (z) = 0.09767 0.14131
#
# Static dielectric constant tensor:
#      x y z
#    x 3.413800 0.000000 0.261620 
#    y 0.000000 3.194830 0.000000 
#    z 0.261620 0.000000 3.605570 
# 
# 
# High freq. dielectric constant tensor:
#      x y z
#    x 1.695680 0.000000 0.018680 
#    y 0.000000 1.677420 0.000000 
#    z 0.018680 0.000000 1.709760 
# 
# From -- ./inp_files/39274.got.cif
#   From: 2010.06.25/outbox.cif.g09.slc.cpg/sg15_20_cif.got.tgz:39274.got - 2010.06.28 07:06:18.
