data_PCOD8131286
_publ_section_title
;
Structure prediction by ZEFSAII (Michael W. Deem and Ramdas Pophale) SiO2 
 PCOD8131286
Probable space group: C 2/C
;
_chemical_formula_sum "Si O2"
_cell_formula_units_Z 64
_cell_length_a 11.985027
_cell_length_b 24.666092
_cell_length_c 22.136065
_cell_angle_alpha 90.000000
_cell_angle_beta 147.842844
_cell_angle_gamma 90.000000
_cell_volume 3482.972501
_symmetry_space_group_name_H-M "C 2/C"
_symmetry_group_IT_number 15
_symmetry_cell_setting 'monoclinic'
loop_
_space_group_symop_operation_xyz
x,y,z
-x,y,1/2-z
-x,-y,-z
x,-y,1/2+z
1/2+x,1/2+y,z
1/2-x,1/2+y,1/2-z
1/2-x,1/2-y,-z
1/2+x,1/2-y,1/2+z
loop_
_atom_site_type_symbol
_atom_site_label
_atom_site_fract_x
_atom_site_fract_y
_atom_site_fract_z
Si Si1 0.503937 0.320996 0.490596
Si Si2 0.453693 0.195844 0.164101
Si Si3 0.496842 0.570345 0.446539
Si Si4 0.665391 0.986125 0.877360
Si Si5 0.273512 0.264532 0.290116
Si Si6 0.861259 0.591891 0.300235
Si Si7 0.926630 0.275909 0.039535
Si Si8 0.272488 0.340368 0.655241
O O1 0.718005 0.326311 0.550535
O O2 0.439064 0.369240 0.505101
O O3 0.322259 0.313612 0.357812
O O4 0.526087 0.267228 0.540129
O O5 0.500000 0.222317 0.250000
O O6 0.511837 0.241593 0.141701
O O7 0.602468 0.142939 0.227472
O O8 0.714518 0.537498 0.538447
O O9 0.348343 0.550006 0.432506
O O10 0.367184 0.568628 0.324131
O O11 0.500000 0.004456 0.750000
O O12 0.542603 0.953299 0.873835
O O13 0.177624 0.213860 0.283089
O O14 0.115178 0.292220 0.170383
O O15 0.862735 0.614613 0.369673
O O16 0.750000 0.250000 0.000000
O O17 0.843943 0.326781 0.961595
O O18 0.500000 0.367081 0.750000
#
# Coordination Sequence:
#
# PCOD8131286 Si02
#       8
#     8   8   8   8   8   8   8   8
#     4  11  20  32  51  78 108 143 179 218 268 326
#     4  11  16  31  52  75 104 143 185 215 259 315
#     4  10  18  32  55  80 107 140 172 226 282 328
#     4   9  18  34  53  80 111 132 172 233 289 330
#     4  10  21  32  48  75 114 147 175 223 262 307
#     4  10  18  33  56  79 104 137 183 227 271 331
#     4  11  21  35  50  74 116 147 180 221 256 317
#     4  10  20  33  53  77 103 149 190 215 260 319
#
# _framework density 18.375109999999999
#
# number of rings (size 3 to 8) (size 9 to 14) (size 15 to 20)
#    0.000    1.750    5.000    1.500    0.000    0.000 
#    2.250    0.000    0.000    0.750    0.000    0.000 
#    0.000    0.000    0.000    0.000    0.000    0.000 
#
# Total GULP energy -396611.479940 kJ/mol
# GULP energy per Si atom -12394.108748 kJ/mol
# Density = 1.833329 g / cm^3
# Si number density = 18.375110 Si / 1000 Ang^3
#
#
#
# Elastic Constant Matrix: (Units=GPa)
#
#
# Indices 1 2 3 4 5 6 
#
# 1 80.1058 21.6886 34.4417 0.0027 1.4144 0.0000
# 2 21.6886 53.3916 38.1101 -0.0002 6.9009 0.0001
# 3 34.4417 38.1101 118.3597 -0.0082 -2.8363 0.0029
# 4 0.0027 -0.0002 -0.0082 27.5117 0.0024 -0.5918
# 5 1.4144 6.9009 -2.8363 0.0024 25.3235 0.0014
# 6 0.0000 0.0001 0.0029 -0.5918 0.0014 24.2880
#
#
#
# Elastic Compliance Matrix: (Units=1/GPa)
#
#
# Indices 1 2 3 4 5 6 
#
# 1 0.014848 -0.003800 -0.003100 -0.000002 -0.000141 0.000000
# 2 -0.003800 0.026810 -0.007717 -0.000001 -0.007958 0.000001
# 3 -0.003100 -0.007717 0.011922 0.000003 0.003612 -0.000002
# 4 -0.000002 -0.000001 0.000003 0.036367 -0.000003 0.000886
# 5 -0.000141 -0.007958 0.003612 -0.000003 0.042070 -0.000003
# 6 0.000000 0.000001 -0.000002 0.000886 -0.000003 0.041194
#
#
# Mechanical properties :
#
#
# Convention : Reuss Voigt Hill
#
# Bulk Modulus (GPa) = 41.07672 48.92642 45.00157
# Shear Modulus (GPa) = 23.74580 25.93242 24.83911
#
# Velocity S-wave (km/s) = 3.59873 3.76078 3.68065
# Velocity P-wave (km/s) = 6.29848 6.74849 6.52737
#
# Compressibility (1/GPa) = 0.02434469
#
# Stress axis : x y z
#
# Youngs Moduli (GPa) = 67.34954 37.29883 83.87527
#
# Poissons Ratio (x) = 0.14175 0.26004
# Poissons Ratio (y) = 0.25595 0.64730
# Poissons Ratio (z) = 0.20881 0.28785
#
# Static dielectric constant tensor:
#      x y z
#    x 3.452970 0.000000 0.049830 
#    y 0.000000 3.166460 -0.000010 
#    z 0.049830 -0.000010 3.427230 
# 
# 
# High freq. dielectric constant tensor:
#      x y z
#    x 1.710170 0.000000 0.009410 
#    y 0.000000 1.671910 0.000000 
#    z 0.009410 0.000000 1.709500 
# 
# From -- ./inp_files/240701.got.cif
#   From: 2010.06.25/outbox.cif.g09.slc.cpg/sg15_121_cif.got.tgz:240701.got - 2010.06.28 07:06:18.
