data_PCOD8131896
_publ_section_title
;
Structure prediction by ZEFSAII (Michael W. Deem and Ramdas Pophale) SiO2 
 PCOD8131896
Probable space group: C 2/C
;
_chemical_formula_sum "Si O2"
_cell_formula_units_Z 40
_cell_length_a 20.401414
_cell_length_b 7.991125
_cell_length_c 10.494111
_cell_angle_alpha 90.000000
_cell_angle_beta 110.485889
_cell_angle_gamma 90.000000
_cell_volume 1602.660185
_symmetry_space_group_name_H-M "C 2/C"
_symmetry_group_IT_number 15
_symmetry_cell_setting 'monoclinic'
loop_
_space_group_symop_operation_xyz
x,y,z
-x,y,1/2-z
-x,-y,-z
x,-y,1/2+z
1/2+x,1/2+y,z
1/2-x,1/2+y,1/2-z
1/2-x,1/2-y,-z
1/2+x,1/2-y,1/2+z
loop_
_atom_site_type_symbol
_atom_site_label
_atom_site_fract_x
_atom_site_fract_y
_atom_site_fract_z
Si Si1 0.767445 0.928641 0.068472
Si Si2 0.514164 0.732750 0.429921
Si Si3 0.054175 0.416331 0.683069
Si Si4 0.803964 0.576289 0.710559
Si Si5 0.390725 0.612362 0.230064
O O1 0.773564 0.531331 0.828858
O O2 0.750508 0.060680 0.943717
O O3 0.750000 0.750000 0.000000
O O4 0.851459 0.943615 0.157510
O O5 0.555662 0.755937 0.588923
O O6 0.452084 0.588989 0.380617
O O7 0.570443 0.708006 0.358232
O O8 0.472065 0.907171 0.389078
O O9 0.133816 0.445440 0.781982
O O10 0.000000 0.350893 0.750000
O O11 0.828528 0.768091 0.736605
#
# Coordination Sequence:
#
# PCOD8131896 Si02
#       5
#     8   8   8   8   8
#     4  12  27  44  68 101 142 191 242 295 354 436
#     4   9  18  35  68 103 136 188 226 287 367 427
#     4  10  18  34  67 111 139 174 234 292 355 437
#     4  11  23  42  70 105 139 185 238 294 358 432
#     4  10  20  41  69  96 139 184 230 289 355 417
#
# _framework density 24.958503
#
# number of rings (size 3 to 8) (size 9 to 14) (size 15 to 20)
#    0.000    1.600    4.000    3.000    5.600    1.600 
#    0.000    0.000    4.400   31.200    0.000    0.000 
#    0.000    0.000    0.000    0.000    0.000    0.000 
#
# Total GULP energy -247772.830595 kJ/mol
# GULP energy per Si atom -12388.641530 kJ/mol
# Density = 2.490170 g / cm^3
# Si number density = 24.958503 Si / 1000 Ang^3
#
#
#
# Elastic Constant Matrix: (Units=GPa)
#
#
# Indices 1 2 3 4 5 6 
#
# 1 112.3876 18.3862 47.5456 0.0000 7.1164 0.0000
# 2 18.3862 60.5355 8.7160 0.0000 15.2716 0.0000
# 3 47.5456 8.7160 94.4955 0.0000 8.6104 0.0000
# 4 0.0000 0.0000 0.0000 24.3061 0.0000 14.4698
# 5 7.1164 15.2716 8.6104 0.0000 47.5749 0.0000
# 6 0.0000 0.0000 0.0000 14.4698 0.0000 17.9985
#
#
#
# Elastic Compliance Matrix: (Units=1/GPa)
#
#
# Indices 1 2 3 4 5 6 
#
# 1 0.011741 -0.002792 -0.005665 0.000000 0.000165 0.000000
# 2 -0.002792 0.018763 0.000188 0.000000 -0.005639 0.000000
# 3 -0.005665 0.000188 0.013567 0.000000 -0.001669 0.000000
# 4 0.000000 0.000000 0.000000 0.078907 0.000000 -0.063437
# 5 0.000165 -0.005639 -0.001669 0.000000 0.023107 0.000000
# 6 0.000000 0.000000 0.000000 -0.063437 0.000000 0.106560
#
#
# Mechanical properties :
#
#
# Convention : Reuss Voigt Hill
#
# Bulk Modulus (GPa) = 36.31969 46.30159 41.31064
# Shear Modulus (GPa) = 17.96237 30.82726 24.39481
#
# Velocity S-wave (km/s) = 2.68561 3.51827 3.12976
# Velocity P-wave (km/s) = 4.91938 5.92419 5.44501
#
# Compressibility (1/GPa) = 0.02753327
#
# Stress axis : x y z
#
# Youngs Moduli (GPa) = 85.17459 53.29684 73.70565
#
# Poissons Ratio (x) = 0.14880 0.41753
# Poissons Ratio (y) = 0.23781 -0.01386
# Poissons Ratio (z) = 0.48250 -0.01002
#
# Static dielectric constant tensor:
#      x y z
#    x 4.502280 0.000000 0.430520 
#    y 0.000000 4.292690 0.000000 
#    z 0.430520 0.000000 5.441320 
# 
# 
# High freq. dielectric constant tensor:
#      x y z
#    x 1.995180 0.000000 0.011800 
#    y 0.000000 1.977880 0.000000 
#    z 0.011800 0.000000 1.999500 
# 
# From -- ./inp_files/109779.got.cif
#   From: 2010.06.25/outbox.cif.g09.slc.cpg/sg15_55_cif.got.tgz:109779.got - 2010.06.28 07:06:18.
