data_PCOD8131283
_publ_section_title
;
Structure prediction by ZEFSAII (Michael W. Deem and Ramdas Pophale) SiO2 
 PCOD8131283
Probable space group: C 2/C
;
_chemical_formula_sum "Si O2"
_cell_formula_units_Z 48
_cell_length_a 12.439967
_cell_length_b 13.338830
_cell_length_c 14.391924
_cell_angle_alpha 90.000000
_cell_angle_beta 81.013331
_cell_angle_gamma 90.000000
_cell_volume 2358.803384
_symmetry_space_group_name_H-M "C 2/C"
_symmetry_group_IT_number 15
_symmetry_cell_setting 'monoclinic'
loop_
_space_group_symop_operation_xyz
x,y,z
-x,y,1/2-z
-x,-y,-z
x,-y,1/2+z
1/2+x,1/2+y,z
1/2-x,1/2+y,1/2-z
1/2-x,1/2-y,-z
1/2+x,1/2-y,1/2+z
loop_
_atom_site_type_symbol
_atom_site_label
_atom_site_fract_x
_atom_site_fract_y
_atom_site_fract_z
Si Si1 0.107092 0.613784 0.671080
Si Si2 0.233848 0.721987 0.803438
Si Si3 0.983070 0.965783 0.646521
Si Si4 0.126601 0.863740 0.063506
Si Si5 0.247913 0.929843 0.874360
Si Si6 0.518677 0.250012 0.930945
O O1 0.205927 0.675624 0.706346
O O2 0.147608 0.502201 0.639913
O O3 0.000000 0.607606 0.750000
O O4 0.077746 0.670577 0.577691
O O5 0.334631 0.665441 0.838980
O O6 0.262883 0.840829 0.795734
O O7 0.129496 0.700466 0.880667
O O8 0.859097 0.993224 0.637094
O O9 0.007647 0.849168 0.625644
O O10 0.000000 0.993786 0.750000
O O11 0.064579 0.030917 0.573443
O O12 0.227918 0.876489 0.977522
O O13 0.039747 0.780221 0.035971
#
# Coordination Sequence:
#
# PCOD8131283 Si02
#       6
#     8   8   8   8   8   8
#     4  10  20  35  55  78 105 140 178 213 255 309
#     4   9  18  34  55  75 102 142 178 205 253 321
#     4  10  18  32  55  78 102 135 175 218 259 307
#     4  10  19  34  54  79 105 136 177 216 257 308
#     4  10  19  34  53  77 104 136 174 217 256 307
#     4   9  17  33  53  75 103 141 175 207 254 320
#
# _framework density 20.349299999999999
#
# number of rings (size 3 to 8) (size 9 to 14) (size 15 to 20)
#    0.000    2.667    0.000    7.500    0.000    0.000 
#    0.000   13.333    0.000    0.000    0.000    0.000 
#    0.000    0.000    0.000    0.000    0.000    0.000 
#
# Total GULP energy -297357.930293 kJ/mol
# GULP energy per Si atom -12389.913762 kJ/mol
# Density = 2.030298 g / cm^3
# Si number density = 20.349300 Si / 1000 Ang^3
#
#
#
# Elastic Constant Matrix: (Units=GPa)
#
#
# Indices 1 2 3 4 5 6 
#
# 1 79.1225 57.6248 30.8531 0.0000 28.2559 0.0000
# 2 57.6248 97.7234 17.1495 0.0000 11.5390 0.0000
# 3 30.8531 17.1495 48.1315 0.0000 28.2772 0.0000
# 4 0.0000 0.0000 0.0000 13.9258 0.0000 2.0000
# 5 28.2559 11.5390 28.2772 0.0000 32.5661 0.0000
# 6 0.0000 0.0000 0.0000 2.0000 0.0000 49.2498
#
#
#
# Elastic Compliance Matrix: (Units=1/GPa)
#
#
# Indices 1 2 3 4 5 6 
#
# 1 0.033244 -0.016609 -0.003886 0.000000 -0.019585 0.000000
# 2 -0.016609 0.019229 -0.001364 0.000000 0.008782 0.000000
# 3 -0.003886 -0.001364 0.043866 0.000000 -0.034233 0.000000
# 4 0.000000 0.000000 0.000000 0.072230 0.000000 -0.002933
# 5 -0.019585 0.008782 -0.034233 0.000000 0.074313 0.000000
# 6 0.000000 0.000000 0.000000 -0.002933 0.000000 0.020424
#
#
# Mechanical properties :
#
#
# Convention : Reuss Voigt Hill
#
# Bulk Modulus (GPa) = 19.00385 48.47025 33.73705
# Shear Modulus (GPa) = 15.40526 27.10501 21.25514
#
# Velocity S-wave (km/s) = 2.75442 3.65360 3.23540
# Velocity P-wave (km/s) = 4.41304 6.45517 5.52920
#
# Compressibility (1/GPa) = 0.05262091
#
# Stress axis : x y z
#
# Youngs Moduli (GPa) = 30.08045 52.00451 22.79690
#
# Poissons Ratio (x) = 0.86372 0.08859
# Poissons Ratio (y) = 0.49960 0.03110
# Poissons Ratio (z) = 0.11690 0.07095
#
# Static dielectric constant tensor:
#      x y z
#    x 3.607920 0.000000 0.385460 
#    y 0.000000 3.601980 0.000000 
#    z 0.385460 0.000000 3.485500 
# 
# 
# High freq. dielectric constant tensor:
#      x y z
#    x 1.778550 0.000000 0.037140 
#    y 0.000000 1.790250 0.000000 
#    z 0.037140 0.000000 1.768330 
# 
# From -- ./inp_files/152012.got.cif
#   From: 2010.06.25/outbox.cif.g09.slc.cpg/sg15_77_cif.got.tgz:152012.got - 2010.06.28 07:06:18.
