data_PCOD8131873
_publ_section_title
;
Structure prediction by ZEFSAII (Michael W. Deem and Ramdas Pophale) SiO2 
 PCOD8131873
Probable space group: C 2/C
;
_chemical_formula_sum "Si O2"
_cell_formula_units_Z 64
_cell_length_a 25.074609
_cell_length_b 17.137377
_cell_length_c 18.122551
_cell_angle_alpha 90.000000
_cell_angle_beta 158.724569
_cell_angle_gamma 90.000000
_cell_volume 2825.706089
_symmetry_space_group_name_H-M "C 2/C"
_symmetry_group_IT_number 15
_symmetry_cell_setting 'monoclinic'
loop_
_space_group_symop_operation_xyz
x,y,z
-x,y,1/2-z
-x,-y,-z
x,-y,1/2+z
1/2+x,1/2+y,z
1/2-x,1/2+y,1/2-z
1/2-x,1/2-y,-z
1/2+x,1/2-y,1/2+z
loop_
_atom_site_type_symbol
_atom_site_label
_atom_site_fract_x
_atom_site_fract_y
_atom_site_fract_z
Si Si1 0.052265 0.797139 0.163151
Si Si2 0.922598 0.921399 0.805495
Si Si3 0.362326 0.440288 0.898869
Si Si4 0.091210 0.224855 0.541847
Si Si5 0.153286 0.632405 0.453451
Si Si6 0.964883 0.598460 0.511761
Si Si7 0.384326 0.151409 0.936146
Si Si8 0.377639 0.965547 0.148275
O O1 0.076234 0.792467 0.107722
O O2 0.211254 0.817399 0.402865
O O3 0.935745 0.864909 0.032419
O O4 0.998272 0.712962 0.120298
O O5 0.869665 0.933420 0.820485
O O6 0.784025 0.931285 0.573336
O O7 0.979225 0.834678 0.857725
O O8 0.054935 0.983268 0.962681
O O9 0.191147 0.444476 0.699758
O O10 0.257446 0.202679 0.732105
O O11 0.056601 0.315010 0.480801
O O12 0.177886 0.604451 0.572120
O O13 0.134008 0.558170 0.376130
O O14 0.000000 0.680441 0.250000
O O15 0.038973 0.597559 0.526104
O O16 0.072461 0.551437 0.704172
O O17 0.500000 0.930282 0.250000
#
# Coordination Sequence:
#
# PCOD8131873 Si02
#       8
#     8   8   8   8   8   8   8   8
#     4   9  17  35  63  91 122 163 217 266 308 387
#     4  10  20  35  60  89 125 172 220 260 309 387
#     4  10  18  34  63  93 115 168 229 254 305 380
#     4   9  20  36  60  95 128 168 216 261 316 383
#     4  10  22  39  62  92 130 165 212 269 328 387
#     4  11  22  37  65  97 131 167 214 270 321 386
#     4  10  21  39  64  97 129 163 217 275 320 381
#     4  11  22  38  59  93 127 167 216 264 318 381
#
# _framework density 22.649206
#
# number of rings (size 3 to 8) (size 9 to 14) (size 15 to 20)
#    0.000    2.000    3.750    0.000    1.750    1.000 
#    0.000    6.250    0.000    0.000    0.000    0.000 
#    0.000    0.000    0.000    0.000    0.000    0.000 
#
# Total GULP energy -396618.780858 kJ/mol
# GULP energy per Si atom -12394.336902 kJ/mol
# Density = 2.259766 g / cm^3
# Si number density = 22.649206 Si / 1000 Ang^3
#
#
#
# Elastic Constant Matrix: (Units=GPa)
#
#
# Indices 1 2 3 4 5 6 
#
# 1 64.8079 26.5674 21.9347 0.0002 0.9976 -0.0001
# 2 26.5674 86.4693 46.2890 0.0014 -2.1585 0.0001
# 3 21.9347 46.2890 169.0101 0.0017 0.1975 0.0003
# 4 0.0002 0.0014 0.0017 37.6912 0.0006 -0.8485
# 5 0.9976 -2.1585 0.1975 0.0006 24.7913 -0.0001
# 6 -0.0001 0.0001 0.0003 -0.8485 -0.0001 24.6691
#
#
#
# Elastic Compliance Matrix: (Units=1/GPa)
#
#
# Indices 1 2 3 4 5 6 
#
# 1 0.017816 -0.004998 -0.000942 0.000000 -0.001145 0.000000
# 2 -0.004998 0.014990 -0.003459 0.000000 0.001534 0.000000
# 3 -0.000942 -0.003459 0.006987 0.000000 -0.000319 0.000000
# 4 0.000000 0.000000 0.000000 0.026552 -0.000001 0.000913
# 5 -0.001145 0.001534 -0.000319 -0.000001 0.040519 0.000000
# 6 0.000000 0.000000 0.000000 0.000913 0.000000 0.040568
#
#
# Mechanical properties :
#
#
# Convention : Reuss Voigt Hill
#
# Bulk Modulus (GPa) = 47.63027 56.65217 52.14122
# Shear Modulus (GPa) = 28.86382 32.46339 30.66361
#
# Velocity S-wave (km/s) = 3.57373 3.79002 3.68346
# Velocity P-wave (km/s) = 6.17284 6.64977 6.41574
#
# Compressibility (1/GPa) = 0.02099505
#
# Stress axis : x y z
#
# Youngs Moduli (GPa) = 56.13069 66.70997 143.12895
#
# Poissons Ratio (x) = 0.33342 0.13482
# Poissons Ratio (y) = 0.28055 0.49504
# Poissons Ratio (z) = 0.05287 0.23073
#
# Static dielectric constant tensor:
#      x y z
#    x 3.663690 0.000000 0.304580 
#    y 0.000000 4.449660 0.000000 
#    z 0.304580 0.000000 4.545240 
# 
# 
# High freq. dielectric constant tensor:
#      x y z
#    x 1.852950 0.000000 0.014740 
#    y 0.000000 1.889950 0.000000 
#    z 0.014740 0.000000 1.910760 
# 
# From -- ./inp_files/258085.got.cif
#   From: 2010.06.25/outbox.cif.g09.slc.cpg/sg15_130_cif.got.tgz:258085.got - 2010.06.28 07:06:18.
