data_PCOD8131616
_publ_section_title
;
Structure prediction by ZEFSAII (Michael W. Deem and Ramdas Pophale) SiO2 
 PCOD8131616
Probable space group: C 2/C
;
_chemical_formula_sum "Si O2"
_cell_formula_units_Z 48
_cell_length_a 11.124932
_cell_length_b 15.983730
_cell_length_c 24.550676
_cell_angle_alpha 90.000000
_cell_angle_beta 148.168722
_cell_angle_gamma 90.000000
_cell_volume 2302.476907
_symmetry_space_group_name_H-M "C 2/C"
_symmetry_group_IT_number 15
_symmetry_cell_setting 'monoclinic'
loop_
_space_group_symop_operation_xyz
x,y,z
-x,y,1/2-z
-x,-y,-z
x,-y,1/2+z
1/2+x,1/2+y,z
1/2-x,1/2+y,1/2-z
1/2-x,1/2-y,-z
1/2+x,1/2-y,1/2+z
loop_
_atom_site_type_symbol
_atom_site_label
_atom_site_fract_x
_atom_site_fract_y
_atom_site_fract_z
Si Si1 0.973171 0.574063 0.911281
Si Si2 0.750088 0.474568 0.651087
Si Si3 0.411317 0.107992 0.011766
Si Si4 0.877493 0.105775 0.811868
Si Si5 0.254183 0.748555 0.843896
Si Si6 0.324611 0.619338 0.961150
O O1 0.979530 0.605512 0.975128
O O2 0.728905 0.593812 0.789252
O O3 0.169941 0.624542 0.955354
O O4 0.025174 0.475327 0.930862
O O5 0.664558 0.519063 0.672982
O O6 0.765044 0.541253 0.608222
O O7 0.587588 0.396269 0.577052
O O8 0.000000 0.434618 0.750000
O O9 0.143937 0.126544 0.913028
O O10 0.558924 0.180845 0.096876
O O11 0.750156 0.181149 0.793623
O O12 0.316004 0.705107 0.924831
O O13 0.000000 0.787639 0.750000
#
# Coordination Sequence:
#
# PCOD8131616 Si02
#       6
#     8   8   8   8   8   8
#     4  11  22  42  64  90 126 171 207 252 314 385
#     4  10  18  33  63  96 120 155 217 264 303 366
#     4  11  26  39  62  94 129 164 211 255 310 388
#     4  11  20  41  65  89 124 166 208 262 318 367
#     4  11  23  43  65  90 124 165 211 266 324 365
#     4  10  19  37  65  90 124 165 207 260 316 365
#
# _framework density 20.847114000000001
#
# number of rings (size 3 to 8) (size 9 to 14) (size 15 to 20)
#    0.000    1.333    5.000    2.000    0.000    3.333 
#    0.000    1.667    0.000    0.000    0.000    0.000 
#    0.000    0.000    0.000    0.000    0.000    0.000 
#
# Total GULP energy -297665.354712 kJ/mol
# GULP energy per Si atom -12402.723113 kJ/mol
# Density = 2.079966 g / cm^3
# Si number density = 20.847114 Si / 1000 Ang^3
#
#
#
# Elastic Constant Matrix: (Units=GPa)
#
#
# Indices 1 2 3 4 5 6 
#
# 1 69.4186 5.9041 13.7528 -0.0002 9.6106 -0.0002
# 2 5.9041 57.5532 27.8268 0.0000 3.7237 0.0000
# 3 13.7528 27.8268 140.7828 0.0006 29.1128 0.0004
# 4 -0.0002 0.0000 0.0006 27.1126 0.0003 4.2301
# 5 9.6106 3.7237 29.1128 0.0003 45.2359 0.0000
# 6 -0.0002 0.0000 0.0004 4.2301 0.0000 14.1023
#
#
#
# Elastic Compliance Matrix: (Units=1/GPa)
#
#
# Indices 1 2 3 4 5 6 
#
# 1 0.015000 -0.001021 -0.000717 0.000000 -0.002641 0.000000
# 2 -0.001021 0.019320 -0.003962 0.000000 0.001177 0.000000
# 3 -0.000717 -0.003962 0.009064 0.000000 -0.005355 0.000000
# 4 0.000000 0.000000 0.000000 0.038694 0.000000 -0.011607
# 5 -0.002641 0.001177 -0.005355 0.000000 0.026017 0.000000
# 6 0.000000 0.000000 0.000000 -0.011607 0.000000 0.074392
#
#
# Mechanical properties :
#
#
# Convention : Reuss Voigt Hill
#
# Bulk Modulus (GPa) = 31.26761 40.30243 35.78502
# Shear Modulus (GPa) = 24.44415 31.97489 28.20952
#
# Velocity S-wave (km/s) = 3.42796 3.92060 3.68253
# Velocity P-wave (km/s) = 5.54066 6.31420 5.94004
#
# Compressibility (1/GPa) = 0.03198198
#
# Stress axis : x y z
#
# Youngs Moduli (GPa) = 66.66683 51.76098 110.33050
#
# Poissons Ratio (x) = 0.05285 0.07914
# Poissons Ratio (y) = 0.06807 0.43715
# Poissons Ratio (z) = 0.04782 0.20509
#
# Static dielectric constant tensor:
#      x y z
#    x 3.754000 0.000000 0.023290 
#    y 0.000000 3.450650 0.000000 
#    z 0.023290 0.000000 3.903470 
# 
# 
# High freq. dielectric constant tensor:
#      x y z
#    x 1.820650 0.000000 0.007490 
#    y 0.000000 1.785900 0.000000 
#    z 0.007490 0.000000 1.829070 
# 
# From -- ./inp_files/144054.got.cif
#   From: 2010.06.25/outbox.cif.g09.slc.cpg/sg15_73_cif.got.tgz:144054.got - 2010.06.28 07:06:18.
