data_PCOD8131145
_publ_section_title
;
Structure prediction by ZEFSAII (Michael W. Deem and Ramdas Pophale) SiO2 
 PCOD8131145
Probable space group: C 2/C
;
_chemical_formula_sum "Si O2"
_cell_formula_units_Z 40
_cell_length_a 17.955832
_cell_length_b 19.576106
_cell_length_c 5.345241
_cell_angle_alpha 90.000000
_cell_angle_beta 93.012540
_cell_angle_gamma 90.000000
_cell_volume 1876.283877
_symmetry_space_group_name_H-M "C 2/C"
_symmetry_group_IT_number 15
_symmetry_cell_setting 'monoclinic'
loop_
_space_group_symop_operation_xyz
x,y,z
-x,y,1/2-z
-x,-y,-z
x,-y,1/2+z
1/2+x,1/2+y,z
1/2-x,1/2+y,1/2-z
1/2-x,1/2-y,-z
1/2+x,1/2-y,1/2+z
loop_
_atom_site_type_symbol
_atom_site_label
_atom_site_fract_x
_atom_site_fract_y
_atom_site_fract_z
Si Si1 0.123418 0.825065 0.824692
Si Si2 0.752796 0.467998 0.428866
Si Si3 0.727858 0.822716 0.883915
Si Si4 0.586461 0.477040 0.876507
Si Si5 0.916448 0.253894 0.690091
O O1 0.213861 0.833586 0.833547
O O2 0.087447 0.898678 0.797500
O O3 0.091876 0.780229 0.586791
O O4 0.102431 0.798417 0.093288
O O5 0.790741 0.499414 0.687775
O O6 0.763027 0.385924 0.422453
O O7 0.666153 0.486812 0.433004
O O8 0.641005 0.817570 0.788644
O O9 0.750000 0.750000 0.000000
O O10 0.544506 0.513246 0.635225
O O11 0.000000 0.281618 0.750000
#
# Coordination Sequence:
#
# PCOD8131145 Si02
#       5
#     8   8   8   8   8
#     4  11  21  38  64  89 115 156 209 249 293 357
#     4  10  20  33  56  90 127 146 187 253 317 340
#     4  10  22  37  64  98 115 156 212 256 292 360
#     4  10  18  31  57  87 119 146 187 248 307 338
#     4  11  25  41  59  85 129 163 197 249 308 356
#
# _framework density 21.318735
#
# number of rings (size 3 to 8) (size 9 to 14) (size 15 to 20)
#    0.000    1.600    4.000    2.400    8.400    3.200 
#    0.000    0.000    0.000   13.200    0.000    0.000 
#    0.000    0.000    0.000    0.000    0.000    0.000 
#
# Total GULP energy -247793.111269 kJ/mol
# GULP energy per Si atom -12389.655563 kJ/mol
# Density = 2.127021 g / cm^3
# Si number density = 21.318735 Si / 1000 Ang^3
#
#
#
# Elastic Constant Matrix: (Units=GPa)
#
#
# Indices 1 2 3 4 5 6 
#
# 1 118.8618 24.0064 21.9423 0.0000 9.2293 0.0000
# 2 24.0064 107.6493 27.6737 0.0000 7.2085 0.0000
# 3 21.9423 27.6737 134.7933 0.0000 -5.0370 0.0000
# 4 0.0000 0.0000 0.0000 4.3498 0.0000 29.5744
# 5 9.2293 7.2085 -5.0370 0.0000 24.1299 0.0000
# 6 0.0000 0.0000 0.0000 29.5744 0.0000 -46.4485
#
#
#
# Elastic Compliance Matrix: (Units=1/GPa)
#
#
# Indices 1 2 3 4 5 6 
#
# 1 0.009219 -0.001492 -0.001320 0.000000 -0.003356 0.000000
# 2 -0.001492 0.010329 -0.001987 0.000000 -0.002930 0.000000
# 3 -0.001320 -0.001987 0.008146 0.000000 0.002799 0.000000
# 4 0.000000 0.000000 0.000000 0.043140 0.000000 0.027468
# 5 -0.003356 -0.002930 0.002799 0.000000 0.044186 0.000000
# 6 0.000000 0.000000 0.000000 0.027468 0.000000 -0.004040
#
#
# Mechanical properties :
#
#
# Convention : Reuss Voigt Hill
#
# Bulk Modulus (GPa) = 55.25996 56.50546 55.88271
# Shear Modulus (GPa) = 39.49150 15.58503 27.53826
#
# Velocity S-wave (km/s) = 4.30866 2.70672 3.59798
# Velocity P-wave (km/s) = 7.12249 6.02753 6.59776
#
# Compressibility (1/GPa) = 0.01809629
#
# Stress axis : x y z
#
# Youngs Moduli (GPa) = 108.47584 96.81310 122.75674
#
# Poissons Ratio (x) = 0.14443 0.16201
# Poissons Ratio (y) = 0.16183 0.24395
# Poissons Ratio (z) = 0.14316 0.19239
#
# Static dielectric constant tensor:
#      x y z
#    x 4.325260 0.000000 -0.037740 
#    y 0.000000 3.818110 0.000000 
#    z -0.037740 0.000000 4.904590 
# 
# 
# High freq. dielectric constant tensor:
#      x y z
#    x 1.819250 0.000000 -0.005850 
#    y 0.000000 1.817780 0.000000 
#    z -0.005850 0.000000 1.861750 
# 
# From -- ./inp_files/9793.got.cif
#   From: 2010.06.25/outbox.cif.g09.slc.cpg/sg15_5_cif.got.tgz:9793.got - 2010.06.28 07:06:18.
