data_PCOD8131612
_publ_section_title
;
Structure prediction by ZEFSAII (Michael W. Deem and Ramdas Pophale) SiO2 
 PCOD8131612
Probable space group: C 2/C
;
_chemical_formula_sum "Si O2"
_cell_formula_units_Z 60
_cell_length_a 10.846725
_cell_length_b 16.172287
_cell_length_c 17.480758
_cell_angle_alpha 90.000000
_cell_angle_beta 82.158854
_cell_angle_gamma 90.000000
_cell_volume 3037.740196
_symmetry_space_group_name_H-M "C 2/C"
_symmetry_group_IT_number 15
_symmetry_cell_setting 'monoclinic'
loop_
_space_group_symop_operation_xyz
x,y,z
-x,y,1/2-z
-x,-y,-z
x,-y,1/2+z
1/2+x,1/2+y,z
1/2-x,1/2+y,1/2-z
1/2-x,1/2-y,-z
1/2+x,1/2-y,1/2+z
loop_
_atom_site_type_symbol
_atom_site_label
_atom_site_fract_x
_atom_site_fract_y
_atom_site_fract_z
Si Si1 0.419332 0.784758 0.611650
Si Si2 0.620832 0.722868 0.477748
Si Si3 0.000000 0.391080 0.750000
Si Si4 0.787947 0.089736 0.392606
Si Si5 0.901285 0.952875 0.461538
Si Si6 0.072489 0.113838 0.819982
Si Si7 0.041701 0.173450 0.329299
Si Si8 0.758576 0.963208 0.729679
O O1 0.517667 0.769062 0.536418
O O2 0.472952 0.834184 0.679082
O O3 0.307302 0.835911 0.582045
O O4 0.370552 0.695884 0.645625
O O5 0.750000 0.750000 0.500000
O O6 0.635339 0.624774 0.484922
O O7 0.592878 0.739416 0.388941
O O8 0.116830 0.448079 0.714104
O O9 0.751485 0.039285 0.321008
O O10 0.925926 0.127088 0.376967
O O11 0.787082 0.017738 0.457599
O O12 0.960894 0.926589 0.376476
O O13 0.000000 0.000000 0.500000
O O14 0.000000 0.139336 0.750000
O O15 0.188814 0.051749 0.801089
O O16 0.152312 0.109667 0.305812
O O17 0.000000 0.213293 0.250000
#
# Coordination Sequence:
#
# PCOD8131612 Si02
#       8
#     8   8   4   8   8   8   8   8
#     4  10  23  35  59  87 125 156 203 258 313 362
#     4  11  23  39  61  92 124 160 205 259 309 365
#     4  10  20  36  56  86 120 170 194 246 320 374
#     4  10  19  36  58  90 114 156 202 252 301 369
#     4  11  20  36  62  86 108 154 204 243 296 366
#     4  11  18  35  59  88 110 150 202 255 289 358
#     4  10  19  37  63  87 116 161 204 250 302 372
#     4  10  18  33  63  82 118 154 209 248 296 371
#
# _framework density 19.751525000000001
#
# number of rings (size 3 to 8) (size 9 to 14) (size 15 to 20)
#    0.000    1.600    4.667    1.200    0.000    0.533 
#    0.000    0.667   13.200    0.000    0.000    0.000 
#    0.000    0.000    0.000    0.000    0.000    0.000 
#
# Total GULP energy -371682.665165 kJ/mol
# GULP energy per Si atom -12389.422172 kJ/mol
# Density = 1.970657 g / cm^3
# Si number density = 19.751525 Si / 1000 Ang^3
#
#
#
# Elastic Constant Matrix: (Units=GPa)
#
#
# Indices 1 2 3 4 5 6 
#
# 1 125.6053 55.5690 40.4330 0.0000 7.6607 0.0000
# 2 55.5690 103.4835 36.6375 0.0000 7.2634 0.0000
# 3 40.4330 36.6375 101.2190 0.0000 12.6051 0.0000
# 4 0.0000 0.0000 0.0000 19.9663 0.0000 6.0509
# 5 7.6607 7.2634 12.6051 0.0000 23.1573 0.0000
# 6 0.0000 0.0000 0.0000 6.0509 0.0000 42.9292
#
#
#
# Elastic Compliance Matrix: (Units=1/GPa)
#
#
# Indices 1 2 3 4 5 6 
#
# 1 0.011014 -0.004976 -0.002509 0.000000 -0.000717 0.000000
# 2 -0.004976 0.013373 -0.002720 0.000000 -0.001068 0.000000
# 3 -0.002509 -0.002720 0.012505 0.000000 -0.005123 0.000000
# 4 0.000000 0.000000 0.000000 0.052319 0.000000 -0.007374
# 5 -0.000717 -0.001068 -0.005123 0.000000 0.046544 0.000000
# 6 0.000000 0.000000 0.000000 -0.007374 0.000000 0.024334
#
#
# Mechanical properties :
#
#
# Convention : Reuss Voigt Hill
#
# Bulk Modulus (GPa) = 60.67335 66.17631 63.42483
# Shear Modulus (GPa) = 26.88276 30.38847 28.63562
#
# Velocity S-wave (km/s) = 3.69324 3.92668 3.81175
# Velocity P-wave (km/s) = 6.99798 7.35768 7.18008
#
# Compressibility (1/GPa) = 0.01648170
#
# Stress axis : x y z
#
# Youngs Moduli (GPa) = 90.79116 74.77639 79.97087
#
# Poissons Ratio (x) = 0.37207 0.20068
# Poissons Ratio (y) = 0.45175 0.21752
# Poissons Ratio (z) = 0.22784 0.20339
#
# Static dielectric constant tensor:
#      x y z
#    x 3.308110 0.000000 0.773480 
#    y 0.000000 3.551680 0.000000 
#    z 0.773480 0.000000 2.994110 
# 
# 
# High freq. dielectric constant tensor:
#      x y z
#    x 1.762330 0.000000 0.014420 
#    y 0.000000 1.755540 0.000000 
#    z 0.014420 0.000000 1.776540 
# 
# From -- ./inp_files/197836.got.cif
#   From: 2010.06.25/outbox.cif.g09.slc.cpg/sg15_99_cif.got.tgz:197836.got - 2010.06.28 07:06:18.
