data_PCOD8131184
_publ_section_title
;
Structure prediction by ZEFSAII (Michael W. Deem and Ramdas Pophale) SiO2 
 PCOD8131184
Probable space group: C 2/C
;
_chemical_formula_sum "Si O2"
_cell_formula_units_Z 56
_cell_length_a 12.266751
_cell_length_b 19.894873
_cell_length_c 25.692632
_cell_angle_alpha 90.000000
_cell_angle_beta 150.958694
_cell_angle_gamma 90.000000
_cell_volume 3043.791524
_symmetry_space_group_name_H-M "C 2/C"
_symmetry_group_IT_number 15
_symmetry_cell_setting 'monoclinic'
loop_
_space_group_symop_operation_xyz
x,y,z
-x,y,1/2-z
-x,-y,-z
x,-y,1/2+z
1/2+x,1/2+y,z
1/2-x,1/2+y,1/2-z
1/2-x,1/2-y,-z
1/2+x,1/2-y,1/2+z
loop_
_atom_site_type_symbol
_atom_site_label
_atom_site_fract_x
_atom_site_fract_y
_atom_site_fract_z
Si Si1 0.242804 0.801699 0.146226
Si Si2 0.153239 0.594479 0.065856
Si Si3 0.100014 0.330195 0.642094
Si Si4 0.664819 0.543662 0.864694
Si Si5 0.915782 0.845873 0.091478
Si Si6 0.887832 0.267645 0.007379
Si Si7 0.133321 0.264146 0.755825
O O1 0.500000 0.827783 0.250000
O O2 0.233029 0.731782 0.172562
O O3 0.083312 0.852618 0.111997
O O4 0.144403 0.792584 0.047329
O O5 0.170661 0.605802 0.136354
O O6 0.331420 0.537048 0.124577
O O7 0.201461 0.662471 0.054268
O O8 0.907007 0.569589 0.947655
O O9 0.174701 0.328594 0.734266
O O10 0.831146 0.321431 0.528465
O O11 0.500000 0.564184 0.750000
O O12 0.588272 0.579739 0.885696
O O13 0.993968 0.791920 0.166679
O O14 0.144783 0.272270 0.131178
O O15 0.750000 0.250000 0.000000
O O16 0.000000 0.291381 0.750000
#
# Coordination Sequence:
#
# PCOD8131184 Si02
#       7
#     8   8   8   8   8   8   8
#     4  10  19  31  47  71 103 138 171 210 261 308
#     4   9  20  35  49  75 105 129 167 211 256 306
#     4   9  18  32  49  71 105 139 165 203 261 314
#     4  10  19  32  54  75  97 132 170 212 252 299
#     4  10  18  32  50  72 103 138 174 209 255 310
#     4  11  21  32  49  75 104 132 168 213 260 306
#     4  11  18  28  49  76 104 133 167 207 249 308
#
# _framework density 18.398105000000001
#
# number of rings (size 3 to 8) (size 9 to 14) (size 15 to 20)
#    0.000    2.000    0.000    8.143    0.000    3.429 
#    0.000    0.000    0.000    0.857    0.000    8.000 
#    0.000    2.286    0.000    0.000    0.000    0.286 
#
# Total GULP energy -347010.060390 kJ/mol
# GULP energy per Si atom -12393.216442 kJ/mol
# Density = 1.835623 g / cm^3
# Si number density = 18.398105 Si / 1000 Ang^3
#
#
#
# Elastic Constant Matrix: (Units=GPa)
#
#
# Indices 1 2 3 4 5 6 
#
# 1 136.3424 44.4333 28.3782 0.0010 -14.3050 0.0009
# 2 44.4333 77.0956 17.9976 -0.0006 -9.0106 0.0004
# 3 28.3782 17.9976 50.3626 -0.0012 -14.2081 -0.0024
# 4 0.0010 -0.0006 -0.0012 19.1377 0.0002 0.3732
# 5 -14.3050 -9.0106 -14.2081 0.0002 34.3728 0.0005
# 6 0.0009 0.0004 -0.0024 0.3732 0.0005 25.3682
#
#
#
# Elastic Compliance Matrix: (Units=1/GPa)
#
#
# Indices 1 2 3 4 5 6 
#
# 1 0.009702 -0.004630 -0.003414 -0.000001 0.001413 -0.000001
# 2 -0.004630 0.016463 -0.002944 0.000001 0.001172 0.000000
# 3 -0.003414 -0.002944 0.025145 0.000002 0.008201 0.000002
# 4 -0.000001 0.000001 0.000002 0.052268 0.000000 -0.000769
# 5 0.001413 0.001172 0.008201 0.000000 0.033378 0.000000
# 6 -0.000001 0.000000 0.000002 -0.000769 0.000000 0.039431
#
#
# Mechanical properties :
#
#
# Convention : Reuss Voigt Hill
#
# Bulk Modulus (GPa) = 34.08778 49.49097 41.78938
# Shear Modulus (GPa) = 24.02216 27.30851 25.66533
#
# Velocity S-wave (km/s) = 3.61735 3.85686 3.73902
# Velocity P-wave (km/s) = 6.00125 6.84048 6.43457
#
# Compressibility (1/GPa) = 0.02933602
#
# Stress axis : x y z
#
# Youngs Moduli (GPa) = 103.07113 60.74086 39.76864
#
# Poissons Ratio (x) = 0.28121 0.13576
# Poissons Ratio (y) = 0.47718 0.11708
# Poissons Ratio (z) = 0.35187 0.17882
#
# Static dielectric constant tensor:
#      x y z
#    x 3.662560 0.000000 -0.163580 
#    y 0.000000 3.285360 -0.000010 
#    z -0.163580 -0.000010 3.508770 
# 
# 
# High freq. dielectric constant tensor:
#      x y z
#    x 1.714820 0.000000 0.001340 
#    y 0.000000 1.669000 0.000000 
#    z 0.001340 0.000000 1.727240 
# 
# From -- ./inp_files/270958.got.cif
#   From: 2010.06.25/outbox.cif.g09.slc.cpg/sg15_136_cif.got.tgz:270958.got - 2010.06.28 07:06:18.
