data_PCOD8131409
_publ_section_title
;
Structure prediction by ZEFSAII (Michael W. Deem and Ramdas Pophale) SiO2 
 PCOD8131409
Probable space group: C 2/C
;
_chemical_formula_sum "Si O2"
_cell_formula_units_Z 64
_cell_length_a 12.498290
_cell_length_b 19.282792
_cell_length_c 18.647041
_cell_angle_alpha 90.000000
_cell_angle_beta 130.537579
_cell_angle_gamma 90.000000
_cell_volume 3415.328749
_symmetry_space_group_name_H-M "C 2/C"
_symmetry_group_IT_number 15
_symmetry_cell_setting 'monoclinic'
loop_
_space_group_symop_operation_xyz
x,y,z
-x,y,1/2-z
-x,-y,-z
x,-y,1/2+z
1/2+x,1/2+y,z
1/2-x,1/2+y,1/2-z
1/2-x,1/2-y,-z
1/2+x,1/2-y,1/2+z
loop_
_atom_site_type_symbol
_atom_site_label
_atom_site_fract_x
_atom_site_fract_y
_atom_site_fract_z
Si Si1 0.535613 0.444755 0.691070
Si Si2 0.694153 0.022875 0.685191
Si Si3 0.348713 0.928546 0.184542
Si Si4 0.318974 0.565544 0.596421
Si Si5 0.611550 0.683534 0.970097
Si Si6 0.076813 0.300600 0.856540
Si Si7 0.051950 0.921616 0.000631
Si Si8 0.418930 0.957117 0.612586
O O1 0.500000 0.403271 0.750000
O O2 0.702296 0.457226 0.761718
O O3 0.458589 0.519504 0.663261
O O4 0.489035 0.404564 0.599360
O O5 0.714611 0.071635 0.763350
O O6 0.728835 0.067762 0.630211
O O7 0.535046 0.995761 0.614788
O O8 0.500000 0.885760 0.250000
O O9 0.391990 0.006108 0.177198
O O10 0.219602 0.905017 0.078083
O O11 0.355434 0.643712 0.590321
O O12 0.226533 0.533419 0.492594
O O13 0.532308 0.752314 0.905579
O O14 0.752870 0.703241 0.075635
O O15 0.518674 0.635623 0.980295
O O16 0.030861 0.378774 0.853829
O O17 0.000000 0.276080 0.750000
O O18 0.000000 0.000000 0.000000
#
# Coordination Sequence:
#
# PCOD8131409 Si02
#       8
#     8   8   8   8   8   8   8   8
#     4  10  20  30  47  79 109 134 172 216 270 319
#     4  10  19  27  47  76 103 137 174 210 270 317
#     4  10  19  30  48  76 106 145 182 216 270 322
#     4  10  18  33  47  73 114 134 168 219 266 317
#     4  10  22  34  55  80 108 145 179 212 269 328
#     4  10  21  36  51  76 113 142 176 221 257 307
#     4  12  18  33  54  76 111 147 174 218 272 330
#     4  10  19  33  51  72 109 143 177 217 259 322
#
# _framework density 18.739045000000001
#
# number of rings (size 3 to 8) (size 9 to 14) (size 15 to 20)
#    0.000    1.750    3.750    2.250    1.750    2.500 
#    0.000    0.000    0.000    0.000    0.000    6.125 
#    0.000    0.000    0.000    0.000    0.000    0.000 
#
# Total GULP energy -396422.683606 kJ/mol
# GULP energy per Si atom -12388.208863 kJ/mol
# Density = 1.869639 g / cm^3
# Si number density = 18.739045 Si / 1000 Ang^3
#
#
#
# Elastic Constant Matrix: (Units=GPa)
#
#
# Indices 1 2 3 4 5 6 
#
# 1 84.8599 22.1106 25.0135 0.0000 -15.6299 0.0000
# 2 22.1106 57.7513 21.3188 0.0000 -7.9151 0.0000
# 3 25.0135 21.3188 103.4090 0.0000 -8.0469 0.0000
# 4 0.0000 0.0000 0.0000 18.0650 0.0000 -5.4939
# 5 -15.6299 -7.9151 -8.0469 0.0000 40.9894 0.0000
# 6 0.0000 0.0000 0.0000 -5.4939 0.0000 22.7214
#
#
#
# Elastic Compliance Matrix: (Units=1/GPa)
#
#
# Indices 1 2 3 4 5 6 
#
# 1 0.014292 -0.004047 -0.002295 0.000000 0.004218 0.000000
# 2 -0.004047 0.020235 -0.003055 0.000000 0.001764 0.000000
# 3 -0.002295 -0.003055 0.010908 0.000000 0.000676 0.000000
# 4 0.000000 0.000000 0.000000 0.059749 0.000000 0.014447
# 5 0.004218 0.001764 0.000676 0.000000 0.026478 0.000000
# 6 0.000000 0.000000 0.000000 0.014447 0.000000 0.047505
#
#
# Mechanical properties :
#
#
# Convention : Reuss Voigt Hill
#
# Bulk Modulus (GPa) = 37.53603 42.54511 40.04057
# Shear Modulus (GPa) = 24.17326 28.19363 26.18345
#
# Velocity S-wave (km/s) = 3.59555 3.88305 3.74206
# Velocity P-wave (km/s) = 6.10833 6.54655 6.33123
#
# Compressibility (1/GPa) = 0.02664107
#
# Stress axis : x y z
#
# Youngs Moduli (GPa) = 69.97076 49.42015 91.67662
#
# Poissons Ratio (x) = 0.19998 0.21035
# Poissons Ratio (y) = 0.28314 0.28011
# Poissons Ratio (z) = 0.16055 0.15100
#
# Static dielectric constant tensor:
#      x y z
#    x 3.549310 0.000000 -0.014670 
#    y 0.000000 3.013730 0.000000 
#    z -0.014670 0.000000 3.878550 
# 
# 
# High freq. dielectric constant tensor:
#      x y z
#    x 1.724620 0.000000 0.001320 
#    y 0.000000 1.662620 0.000000 
#    z 0.001320 0.000000 1.758410 
# 
# From -- ./inp_files/239833.got.cif
#   From: 2010.06.25/outbox.cif.g09.slc.cpg/sg15_120_cif.got.tgz:239833.got - 2010.06.28 07:06:18.
