data_PCOD8131188
_publ_section_title
;
Structure prediction by ZEFSAII (Michael W. Deem and Ramdas Pophale) SiO2 
 PCOD8131188
Probable space group: C 2/C
;
_chemical_formula_sum "Si O2"
_cell_formula_units_Z 56
_cell_length_a 18.852428
_cell_length_b 26.409213
_cell_length_c 10.065724
_cell_angle_alpha 90.000000
_cell_angle_beta 39.193273
_cell_angle_gamma 90.000000
_cell_volume 3166.959101
_symmetry_space_group_name_H-M "C 2/C"
_symmetry_group_IT_number 15
_symmetry_cell_setting 'monoclinic'
loop_
_space_group_symop_operation_xyz
x,y,z
-x,y,1/2-z
-x,-y,-z
x,-y,1/2+z
1/2+x,1/2+y,z
1/2-x,1/2+y,1/2-z
1/2-x,1/2-y,-z
1/2+x,1/2-y,1/2+z
loop_
_atom_site_type_symbol
_atom_site_label
_atom_site_fract_x
_atom_site_fract_y
_atom_site_fract_z
Si Si1 0.923872 0.482545 0.729254
Si Si2 0.596702 0.892628 0.915128
Si Si3 0.151986 0.411582 0.127321
Si Si4 0.863302 0.796315 0.218198
Si Si5 0.117495 0.771119 0.810071
Si Si6 0.244575 0.193452 0.365008
Si Si7 0.770837 0.822562 0.088244
O O1 0.869879 0.430189 0.755990
O O2 0.832262 0.527602 0.877913
O O3 0.000000 0.475051 0.750000
O O4 0.000000 0.500000 0.500000
O O5 0.640511 0.838467 0.802779
O O6 0.662635 0.904941 0.954346
O O7 0.465388 0.892579 0.139401
O O8 0.245452 0.378182 0.065533
O O9 0.838663 0.824255 0.394394
O O10 0.774408 0.751544 0.338189
O O11 0.832168 0.832949 0.140025
O O12 0.986781 0.773295 0.032117
O O13 0.179771 0.809960 0.819334
O O14 0.139966 0.791742 0.629984
O O15 0.158974 0.712618 0.761298
#
# Coordination Sequence:
#
# PCOD8131188 Si02
#       7
#     8   8   8   8   8   8   8
#     4  10  18  32  50  77 106 136 165 208 265 315
#     4  10  19  32  53  76 105 139 167 207 258 317
#     4  10  18  33  52  77 107 133 168 213 256 307
#     4  10  21  34  48  76 109 135 172 220 248 294
#     4  10  19  34  52  74 105 138 173 214 250 301
#     4  10  20  34  51  74 105 141 174 202 263 312
#     4  10  20  32  53  79 100 135 180 207 251 308
#
# _framework density 17.682577999999999
#
# number of rings (size 3 to 8) (size 9 to 14) (size 15 to 20)
#    0.000    2.000    4.286    1.714    0.000    2.286 
#    0.000    2.857    0.000    0.000    0.000    6.000 
#    0.000    0.000    0.000    0.000    0.000    0.000 
#
# Total GULP energy -346919.563000 kJ/mol
# GULP energy per Si atom -12389.984393 kJ/mol
# Density = 1.764233 g / cm^3
# Si number density = 17.682578 Si / 1000 Ang^3
#
#
#
# Elastic Constant Matrix: (Units=GPa)
#
#
# Indices 1 2 3 4 5 6 
#
# 1 70.6367 25.5250 22.8019 0.0000 17.1277 0.0000
# 2 25.5250 63.8841 1.0463 0.0000 12.1900 0.0000
# 3 22.8019 1.0463 67.2498 0.0000 10.9978 0.0000
# 4 0.0000 0.0000 0.0000 18.9104 0.0000 -0.6597
# 5 17.1277 12.1900 10.9978 0.0000 29.8187 0.0000
# 6 0.0000 0.0000 0.0000 -0.6597 0.0000 29.6871
#
#
#
# Elastic Compliance Matrix: (Units=1/GPa)
#
#
# Indices 1 2 3 4 5 6 
#
# 1 0.019971 -0.006607 -0.005570 0.000000 -0.006716 0.000000
# 2 -0.006607 0.019218 0.002772 0.000000 -0.005084 0.000000
# 3 -0.005570 0.002772 0.017429 0.000000 -0.004362 0.000000
# 4 0.000000 0.000000 0.000000 0.052922 0.000000 0.001176
# 5 -0.006716 -0.005084 -0.004362 0.000000 0.041081 0.000000
# 6 0.000000 0.000000 0.000000 0.001176 0.000000 0.033711
#
#
# Mechanical properties :
#
#
# Convention : Reuss Voigt Hill
#
# Bulk Modulus (GPa) = 26.44910 33.39078 29.91994
# Shear Modulus (GPa) = 23.17577 25.84307 24.50942
#
# Velocity S-wave (km/s) = 3.62423 3.82710 3.72704
# Velocity P-wave (km/s) = 5.70119 6.20108 5.95638
#
# Compressibility (1/GPa) = 0.03780847
#
# Stress axis : x y z
#
# Youngs Moduli (GPa) = 50.07300 52.03524 57.37624
#
# Poissons Ratio (x) = 0.34378 0.31960
# Poissons Ratio (y) = 0.33082 -0.15907
# Poissons Ratio (z) = 0.27892 -0.14427
#
# Static dielectric constant tensor:
#      x y z
#    x 3.409990 0.000000 0.526560 
#    y 0.000000 3.793690 0.000000 
#    z 0.526560 0.000000 3.376100 
# 
# 
# High freq. dielectric constant tensor:
#      x y z
#    x 1.677220 0.000000 0.032760 
#    y 0.000000 1.660380 0.000000 
#    z 0.032760 0.000000 1.673910 
# 
# From -- ./inp_files/52624.got.cif
#   From: 2010.06.25/outbox.cif.g09.slc.cpg/sg15_27_cif.got.tgz:52624.got - 2010.06.28 07:06:18.
