data_PCOD8131136
_publ_section_title
;
Structure prediction by ZEFSAII (Michael W. Deem and Ramdas Pophale) SiO2 
 PCOD8131136
Probable space group: C 2/C
;
_chemical_formula_sum "Si O2"
_cell_formula_units_Z 56
_cell_length_a 13.885657
_cell_length_b 13.997315
_cell_length_c 30.685660
_cell_angle_alpha 90.000000
_cell_angle_beta 150.838804
_cell_angle_gamma 90.000000
_cell_volume 2906.128711
_symmetry_space_group_name_H-M "C 2/C"
_symmetry_group_IT_number 15
_symmetry_cell_setting 'monoclinic'
loop_
_space_group_symop_operation_xyz
x,y,z
-x,y,1/2-z
-x,-y,-z
x,-y,1/2+z
1/2+x,1/2+y,z
1/2-x,1/2+y,1/2-z
1/2-x,1/2-y,-z
1/2+x,1/2-y,1/2+z
loop_
_atom_site_type_symbol
_atom_site_label
_atom_site_fract_x
_atom_site_fract_y
_atom_site_fract_z
Si Si1 0.138557 0.376097 0.135370
Si Si2 0.500000 0.252906 0.250000
Si Si3 0.000000 0.770556 0.750000
Si Si4 0.816466 0.421712 0.880605
Si Si5 0.533998 0.785953 0.860262
Si Si6 0.217567 0.091318 0.438145
Si Si7 0.265527 0.889995 0.484549
Si Si8 0.903860 0.750572 0.801979
O O1 0.303741 0.315442 0.176366
O O2 0.201302 0.487078 0.158383
O O3 0.117554 0.342882 0.176932
O O4 0.926539 0.357657 0.029703
O O5 0.465503 0.191996 0.191800
O O6 0.187884 0.835074 0.812078
O O7 0.990169 0.711411 0.701042
O O8 0.730173 0.448025 0.893834
O O9 0.043965 0.388400 0.972029
O O10 0.603558 0.677960 0.898478
O O11 0.311730 0.797280 0.789994
O O12 0.675528 0.858425 0.942827
O O13 0.043922 0.167278 0.377848
O O14 0.180917 0.998238 0.454085
#
# Coordination Sequence:
#
# PCOD8131136 Si02
#       8
#     8   4   4   8   8   8   8   8
#     4  10  19  33  54  85 112 142 179 232 285 332
#     4  10  19  32  54  83 112 144 192 221 270 338
#     4  10  19  34  52  85 114 144 184 231 278 330
#     4  10  18  31  56  82 110 139 179 235 282 324
#     4  10  20  35  54  81 112 149 187 236 276 336
#     4  10  20  34  56  84 114 140 181 237 292 333
#     4  10  19  34  55  81 113 143 187 230 289 330
#     4  10  21  34  53  81 117 149 179 228 288 342
#
# _framework density 19.269621000000001
#
# number of rings (size 3 to 8) (size 9 to 14) (size 15 to 20)
#    0.000    2.000    1.429    4.286    0.000    3.429 
#    0.000    0.000    0.000    6.857    0.000    0.000 
#    0.000    0.000    0.000    0.000    0.000    0.000 
#
# Total GULP energy -346969.851487 kJ/mol
# GULP energy per Si atom -12391.780410 kJ/mol
# Density = 1.922576 g / cm^3
# Si number density = 19.269621 Si / 1000 Ang^3
#
#
#
# Elastic Constant Matrix: (Units=GPa)
#
#
# Indices 1 2 3 4 5 6 
#
# 1 115.4425 44.8333 33.2861 0.0001 -15.7067 0.0000
# 2 44.8333 61.8632 27.1210 0.0002 -4.6343 0.0001
# 3 33.2861 27.1210 78.8421 -0.0017 -3.1495 -0.0014
# 4 0.0001 0.0002 -0.0017 60.3886 0.0005 18.2962
# 5 -15.7067 -4.6343 -3.1495 0.0005 40.0481 0.0002
# 6 0.0000 0.0001 -0.0014 18.2962 0.0002 36.1617
#
#
#
# Elastic Compliance Matrix: (Units=1/GPa)
#
#
# Indices 1 2 3 4 5 6 
#
# 1 0.013076 -0.008040 -0.002596 0.000000 0.003994 0.000000
# 2 -0.008040 0.024093 -0.004924 0.000000 -0.000752 0.000000
# 3 -0.002596 -0.004924 0.015458 0.000000 -0.000372 0.000000
# 4 0.000000 0.000000 0.000000 0.019557 0.000000 -0.009895
# 5 0.003994 -0.000752 -0.000372 0.000000 0.026420 0.000000
# 6 0.000000 0.000000 0.000000 -0.009895 0.000000 0.032660
#
#
# Mechanical properties :
#
#
# Convention : Reuss Voigt Hill
#
# Bulk Modulus (GPa) = 46.48963 51.84765 49.16864
# Shear Modulus (GPa) = 29.48924 37.38018 33.43471
#
# Velocity S-wave (km/s) = 3.91621 4.40915 4.16997
# Velocity P-wave (km/s) = 6.68036 7.27225 6.98258
#
# Compressibility (1/GPa) = 0.02151017
#
# Stress axis : x y z
#
# Youngs Moduli (GPa) = 76.47377 41.50524 64.69028
#
# Poissons Ratio (x) = 0.33368 0.16791
# Poissons Ratio (y) = 0.61482 0.31852
# Poissons Ratio (z) = 0.19849 0.20436
#
# Static dielectric constant tensor:
#      x y z
#    x 3.605020 0.000000 -0.052300 
#    y 0.000000 3.277840 0.000000 
#    z -0.052300 0.000000 3.866600 
# 
# 
# High freq. dielectric constant tensor:
#      x y z
#    x 1.746500 0.000000 0.001720 
#    y 0.000000 1.712830 0.000000 
#    z 0.001720 0.000000 1.767930 
# 
# From -- ./inp_files/153487.got.cif
#   From: 2010.06.25/outbox.cif.g09.slc.cpg/sg15_77_cif.got.tgz:153487.got - 2010.06.28 07:06:18.
