data_PCOD8131057
_publ_section_title
;
Structure prediction by ZEFSAII (Michael W. Deem and Ramdas Pophale) SiO2 
 PCOD8131057
Probable space group: C 2/C
;
_chemical_formula_sum "Si O2"
_cell_formula_units_Z 64
_cell_length_a 11.296104
_cell_length_b 17.078006
_cell_length_c 23.675219
_cell_angle_alpha 90.000000
_cell_angle_beta 54.717629
_cell_angle_gamma 90.000000
_cell_volume 3728.359756
_symmetry_space_group_name_H-M "C 2/C"
_symmetry_group_IT_number 15
_symmetry_cell_setting 'monoclinic'
loop_
_space_group_symop_operation_xyz
x,y,z
-x,y,1/2-z
-x,-y,-z
x,-y,1/2+z
1/2+x,1/2+y,z
1/2-x,1/2+y,1/2-z
1/2-x,1/2-y,-z
1/2+x,1/2-y,1/2+z
loop_
_atom_site_type_symbol
_atom_site_label
_atom_site_fract_x
_atom_site_fract_y
_atom_site_fract_z
Si Si1 0.435800 0.163167 0.906712
Si Si2 0.592517 0.525804 0.174158
Si Si3 0.618179 0.092423 0.016502
Si Si4 0.905822 0.281714 0.539272
Si Si5 0.633795 0.391411 0.463218
Si Si6 0.102062 0.473873 0.396524
Si Si7 0.581403 0.531608 0.556572
Si Si8 0.585511 0.704858 0.169648
O O1 0.304794 0.123266 0.907851
O O2 0.573382 0.104579 0.867608
O O3 0.480367 0.244018 0.863892
O O4 0.377869 0.174928 0.986993
O O5 0.500000 0.490473 0.250000
O O6 0.752093 0.520091 0.157031
O O7 0.563623 0.471554 0.128449
O O8 0.548807 0.614277 0.170396
O O9 0.543233 0.178421 0.033633
O O10 0.525287 0.035416 0.082318
O O11 0.614491 0.050557 0.957677
O O12 0.783532 0.091023 0.994437
O O13 0.946626 0.192723 0.511833
O O14 0.762132 0.285711 0.618881
O O15 0.609487 0.443875 0.525632
O O16 0.568066 0.436209 0.427474
O O17 0.500000 0.733100 0.250000
#
# Coordination Sequence:
#
# PCOD8131057 Si02
#       8
#     8   8   8   8   8   8   8   8
#     4  10  18  32  52  74  96 128 167 201 249 293
#     4  10  19  33  51  71  96 130 168 199 243 295
#     4   9  16  28  50  70  96 122 160 208 235 288
#     4  10  18  31  52  72  97 128 168 204 245 290
#     4  10  19  29  48  74 102 127 151 206 257 289
#     4   9  16  29  49  73  91 125 161 203 242 280
#     4  10  19  32  47  73 104 125 162 202 253 295
#     4  10  19  30  47  74 101 122 157 211 247 285
#
# _framework density 17.165725999999999
#
# number of rings (size 3 to 8) (size 9 to 14) (size 15 to 20)
#    0.000    2.250    2.500    3.000    0.000    0.500 
#    4.500    0.000    0.000    0.000    0.000    0.000 
#    0.000    0.000    0.000    0.000    0.000    0.000 
#
# Total GULP energy -396422.375502 kJ/mol
# GULP energy per Si atom -12388.199234 kJ/mol
# Density = 1.712666 g / cm^3
# Si number density = 17.165726 Si / 1000 Ang^3
#
#
#
# Elastic Constant Matrix: (Units=GPa)
#
#
# Indices 1 2 3 4 5 6 
#
# 1 72.9975 34.0256 36.0308 0.0000 1.8642 0.0000
# 2 34.0256 83.9540 21.7229 0.0000 0.1950 0.0000
# 3 36.0308 21.7229 86.7590 0.0001 -5.7177 0.0000
# 4 0.0000 0.0000 0.0001 16.8232 0.0000 2.4542
# 5 1.8642 0.1950 -5.7177 0.0000 11.5234 0.0000
# 6 0.0000 0.0000 0.0000 2.4542 0.0000 32.8501
#
#
#
# Elastic Compliance Matrix: (Units=1/GPa)
#
#
# Indices 1 2 3 4 5 6 
#
# 1 0.020481 -0.006380 -0.007360 0.000000 -0.006857 0.000000
# 2 -0.006380 0.014763 -0.001029 0.000000 0.000272 0.000000
# 3 -0.007360 -0.001029 0.015424 0.000000 0.008861 0.000000
# 4 0.000000 0.000000 0.000000 0.060097 0.000000 -0.004490
# 5 -0.006857 0.000272 0.008861 0.000000 0.092282 0.000000
# 6 0.000000 0.000000 0.000000 -0.004490 0.000000 0.030777
#
#
# Mechanical properties :
#
#
# Convention : Reuss Voigt Hill
#
# Bulk Modulus (GPa) = 47.32637 47.47432 47.40035
# Shear Modulus (GPa) = 18.49077 22.36807 20.42942
#
# Velocity S-wave (km/s) = 3.28562 3.61372 3.45357
# Velocity P-wave (km/s) = 6.48258 6.71777 6.60122
#
# Compressibility (1/GPa) = 0.02112987
#
# Stress axis : x y z
#
# Youngs Moduli (GPa) = 48.82542 67.73823 64.83252
#
# Poissons Ratio (x) = 0.43220 0.47718
# Poissons Ratio (y) = 0.31153 0.06669
# Poissons Ratio (z) = 0.35936 0.06968
#
# Static dielectric constant tensor:
#      x y z
#    x 3.248620 0.000000 -0.100180 
#    y 0.000000 3.339830 0.000000 
#    z -0.100180 0.000000 3.027470 
# 
# 
# High freq. dielectric constant tensor:
#      x y z
#    x 1.651320 0.000000 -0.006250 
#    y 0.000000 1.667490 0.000000 
#    z -0.006250 0.000000 1.626270 
# 
# From -- ./inp_files/239558.got.cif
#   From: 2010.06.25/outbox.cif.g09.slc.cpg/sg15_120_cif.got.tgz:239558.got - 2010.06.28 07:06:18.
