data_PCOD8131226
_publ_section_title
;
Structure prediction by ZEFSAII (Michael W. Deem and Ramdas Pophale) SiO2 
 PCOD8131226
Probable space group: C 2/C
;
_chemical_formula_sum "Si O2"
_cell_formula_units_Z 52
_cell_length_a 9.778194
_cell_length_b 20.080745
_cell_length_c 14.345411
_cell_angle_alpha 90.000000
_cell_angle_beta 61.274176
_cell_angle_gamma 90.000000
_cell_volume 2470.109529
_symmetry_space_group_name_H-M "C 2/C"
_symmetry_group_IT_number 15
_symmetry_cell_setting 'monoclinic'
loop_
_space_group_symop_operation_xyz
x,y,z
-x,y,1/2-z
-x,-y,-z
x,-y,1/2+z
1/2+x,1/2+y,z
1/2-x,1/2+y,1/2-z
1/2-x,1/2-y,-z
1/2+x,1/2-y,1/2+z
loop_
_atom_site_type_symbol
_atom_site_label
_atom_site_fract_x
_atom_site_fract_y
_atom_site_fract_z
Si Si1 0.658122 0.161832 0.968408
Si Si2 0.980571 0.546102 0.596833
Si Si3 0.874369 0.216651 0.144155
Si Si4 0.214185 0.573959 0.673214
Si Si5 0.978392 0.140096 0.949714
Si Si6 0.000000 0.303690 0.250000
Si Si7 0.939236 0.727684 0.171185
O O1 0.562942 0.119521 0.924124
O O2 0.694741 0.234985 0.914912
O O3 0.820820 0.126117 0.942636
O O4 0.548780 0.169000 0.095205
O O5 0.843558 0.529363 0.718498
O O6 0.000000 0.500000 0.500000
O O7 0.144164 0.544721 0.599486
O O8 0.735677 0.198359 0.261314
O O9 0.008685 0.255603 0.156582
O O10 0.937894 0.149681 0.073173
O O11 0.402519 0.578171 0.604638
O O12 0.151679 0.649424 0.705695
O O13 0.064226 0.208227 0.893568
O O14 0.000000 0.752273 0.250000
#
# Coordination Sequence:
#
# PCOD8131226 Si02
#       7
#     8   8   8   8   8   4   8
#     4  11  20  33  58  85 115 154 196 234 287 342
#     4  10  22  43  63  80 106 148 201 251 300 344
#     4  11  19  32  50  88 125 160 193 223 276 347
#     4  10  21  39  61  87 114 146 197 243 292 358
#     4  11  21  31  59  87 123 156 188 233 284 352
#     4  10  18  32  52  78 124 162 192 226 272 338
#     4  11  18  30  49  84 127 160 187 220 266 352
#
# _framework density 21.051697999999998
#
# number of rings (size 3 to 8) (size 9 to 14) (size 15 to 20)
#    0.000    1.538    7.692    0.923    0.000    1.846 
#    2.769    0.769    0.000    1.846    0.000    0.000 
#    0.000    0.000    0.000    0.000    0.000    0.000 
#
# Total GULP energy -322167.789215 kJ/mol
# GULP energy per Si atom -12391.068816 kJ/mol
# Density = 2.100378 g / cm^3
# Si number density = 21.051698 Si / 1000 Ang^3
#
#
#
# Elastic Constant Matrix: (Units=GPa)
#
#
# Indices 1 2 3 4 5 6 
#
# 1 88.7386 21.1227 61.5739 0.0000 -4.2903 0.0000
# 2 21.1227 27.5729 30.8861 0.0000 -1.4330 0.0000
# 3 61.5739 30.8861 138.9989 0.0000 -6.4817 0.0000
# 4 0.0000 0.0000 0.0000 36.1572 0.0000 4.3710
# 5 -4.2903 -1.4330 -6.4817 0.0000 40.5814 0.0000
# 6 0.0000 0.0000 0.0000 4.3710 0.0000 19.7809
#
#
#
# Elastic Compliance Matrix: (Units=1/GPa)
#
#
# Indices 1 2 3 4 5 6 
#
# 1 0.017024 -0.006117 -0.006154 0.000000 0.000601 0.000000
# 2 -0.006117 0.050484 -0.008519 0.000000 -0.000225 0.000000
# 3 -0.006154 -0.008519 0.011857 0.000000 0.000942 0.000000
# 4 0.000000 0.000000 0.000000 0.028416 0.000000 -0.006279
# 5 0.000601 -0.000225 0.000942 0.000000 0.024848 0.000000
# 6 0.000000 0.000000 0.000000 -0.006279 0.000000 0.051941
#
#
# Mechanical properties :
#
#
# Convention : Reuss Voigt Hill
#
# Bulk Modulus (GPa) = 26.46459 53.60842 40.03650
# Shear Modulus (GPa) = 20.94274 28.75239 24.84757
#
# Velocity S-wave (km/s) = 3.15751 3.69968 3.43929
# Velocity P-wave (km/s) = 5.08838 6.61594 5.90179
#
# Compressibility (1/GPa) = 0.03778634
#
# Stress axis : x y z
#
# Youngs Moduli (GPa) = 58.73893 19.80828 84.33591
#
# Poissons Ratio (x) = 0.12116 0.51903
# Poissons Ratio (y) = 0.35930 0.71842
# Poissons Ratio (z) = 0.36150 0.16874
#
# Static dielectric constant tensor:
#      x y z
#    x 3.743610 0.000000 -0.064490 
#    y 0.000000 3.163890 0.000000 
#    z -0.064490 0.000000 4.299900 
# 
# 
# High freq. dielectric constant tensor:
#      x y z
#    x 1.823940 0.000000 0.006220 
#    y 0.000000 1.750500 0.000000 
#    z 0.006220 0.000000 1.840650 
# 
# From -- ./inp_files/137195.got.cif
#   From: 2010.06.25/outbox.cif.g09.slc.cpg/sg15_69_cif.got.tgz:137195.got - 2010.06.28 07:06:18.
