data_PCOD8131643
_publ_section_title
;
Structure prediction by ZEFSAII (Michael W. Deem and Ramdas Pophale) SiO2 
 PCOD8131643
Probable space group: C 2/C
;
_chemical_formula_sum "Si O2"
_cell_formula_units_Z 60
_cell_length_a 6.213982
_cell_length_b 27.994006
_cell_length_c 20.669771
_cell_angle_alpha 90.000000
_cell_angle_beta 80.282396
_cell_angle_gamma 90.000000
_cell_volume 3544.003668
_symmetry_space_group_name_H-M "C 2/C"
_symmetry_group_IT_number 15
_symmetry_cell_setting 'monoclinic'
loop_
_space_group_symop_operation_xyz
x,y,z
-x,y,1/2-z
-x,-y,-z
x,-y,1/2+z
1/2+x,1/2+y,z
1/2-x,1/2+y,1/2-z
1/2-x,1/2-y,-z
1/2+x,1/2-y,1/2+z
loop_
_atom_site_type_symbol
_atom_site_label
_atom_site_fract_x
_atom_site_fract_y
_atom_site_fract_z
Si Si1 0.363122 0.696807 0.699379
Si Si2 0.589671 0.572920 0.996862
Si Si3 0.500000 0.874713 0.250000
Si Si4 0.065196 0.181636 0.007520
Si Si5 0.222365 0.487441 0.453720
Si Si6 0.107791 0.736376 0.599990
Si Si7 0.002053 0.418608 0.386656
Si Si8 0.265508 0.672153 0.909190
O O1 0.500000 0.722675 0.750000
O O2 0.227304 0.735898 0.664081
O O3 0.514203 0.665500 0.643628
O O4 0.210278 0.658923 0.743522
O O5 0.584866 0.626179 0.025169
O O6 0.357178 0.554904 0.982372
O O7 0.764617 0.571634 0.929429
O O8 0.645279 0.537201 0.053996
O O9 0.482273 0.908762 0.312326
O O10 0.266844 0.201269 0.955475
O O11 0.839074 0.187421 0.978376
O O12 0.073583 0.210287 0.074723
O O13 0.000000 0.500000 0.500000
O O14 0.154362 0.465854 0.387443
O O15 0.866476 0.714760 0.618541
O O16 0.118983 0.375075 0.418296
#
# Coordination Sequence:
#
# PCOD8131643 Si02
#       8
#     8   8   4   8   8   8   8   8
#     4  11  20  32  47  69 104 142 172 206 255 312
#     4  10  18  34  53  73 104 137 169 213 261 310
#     4  12  22  32  50  74 108 140 170 208 260 322
#     4  10  19  30  51  72 102 139 170 210 260 304
#     4   9  20  33  50  74 101 134 173 213 260 313
#     4  10  20  32  44  75 107 135 172 214 250 311
#     4  11  19  31  50  76 106 136 168 209 257 320
#     4  11  18  31  48  71 106 137 168 206 255 310
#
# _framework density 16.930005999999999
#
# number of rings (size 3 to 8) (size 9 to 14) (size 15 to 20)
#    0.000    1.600    5.333    1.200    0.000    0.000 
#    0.000    0.000    0.000    0.000    1.733    0.000 
#    8.000    0.000    0.000    0.000    0.000    0.000 
#
# Total GULP energy -371653.422342 kJ/mol
# GULP energy per Si atom -12388.447411 kJ/mol
# Density = 1.689147 g / cm^3
# Si number density = 16.930006 Si / 1000 Ang^3
#
#
#
# Elastic Constant Matrix: (Units=GPa)
#
#
# Indices 1 2 3 4 5 6 
#
# 1 94.0364 41.6737 37.9246 0.0000 15.0464 0.0000
# 2 41.6737 115.4668 43.4057 0.0000 17.5095 0.0000
# 3 37.9246 43.4057 76.4895 0.0000 25.1362 0.0000
# 4 0.0000 0.0000 0.0000 25.3962 0.0000 9.1229
# 5 15.0464 17.5095 25.1362 0.0000 36.7493 0.0000
# 6 0.0000 0.0000 0.0000 9.1229 0.0000 28.9295
#
#
#
# Elastic Compliance Matrix: (Units=1/GPa)
#
#
# Indices 1 2 3 4 5 6 
#
# 1 0.014156 -0.003107 -0.004950 0.000000 -0.000930 0.000000
# 2 -0.003107 0.011736 -0.004772 0.000000 -0.001055 0.000000
# 3 -0.004950 -0.004772 0.021701 0.000000 -0.010543 0.000000
# 4 0.000000 0.000000 0.000000 0.044406 0.000000 -0.014004
# 5 -0.000930 -0.001055 -0.010543 0.000000 0.035306 0.000000
# 6 0.000000 0.000000 0.000000 -0.014004 0.000000 0.038983
#
#
# Mechanical properties :
#
#
# Convention : Reuss Voigt Hill
#
# Bulk Modulus (GPa) = 45.59260 59.11119 52.35190
# Shear Modulus (GPa) = 25.09296 29.08091 27.08694
#
# Velocity S-wave (km/s) = 3.85406 4.14903 4.00426
# Velocity P-wave (km/s) = 6.84058 7.61206 7.23661
#
# Compressibility (1/GPa) = 0.02193338
#
# Stress axis : x y z
#
# Youngs Moduli (GPa) = 70.63939 85.20748 46.08145
#
# Poissons Ratio (x) = 0.26478 0.22810
# Poissons Ratio (y) = 0.21951 0.21992
# Poissons Ratio (z) = 0.34966 0.40664
#
# Static dielectric constant tensor:
#      x y z
#    x 3.600040 0.000000 0.158360 
#    y 0.000000 3.282840 0.000000 
#    z 0.158360 0.000000 2.987540 
# 
# 
# High freq. dielectric constant tensor:
#      x y z
#    x 1.682730 0.000000 0.010790 
#    y 0.000000 1.631910 0.000000 
#    z 0.010790 0.000000 1.614400 
# 
# From -- ./inp_files/228460.got.cif
#   From: 2010.06.25/outbox.cif.g09.slc.cpg/sg15_115_cif.got.tgz:228460.got - 2010.06.28 07:06:18.
