data_PCOD8131330
_publ_section_title
;
Structure prediction by ZEFSAII (Michael W. Deem and Ramdas Pophale) SiO2 
 PCOD8131330
Probable space group: C 2/C
;
_chemical_formula_sum "Si O2"
_cell_formula_units_Z 60
_cell_length_a 13.278415
_cell_length_b 13.755813
_cell_length_c 16.868458
_cell_angle_alpha 90.000000
_cell_angle_beta 80.175478
_cell_angle_gamma 90.000000
_cell_volume 3035.930165
_symmetry_space_group_name_H-M "C 2/C"
_symmetry_group_IT_number 15
_symmetry_cell_setting 'monoclinic'
loop_
_space_group_symop_operation_xyz
x,y,z
-x,y,1/2-z
-x,-y,-z
x,-y,1/2+z
1/2+x,1/2+y,z
1/2-x,1/2+y,1/2-z
1/2-x,1/2-y,-z
1/2+x,1/2-y,1/2+z
loop_
_atom_site_type_symbol
_atom_site_label
_atom_site_fract_x
_atom_site_fract_y
_atom_site_fract_z
Si Si1 0.384934 0.783117 0.556693
Si Si2 0.412768 0.789176 0.369083
Si Si3 0.800844 0.114088 0.341440
Si Si4 0.706906 0.385248 0.348349
Si Si5 0.693087 0.931267 0.697892
Si Si6 0.500000 0.933821 0.250000
Si Si7 0.105535 0.083178 0.700341
Si Si8 0.947756 0.282030 0.842425
O O1 0.417976 0.794563 0.462483
O O2 0.283145 0.848203 0.583586
O O3 0.368021 0.668119 0.579080
O O4 0.476719 0.820664 0.599734
O O5 0.405640 0.677245 0.339126
O O6 0.313170 0.832161 0.341514
O O7 0.503195 0.858724 0.324787
O O8 0.750650 0.124048 0.261344
O O9 0.831339 0.001716 0.351936
O O10 0.724039 0.501003 0.359817
O O11 0.667538 0.368490 0.264425
O O12 0.651448 0.851565 0.641863
O O13 0.599945 0.998296 0.742877
O O14 0.084630 0.169600 0.640060
O O15 0.000000 0.039922 0.750000
O O16 0.000000 0.293184 0.750000
#
# Coordination Sequence:
#
# PCOD8131330 Si02
#       8
#     8   8   8   8   8   4   8   8
#     4  11  19  36  57  82 112 150 184 223 277 338
#     4  10  22  35  58  81 115 145 181 229 287 328
#     4  10  19  33  55  81 112 143 184 224 268 330
#     4   9  17  32  53  81 111 141 183 225 262 331
#     4  10  18  32  57  85 106 148 187 228 268 318
#     4  10  20  38  54  84 112 136 188 238 276 328
#     4  10  19  31  55  83 110 145 192 222 267 322
#     4  11  17  33  57  79 113 144 190 226 265 331
#
# _framework density 19.763300000000001
#
# number of rings (size 3 to 8) (size 9 to 14) (size 15 to 20)
#    0.000    1.867    4.667    2.400    0.933    0.000 
#    0.000    8.000    0.000    0.000    0.000   17.733 
#    0.000    0.000    0.000    0.000    0.000    0.000 
#
# Total GULP energy -371669.646409 kJ/mol
# GULP energy per Si atom -12388.988214 kJ/mol
# Density = 1.971832 g / cm^3
# Si number density = 19.763300 Si / 1000 Ang^3
#
#
#
# Elastic Constant Matrix: (Units=GPa)
#
#
# Indices 1 2 3 4 5 6 
#
# 1 62.4360 29.9332 26.2569 0.0000 14.1475 0.0000
# 2 29.9332 111.1826 46.0797 0.0000 -0.8936 0.0000
# 3 26.2569 46.0797 85.6039 0.0000 10.0753 0.0000
# 4 0.0000 0.0000 0.0000 8.4589 0.0000 6.3971
# 5 14.1475 -0.8936 10.0753 0.0000 14.0389 0.0000
# 6 0.0000 0.0000 0.0000 6.3971 0.0000 32.7272
#
#
#
# Elastic Compliance Matrix: (Units=1/GPa)
#
#
# Indices 1 2 3 4 5 6 
#
# 1 0.025345 -0.006463 -0.001355 0.000000 -0.024980 0.000000
# 2 -0.006463 0.013657 -0.006813 0.000000 0.012272 0.000000
# 3 -0.001355 -0.006813 0.017100 0.000000 -0.011340 0.000000
# 4 0.000000 0.000000 0.000000 0.138725 0.000000 -0.027116
# 5 -0.024980 0.012272 -0.011340 0.000000 0.105323 0.000000
# 6 0.000000 0.000000 0.000000 -0.027116 0.000000 0.035856
#
#
# Mechanical properties :
#
#
# Convention : Reuss Voigt Hill
#
# Bulk Modulus (GPa) = 37.25927 51.52911 44.39419
# Shear Modulus (GPa) = 13.36136 21.50850 17.43493
#
# Velocity S-wave (km/s) = 2.60295 3.30253 2.97339
# Velocity P-wave (km/s) = 5.28465 6.37746 5.85660
#
# Compressibility (1/GPa) = 0.02683896
#
# Stress axis : x y z
#
# Youngs Moduli (GPa) = 39.45582 73.22519 58.48113
#
# Poissons Ratio (x) = 0.47323 0.07925
# Poissons Ratio (y) = 0.25499 0.39845
# Poissons Ratio (z) = 0.05347 0.49890
#
# Static dielectric constant tensor:
#      x y z
#    x 3.895320 0.000000 0.005510 
#    y 0.000000 4.323790 0.000000 
#    z 0.005510 0.000000 3.151900 
# 
# 
# High freq. dielectric constant tensor:
#      x y z
#    x 1.771970 0.000000 0.022020 
#    y 0.000000 1.784330 0.000000 
#    z 0.022020 0.000000 1.713950 
# 
# From -- ./inp_files/153913.got.cif
#   From: 2010.06.25/outbox.cif.g09.slc.cpg/sg15_77_cif.got.tgz:153913.got - 2010.06.28 07:06:18.
