data_PCOD8131368
_publ_section_title
;
Structure prediction by ZEFSAII (Michael W. Deem and Ramdas Pophale) SiO2 
 PCOD8131368
Probable space group: C 2/C
;
_chemical_formula_sum "Si O2"
_cell_formula_units_Z 40
_cell_length_a 17.407730
_cell_length_b 7.464260
_cell_length_c 19.005804
_cell_angle_alpha 90.000000
_cell_angle_beta 49.532777
_cell_angle_gamma 90.000000
_cell_volume 1878.766171
_symmetry_space_group_name_H-M "C 2/C"
_symmetry_group_IT_number 15
_symmetry_cell_setting 'monoclinic'
loop_
_space_group_symop_operation_xyz
x,y,z
-x,y,1/2-z
-x,-y,-z
x,-y,1/2+z
1/2+x,1/2+y,z
1/2-x,1/2+y,1/2-z
1/2-x,1/2-y,-z
1/2+x,1/2-y,1/2+z
loop_
_atom_site_type_symbol
_atom_site_label
_atom_site_fract_x
_atom_site_fract_y
_atom_site_fract_z
Si Si1 0.917819 0.768663 0.600841
Si Si2 0.249277 0.886796 0.102376
Si Si3 0.666082 0.273583 0.702293
Si Si4 0.374098 0.362633 0.064915
Si Si5 0.713655 0.991584 0.569949
O O1 0.837942 0.652476 0.604861
O O2 0.906598 0.724278 0.690099
O O3 0.032547 0.729550 0.507585
O O4 0.904069 0.982035 0.601416
O O5 0.191851 0.707173 0.112768
O O6 0.160809 0.016588 0.184587
O O7 0.300786 0.991376 0.005373
O O8 0.784366 0.250224 0.654923
O O9 0.640622 0.137212 0.652350
O O10 0.330189 0.455344 0.019371
#
# Coordination Sequence:
#
# PCOD8131368 Si02
#       5
#     8   8   8   8   8
#     4  10  18  34  55  87 112 149 186 244 282 344
#     4  10  18  32  59  76 109 151 186 232 292 337
#     4  10  19  33  58  80 108 151 192 232 287 346
#     4   8  19  34  52  82 118 140 190 234 289 340
#     4   8  19  36  52  81 109 150 188 232 287 349
#
# _framework density 21.290569000000001
#
# number of rings (size 3 to 8) (size 9 to 14) (size 15 to 20)
#    1.200    1.600    0.000    1.800    0.000    0.800 
#    0.000    1.000    0.000    2.400    0.000    0.000 
#    0.000    0.000    0.000    0.000    0.000    0.000 
#
# Total GULP energy -247762.240492 kJ/mol
# GULP energy per Si atom -12388.112025 kJ/mol
# Density = 2.124211 g / cm^3
# Si number density = 21.290569 Si / 1000 Ang^3
#
#
#
# Elastic Constant Matrix: (Units=GPa)
#
#
# Indices 1 2 3 4 5 6 
#
# 1 21.0176 6.7770 15.5139 0.0001 10.5535 0.0000
# 2 6.7770 80.2154 21.9636 0.0002 9.2294 -0.0002
# 3 15.5139 21.9636 102.6978 0.0000 15.3590 0.0000
# 4 0.0001 0.0002 0.0000 21.4016 0.0000 4.4937
# 5 10.5535 9.2294 15.3590 0.0000 32.4136 0.0000
# 6 0.0000 -0.0002 0.0000 4.4937 0.0000 17.8630
#
#
#
# Elastic Compliance Matrix: (Units=1/GPa)
#
#
# Indices 1 2 3 4 5 6 
#
# 1 0.061058 -0.001506 -0.006450 0.000000 -0.016395 0.000000
# 2 -0.001506 0.013488 -0.002321 0.000000 -0.002251 0.000000
# 3 -0.006450 -0.002321 0.011618 0.000000 -0.002745 0.000000
# 4 0.000000 0.000000 0.000000 0.049331 0.000000 -0.012410
# 5 -0.016395 -0.002251 -0.002745 0.000000 0.038131 0.000000
# 6 0.000000 0.000000 0.000000 -0.012410 0.000000 0.059104
#
#
# Mechanical properties :
#
#
# Convention : Reuss Voigt Hill
#
# Bulk Modulus (GPa) = 15.24117 32.49330 23.86724
# Shear Modulus (GPa) = 18.17170 24.98071 21.57621
#
# Velocity S-wave (km/s) = 2.92466 3.42910 3.18687
# Velocity P-wave (km/s) = 4.31034 5.56536 4.97756
#
# Compressibility (1/GPa) = 0.06561174
#
# Stress axis : x y z
#
# Youngs Moduli (GPa) = 16.37789 74.13993 86.07070
#
# Poissons Ratio (x) = 0.11167 0.55512
# Poissons Ratio (y) = 0.02467 0.19973
# Poissons Ratio (z) = 0.10563 0.17204
#
# Static dielectric constant tensor:
#      x y z
#    x 3.447140 0.000000 0.127950 
#    y 0.000000 3.886920 0.000000 
#    z 0.127950 0.000000 3.533130 
# 
# 
# High freq. dielectric constant tensor:
#      x y z
#    x 1.794650 0.000000 0.018440 
#    y 0.000000 1.844210 0.000000 
#    z 0.018440 0.000000 1.812130 
# 
# From -- ./inp_files/208464.got.cif
#   From: 2010.06.25/outbox.cif.g09.slc.cpg/sg15_105_cif.got.tgz:208464.got - 2010.06.28 07:06:18.
