data_PCOD8131231
_publ_section_title
;
Structure prediction by ZEFSAII (Michael W. Deem and Ramdas Pophale) SiO2 
 PCOD8131231
Probable space group: C 2/C
;
_chemical_formula_sum "Si O2"
_cell_formula_units_Z 60
_cell_length_a 11.651918
_cell_length_b 26.141569
_cell_length_c 14.412426
_cell_angle_alpha 90.000000
_cell_angle_beta 45.101719
_cell_angle_gamma 90.000000
_cell_volume 3109.716599
_symmetry_space_group_name_H-M "C 2/C"
_symmetry_group_IT_number 15
_symmetry_cell_setting 'monoclinic'
loop_
_space_group_symop_operation_xyz
x,y,z
-x,y,1/2-z
-x,-y,-z
x,-y,1/2+z
1/2+x,1/2+y,z
1/2-x,1/2+y,1/2-z
1/2-x,1/2-y,-z
1/2+x,1/2-y,1/2+z
loop_
_atom_site_type_symbol
_atom_site_label
_atom_site_fract_x
_atom_site_fract_y
_atom_site_fract_z
Si Si1 0.851718 0.193601 0.629700
Si Si2 0.363558 0.043436 0.963248
Si Si3 0.000000 0.185461 0.250000
Si Si4 0.834342 0.024075 0.059941
Si Si5 0.057704 0.258987 0.384209
Si Si6 0.213113 0.500963 0.808943
Si Si7 0.534825 0.406342 0.333715
Si Si8 0.802826 0.657788 0.971872
O O1 0.741488 0.218543 0.775301
O O2 0.920216 0.141202 0.629070
O O3 0.739504 0.180610 0.604832
O O4 0.002908 0.229869 0.510689
O O5 0.535008 0.021543 0.894112
O O6 0.281690 0.016780 0.922572
O O7 0.382872 0.102209 0.922530
O O8 0.255400 0.031855 0.116092
O O9 0.061206 0.219931 0.298236
O O10 0.146289 0.151203 0.127425
O O11 0.746632 0.039133 0.206089
O O12 0.867794 0.071695 0.973288
O O13 0.000000 0.000000 0.000000
O O14 0.929091 0.304043 0.445886
O O15 0.329530 0.550101 0.743035
O O16 0.500000 0.387309 0.250000
#
# Coordination Sequence:
#
# PCOD8131231 Si02
#       8
#     8   8   4   8   8   8   8   8
#     4  11  22  36  63  86 117 161 202 250 325 371
#     4  11  22  37  58  94 124 160 209 254 304 387
#     4  10  18  32  52  84 126 152 174 252 316 362
#     4  10  21  37  59  84 123 161 199 256 301 365
#     4  11  19  38  56  88 123 152 194 257 307 376
#     4  10  22  38  60  85 126 164 204 257 314 354
#     4  11  22  41  61  85 117 165 211 252 307 377
#     4  11  20  32  58  90 124 152 198 246 323 383
#
# _framework density 19.294364000000002
#
# number of rings (size 3 to 8) (size 9 to 14) (size 15 to 20)
#    0.000    1.333    4.000    3.600    0.000    5.333 
#    0.000    0.667    0.000    0.000    0.000    0.000 
#    0.000    0.000    0.000    0.000    0.000    0.000 
#
# Total GULP energy -371774.950258 kJ/mol
# GULP energy per Si atom -12392.498342 kJ/mol
# Density = 1.925045 g / cm^3
# Si number density = 19.294364 Si / 1000 Ang^3
#
#
#
# Elastic Constant Matrix: (Units=GPa)
#
#
# Indices 1 2 3 4 5 6 
#
# 1 30.1255 6.3238 7.8779 0.0000 0.6704 0.0000
# 2 6.3238 74.7306 23.3825 0.0000 -0.1363 0.0000
# 3 7.8779 23.3825 109.3134 0.0000 9.0315 0.0000
# 4 0.0000 0.0000 0.0000 23.2877 0.0000 13.7215
# 5 0.6704 -0.1363 9.0315 0.0000 23.1589 0.0000
# 6 0.0000 0.0000 0.0000 13.7215 0.0000 22.6914
#
#
#
# Elastic Compliance Matrix: (Units=1/GPa)
#
#
# Indices 1 2 3 4 5 6 
#
# 1 0.034190 -0.002282 -0.001956 0.000000 -0.000240 0.000000
# 2 -0.002282 0.014533 -0.003055 0.000000 0.001343 0.000000
# 3 -0.001956 -0.003055 0.010270 0.000000 -0.003967 0.000000
# 4 0.000000 0.000000 0.000000 0.066709 0.000000 -0.040339
# 5 -0.000240 0.001343 -0.003967 0.000000 0.044742 0.000000
# 6 0.000000 0.000000 0.000000 -0.040339 0.000000 0.068463
#
#
# Mechanical properties :
#
#
# Convention : Reuss Voigt Hill
#
# Bulk Modulus (GPa) = 22.51869 32.14868 27.33369
# Shear Modulus (GPa) = 18.63618 25.59996 22.11807
#
# Velocity S-wave (km/s) = 3.11124 3.64649 3.38945
# Velocity P-wave (km/s) = 4.96013 5.86750 5.43279
#
# Compressibility (1/GPa) = 0.04440756
#
# Stress axis : x y z
#
# Youngs Moduli (GPa) = 29.24806 68.80958 97.36910
#
# Poissons Ratio (x) = 0.15700 0.19046
# Poissons Ratio (y) = 0.06673 0.29748
# Poissons Ratio (z) = 0.05721 0.21022
#
# Static dielectric constant tensor:
#      x y z
#    x 3.288380 0.000000 0.020780 
#    y 0.000000 3.457080 0.000000 
#    z 0.020780 0.000000 4.489030 
# 
# 
# High freq. dielectric constant tensor:
#      x y z
#    x 1.723640 0.000000 0.000030 
#    y 0.000000 1.738050 0.000000 
#    z 0.000030 0.000000 1.777050 
# 
# From -- ./inp_files/148380.got.cif
#   From: 2010.06.25/outbox.cif.g09.slc.cpg/sg15_75_cif.got.tgz:148380.got - 2010.06.28 07:06:18.
