data_PCOD8131544
_publ_section_title
;
Structure prediction by ZEFSAII (Michael W. Deem and Ramdas Pophale) SiO2 
 PCOD8131544
Probable space group: C 2/C
;
_chemical_formula_sum "Si O2"
_cell_formula_units_Z 60
_cell_length_a 14.422185
_cell_length_b 10.104210
_cell_length_c 22.146647
_cell_angle_alpha 90.000000
_cell_angle_beta 108.142853
_cell_angle_gamma 90.000000
_cell_volume 3066.863285
_symmetry_space_group_name_H-M "C 2/C"
_symmetry_group_IT_number 15
_symmetry_cell_setting 'monoclinic'
loop_
_space_group_symop_operation_xyz
x,y,z
-x,y,1/2-z
-x,-y,-z
x,-y,1/2+z
1/2+x,1/2+y,z
1/2-x,1/2+y,1/2-z
1/2-x,1/2-y,-z
1/2+x,1/2-y,1/2+z
loop_
_atom_site_type_symbol
_atom_site_label
_atom_site_fract_x
_atom_site_fract_y
_atom_site_fract_z
Si Si1 0.834027 0.103796 0.370288
Si Si2 0.845401 0.749171 0.753454
Si Si3 0.638240 0.337871 0.175666
Si Si4 0.619592 0.899277 0.853981
Si Si5 0.039656 0.384390 0.582937
Si Si6 0.018422 0.317648 0.058245
Si Si7 0.946000 0.683007 0.665377
Si Si8 0.000000 0.210578 0.750000
O O1 0.823961 0.133252 0.296034
O O2 0.734023 0.122246 0.386079
O O3 0.905230 0.198827 0.421487
O O4 0.869414 0.951179 0.377392
O O5 0.746655 0.664489 0.726114
O O6 0.888360 0.791994 0.695274
O O7 0.937172 0.667805 0.799910
O O8 0.616917 0.195019 0.140088
O O9 0.557236 0.373490 0.210551
O O10 0.566549 0.877805 0.907311
O O11 0.583763 0.798512 0.796438
O O12 0.602427 0.045610 0.824855
O O13 0.069820 0.538694 0.580789
O O14 0.032601 0.313457 0.516872
O O15 0.933866 0.289724 0.091431
#
# Coordination Sequence:
#
# PCOD8131544 Si02
#       8
#     8   8   8   8   8   8   8   4
#     4  11  22  33  60  87 116 143 192 236 286 328
#     4  10  19  33  53  85 112 148 184 223 274 350
#     4  11  22  35  56  88 116 147 185 240 285 331
#     4  10  18  33  58  83 109 154 188 226 275 344
#     4   9  21  40  61  77 112 151 198 230 283 336
#     4   9  20  40  61  80 106 155 195 235 278 338
#     4   9  18  33  59  79 113 149 192 221 277 343
#     4  10  20  34  50  80 124 148 176 224 284 336
#
# _framework density 19.563963000000001
#
# number of rings (size 3 to 8) (size 9 to 14) (size 15 to 20)
#    0.000    2.133    2.667    0.800    0.000    6.400 
#    0.000    0.667    0.000    0.000    0.000    0.000 
#    0.000    0.000    0.000    0.000    0.000    0.000 
#
# Total GULP energy -371668.085907 kJ/mol
# GULP energy per Si atom -12388.936197 kJ/mol
# Density = 1.951943 g / cm^3
# Si number density = 19.563963 Si / 1000 Ang^3
#
#
#
# Elastic Constant Matrix: (Units=GPa)
#
#
# Indices 1 2 3 4 5 6 
#
# 1 97.3552 10.5009 17.9430 0.0000 -4.0434 0.0000
# 2 10.5009 48.4133 -0.2676 0.0000 7.9185 0.0000
# 3 17.9430 -0.2676 68.0634 0.0000 -17.0435 0.0000
# 4 0.0000 0.0000 0.0000 -10.0466 0.0000 38.7717
# 5 -4.0434 7.9185 -17.0435 0.0000 25.3125 0.0000
# 6 0.0000 0.0000 0.0000 38.7717 0.0000 -14.2622
#
#
#
# Elastic Compliance Matrix: (Units=1/GPa)
#
#
# Indices 1 2 3 4 5 6 
#
# 1 0.011082 -0.002535 -0.002754 0.000000 0.000709 0.000000
# 2 -0.002535 0.022566 -0.001338 0.000000 -0.008365 0.000000
# 3 -0.002754 -0.001338 0.018532 0.000000 0.012457 0.000000
# 4 0.000000 0.000000 0.000000 0.010487 0.000000 0.028509
# 5 0.000709 -0.008365 0.012457 0.000000 0.050624 0.000000
# 6 0.000000 0.000000 0.000000 0.028509 0.000000 0.007387
#
#
# Mechanical properties :
#
#
# Convention : Reuss Voigt Hill
#
# Bulk Modulus (GPa) = 25.68888 30.02052 27.85470
# Shear Modulus (GPa) = 34.03503 12.57777 23.30640
#
# Velocity S-wave (km/s) = 4.17547 2.53831 3.45525
# Velocity P-wave (km/s) = 6.03368 4.89579 5.49427
#
# Compressibility (1/GPa) = 0.03892734
#
# Stress axis : x y z
#
# Youngs Moduli (GPa) = 90.23571 44.31430 53.96022
#
# Poissons Ratio (x) = 0.11233 0.14860
# Poissons Ratio (y) = 0.22874 0.07218
# Poissons Ratio (z) = 0.24850 0.05928
#
# Static dielectric constant tensor:
#      x y z
#    x 4.016920 0.000000 -0.653480 
#    y 0.000000 3.383060 0.000000 
#    z -0.653480 0.000000 3.762830 
# 
# 
# High freq. dielectric constant tensor:
#      x y z
#    x 1.765060 0.000000 -0.022980 
#    y 0.000000 1.741610 0.000000 
#    z -0.022980 0.000000 1.747210 
# 
# From -- ./inp_files/273210.got.cif
#   From: 2010.06.25/outbox.cif.g09.slc.cpg/sg15_137_cif.got.tgz:273210.got - 2010.06.28 07:06:18.
