data_PCOD8131815
_publ_section_title
;
Structure prediction by ZEFSAII (Michael W. Deem and Ramdas Pophale) SiO2 
 PCOD8131815
Probable space group: C 2/C
;
_chemical_formula_sum "Si O2"
_cell_formula_units_Z 48
_cell_length_a 13.438478
_cell_length_b 10.691208
_cell_length_c 28.019514
_cell_angle_alpha 90.000000
_cell_angle_beta 35.183099
_cell_angle_gamma 90.000000
_cell_volume 2319.552045
_symmetry_space_group_name_H-M "C 2/C"
_symmetry_group_IT_number 15
_symmetry_cell_setting 'monoclinic'
loop_
_space_group_symop_operation_xyz
x,y,z
-x,y,1/2-z
-x,-y,-z
x,-y,1/2+z
1/2+x,1/2+y,z
1/2-x,1/2+y,1/2-z
1/2-x,1/2-y,-z
1/2+x,1/2-y,1/2+z
loop_
_atom_site_type_symbol
_atom_site_label
_atom_site_fract_x
_atom_site_fract_y
_atom_site_fract_z
Si Si1 0.449818 0.795706 0.146986
Si Si2 0.837147 0.373343 0.594367
Si Si3 0.974917 0.988572 0.630495
Si Si4 0.646041 0.013522 0.513843
Si Si5 0.319297 0.133388 0.799952
Si Si6 0.149256 0.915555 0.220071
O O1 0.520339 0.657980 0.110355
O O2 0.590533 0.905058 0.082220
O O3 0.366940 0.801537 0.231638
O O4 0.301474 0.816708 0.165696
O O5 0.859529 0.391394 0.529020
O O6 0.764586 0.234669 0.631582
O O7 0.694623 0.470736 0.667393
O O8 0.014571 0.398772 0.554468
O O9 0.166301 0.048284 0.548653
O O10 0.830647 0.028406 0.647975
O O11 0.900599 0.027606 0.709996
O O12 0.500000 0.077493 0.750000
O O13 0.000000 0.842018 0.250000
#
# Coordination Sequence:
#
# PCOD8131815 Si02
#       6
#     8   8   8   8   8   8
#     4  10  22  37  58  86 116 152 193 239 286 345
#     4  10  19  37  62  87 114 149 194 242 286 341
#     4  11  21  36  58  88 119 151 193 238 290 346
#     4  10  21  36  62  90 114 144 196 251 289 328
#     4  11  23  39  61  83 117 164 193 227 288 354
#     4  10  18  34  60  84 110 151 197 239 280 337
#
# _framework density 20.693650000000002
#
# number of rings (size 3 to 8) (size 9 to 14) (size 15 to 20)
#    0.000    1.667    3.333    2.000    0.000    1.333 
#    0.000    3.333    0.000    0.000    0.000    0.000 
#    0.000    0.000    0.000    0.000    0.000    0.000 
#
# Total GULP energy -297455.740651 kJ/mol
# GULP energy per Si atom -12393.989194 kJ/mol
# Density = 2.064655 g / cm^3
# Si number density = 20.693650 Si / 1000 Ang^3
#
#
#
# Elastic Constant Matrix: (Units=GPa)
#
#
# Indices 1 2 3 4 5 6 
#
# 1 89.4508 13.8316 20.1032 -0.0001 -35.8282 -0.0001
# 2 13.8316 33.2352 8.9650 0.0002 -8.9627 0.0003
# 3 20.1032 8.9650 85.1433 0.0018 -21.1091 0.0028
# 4 -0.0001 0.0002 0.0018 28.7934 0.0002 -1.1135
# 5 -35.8282 -8.9627 -21.1091 0.0002 48.1867 -0.0001
# 6 -0.0001 0.0003 0.0028 -1.1135 -0.0001 23.2425
#
#
#
# Elastic Compliance Matrix: (Units=1/GPa)
#
#
# Indices 1 2 3 4 5 6 
#
# 1 0.016382 -0.003606 -0.000712 0.000000 0.011198 0.000000
# 2 -0.003606 0.032810 -0.001969 0.000000 0.002559 0.000000
# 3 -0.000712 -0.001969 0.013348 -0.000001 0.004952 -0.000002
# 4 0.000000 0.000000 -0.000001 0.034795 -0.000001 0.001667
# 5 0.011198 0.002559 0.004952 -0.000001 0.031724 0.000000
# 6 0.000000 0.000000 -0.000002 0.001667 0.000000 0.043104
#
#
# Mechanical properties :
#
#
# Convention : Reuss Voigt Hill
#
# Bulk Modulus (GPa) = 20.01326 32.62546 26.31936
# Shear Modulus (GPa) = 24.82712 31.03983 27.93348
#
# Velocity S-wave (km/s) = 3.46749 3.87714 3.67803
# Velocity P-wave (km/s) = 5.07184 5.98692 5.54827
#
# Compressibility (1/GPa) = 0.04996686
#
# Stress axis : x y z
#
# Youngs Moduli (GPa) = 61.04222 30.47809 74.91773
#
# Poissons Ratio (x) = 0.10990 0.05335
# Poissons Ratio (y) = 0.22011 0.14750
# Poissons Ratio (z) = 0.04347 0.06001
#
# Static dielectric constant tensor:
#      x y z
#    x 4.005870 0.000000 -0.264660 
#    y 0.000000 3.390820 0.000000 
#    z -0.264660 0.000000 3.957830 
# 
# 
# High freq. dielectric constant tensor:
#      x y z
#    x 1.813740 0.000000 -0.016290 
#    y 0.000000 1.765840 0.000000 
#    z -0.016290 0.000000 1.825010 
# 
# From -- ./inp_files/152173.got.cif
#   From: 2010.06.25/outbox.cif.g09.slc.cpg/sg15_77_cif.got.tgz:152173.got - 2010.06.28 07:06:18.
