data_PCOD8131464
_publ_section_title
;
Structure prediction by ZEFSAII (Michael W. Deem and Ramdas Pophale) SiO2 
 PCOD8131464
Probable space group: C 2/C
;
_chemical_formula_sum "Si O2"
_cell_formula_units_Z 52
_cell_length_a 21.380923
_cell_length_b 31.370947
_cell_length_c 9.324418
_cell_angle_alpha 90.000000
_cell_angle_beta 24.678579
_cell_angle_gamma 90.000000
_cell_volume 2611.324097
_symmetry_space_group_name_H-M "C 2/C"
_symmetry_group_IT_number 15
_symmetry_cell_setting 'monoclinic'
loop_
_space_group_symop_operation_xyz
x,y,z
-x,y,1/2-z
-x,-y,-z
x,-y,1/2+z
1/2+x,1/2+y,z
1/2-x,1/2+y,1/2-z
1/2-x,1/2-y,-z
1/2+x,1/2-y,1/2+z
loop_
_atom_site_type_symbol
_atom_site_label
_atom_site_fract_x
_atom_site_fract_y
_atom_site_fract_z
Si Si1 0.197809 0.090202 0.825063
Si Si2 0.500000 0.124555 0.250000
Si Si3 0.747138 0.332812 0.798042
Si Si4 0.500000 0.600288 0.750000
Si Si5 0.986030 0.950352 0.555044
Si Si6 0.523791 0.180508 0.928406
Si Si7 0.590795 0.269732 0.299974
Si Si8 0.000000 0.830032 0.750000
O O1 0.375079 0.092363 0.452250
O O2 0.146903 0.058201 0.056070
O O3 0.138248 0.071235 0.799095
O O4 0.141787 0.138646 0.973132
O O5 0.443401 0.153126 0.499473
O O6 0.832554 0.323377 0.473037
O O7 0.869851 0.335102 0.671441
O O8 0.648976 0.375086 0.989661
O O9 0.620328 0.296793 0.094093
O O10 0.558135 0.571107 0.501100
O O11 0.000000 0.000000 0.500000
O O12 0.520530 0.229873 0.985483
O O13 0.525046 0.300331 0.560261
O O14 0.750000 0.250000 0.000000
#
# Coordination Sequence:
#
# PCOD8131464 Si02
#       8
#     8   4   8   4   8   8   8   4
#     4  10  22  39  60  86 116 153 187 230 286 354
#     4  12  22  39  58  84 120 158 194 230 286 353
#     4  10  21  37  55  81 111 147 195 242 286 331
#     4  12  20  34  60  86 108 138 182 236 280 336
#     4  10  21  40  64  89 112 141 182 230 286 348
#     4  10  22  37  54  78 114 157 195 237 285 330
#     4  10  18  33  54  78 111 154 200 249 288 327
#     4  10  18  35  58  80 112 158 202 242 292 345
#
# _framework density 19.913269
#
# number of rings (size 3 to 8) (size 9 to 14) (size 15 to 20)
#    0.000    1.846    0.000    8.308    0.000    0.615 
#    0.000    3.077    0.000    3.692    0.000    0.000 
#    0.000    0.000    0.000    0.000    0.000    0.000 
#
# Total GULP energy -322246.673884 kJ/mol
# GULP energy per Si atom -12394.102842 kJ/mol
# Density = 1.986795 g / cm^3
# Si number density = 19.913269 Si / 1000 Ang^3
#
#
#
# Elastic Constant Matrix: (Units=GPa)
#
#
# Indices 1 2 3 4 5 6 
#
# 1 84.9173 43.5547 35.5398 0.0000 13.5997 0.0002
# 2 43.5547 131.5084 42.3737 0.0003 0.3189 0.0001
# 3 35.5398 42.3737 89.5383 -0.0019 3.1834 -0.0018
# 4 0.0000 0.0003 -0.0019 15.0901 0.0002 8.7492
# 5 13.5997 0.3189 3.1834 0.0002 32.5835 0.0004
# 6 0.0002 0.0001 -0.0018 8.7492 0.0004 16.4772
#
#
#
# Elastic Compliance Matrix: (Units=1/GPa)
#
#
# Indices 1 2 3 4 5 6 
#
# 1 0.016810 -0.004102 -0.004499 0.000000 -0.006536 0.000000
# 2 -0.004102 0.009977 -0.003162 -0.000001 0.001923 0.000000
# 3 -0.004499 -0.003162 0.014432 0.000001 0.000498 0.000001
# 4 0.000000 -0.000001 0.000001 0.095745 0.000000 -0.050840
# 5 -0.006536 0.001923 0.000498 0.000000 0.033351 -0.000001
# 6 0.000000 0.000000 0.000001 -0.050840 -0.000001 0.087685
#
#
# Mechanical properties :
#
#
# Convention : Reuss Voigt Hill
#
# Bulk Modulus (GPa) = 56.51444 60.98894 58.75169
# Shear Modulus (GPa) = 17.39598 25.12986 21.26292
#
# Velocity S-wave (km/s) = 2.95886 3.55627 3.27123
# Velocity P-wave (km/s) = 6.33364 6.89612 6.62086
#
# Compressibility (1/GPa) = 0.01769459
#
# Stress axis : x y z
#
# Youngs Moduli (GPa) = 59.48988 100.23386 69.28810
#
# Poissons Ratio (x) = 0.41115 0.31169
# Poissons Ratio (y) = 0.24402 0.21907
# Poissons Ratio (z) = 0.26762 0.31691
#
# Static dielectric constant tensor:
#      x y z
#    x 3.639010 0.000000 0.194360 
#    y 0.000000 3.635080 0.000000 
#    z 0.194360 0.000000 3.786320 
# 
# 
# High freq. dielectric constant tensor:
#      x y z
#    x 1.774220 0.000000 0.012790 
#    y 0.000000 1.768590 0.000000 
#    z 0.012790 0.000000 1.780940 
# 
# From -- ./inp_files/59316.got.cif
#   From: 2010.06.25/outbox.cif.g09.slc.cpg/sg15_30_cif.got.tgz:59316.got - 2010.06.28 07:06:18.
