data_PCOD8131172
_publ_section_title
;
Structure prediction by ZEFSAII (Michael W. Deem and Ramdas Pophale) SiO2 
 PCOD8131172
Probable space group: C 2/C
;
_chemical_formula_sum "Si O2"
_cell_formula_units_Z 48
_cell_length_a 23.124077
_cell_length_b 13.101946
_cell_length_c 26.999483
_cell_angle_alpha 90.000000
_cell_angle_beta 21.259188
_cell_angle_gamma 90.000000
_cell_volume 2965.981771
_symmetry_space_group_name_H-M "C 2/C"
_symmetry_group_IT_number 15
_symmetry_cell_setting 'monoclinic'
loop_
_space_group_symop_operation_xyz
x,y,z
-x,y,1/2-z
-x,-y,-z
x,-y,1/2+z
1/2+x,1/2+y,z
1/2-x,1/2+y,1/2-z
1/2-x,1/2-y,-z
1/2+x,1/2-y,1/2+z
loop_
_atom_site_type_symbol
_atom_site_label
_atom_site_fract_x
_atom_site_fract_y
_atom_site_fract_z
Si Si1 0.487529 0.944651 0.084690
Si Si2 0.252747 0.845042 0.563638
Si Si3 0.856061 0.868150 0.133698
Si Si4 0.556486 0.347346 0.626193
Si Si5 0.463913 0.442040 0.604458
Si Si6 0.379990 0.137993 0.122443
O O1 0.332066 0.881206 0.224407
O O2 0.449471 0.065782 0.110703
O O3 0.630972 0.933909 0.009372
O O4 0.537360 0.895440 0.993568
O O5 0.364149 0.748067 0.464802
O O6 0.172641 0.886132 0.577138
O O7 0.116107 0.817349 0.712999
O O8 0.911324 0.756806 0.107964
O O9 0.922863 0.941731 0.123451
O O10 0.924325 0.892172 0.025527
O O11 0.542615 0.437341 0.596391
O O12 0.308028 0.373294 0.731548
#
# Coordination Sequence:
#
# PCOD8131172 Si02
#       6
#     8   8   8   8   8   8
#     4  10  20  30  49  73  96 126 160 195 239 285
#     4  10  20  33  49  72  97 130 162 197 241 285
#     4  10  20  32  49  70 101 128 156 196 239 288
#     4  10  20  33  50  70  99 129 162 198 239 287
#     4  10  20  32  47  73  97 129 159 191 244 285
#     4  10  18  32  49  70  97 126 158 198 238 285
#
# _framework density 16.183513000000001
#
# number of rings (size 3 to 8) (size 9 to 14) (size 15 to 20)
#    0.000    2.000    1.667    3.000    2.333    0.000 
#    0.000    0.000    0.000    1.000    0.000    0.000 
#    0.000    0.000    0.000    0.000    0.000    0.000 
#
# Total GULP energy -297513.332264 kJ/mol
# GULP energy per Si atom -12396.388844 kJ/mol
# Density = 1.614668 g / cm^3
# Si number density = 16.183513 Si / 1000 Ang^3
#
#
#
# Elastic Constant Matrix: (Units=GPa)
#
#
# Indices 1 2 3 4 5 6 
#
# 1 114.0560 45.7557 38.5455 -0.0064 -8.2928 -0.0012
# 2 45.7557 107.7117 26.1019 -0.0097 -7.8208 0.0006
# 3 38.5455 26.1019 112.0491 -0.0103 -2.0003 0.0015
# 4 -0.0064 -0.0097 -0.0103 21.2764 0.0011 1.8124
# 5 -8.2928 -7.8208 -2.0003 0.0011 25.2583 -0.0017
# 6 -0.0012 0.0006 0.0015 1.8124 -0.0017 22.4442
#
#
#
# Elastic Compliance Matrix: (Units=1/GPa)
#
#
# Indices 1 2 3 4 5 6 
#
# 1 0.011561 -0.004016 -0.003000 0.000000 0.002315 0.000001
# 2 -0.004016 0.011447 -0.001247 0.000003 0.002127 -0.000001
# 3 -0.003000 -0.001247 0.010237 0.000004 -0.000560 -0.000001
# 4 0.000000 0.000003 0.000004 0.047326 -0.000001 -0.003822
# 5 0.002315 0.002127 -0.000560 -0.000001 0.040965 0.000003
# 6 0.000001 -0.000001 -0.000001 -0.003822 0.000003 0.044864
#
#
# Mechanical properties :
#
#
# Convention : Reuss Voigt Hill
#
# Bulk Modulus (GPa) = 59.81405 61.62477 60.71941
# Shear Modulus (GPa) = 26.52539 28.69001 27.60770
#
# Velocity S-wave (km/s) = 4.05290 4.21502 4.13475
# Velocity P-wave (km/s) = 7.67733 7.86447 7.77146
#
# Compressibility (1/GPa) = 0.01671848
#
# Stress axis : x y z
#
# Youngs Moduli (GPa) = 86.49842 87.36180 97.68268
#
# Poissons Ratio (x) = 0.35084 0.29307
# Poissons Ratio (y) = 0.34737 0.12181
# Poissons Ratio (z) = 0.25951 0.10894
#
# Static dielectric constant tensor:
#      x y z
#    x 3.077760 0.000000 -0.005280 
#    y 0.000000 3.027930 0.000030 
#    z -0.005280 0.000030 3.311390 
# 
# 
# High freq. dielectric constant tensor:
#      x y z
#    x 1.608520 0.000000 0.005400 
#    y 0.000000 1.599240 0.000000 
#    z 0.005400 0.000000 1.650470 
# 
# From -- ./inp_files/55434.got.cif
#   From: 2010.06.25/outbox.cif.g09.slc.cpg/sg15_28_cif.got.tgz:55434.got - 2010.06.28 07:06:18.
