data_PCOD8131402
_publ_section_title
;
Structure prediction by ZEFSAII (Michael W. Deem and Ramdas Pophale) SiO2 
 PCOD8131402
Probable space group: C 2/C
;
_chemical_formula_sum "Si O2"
_cell_formula_units_Z 44
_cell_length_a 15.068340
_cell_length_b 12.050932
_cell_length_c 11.137281
_cell_angle_alpha 90.000000
_cell_angle_beta 57.939284
_cell_angle_gamma 90.000000
_cell_volume 1713.948592
_symmetry_space_group_name_H-M "C 2/C"
_symmetry_group_IT_number 15
_symmetry_cell_setting 'monoclinic'
loop_
_space_group_symop_operation_xyz
x,y,z
-x,y,1/2-z
-x,-y,-z
x,-y,1/2+z
1/2+x,1/2+y,z
1/2-x,1/2+y,1/2-z
1/2-x,1/2-y,-z
1/2+x,1/2-y,1/2+z
loop_
_atom_site_type_symbol
_atom_site_label
_atom_site_fract_x
_atom_site_fract_y
_atom_site_fract_z
Si Si1 0.842492 0.193568 0.503595
Si Si2 0.500000 0.829256 0.250000
Si Si3 0.106906 0.456004 0.367691
Si Si4 0.937337 0.968400 0.423642
Si Si5 0.113045 0.724115 0.041697
Si Si6 0.867149 0.687163 0.214921
O O1 0.750000 0.250000 0.500000
O O2 0.951236 0.252682 0.388662
O O3 0.827454 0.214933 0.656194
O O4 0.849168 0.063223 0.469778
O O5 0.588221 0.905288 0.248432
O O6 0.162861 0.360894 0.408130
O O7 0.176148 0.567579 0.301734
O O8 0.000000 0.500000 0.500000
O O9 0.881101 0.853239 0.498204
O O10 0.000000 0.956680 0.250000
O O11 0.000000 0.000000 0.500000
O O12 0.178140 0.709219 0.119472
O O13 0.992048 0.688737 0.138932
#
# Coordination Sequence:
#
# PCOD8131402 Si02
#       6
#     8   4   8   8   8   8
#     4  12  26  42  65 102 137 177 233 294 351 426
#     4  12  20  40  66  94 124 176 220 266 352 422
#     4  10  18  32  65  98 122 169 228 273 340 414
#     4  12  21  40  70 101 137 189 241 293 365 436
#     4  10  18  34  65  98 128 179 236 283 346 423
#     4  10  19  37  61  98 134 171 227 292 344 416
#
# _framework density 25.671716
#
# number of rings (size 3 to 8) (size 9 to 14) (size 15 to 20)
#    0.000    1.091    8.182    2.182    0.000    0.000 
#    0.000    3.636    0.000    2.182    0.000    0.000 
#    0.000    0.000    0.000    0.000    0.000    0.000 
#
# Total GULP energy -272664.799294 kJ/mol
# GULP energy per Si atom -12393.854513 kJ/mol
# Density = 2.561329 g / cm^3
# Si number density = 25.671716 Si / 1000 Ang^3
#
#
#
# Elastic Constant Matrix: (Units=GPa)
#
#
# Indices 1 2 3 4 5 6 
#
# 1 47.5544 26.1136 29.8258 0.0000 26.0880 0.0000
# 2 26.1136 245.4278 62.3773 0.0000 17.8702 0.0000
# 3 29.8258 62.3773 132.9926 0.0000 41.5554 0.0000
# 4 0.0000 0.0000 0.0000 41.3627 0.0000 17.2476
# 5 26.0880 17.8702 41.5554 0.0000 44.2961 0.0000
# 6 0.0000 0.0000 0.0000 17.2476 0.0000 27.6117
#
#
#
# Elastic Compliance Matrix: (Units=1/GPa)
#
#
# Indices 1 2 3 4 5 6 
#
# 1 0.032150 -0.001933 -0.000892 0.000000 -0.017318 0.000000
# 2 -0.001933 0.004744 -0.002192 0.000000 0.001281 0.000000
# 3 -0.000892 -0.002192 0.011752 0.000000 -0.009615 0.000000
# 4 0.000000 0.000000 0.000000 0.032691 0.000000 -0.020421
# 5 -0.017318 0.001281 -0.009615 0.000000 0.041278 0.000000
# 6 0.000000 0.000000 0.000000 -0.020421 0.000000 0.048972
#
#
# Mechanical properties :
#
#
# Convention : Reuss Voigt Hill
#
# Bulk Modulus (GPa) = 25.89915 73.62313 49.76114
# Shear Modulus (GPa) = 25.70801 43.16463 34.43632
#
# Velocity S-wave (km/s) = 3.16795 4.10495 3.66650
# Velocity P-wave (km/s) = 4.84682 7.15600 6.11147
#
# Compressibility (1/GPa) = 0.03861131
#
# Stress axis : x y z
#
# Youngs Moduli (GPa) = 31.10409 210.79321 85.09492
#
# Poissons Ratio (x) = 0.40747 0.07594
# Poissons Ratio (y) = 0.06013 0.18651
# Poissons Ratio (z) = 0.02776 0.46200
#
# Static dielectric constant tensor:
#      x y z
#    x 4.212490 0.000000 0.428310 
#    y 0.000000 5.574060 0.000000 
#    z 0.428310 0.000000 5.140080 
# 
# 
# High freq. dielectric constant tensor:
#      x y z
#    x 1.991830 0.000000 0.023430 
#    y 0.000000 2.047610 0.000000 
#    z 0.023430 0.000000 2.034810 
# 
# From -- ./inp_files/94968.got.cif
#   From: 2010.06.25/outbox.cif.g09.slc.cpg/sg15_48_cif.got.tgz:94968.got - 2010.06.28 07:06:18.
