data_PCOD8131900
_publ_section_title
;
Structure prediction by ZEFSAII (Michael W. Deem and Ramdas Pophale) SiO2 
 PCOD8131900
Probable space group: C 2/C
;
_chemical_formula_sum "Si O2"
_cell_formula_units_Z 60
_cell_length_a 5.458534
_cell_length_b 18.340617
_cell_length_c 28.618188
_cell_angle_alpha 90.000000
_cell_angle_beta 91.128166
_cell_angle_gamma 90.000000
_cell_volume 2864.493885
_symmetry_space_group_name_H-M "C 2/C"
_symmetry_group_IT_number 15
_symmetry_cell_setting 'monoclinic'
loop_
_space_group_symop_operation_xyz
x,y,z
-x,y,1/2-z
-x,-y,-z
x,-y,1/2+z
1/2+x,1/2+y,z
1/2-x,1/2+y,1/2-z
1/2-x,1/2-y,-z
1/2+x,1/2-y,1/2+z
loop_
_atom_site_type_symbol
_atom_site_label
_atom_site_fract_x
_atom_site_fract_y
_atom_site_fract_z
Si Si1 0.336758 0.294311 0.395925
Si Si2 0.153814 0.372667 0.075980
Si Si3 0.500000 0.650880 0.250000
Si Si4 0.025538 0.476332 0.601630
Si Si5 0.614832 0.646987 0.414032
Si Si6 0.112337 0.250911 0.702626
Si Si7 0.172515 0.934873 0.517408
Si Si8 0.739892 0.125572 0.334421
O O1 0.591291 0.330071 0.413793
O O2 0.324629 0.209539 0.413059
O O3 0.323861 0.305315 0.339186
O O4 0.090742 0.325088 0.419163
O O5 0.115928 0.441125 0.110717
O O6 0.160958 0.404119 0.023623
O O7 0.650382 0.704342 0.283548
O O8 0.355058 0.599320 0.285420
O O9 0.845718 0.470005 0.557030
O O10 0.893231 0.446454 0.647450
O O11 0.269226 0.431356 0.594347
O O12 0.475923 0.635769 0.463021
O O13 0.424093 0.661621 0.372031
O O14 0.000000 0.214663 0.750000
O O15 0.930341 0.307045 0.677952
O O16 0.000000 0.000000 0.500000
#
# Coordination Sequence:
#
# PCOD8131900 Si02
#       8
#     8   8   4   8   8   8   8   8
#     4  12  26  45  64 105 142 172 225 287 350 397
#     4  12  28  43  67  98 143 185 222 280 345 410
#     4  10  18  34  70 104 126 160 234 282 330 402
#     4  11  23  42  70  93 132 181 233 279 339 403
#     4  11  23  40  71  92 138 175 228 286 330 401
#     4  10  21  38  69  98 130 176 223 273 330 419
#     4  11  24  44  69  96 130 185 242 275 333 415
#     4  10  19  37  66 104 127 166 230 285 337 387
#
# _framework density 20.946110000000001
#
# number of rings (size 3 to 8) (size 9 to 14) (size 15 to 20)
#    0.000    1.067    4.000    2.000    7.467    1.067 
#    0.000    0.000    1.467    1.600    0.000    0.000 
#    0.000    0.000    0.000    0.000    0.000    0.000 
#
# Total GULP energy -371747.526126 kJ/mol
# GULP energy per Si atom -12391.584204 kJ/mol
# Density = 2.089844 g / cm^3
# Si number density = 20.946110 Si / 1000 Ang^3
#
#
#
# Elastic Constant Matrix: (Units=GPa)
#
#
# Indices 1 2 3 4 5 6 
#
# 1 115.5004 20.0933 38.7198 0.0000 -3.7707 0.0000
# 2 20.0933 59.1580 11.5158 0.0000 -8.0247 0.0000
# 3 38.7198 11.5158 106.2727 0.0000 -24.7242 0.0000
# 4 0.0000 0.0000 0.0000 21.8103 0.0000 -7.3029
# 5 -3.7707 -8.0247 -24.7242 0.0000 49.0550 0.0000
# 6 0.0000 0.0000 0.0000 -7.3029 0.0000 50.1491
#
#
#
# Elastic Compliance Matrix: (Units=1/GPa)
#
#
# Indices 1 2 3 4 5 6 
#
# 1 0.010419 -0.003011 -0.003849 0.000000 -0.001632 0.000000
# 2 -0.003011 0.018337 -0.000279 0.000000 0.002628 0.000000
# 3 -0.003849 -0.000279 0.012193 0.000000 0.005804 0.000000
# 4 0.000000 0.000000 0.000000 0.048200 0.000000 0.007019
# 5 -0.001632 0.002628 0.005804 0.000000 0.023615 0.000000
# 6 0.000000 0.000000 0.000000 0.007019 0.000000 0.020963
#
#
# Mechanical properties :
#
#
# Convention : Reuss Voigt Hill
#
# Bulk Modulus (GPa) = 37.49407 46.84321 42.16864
# Shear Modulus (GPa) = 31.86848 38.24305 35.05576
#
# Velocity S-wave (km/s) = 3.90481 4.27755 4.09542
# Velocity P-wave (km/s) = 6.18621 6.84170 6.52219
#
# Compressibility (1/GPa) = 0.02667089
#
# Stress axis : x y z
#
# Youngs Moduli (GPa) = 95.97874 54.53385 82.01606
#
# Poissons Ratio (x) = 0.16419 0.31572
# Poissons Ratio (y) = 0.28898 0.02286
# Poissons Ratio (z) = 0.36947 0.01520
#
# Static dielectric constant tensor:
#      x y z
#    x 4.170340 0.000000 -0.420810 
#    y 0.000000 3.663080 0.000000 
#    z -0.420810 0.000000 4.149140 
# 
# 
# High freq. dielectric constant tensor:
#      x y z
#    x 1.847160 0.000000 -0.013530 
#    y 0.000000 1.787560 0.000000 
#    z -0.013530 0.000000 1.826790 
# 
# From -- ./inp_files/305683.got.cif
#   From: 2010.06.25/outbox.cif.g09.slc.cpg/sg15_153_cif.got.tgz:305683.got - 2010.06.28 07:06:18.
