data_PCOD8131025
_publ_section_title
;
Structure prediction by ZEFSAII (Michael W. Deem and Ramdas Pophale) SiO2 
 PCOD8131025
Probable space group: C 2/C
;
_chemical_formula_sum "Si O2"
_cell_formula_units_Z 52
_cell_length_a 29.538993
_cell_length_b 21.617012
_cell_length_c 5.104112
_cell_angle_alpha 90.000000
_cell_angle_beta 85.692468
_cell_angle_gamma 90.000000
_cell_volume 3249.997627
_symmetry_space_group_name_H-M "C 2/C"
_symmetry_group_IT_number 15
_symmetry_cell_setting 'monoclinic'
loop_
_space_group_symop_operation_xyz
x,y,z
-x,y,1/2-z
-x,-y,-z
x,-y,1/2+z
1/2+x,1/2+y,z
1/2-x,1/2+y,1/2-z
1/2-x,1/2-y,-z
1/2+x,1/2-y,1/2+z
loop_
_atom_site_type_symbol
_atom_site_label
_atom_site_fract_x
_atom_site_fract_y
_atom_site_fract_z
Si Si1 0.722559 0.677065 0.241670
Si Si2 0.587662 0.538523 0.351832
Si Si3 0.407947 0.736709 0.627335
Si Si4 0.693883 0.539730 0.298373
Si Si5 0.062715 0.827362 0.901944
Si Si6 0.190988 0.753903 0.259509
Si Si7 0.500000 0.257502 0.250000
O O1 0.720893 0.604016 0.287667
O O2 0.775582 0.695926 0.221767
O O3 0.695735 0.714981 0.474319
O O4 0.700751 0.693312 0.971024
O O5 0.573640 0.508270 0.630941
O O6 0.640698 0.555198 0.316599
O O7 0.559329 0.601146 0.327487
O O8 0.411985 0.711283 0.333623
O O9 0.360307 0.772637 0.679202
O O10 0.453523 0.778902 0.683036
O O11 0.407770 0.680583 0.840783
O O12 0.708398 0.500961 0.544623
O O13 0.012225 0.801056 0.991895
#
# Coordination Sequence:
#
# PCOD8131025 Si02
#       7
#     8   8   8   8   8   8   4
#     4  10  20  32  46  73  95 116 155 187 229 284
#     4  10  19  29  42  60  77 107 149 186 223 258
#     4  10  18  31  49  63  82 112 141 176 221 272
#     4  10  19  30  45  64  90 122 154 188 223 264
#     4  10  19  32  46  61  83 106 148 185 222 269
#     4  10  19  31  50  70  94 120 145 193 238 267
#     4   8  22  30  48  64  80 110 150 176 226 278
#
# _framework density 16.000014
#
# number of rings (size 3 to 8) (size 9 to 14) (size 15 to 20)
#    0.923    1.231    0.000    5.077    0.000    2.462 
#    0.000    0.769    0.000    0.000    0.000    0.000 
#    0.000    0.000    0.000    1.385    0.000    0.000 
#
# Total GULP energy -322129.352668 kJ/mol
# GULP energy per Si atom -12389.590487 kJ/mol
# Density = 1.596360 g / cm^3
# Si number density = 16.000014 Si / 1000 Ang^3
#
#
#
# Elastic Constant Matrix: (Units=GPa)
#
#
# Indices 1 2 3 4 5 6 
#
# 1 92.1934 12.4160 22.1819 0.0000 -22.4685 0.0000
# 2 12.4160 28.7389 8.0761 0.0000 -1.4120 0.0000
# 3 22.1819 8.0761 91.5355 0.0000 -0.9388 0.0000
# 4 0.0000 0.0000 0.0000 15.1594 0.0000 -1.1696
# 5 -22.4685 -1.4120 -0.9388 0.0000 16.7966 0.0000
# 6 0.0000 0.0000 0.0000 -1.1696 0.0000 15.8406
#
#
#
# Elastic Compliance Matrix: (Units=1/GPa)
#
#
# Indices 1 2 3 4 5 6 
#
# 1 0.018301 -0.005701 -0.003688 0.000000 0.023796 0.000000
# 2 -0.005701 0.037591 -0.001982 0.000000 -0.004577 0.000000
# 3 -0.003688 -0.001982 0.011948 0.000000 -0.004432 0.000000
# 4 0.000000 0.000000 0.000000 0.066343 0.000000 0.004899
# 5 0.023796 -0.004577 -0.004432 0.000000 0.090735 0.000000
# 6 0.000000 0.000000 0.000000 0.004899 0.000000 0.063491
#
#
# Mechanical properties :
#
#
# Convention : Reuss Voigt Hill
#
# Bulk Modulus (GPa) = 22.17388 33.09066 27.63227
# Shear Modulus (GPa) = 15.32877 20.87891 18.10384
#
# Velocity S-wave (km/s) = 3.09859 3.61630 3.36741
# Velocity P-wave (km/s) = 5.16628 6.17765 5.69446
#
# Compressibility (1/GPa) = 0.04509812
#
# Stress axis : x y z
#
# Youngs Moduli (GPa) = 54.64132 26.60198 83.69722
#
# Poissons Ratio (x) = 0.15166 0.30867
# Poissons Ratio (y) = 0.31152 0.16589
# Poissons Ratio (z) = 0.20151 0.05273
#
# Static dielectric constant tensor:
#      x y z
#    x 3.119520 0.000000 -0.071450 
#    y 0.000000 2.525820 0.000000 
#    z -0.071450 0.000000 3.339690 
# 
# 
# High freq. dielectric constant tensor:
#      x y z
#    x 1.611250 0.000000 0.002740 
#    y 0.000000 1.544740 0.000000 
#    z 0.002740 0.000000 1.647100 
# 
# From -- ./inp_files/18514.got.cif
#   From: 2010.06.25/outbox.cif.g09.slc.cpg/sg15_10_cif.got.tgz:18514.got - 2010.06.28 07:06:18.
