data_PCOD8131124
_publ_section_title
;
Structure prediction by ZEFSAII (Michael W. Deem and Ramdas Pophale) SiO2 
 PCOD8131124
Probable space group: C 2/C
;
_chemical_formula_sum "Si O2"
_cell_formula_units_Z 52
_cell_length_a 13.840016
_cell_length_b 22.957503
_cell_length_c 12.293603
_cell_angle_alpha 90.000000
_cell_angle_beta 130.360517
_cell_angle_gamma 90.000000
_cell_volume 2976.368549
_symmetry_space_group_name_H-M "C 2/C"
_symmetry_group_IT_number 15
_symmetry_cell_setting 'monoclinic'
loop_
_space_group_symop_operation_xyz
x,y,z
-x,y,1/2-z
-x,-y,-z
x,-y,1/2+z
1/2+x,1/2+y,z
1/2-x,1/2+y,1/2-z
1/2-x,1/2-y,-z
1/2+x,1/2-y,1/2+z
loop_
_atom_site_type_symbol
_atom_site_label
_atom_site_fract_x
_atom_site_fract_y
_atom_site_fract_z
Si Si1 0.743232 0.274205 0.672535
Si Si2 0.666620 0.077250 0.464424
Si Si3 0.904920 0.538017 0.500980
Si Si4 0.858994 0.173662 0.614084
Si Si5 0.141336 0.265731 0.331065
Si Si6 0.500000 0.122079 0.750000
Si Si7 0.604623 0.885643 0.687149
O O1 0.800200 0.219404 0.653850
O O2 0.648522 0.305969 0.517968
O O3 0.677876 0.255970 0.737295
O O4 0.858792 0.317999 0.783476
O O5 0.791221 0.112399 0.586472
O O6 0.547826 0.109584 0.436195
O O7 0.647590 0.078379 0.322203
O O8 0.686052 0.008888 0.506911
O O9 0.982859 0.579415 0.637088
O O10 0.827886 0.581797 0.365457
O O11 0.000000 0.500000 0.500000
O O12 0.000000 0.161825 0.750000
O O13 0.250000 0.250000 0.500000
O O14 0.123486 0.336245 0.320263
O O15 0.000000 0.237840 0.250000
#
# Coordination Sequence:
#
# PCOD8131124 Si02
#       7
#     8   8   8   8   8   4   8
#     4  10  22  36  58  83 121 150 192 242 296 360
#     4   9  19  34  52  84 111 142 189 243 297 338
#     4  10  18  31  55  79 111 141 190 246 288 332
#     4  10  23  34  57  86 113 156 191 243 302 362
#     4  10  24  39  58  85 127 163 197 241 296 365
#     4  10  22  34  56  90 112 152 202 232 300 352
#     4   9  18  32  55  79 112 142 185 235 293 338
#
# _framework density 17.470955
#
# number of rings (size 3 to 8) (size 9 to 14) (size 15 to 20)
#    0.462    1.846    0.000    2.769   12.923    0.000 
#    0.000    0.000    0.000    7.385    0.000    0.000 
#    0.000    0.000    0.000    0.000    0.000    0.000 
#
# Total GULP energy -322091.444274 kJ/mol
# GULP energy per Si atom -12388.132472 kJ/mol
# Density = 1.743119 g / cm^3
# Si number density = 17.470955 Si / 1000 Ang^3
#
#
#
# Elastic Constant Matrix: (Units=GPa)
#
#
# Indices 1 2 3 4 5 6 
#
# 1 82.4716 37.9968 65.8637 0.0000 -10.6167 0.0000
# 2 37.9968 96.7867 69.8584 0.0000 -10.7776 0.0000
# 3 65.8637 69.8584 114.8179 0.0000 0.5289 0.0000
# 4 0.0000 0.0000 0.0000 29.1069 0.0000 -5.9016
# 5 -10.6167 -10.7776 0.5289 0.0000 38.4103 0.0000
# 6 0.0000 0.0000 0.0000 -5.9016 0.0000 24.3319
#
#
#
# Elastic Compliance Matrix: (Units=1/GPa)
#
#
# Indices 1 2 3 4 5 6 
#
# 1 0.024361 0.002496 -0.015528 0.000000 0.007648 0.000000
# 2 0.002496 0.019835 -0.013529 0.000000 0.006441 0.000000
# 3 -0.015528 -0.013529 0.025887 0.000000 -0.008445 0.000000
# 4 0.000000 0.000000 0.000000 0.036133 0.000000 0.008764
# 5 0.007648 0.006441 -0.008445 0.000000 0.030072 0.000000
# 6 0.000000 0.000000 0.000000 0.008764 0.000000 0.043224
#
#
# Mechanical properties :
#
#
# Convention : Reuss Voigt Hill
#
# Bulk Modulus (GPa) = 58.96288 71.27935 65.12112
# Shear Modulus (GPa) = 20.98297 26.39364 23.68830
#
# Velocity S-wave (km/s) = 3.46933 3.89101 3.68621
# Velocity P-wave (km/s) = 7.06192 7.81498 7.44798
#
# Compressibility (1/GPa) = 0.01695982
#
# Stress axis : x y z
#
# Youngs Moduli (GPa) = 41.04902 50.41703 38.62903
#
# Poissons Ratio (x) = -0.12582 0.59983
# Poissons Ratio (y) = -0.10244 0.52262
# Poissons Ratio (z) = 0.63741 0.68210
#
# Static dielectric constant tensor:
#      x y z
#    x 3.277170 0.000000 -0.266830 
#    y 0.000000 3.649490 0.000000 
#    z -0.266830 0.000000 3.453820 
# 
# 
# High freq. dielectric constant tensor:
#      x y z
#    x 1.649510 0.000000 -0.026600 
#    y 0.000000 1.682510 0.000000 
#    z -0.026600 0.000000 1.678880 
# 
# From -- ./inp_files/100513.got.cif
#   From: 2010.06.25/outbox.cif.g09.slc.cpg/sg15_51_cif.got.tgz:100513.got - 2010.06.28 07:06:18.
