data_PCOD8131856
_publ_section_title
;
Structure prediction by ZEFSAII (Michael W. Deem and Ramdas Pophale) SiO2 
 PCOD8131856
Probable space group: C 2/C
;
_chemical_formula_sum "Si O2"
_cell_formula_units_Z 44
_cell_length_a 10.911571
_cell_length_b 19.470413
_cell_length_c 12.346896
_cell_angle_alpha 90.000000
_cell_angle_beta 116.256929
_cell_angle_gamma 90.000000
_cell_volume 2352.475760
_symmetry_space_group_name_H-M "C 2/C"
_symmetry_group_IT_number 15
_symmetry_cell_setting 'monoclinic'
loop_
_space_group_symop_operation_xyz
x,y,z
-x,y,1/2-z
-x,-y,-z
x,-y,1/2+z
1/2+x,1/2+y,z
1/2-x,1/2+y,1/2-z
1/2-x,1/2-y,-z
1/2+x,1/2-y,1/2+z
loop_
_atom_site_type_symbol
_atom_site_label
_atom_site_fract_x
_atom_site_fract_y
_atom_site_fract_z
Si Si1 0.744867 0.798532 0.662658
Si Si2 0.531970 0.733928 0.877828
Si Si3 0.260562 0.342428 0.906885
Si Si4 0.574557 0.104807 0.967708
Si Si5 0.500000 0.799160 0.250000
Si Si6 0.085603 0.543455 0.391671
O O1 0.605206 0.756131 0.616444
O O2 0.784450 0.835669 0.788995
O O3 0.714083 0.856669 0.559843
O O4 0.866785 0.747614 0.678340
O O5 0.500000 0.698745 0.750000
O O6 0.630655 0.798607 0.896695
O O7 0.600415 0.678127 0.980799
O O8 0.231705 0.420987 0.927784
O O9 0.485696 0.153357 0.851958
O O10 0.617207 0.036307 0.921001
O O11 0.485208 0.081858 0.035321
O O12 0.000000 0.555842 0.250000
#
# Coordination Sequence:
#
# PCOD8131856 Si02
#       6
#     8   8   8   8   4   8
#     4  11  21  38  59  86 123 156 200 251 296 359
#     4   9  18  31  56  91 119 145 198 246 299 350
#     4  10  18  34  62  89 115 150 193 256 301 339
#     4  11  23  38  60  89 120 161 199 244 300 358
#     4  12  26  38  60  88 126 162 198 244 310 354
#     4  11  20  39  64  88 121 154 204 247 292 363
#
# _framework density 18.703699
#
# number of rings (size 3 to 8) (size 9 to 14) (size 15 to 20)
#    0.000    1.455    4.545    2.182    5.091    0.000 
#    0.000    0.000    2.000    2.182    0.000    0.000 
#    0.000    0.000    0.000    0.000    0.000    0.000 
#
# Total GULP energy -272745.274244 kJ/mol
# GULP energy per Si atom -12397.512466 kJ/mol
# Density = 1.866113 g / cm^3
# Si number density = 18.703699 Si / 1000 Ang^3
#
#
#
# Elastic Constant Matrix: (Units=GPa)
#
#
# Indices 1 2 3 4 5 6 
#
# 1 64.7351 31.6269 24.8327 0.0000 6.6372 0.0000
# 2 31.6269 104.0166 48.8346 0.0000 2.0053 0.0000
# 3 24.8327 48.8346 116.4490 0.0000 6.6544 0.0000
# 4 0.0000 0.0000 0.0000 37.4924 0.0000 -4.5434
# 5 6.6372 2.0053 6.6544 0.0000 28.2145 0.0000
# 6 0.0000 0.0000 0.0000 -4.5434 0.0000 21.9896
#
#
#
# Elastic Compliance Matrix: (Units=1/GPa)
#
#
# Indices 1 2 3 4 5 6 
#
# 1 0.018869 -0.004826 -0.001790 0.000000 -0.003674 0.000000
# 2 -0.004826 0.013208 -0.004583 0.000000 0.001277 0.000000
# 3 -0.001790 -0.004583 0.010997 0.000000 -0.001847 0.000000
# 4 0.000000 0.000000 0.000000 0.027357 0.000000 0.005652
# 5 -0.003674 0.001277 -0.001847 0.000000 0.036652 0.000000
# 6 0.000000 0.000000 0.000000 0.005652 0.000000 0.046644
#
#
# Mechanical properties :
#
#
# Convention : Reuss Voigt Hill
#
# Bulk Modulus (GPa) = 48.36580 55.08768 51.72674
# Shear Modulus (GPa) = 27.32006 29.53305 28.42656
#
# Velocity S-wave (km/s) = 3.82603 3.97797 3.90274
# Velocity P-wave (km/s) = 6.74040 7.11447 6.92996
#
# Compressibility (1/GPa) = 0.02067577
#
# Stress axis : x y z
#
# Youngs Moduli (GPa) = 52.99808 75.71048 90.93705
#
# Poissons Ratio (x) = 0.36537 0.16278
# Poissons Ratio (y) = 0.25576 0.41676
# Poissons Ratio (z) = 0.09487 0.34698
#
# Static dielectric constant tensor:
#      x y z
#    x 3.139230 0.000000 -0.044340 
#    y 0.000000 3.520430 0.000000 
#    z -0.044340 0.000000 3.787180 
# 
# 
# High freq. dielectric constant tensor:
#      x y z
#    x 1.695110 0.000000 -0.010910 
#    y 0.000000 1.715350 0.000000 
#    z -0.010910 0.000000 1.751950 
# 
# From -- ./inp_files/87957.got.cif
#   From: 2010.06.25/outbox.cif.g09.slc.cpg/sg15_44_cif.got.tgz:87957.got - 2010.06.28 07:06:18.
