data_PCOD8131773
_publ_section_title
;
Structure prediction by ZEFSAII (Michael W. Deem and Ramdas Pophale) SiO2 
 PCOD8131773
Probable space group: C 2/C
;
_chemical_formula_sum "Si O2"
_cell_formula_units_Z 36
_cell_length_a 22.334485
_cell_length_b 18.737697
_cell_length_c 5.516335
_cell_angle_alpha 90.000000
_cell_angle_beta 56.823042
_cell_angle_gamma 90.000000
_cell_volume 1932.236039
_symmetry_space_group_name_H-M "C 2/C"
_symmetry_group_IT_number 15
_symmetry_cell_setting 'monoclinic'
loop_
_space_group_symop_operation_xyz
x,y,z
-x,y,1/2-z
-x,-y,-z
x,-y,1/2+z
1/2+x,1/2+y,z
1/2-x,1/2+y,1/2-z
1/2-x,1/2-y,-z
1/2+x,1/2-y,1/2+z
loop_
_atom_site_type_symbol
_atom_site_label
_atom_site_fract_x
_atom_site_fract_y
_atom_site_fract_z
Si Si1 0.709960 0.539856 0.066661
Si Si2 0.865757 0.771379 0.299711
Si Si3 0.000000 0.787060 0.750000
Si Si4 0.753219 0.312398 0.303270
Si Si5 0.927697 0.115725 0.029539
O O1 0.730761 0.506333 0.281993
O O2 0.624092 0.552856 0.262349
O O3 0.755365 0.612636 0.938325
O O4 0.826138 0.701336 0.490995
O O5 0.816492 0.810122 0.210381
O O6 0.881617 0.834084 0.454437
O O7 0.942408 0.741130 0.030632
O O8 0.949368 0.836525 0.705202
O O9 0.750000 0.250000 0.500000
O O10 0.000000 0.083305 0.750000
#
# Coordination Sequence:
#
# PCOD8131773 Si02
#       5
#     8   8   4   8   8
#     4  12  26  40  56  87 126 163 204 246 299 359
#     4  10  19  34  61  84 116 147 210 251 300 335
#     4  10  18  34  58  86 114 154 202 254 280 364
#     4  11  21  37  61  83 111 162 203 256 296 353
#     4  10  21  36  55  83 121 163 203 238 286 359
#
# _framework density 18.631264000000002
#
# number of rings (size 3 to 8) (size 9 to 14) (size 15 to 20)
#    0.000    1.333    4.444    1.333    6.222    0.889 
#    0.000    0.000    0.000    0.000    0.000    1.556 
#    0.000    0.000    0.000    0.000    0.000    0.000 
#
# Total GULP energy -223047.825974 kJ/mol
# GULP energy per Si atom -12391.545887 kJ/mol
# Density = 1.858886 g / cm^3
# Si number density = 18.631264 Si / 1000 Ang^3
#
#
#
# Elastic Constant Matrix: (Units=GPa)
#
#
# Indices 1 2 3 4 5 6 
#
# 1 71.9097 20.2850 26.8833 0.0000 23.5357 0.0000
# 2 20.2850 90.8550 52.4609 0.0000 2.6730 0.0000
# 3 26.8833 52.4609 121.1119 0.0000 -4.8898 0.0000
# 4 0.0000 0.0000 0.0000 60.7903 0.0000 19.8653
# 5 23.5357 2.6730 -4.8898 0.0000 41.5641 0.0000
# 6 0.0000 0.0000 0.0000 19.8653 0.0000 55.1834
#
#
#
# Elastic Compliance Matrix: (Units=1/GPa)
#
#
# Indices 1 2 3 4 5 6 
#
# 1 0.019688 -0.001686 -0.004105 0.000000 -0.011523 0.000000
# 2 -0.001686 0.014943 -0.006128 0.000000 -0.000727 0.000000
# 3 -0.004105 -0.006128 0.011989 0.000000 0.004129 0.000000
# 4 0.000000 0.000000 0.000000 0.018643 0.000000 -0.006711
# 5 -0.011523 -0.000727 0.004129 0.000000 0.031117 0.000000
# 6 0.000000 0.000000 0.000000 -0.006711 0.000000 0.020537
#
#
# Mechanical properties :
#
#
# Convention : Reuss Voigt Hill
#
# Bulk Modulus (GPa) = 43.89480 53.68167 48.78823
# Shear Modulus (GPa) = 33.70449 43.79074 38.74761
#
# Velocity S-wave (km/s) = 4.25788 4.85334 4.56533
# Velocity P-wave (km/s) = 6.91257 7.76414 7.35070
#
# Compressibility (1/GPa) = 0.02278174
#
# Stress axis : x y z
#
# Youngs Moduli (GPa) = 50.79225 66.92275 83.41053
#
# Poissons Ratio (x) = 0.11286 0.34239
# Poissons Ratio (y) = 0.08566 0.51110
# Poissons Ratio (z) = 0.20850 0.41007
#
# Static dielectric constant tensor:
#      x y z
#    x 3.417460 0.000000 -0.143030 
#    y 0.000000 3.225590 0.000000 
#    z -0.143030 0.000000 4.291630 
# 
# 
# High freq. dielectric constant tensor:
#      x y z
#    x 1.717160 0.000000 0.011330 
#    y 0.000000 1.677350 0.000000 
#    z 0.011330 0.000000 1.755580 
# 
# From -- ./inp_files/9693.got.cif
#   From: 2010.06.25/outbox.cif.g09.slc.cpg/sg15_5_cif.got.tgz:9693.got - 2010.06.28 07:06:18.
