data_PCOD8131864
_publ_section_title
;
Structure prediction by ZEFSAII (Michael W. Deem and Ramdas Pophale) SiO2 
 PCOD8131864
Probable space group: C 2/C
;
_chemical_formula_sum "Si O2"
_cell_formula_units_Z 60
_cell_length_a 22.095544
_cell_length_b 23.610090
_cell_length_c 9.637434
_cell_angle_alpha 90.000000
_cell_angle_beta 34.583541
_cell_angle_gamma 90.000000
_cell_volume 2853.722261
_symmetry_space_group_name_H-M "C 2/C"
_symmetry_group_IT_number 15
_symmetry_cell_setting 'monoclinic'
loop_
_space_group_symop_operation_xyz
x,y,z
-x,y,1/2-z
-x,-y,-z
x,-y,1/2+z
1/2+x,1/2+y,z
1/2-x,1/2+y,1/2-z
1/2-x,1/2-y,-z
1/2+x,1/2-y,1/2+z
loop_
_atom_site_type_symbol
_atom_site_label
_atom_site_fract_x
_atom_site_fract_y
_atom_site_fract_z
Si Si1 0.040995 0.407493 0.436910
Si Si2 0.896558 0.883293 0.529242
Si Si3 0.707662 0.824844 0.215191
Si Si4 0.793108 0.990894 0.608072
Si Si5 0.598259 0.602714 0.161201
Si Si6 0.653337 0.017739 0.124218
Si Si7 0.771020 0.293960 0.642635
Si Si8 0.500000 0.834665 0.250000
O O1 0.098046 0.361460 0.431293
O O2 0.125810 0.452934 0.217978
O O3 0.948231 0.440779 0.693107
O O4 0.994385 0.374575 0.394028
O O5 0.924577 0.877803 0.638675
O O6 0.801164 0.843075 0.654678
O O7 0.862575 0.947198 0.563708
O O8 0.000000 0.865072 0.250000
O O9 0.713190 0.765869 0.290692
O O10 0.802264 0.864037 0.091884
O O11 0.729345 0.806885 0.018179
O O12 0.875843 0.036336 0.392340
O O13 0.735285 0.960458 0.587002
O O14 0.704161 0.018946 0.875920
O O15 0.500000 0.618339 0.250000
O O16 0.894275 0.295476 0.459709
#
# Coordination Sequence:
#
# PCOD8131864 Si02
#       8
#     8   8   8   8   8   8   8   4
#     4  10  19  35  56  90 126 162 198 255 310 380
#     4  11  24  42  64  89 125 167 209 257 315 374
#     4   9  18  39  59  89 123 159 207 256 305 367
#     4  12  22  40  60  90 125 162 206 256 301 380
#     4  11  24  40  61  91 119 162 211 254 309 369
#     4  11  22  35  61  89 129 163 201 246 318 367
#     4   9  19  36  64  90 119 161 213 255 306 370
#     4  10  18  34  62  92 118 160 210 254 310 374
#
# _framework density 21.025172000000001
#
# number of rings (size 3 to 8) (size 9 to 14) (size 15 to 20)
#    0.000    1.600    2.667    3.600    2.800    2.667 
#    0.000    1.333    0.000    0.800    0.000    0.000 
#    0.000    0.000    0.000    0.000    0.000    0.000 
#
# Total GULP energy -371942.494466 kJ/mol
# GULP energy per Si atom -12398.083149 kJ/mol
# Density = 2.097732 g / cm^3
# Si number density = 21.025172 Si / 1000 Ang^3
#
#
#
# Elastic Constant Matrix: (Units=GPa)
#
#
# Indices 1 2 3 4 5 6 
#
# 1 112.8701 38.7793 31.7096 0.0000 -27.2214 0.0000
# 2 38.7793 117.1045 29.6691 0.0000 -18.5909 0.0000
# 3 31.7096 29.6691 90.4640 -0.0001 -12.3067 0.0000
# 4 0.0000 0.0000 -0.0001 21.3778 0.0000 -9.6899
# 5 -27.2214 -18.5909 -12.3067 0.0000 30.7905 0.0000
# 6 0.0000 0.0000 0.0000 -9.6899 0.0000 22.8808
#
#
#
# Elastic Compliance Matrix: (Units=1/GPa)
#
#
# Indices 1 2 3 4 5 6 
#
# 1 0.012366 -0.002091 -0.002467 0.000000 0.008683 0.000000
# 2 -0.002091 0.010344 -0.002180 0.000000 0.003525 0.000000
# 3 -0.002467 -0.002180 0.012857 0.000000 0.001641 0.000000
# 4 0.000000 0.000000 0.000000 0.057890 0.000000 0.024516
# 5 0.008683 0.003525 0.001641 0.000000 0.042939 0.000000
# 6 0.000000 0.000000 0.000000 0.024516 0.000000 0.054087
#
#
# Mechanical properties :
#
#
# Convention : Reuss Voigt Hill
#
# Bulk Modulus (GPa) = 45.26943 57.86162 51.56553
# Shear Modulus (GPa) = 23.66047 29.69519 26.67783
#
# Velocity S-wave (km/s) = 3.35825 3.76222 3.56596
# Velocity P-wave (km/s) = 6.05103 6.81559 6.44466
#
# Compressibility (1/GPa) = 0.02208996
#
# Stress axis : x y z
#
# Youngs Moduli (GPa) = 80.86933 96.67596 77.77769
#
# Poissons Ratio (x) = 0.20217 0.19190
# Poissons Ratio (y) = 0.16912 0.16954
# Poissons Ratio (z) = 0.19953 0.21073
#
# Static dielectric constant tensor:
#      x y z
#    x 3.789660 0.000000 -0.223600 
#    y 0.000000 4.077820 0.000000 
#    z -0.223600 0.000000 3.592840 
# 
# 
# High freq. dielectric constant tensor:
#      x y z
#    x 1.825460 0.000000 -0.018690 
#    y 0.000000 1.821710 0.000000 
#    z -0.018690 0.000000 1.801290 
# 
# From -- ./inp_files/58728.got.cif
#   From: 2010.06.25/outbox.cif.g09.slc.cpg/sg15_30_cif.got.tgz:58728.got - 2010.06.28 07:06:18.
