data_PCOD8131434
_publ_section_title
;
Structure prediction by ZEFSAII (Michael W. Deem and Ramdas Pophale) SiO2 
 PCOD8131434
Probable space group: C 2/C
;
_chemical_formula_sum "Si O2"
_cell_formula_units_Z 60
_cell_length_a 21.495267
_cell_length_b 9.631781
_cell_length_c 14.072756
_cell_angle_alpha 90.000000
_cell_angle_beta 90.155034
_cell_angle_gamma 90.000000
_cell_volume 2913.580429
_symmetry_space_group_name_H-M "C 2/C"
_symmetry_group_IT_number 15
_symmetry_cell_setting 'monoclinic'
loop_
_space_group_symop_operation_xyz
x,y,z
-x,y,1/2-z
-x,-y,-z
x,-y,1/2+z
1/2+x,1/2+y,z
1/2-x,1/2+y,1/2-z
1/2-x,1/2-y,-z
1/2+x,1/2-y,1/2+z
loop_
_atom_site_type_symbol
_atom_site_label
_atom_site_fract_x
_atom_site_fract_y
_atom_site_fract_z
Si Si1 0.219074 0.154310 0.246457
Si Si2 0.356573 0.173411 0.230315
Si Si3 0.162932 0.939776 0.379282
Si Si4 0.932416 0.833704 0.573679
Si Si5 0.840881 0.615070 0.642395
Si Si6 0.084632 0.136352 0.632013
Si Si7 0.785725 0.003854 0.929493
Si Si8 0.500000 0.567389 0.250000
O O1 0.289563 0.174981 0.281849
O O2 0.175269 0.283101 0.270376
O O3 0.218819 0.135580 0.133277
O O4 0.193707 0.008880 0.287043
O O5 0.355943 0.282753 0.143343
O O6 0.407567 0.219302 0.309175
O O7 0.371991 0.023386 0.185473
O O8 0.213295 0.950015 0.463184
O O9 0.101989 0.021278 0.410606
O O10 0.889731 0.695807 0.576379
O O11 0.957911 0.839939 0.463765
O O12 0.981500 0.831716 0.661159
O O13 0.777592 0.592228 0.583156
O O14 0.152782 0.090467 0.596947
O O15 0.055356 0.027076 0.706755
#
# Coordination Sequence:
#
# PCOD8131434 Si02
#       8
#     8   8   8   8   8   8   8   4
#     4  10  18  33  52  85 124 168 193 234 299 361
#     4  11  19  36  55  85 128 159 200 243 301 362
#     4  10  20  35  57  85 118 161 205 245 292 364
#     4  10  23  39  63  90 116 158 211 253 313 352
#     4  10  21  35  58  92 132 162 187 253 315 368
#     4  11  21  38  64  93 112 161 210 257 296 361
#     4  10  20  35  59  89 125 157 203 243 303 367
#     4  12  22  44  68  86 120 158 220 266 278 362
#
# _framework density 20.593219000000001
#
# number of rings (size 3 to 8) (size 9 to 14) (size 15 to 20)
#    0.000    1.600    4.000    2.000    1.867    3.733 
#    2.400    0.667    0.000    1.600    0.000    0.000 
#    0.000    0.000    0.000    0.000    0.000    0.000 
#
# Total GULP energy -371749.347778 kJ/mol
# GULP energy per Si atom -12391.644926 kJ/mol
# Density = 2.054635 g / cm^3
# Si number density = 20.593219 Si / 1000 Ang^3
#
#
#
# Elastic Constant Matrix: (Units=GPa)
#
#
# Indices 1 2 3 4 5 6 
#
# 1 39.2664 10.6120 17.5289 0.0000 5.2222 0.0000
# 2 10.6120 111.7431 41.7443 0.0000 -2.1838 0.0000
# 3 17.5289 41.7443 127.2375 0.0000 21.3088 0.0000
# 4 0.0000 0.0000 0.0000 15.8974 0.0000 8.0711
# 5 5.2222 -2.1838 21.3088 0.0000 30.1317 0.0000
# 6 0.0000 0.0000 0.0000 8.0711 0.0000 19.7548
#
#
#
# Elastic Compliance Matrix: (Units=1/GPa)
#
#
# Indices 1 2 3 4 5 6 
#
# 1 0.027534 -0.001640 -0.002763 0.000000 -0.002937 0.000000
# 2 -0.001640 0.010637 -0.003903 0.000000 0.003815 0.000000
# 3 -0.002763 -0.003903 0.010762 0.000000 -0.007415 0.000000
# 4 0.000000 0.000000 0.000000 0.079366 0.000000 -0.032426
# 5 -0.002937 0.003815 -0.007415 0.000000 0.039217 0.000000
# 6 0.000000 0.000000 0.000000 -0.032426 0.000000 0.063869
#
#
# Mechanical properties :
#
#
# Convention : Reuss Voigt Hill
#
# Bulk Modulus (GPa) = 30.93917 46.44636 38.69277
# Shear Modulus (GPa) = 19.32199 27.04757 23.18478
#
# Velocity S-wave (km/s) = 3.06644 3.62805 3.35900
# Velocity P-wave (km/s) = 5.25300 6.33668 5.82011
#
# Compressibility (1/GPa) = 0.03232148
#
# Stress axis : x y z
#
# Youngs Moduli (GPa) = 36.31819 94.00743 92.91670
#
# Poissons Ratio (x) = 0.15416 0.25677
# Poissons Ratio (y) = 0.05956 0.36265
# Poissons Ratio (z) = 0.10036 0.36691
#
# Static dielectric constant tensor:
#      x y z
#    x 3.540440 0.000000 0.185290 
#    y 0.000000 3.599030 0.000000 
#    z 0.185290 0.000000 4.190690 
# 
# 
# High freq. dielectric constant tensor:
#      x y z
#    x 1.774640 0.000000 0.005220 
#    y 0.000000 1.790920 0.000000 
#    z 0.005220 0.000000 1.818270 
# 
# From -- ./inp_files/171920.got.cif
#   From: 2010.06.25/outbox.cif.g09.slc.cpg/sg15_86_cif.got.tgz:171920.got - 2010.06.28 07:06:18.
