data_PCOD8131290
_publ_section_title
;
Structure prediction by ZEFSAII (Michael W. Deem and Ramdas Pophale) SiO2 
 PCOD8131290
Probable space group: C 2/C
;
_chemical_formula_sum "Si O2"
_cell_formula_units_Z 56
_cell_length_a 13.735935
_cell_length_b 13.014578
_cell_length_c 17.804861
_cell_angle_alpha 90.000000
_cell_angle_beta 116.821680
_cell_angle_gamma 90.000000
_cell_volume 2840.493755
_symmetry_space_group_name_H-M "C 2/C"
_symmetry_group_IT_number 15
_symmetry_cell_setting 'monoclinic'
loop_
_space_group_symop_operation_xyz
x,y,z
-x,y,1/2-z
-x,-y,-z
x,-y,1/2+z
1/2+x,1/2+y,z
1/2-x,1/2+y,1/2-z
1/2-x,1/2-y,-z
1/2+x,1/2-y,1/2+z
loop_
_atom_site_type_symbol
_atom_site_label
_atom_site_fract_x
_atom_site_fract_y
_atom_site_fract_z
Si Si1 0.483019 0.827928 0.015968
Si Si2 0.287247 0.071123 0.881650
Si Si3 0.114923 0.530501 0.786456
Si Si4 0.072394 0.101787 0.530065
Si Si5 0.790205 0.454911 0.026307
Si Si6 0.803956 0.841530 0.285338
Si Si7 0.630685 0.881135 0.666078
O O1 0.594426 0.874557 0.087432
O O2 0.376012 0.871790 0.022262
O O3 0.490254 0.703723 0.020785
O O4 0.472230 0.862462 0.924985
O O5 0.191691 0.133755 0.803526
O O6 0.285847 0.959480 0.843228
O O7 0.261654 0.049899 0.960266
O O8 0.157728 0.494304 0.881984
O O9 0.189856 0.612326 0.771593
O O10 0.092218 0.426288 0.731853
O O11 0.000000 0.589583 0.750000
O O12 0.178164 0.098578 0.513116
O O13 0.101588 0.110374 0.629242
O O14 0.000000 0.000000 0.500000
O O15 0.800138 0.720653 0.295418
#
# Coordination Sequence:
#
# PCOD8131290 Si02
#       7
#     8   8   8   8   8   8   8
#     4  10  19  35  60  83 107 142 184 228 276 324
#     4  10  19  34  58  84 107 139 184 230 273 324
#     4  10  18  32  55  83 108 138 183 231 270 320
#     4  10  22  39  57  79 113 150 182 221 273 328
#     4  10  19  34  56  84 111 142 183 231 273 319
#     4   9  20  36  54  76 110 146 177 219 277 326
#     4   9  18  34  52  75 110 143 172 218 272 321
#
# _framework density 19.714883
#
# number of rings (size 3 to 8) (size 9 to 14) (size 15 to 20)
#    0.000    2.286    0.000    4.714    0.000    4.571 
#    0.000    6.429    0.000    1.714    0.000    0.000 
#    0.000    0.000    0.000    0.000    0.000    0.000 
#
# Total GULP energy -346884.609295 kJ/mol
# GULP energy per Si atom -12388.736046 kJ/mol
# Density = 1.967001 g / cm^3
# Si number density = 19.714883 Si / 1000 Ang^3
#
#
#
# Elastic Constant Matrix: (Units=GPa)
#
#
# Indices 1 2 3 4 5 6 
#
# 1 33.2480 23.9859 14.9109 0.0000 -2.0820 0.0000
# 2 23.9859 124.5596 49.3114 0.0000 6.1138 0.0000
# 3 14.9109 49.3114 118.4069 0.0000 -10.2311 0.0000
# 4 0.0000 0.0000 0.0000 29.4210 0.0000 5.1892
# 5 -2.0820 6.1138 -10.2311 0.0000 26.1117 0.0000
# 6 0.0000 0.0000 0.0000 5.1892 0.0000 10.6033
#
#
#
# Elastic Compliance Matrix: (Units=1/GPa)
#
#
# Indices 1 2 3 4 5 6 
#
# 1 0.035637 -0.006467 -0.001468 0.000000 0.003781 0.000000
# 2 -0.006467 0.011198 -0.004265 0.000000 -0.004808 0.000000
# 3 -0.001468 -0.004265 0.010850 0.000000 0.005133 0.000000
# 4 0.000000 0.000000 0.000000 0.037200 0.000000 -0.018206
# 5 0.003781 -0.004808 0.005133 0.000000 0.041735 0.000000
# 6 0.000000 0.000000 0.000000 -0.018206 0.000000 0.103220
#
#
# Mechanical properties :
#
#
# Convention : Reuss Voigt Hill
#
# Bulk Modulus (GPa) = 30.04240 50.29232 40.16736
# Shear Modulus (GPa) = 18.15969 25.76096 21.96033
#
# Velocity S-wave (km/s) = 3.03828 3.61872 3.34113
# Velocity P-wave (km/s) = 5.25164 6.55937 5.94159
#
# Compressibility (1/GPa) = 0.03328629
#
# Stress axis : x y z
#
# Youngs Moduli (GPa) = 28.06033 89.30258 92.16766
#
# Poissons Ratio (x) = 0.57752 0.13529
# Poissons Ratio (y) = 0.18147 0.39305
# Poissons Ratio (z) = 0.04119 0.38083
#
# Static dielectric constant tensor:
#      x y z
#    x 3.344450 0.000000 -0.250010 
#    y 0.000000 3.550310 0.000000 
#    z -0.250010 0.000000 4.253120 
# 
# 
# High freq. dielectric constant tensor:
#      x y z
#    x 1.733400 0.000000 -0.008310 
#    y 0.000000 1.759560 0.000000 
#    z -0.008310 0.000000 1.792650 
# 
# From -- ./inp_files/204526.got.cif
#   From: 2010.06.25/outbox.cif.g09.slc.cpg/sg15_103_cif.got.tgz:204526.got - 2010.06.28 07:06:18.
