data_PCOD8131579
_publ_section_title
;
Structure prediction by ZEFSAII (Michael W. Deem and Ramdas Pophale) SiO2 
 PCOD8131579
Probable space group: C 2/C
;
_chemical_formula_sum "Si O2"
_cell_formula_units_Z 64
_cell_length_a 12.327750
_cell_length_b 13.486869
_cell_length_c 22.729271
_cell_angle_alpha 90.000000
_cell_angle_beta 120.335359
_cell_angle_gamma 90.000000
_cell_volume 3261.621367
_symmetry_space_group_name_H-M "C 2/C"
_symmetry_group_IT_number 15
_symmetry_cell_setting 'monoclinic'
loop_
_space_group_symop_operation_xyz
x,y,z
-x,y,1/2-z
-x,-y,-z
x,-y,1/2+z
1/2+x,1/2+y,z
1/2-x,1/2+y,1/2-z
1/2-x,1/2-y,-z
1/2+x,1/2-y,1/2+z
loop_
_atom_site_type_symbol
_atom_site_label
_atom_site_fract_x
_atom_site_fract_y
_atom_site_fract_z
Si Si1 0.985172 0.174841 0.808332
Si Si2 0.119404 0.096969 0.145875
Si Si3 0.365327 0.513976 0.593736
Si Si4 0.178107 0.863156 0.530138
Si Si5 0.867139 0.232565 0.244020
Si Si6 0.052349 0.306986 0.924896
Si Si7 0.737092 0.938606 0.252215
Si Si8 0.315989 0.921379 0.866910
O O1 0.108437 0.112342 0.860490
O O2 0.960764 0.253945 0.852485
O O3 0.000000 0.230541 0.750000
O O4 0.869562 0.102113 0.766350
O O5 0.118985 0.115800 0.076772
O O6 0.138736 0.195768 0.189876
O O7 0.232081 0.019607 0.189225
O O8 0.984152 0.057236 0.128039
O O9 0.341023 0.545501 0.519668
O O10 0.244954 0.461239 0.589315
O O11 0.103648 0.764840 0.489555
O O12 0.327555 0.848906 0.577049
O O13 0.843786 0.350838 0.240431
O O14 0.765197 0.171875 0.178355
O O15 0.000000 0.212672 0.250000
O O16 0.958155 0.390027 0.924634
O O17 0.671506 0.992182 0.178755
#
# Coordination Sequence:
#
# PCOD8131579 Si02
#       8
#     8   8   8   8   8   8   8   8
#     4  10  18  33  59  88 114 149 200 242 302 357
#     4  10  22  39  64  87 121 163 202 245 305 373
#     4  10  20  37  62  86 117 160 205 250 285 369
#     4  10  23  41  58  86 120 165 211 248 300 347
#     4  11  22  39  61  93 125 154 196 251 313 369
#     4  10  23  38  60  86 124 159 205 261 292 361
#     4  10  22  34  61  94 119 153 191 254 307 363
#     4  11  21  39  62  93 121 156 205 250 315 352
#
# _framework density 19.622142
#
# number of rings (size 3 to 8) (size 9 to 14) (size 15 to 20)
#    0.000    1.750    3.750    0.375    1.750    2.500 
#    0.000    1.875    0.000    0.000    0.000    0.000 
#    0.000    0.000    0.000    0.000    0.000    0.000 
#
# Total GULP energy -396658.701396 kJ/mol
# GULP energy per Si atom -12395.584419 kJ/mol
# Density = 1.957748 g / cm^3
# Si number density = 19.622142 Si / 1000 Ang^3
#
#
#
# Elastic Constant Matrix: (Units=GPa)
#
#
# Indices 1 2 3 4 5 6 
#
# 1 88.1029 33.0153 36.5556 0.0000 -0.9972 0.0000
# 2 33.0153 74.3316 19.7921 0.0000 3.7786 0.0000
# 3 36.5556 19.7921 87.8146 0.0000 -13.5423 0.0000
# 4 0.0000 0.0000 0.0000 10.2735 0.0000 5.0932
# 5 -0.9972 3.7786 -13.5423 0.0000 30.9246 0.0000
# 6 0.0000 0.0000 0.0000 5.0932 0.0000 36.3991
#
#
#
# Elastic Compliance Matrix: (Units=1/GPa)
#
#
# Indices 1 2 3 4 5 6 
#
# 1 0.015643 -0.005427 -0.005479 0.000000 -0.001232 0.000000
# 2 -0.005427 0.016534 -0.001937 0.000000 -0.003043 0.000000
# 3 -0.005479 -0.001937 0.015136 0.000000 0.006688 0.000000
# 4 0.000000 0.000000 0.000000 0.104594 0.000000 -0.014635
# 5 -0.001232 -0.003043 0.006688 0.000000 0.035598 0.000000
# 6 0.000000 0.000000 0.000000 -0.014635 0.000000 0.029521
#
#
# Mechanical properties :
#
#
# Convention : Reuss Voigt Hill
#
# Bulk Modulus (GPa) = 46.23453 47.66392 46.94922
# Shear Modulus (GPa) = 20.00635 26.24518 23.12576
#
# Velocity S-wave (km/s) = 3.19655 3.66119 3.43673
# Velocity P-wave (km/s) = 6.10225 6.49739 6.30292
#
# Compressibility (1/GPa) = 0.02162886
#
# Stress axis : x y z
#
# Youngs Moduli (GPa) = 63.92513 60.48151 66.06610
#
# Poissons Ratio (x) = 0.32822 0.36197
# Poissons Ratio (y) = 0.34690 0.12796
# Poissons Ratio (z) = 0.35024 0.11714
#
# Static dielectric constant tensor:
#      x y z
#    x 3.419940 0.000000 0.072280 
#    y 0.000000 3.614660 0.000000 
#    z 0.072280 0.000000 3.475830 
# 
# 
# High freq. dielectric constant tensor:
#      x y z
#    x 1.761130 0.000000 0.001710 
#    y 0.000000 1.759290 0.000000 
#    z 0.001710 0.000000 1.759610 
# 
# From -- ./inp_files/238790.got.cif
#   From: 2010.06.25/outbox.cif.g09.slc.cpg/sg15_120_cif.got.tgz:238790.got - 2010.06.28 07:06:18.
