data_PCOD8131036
_publ_section_title
;
Structure prediction by ZEFSAII (Michael W. Deem and Ramdas Pophale) SiO2 
 PCOD8131036
Probable space group: C 2/C
;
_chemical_formula_sum "Si O2"
_cell_formula_units_Z 56
_cell_length_a 23.402707
_cell_length_b 12.647399
_cell_length_c 20.546332
_cell_angle_alpha 90.000000
_cell_angle_beta 146.859519
_cell_angle_gamma 90.000000
_cell_volume 3324.648087
_symmetry_space_group_name_H-M "C 2/C"
_symmetry_group_IT_number 15
_symmetry_cell_setting 'monoclinic'
loop_
_space_group_symop_operation_xyz
x,y,z
-x,y,1/2-z
-x,-y,-z
x,-y,1/2+z
1/2+x,1/2+y,z
1/2-x,1/2+y,1/2-z
1/2-x,1/2-y,-z
1/2+x,1/2-y,1/2+z
loop_
_atom_site_type_symbol
_atom_site_label
_atom_site_fract_x
_atom_site_fract_y
_atom_site_fract_z
Si Si1 0.724669 0.566343 0.253033
Si Si2 0.954397 0.431004 0.015612
Si Si3 0.511075 0.070841 0.187940
Si Si4 0.382191 0.352058 0.320671
Si Si5 0.778764 0.641660 0.171253
Si Si6 0.073378 0.223256 0.944784
Si Si7 0.952679 0.776406 0.935435
O O1 0.833457 0.598392 0.389704
O O2 0.690817 0.453696 0.249958
O O3 0.740697 0.559042 0.190256
O O4 0.634509 0.652172 0.183453
O O5 0.962821 0.487510 0.092536
O O6 0.020786 0.323132 0.084510
O O7 0.000000 0.500000 0.000000
O O8 0.500000 0.025493 0.250000
O O9 0.631963 0.089616 0.286679
O O10 0.446418 0.180305 0.122915
O O11 0.315362 0.246716 0.244208
O O12 0.472767 0.356311 0.350339
O O13 0.441361 0.343743 0.447381
O O14 0.681710 0.665085 0.029676
O O15 0.088483 0.267419 0.033595
#
# Coordination Sequence:
#
# PCOD8131036 Si02
#       7
#     8   8   8   8   8   8   8
#     4  11  19  29  54  80 108 134 167 216 267 308
#     4  12  19  34  54  77 103 135 173 220 261 307
#     4  11  22  35  51  77 106 141 180 216 257 311
#     4   9  17  29  46  78 114 129 164 214 257 319
#     4  10  18  31  50  78 105 143 167 210 266 310
#     4   8  17  32  48  75 109 133 170 208 259 323
#     4   9  19  30  47  80 107 131 169 212 261 306
#
# _framework density 16.843888
#
# number of rings (size 3 to 8) (size 9 to 14) (size 15 to 20)
#    0.857    1.143    4.286    1.286    2.000    0.571 
#    0.000    0.000    0.000    0.857    0.000    4.000 
#    0.000    0.000    0.000    0.000    0.000    0.000 
#
# Total GULP energy -346937.917959 kJ/mol
# GULP energy per Si atom -12390.639927 kJ/mol
# Density = 1.680555 g / cm^3
# Si number density = 16.843888 Si / 1000 Ang^3
#
#
#
# Elastic Constant Matrix: (Units=GPa)
#
#
# Indices 1 2 3 4 5 6 
#
# 1 58.4494 30.6969 32.5712 0.0000 2.3002 0.0000
# 2 30.6969 66.0778 18.2336 0.0000 3.4437 0.0000
# 3 32.5712 18.2336 58.2867 0.0000 11.0099 0.0000
# 4 0.0000 0.0000 0.0000 22.1383 0.0000 2.2201
# 5 2.3002 3.4437 11.0099 0.0000 31.2761 0.0000
# 6 0.0000 0.0000 0.0000 2.2201 0.0000 17.5786
#
#
#
# Elastic Compliance Matrix: (Units=1/GPa)
#
#
# Indices 1 2 3 4 5 6 
#
# 1 0.030512 -0.010364 -0.014569 0.000000 0.004026 0.000000
# 2 -0.010364 0.020084 -0.000233 0.000000 -0.001367 0.000000
# 3 -0.014569 -0.000233 0.026956 0.000000 -0.008392 0.000000
# 4 0.000000 0.000000 0.000000 0.045750 0.000000 -0.005778
# 5 0.004026 -0.001367 -0.008392 0.000000 0.034782 0.000000
# 6 0.000000 0.000000 0.000000 -0.005778 0.000000 0.057617
#
#
# Mechanical properties :
#
#
# Convention : Reuss Voigt Hill
#
# Bulk Modulus (GPa) = 36.73754 38.42415 37.58084
# Shear Modulus (GPa) = 18.17483 20.95275 19.56379
#
# Velocity S-wave (km/s) = 3.28840 3.53078 3.41174
# Velocity P-wave (km/s) = 6.02296 6.28357 6.15465
#
# Compressibility (1/GPa) = 0.02722011
#
# Stress axis : x y z
#
# Youngs Moduli (GPa) = 32.77399 49.79093 37.09786
#
# Poissons Ratio (x) = 0.51605 0.54047
# Poissons Ratio (y) = 0.33968 0.00864
# Poissons Ratio (z) = 0.47747 0.01160
#
# Static dielectric constant tensor:
#      x y z
#    x 2.906900 0.000000 0.393960 
#    y 0.000000 2.959360 0.000000 
#    z 0.393960 0.000000 3.232460 
# 
# 
# High freq. dielectric constant tensor:
#      x y z
#    x 1.614580 0.000000 0.041920 
#    y 0.000000 1.629150 0.000000 
#    z 0.041920 0.000000 1.647490 
# 
# From -- ./inp_files/257412.got.cif
#   From: 2010.06.25/outbox.cif.g09.slc.cpg/sg15_129_cif.got.tgz:257412.got - 2010.06.28 07:06:18.
