data_PCOD8131744
_publ_section_title
;
Structure prediction by ZEFSAII (Michael W. Deem and Ramdas Pophale) SiO2 
 PCOD8131744
Probable space group: C 2/C
;
_chemical_formula_sum "Si O2"
_cell_formula_units_Z 56
_cell_length_a 27.533607
_cell_length_b 8.961013
_cell_length_c 17.246771
_cell_angle_alpha 90.000000
_cell_angle_beta 46.156352
_cell_angle_gamma 90.000000
_cell_volume 3069.046358
_symmetry_space_group_name_H-M "C 2/C"
_symmetry_group_IT_number 15
_symmetry_cell_setting 'monoclinic'
loop_
_space_group_symop_operation_xyz
x,y,z
-x,y,1/2-z
-x,-y,-z
x,-y,1/2+z
1/2+x,1/2+y,z
1/2-x,1/2+y,1/2-z
1/2-x,1/2-y,-z
1/2+x,1/2-y,1/2+z
loop_
_atom_site_type_symbol
_atom_site_label
_atom_site_fract_x
_atom_site_fract_y
_atom_site_fract_z
Si Si1 0.500000 0.910361 0.250000
Si Si2 0.274266 0.575372 0.538102
Si Si3 0.712869 0.210137 0.170914
Si Si4 0.309216 0.226797 0.125647
Si Si5 0.500000 0.410300 0.250000
Si Si6 0.796619 0.524511 0.526450
Si Si7 0.593282 0.153305 0.198541
Si Si8 0.915363 0.848218 0.914103
O O1 0.553396 0.808639 0.146476
O O2 0.539615 0.018205 0.266678
O O3 0.266791 0.408126 0.579920
O O4 0.254213 0.687757 0.631315
O O5 0.226150 0.593437 0.515956
O O6 0.352438 0.605483 0.427676
O O7 0.715958 0.219200 0.259821
O O8 0.733016 0.369162 0.113077
O O9 0.637857 0.164616 0.226911
O O10 0.317336 0.060591 0.081738
O O11 0.381300 0.316233 0.036689
O O12 0.556451 0.310593 0.227876
O O13 0.530524 0.518001 0.148603
O O14 0.860114 0.621294 0.427887
#
# Coordination Sequence:
#
# PCOD8131744 Si02
#       8
#     4   8   8   8   4   8   8   8
#     4  10  18  36  56  76 102 140 188 222 238 308
#     4   9  19  35  56  79 106 138 177 215 259 318
#     4  11  21  34  53  84 114 134 165 224 275 315
#     4  10  21  34  52  82 111 139 167 214 279 312
#     4  10  18  34  58  76  98 142 186 222 244 306
#     4  11  19  35  57  81 108 137 176 218 258 322
#     4  10  20  34  56  81 100 140 184 214 258 308
#     4   9  19  34  54  78 104 137 177 220 257 305
#
# _framework density 18.246711000000001
#
# number of rings (size 3 to 8) (size 9 to 14) (size 15 to 20)
#    0.857    1.143    1.429    4.714    0.000    0.000 
#    0.000    1.429    0.000    0.000    0.000    0.000 
#    0.000    0.000    0.000    0.000    0.000    0.000 
#
# Total GULP energy -346890.915243 kJ/mol
# GULP energy per Si atom -12388.961259 kJ/mol
# Density = 1.820518 g / cm^3
# Si number density = 18.246711 Si / 1000 Ang^3
#
#
#
# Elastic Constant Matrix: (Units=GPa)
#
#
# Indices 1 2 3 4 5 6 
#
# 1 83.5253 44.8801 40.5981 0.0070 -1.7544 -0.0011
# 2 44.8801 98.2987 31.1233 0.0141 -7.4224 -0.0027
# 3 40.5981 31.1233 70.9403 0.0160 -2.1257 -0.0030
# 4 0.0070 0.0141 0.0160 25.5676 -0.0009 -8.8618
# 5 -1.7544 -7.4224 -2.1257 -0.0009 32.1035 -0.0004
# 6 -0.0011 -0.0027 -0.0030 -8.8618 -0.0004 29.2955
#
#
#
# Elastic Compliance Matrix: (Units=1/GPa)
#
#
# Indices 1 2 3 4 5 6 
#
# 1 0.019395 -0.006275 -0.008375 0.000003 -0.000945 0.000000
# 2 -0.006275 0.014031 -0.002483 -0.000005 0.002737 -0.000001
# 3 -0.008375 -0.002483 0.019987 -0.000009 0.000292 -0.000001
# 4 0.000003 -0.000005 -0.000009 0.043693 0.000000 0.013217
# 5 -0.000945 0.002737 0.000292 0.000000 0.031750 0.000001
# 6 0.000000 -0.000001 -0.000001 0.013217 0.000001 0.038133
#
#
# Mechanical properties :
#
#
# Convention : Reuss Voigt Hill
#
# Bulk Modulus (GPa) = 52.22454 53.99638 53.11046
# Shear Modulus (GPa) = 24.08069 26.47085 25.27577
#
# Velocity S-wave (km/s) = 3.63675 3.81296 3.72590
# Velocity P-wave (km/s) = 6.80574 7.00297 6.90506
#
# Compressibility (1/GPa) = 0.01914809
#
# Stress axis : x y z
#
# Youngs Moduli (GPa) = 51.56027 71.27263 50.03241
#
# Poissons Ratio (x) = 0.44722 0.41901
# Poissons Ratio (y) = 0.32353 0.12421
# Poissons Ratio (z) = 0.43180 0.17694
#
# Static dielectric constant tensor:
#      x y z
#    x 3.091220 0.000000 -0.197490 
#    y 0.000000 3.572010 0.000010 
#    z -0.197490 0.000010 3.221140 
# 
# 
# High freq. dielectric constant tensor:
#      x y z
#    x 1.675180 0.000000 -0.019690 
#    y 0.000000 1.730410 0.000000 
#    z -0.019690 0.000000 1.689410 
# 
# From -- ./inp_files/224427.got.cif
#   From: 2010.06.25/outbox.cif.g09.slc.cpg/sg15_113_cif.got.tgz:224427.got - 2010.06.28 07:06:18.
