data_PCOD8131234
_publ_section_title
;
Structure prediction by ZEFSAII (Michael W. Deem and Ramdas Pophale) SiO2 
 PCOD8131234
Probable space group: C 2/C
;
_chemical_formula_sum "Si O2"
_cell_formula_units_Z 64
_cell_length_a 12.959087
_cell_length_b 16.110090
_cell_length_c 16.412599
_cell_angle_alpha 90.000000
_cell_angle_beta 83.558680
_cell_angle_gamma 90.000000
_cell_volume 3404.861558
_symmetry_space_group_name_H-M "C 2/C"
_symmetry_group_IT_number 15
_symmetry_cell_setting 'monoclinic'
loop_
_space_group_symop_operation_xyz
x,y,z
-x,y,1/2-z
-x,-y,-z
x,-y,1/2+z
1/2+x,1/2+y,z
1/2-x,1/2+y,1/2-z
1/2-x,1/2-y,-z
1/2+x,1/2-y,1/2+z
loop_
_atom_site_type_symbol
_atom_site_label
_atom_site_fract_x
_atom_site_fract_y
_atom_site_fract_z
Si Si1 0.294807 0.089069 0.446664
Si Si2 0.125050 0.962177 0.412071
Si Si3 0.957325 0.496862 0.339553
Si Si4 0.039632 0.092612 0.082949
Si Si5 0.386081 0.294936 0.782159
Si Si6 0.354144 0.703820 0.106608
Si Si7 0.647663 0.105866 0.882592
Si Si8 0.717708 0.873779 0.200334
O O1 0.253924 0.182707 0.430851
O O2 0.292402 0.071859 0.543570
O O3 0.211218 0.032832 0.408867
O O4 0.408896 0.071928 0.397750
O O5 0.116865 0.919131 0.500881
O O6 0.167433 0.893610 0.344448
O O7 0.016432 0.003815 0.391511
O O8 0.870052 0.428250 0.334132
O O9 0.000000 0.532747 0.250000
O O10 0.048992 0.453030 0.380749
O O11 0.104098 0.129372 0.154189
O O12 0.952582 0.156760 0.059226
O O13 0.500000 0.257305 0.750000
O O14 0.339646 0.328616 0.701378
O O15 0.311531 0.221180 0.819493
O O16 0.385091 0.799751 0.096693
O O17 0.721100 0.107127 0.796703
#
# Coordination Sequence:
#
# PCOD8131234 Si02
#       8
#     8   8   8   8   8   8   8   8
#     4  10  19  32  49  75 102 129 166 205 248 301
#     4   9  19  33  48  73 107 130 159 212 255 297
#     4   9  17  31  50  72 100 131 160 206 253 292
#     4   9  17  33  51  70 102 133 166 202 252 301
#     4   9  16  30  51  77  94 133 176 206 244 306
#     4   9  18  32  52  72  97 131 171 207 240 294
#     4  10  18  32  53  74  94 134 170 202 246 307
#     4   9  17  31  51  73 101 125 169 215 249 286
#
# _framework density 18.796652999999999
#
# number of rings (size 3 to 8) (size 9 to 14) (size 15 to 20)
#    0.000    2.750    0.000    3.375    0.000    0.500 
#   13.500    0.000    5.500    0.000    0.000    0.000 
#    0.000    0.000    0.000    0.000    0.000    0.000 
#
# Total GULP energy -396554.431912 kJ/mol
# GULP energy per Si atom -12392.325997 kJ/mol
# Density = 1.875387 g / cm^3
# Si number density = 18.796653 Si / 1000 Ang^3
#
#
#
# Elastic Constant Matrix: (Units=GPa)
#
#
# Indices 1 2 3 4 5 6 
#
# 1 59.5087 24.6218 45.3702 0.0000 -4.4072 0.0000
# 2 24.6218 53.7445 28.5134 0.0000 -6.4030 0.0000
# 3 45.3702 28.5134 101.1231 0.0000 -1.4969 0.0000
# 4 0.0000 0.0000 0.0000 27.6398 0.0000 -1.5137
# 5 -4.4072 -6.4030 -1.4969 0.0000 35.8807 0.0000
# 6 0.0000 0.0000 0.0000 -1.5137 0.0000 22.3798
#
#
#
# Elastic Compliance Matrix: (Units=1/GPa)
#
#
# Indices 1 2 3 4 5 6 
#
# 1 0.027813 -0.006971 -0.010487 0.000000 0.001735 0.000000
# 2 -0.006971 0.024115 -0.003623 0.000000 0.003296 0.000000
# 3 -0.010487 -0.003623 0.015597 0.000000 -0.001284 0.000000
# 4 0.000000 0.000000 0.000000 0.036314 0.000000 0.002456
# 5 0.001735 0.003296 -0.001284 0.000000 0.028618 0.000000
# 6 0.000000 0.000000 0.000000 0.002456 0.000000 0.044849
#
#
# Mechanical properties :
#
#
# Convention : Reuss Voigt Hill
#
# Bulk Modulus (GPa) = 39.42998 45.70968 42.56983
# Shear Modulus (GPa) = 21.93724 24.90478 23.42101
#
# Velocity S-wave (km/s) = 3.41996 3.64395 3.53373
# Velocity P-wave (km/s) = 6.05124 6.48654 6.27267
#
# Compressibility (1/GPa) = 0.02536141
#
# Stress axis : x y z
#
# Youngs Moduli (GPa) = 35.95485 41.46770 64.11590
#
# Poissons Ratio (x) = 0.28908 0.67240
# Poissons Ratio (y) = 0.25065 0.23230
# Poissons Ratio (z) = 0.37707 0.15024
#
# Static dielectric constant tensor:
#      x y z
#    x 3.469110 0.000000 -0.009180 
#    y 0.000000 3.455310 0.000000 
#    z -0.009180 0.000000 3.538960 
# 
# 
# High freq. dielectric constant tensor:
#      x y z
#    x 1.707870 0.000000 0.004120 
#    y 0.000000 1.715420 0.000000 
#    z 0.004120 0.000000 1.729800 
# 
# From -- ./inp_files/154839.got.cif
#   From: 2010.06.25/outbox.cif.g09.slc.cpg/sg15_78_cif.got.tgz:154839.got - 2010.06.28 07:06:18.
