data_PCOD8131178
_publ_section_title
;
Structure prediction by ZEFSAII (Michael W. Deem and Ramdas Pophale) SiO2 
 PCOD8131178
Probable space group: C 2/C
;
_chemical_formula_sum "Si O2"
_cell_formula_units_Z 56
_cell_length_a 17.198802
_cell_length_b 21.572352
_cell_length_c 9.160201
_cell_angle_alpha 90.000000
_cell_angle_beta 58.393855
_cell_angle_gamma 90.000000
_cell_volume 2894.492448
_symmetry_space_group_name_H-M "C 2/C"
_symmetry_group_IT_number 15
_symmetry_cell_setting 'monoclinic'
loop_
_space_group_symop_operation_xyz
x,y,z
-x,y,1/2-z
-x,-y,-z
x,-y,1/2+z
1/2+x,1/2+y,z
1/2-x,1/2+y,1/2-z
1/2-x,1/2-y,-z
1/2+x,1/2-y,1/2+z
loop_
_atom_site_type_symbol
_atom_site_label
_atom_site_fract_x
_atom_site_fract_y
_atom_site_fract_z
Si Si1 0.591697 0.687435 0.226417
Si Si2 0.373803 0.038083 0.245927
Si Si3 0.230503 0.862464 0.802417
Si Si4 0.311535 0.264935 0.146976
Si Si5 0.926108 0.569431 0.520898
Si Si6 0.112804 0.709395 0.917844
Si Si7 0.398402 0.693138 0.840645
O O1 0.500000 0.656262 0.250000
O O2 0.653557 0.635770 0.248901
O O3 0.557817 0.741199 0.371520
O O4 0.653704 0.723340 0.049270
O O5 0.286728 0.074027 0.263677
O O6 0.381142 0.049150 0.411226
O O7 0.367603 0.965080 0.206474
O O8 0.466576 0.056710 0.073153
O O9 0.302344 0.807933 0.694494
O O10 0.176451 0.850400 0.006952
O O11 0.214367 0.297168 0.258853
O O12 0.378946 0.300292 0.189571
O O13 0.928903 0.642222 0.542685
O O14 0.108413 0.737443 0.085182
O O15 0.500000 0.664380 0.750000
#
# Coordination Sequence:
#
# PCOD8131178 Si02
#       7
#     8   8   8   8   8   8   8
#     4  10  21  34  51  83 114 148 184 229 290 342
#     4  10  22  38  57  78 114 144 197 233 275 327
#     4  10  20  35  53  78 113 151 180 232 285 340
#     4  10  18  32  49  77 109 142 186 226 277 350
#     4  10  22  38  55  83 107 152 189 234 273 333
#     4  10  20  34  51  78 110 150 184 223 288 339
#     4  10  19  30  53  82 110 146 182 226 287 342
#
# _framework density 19.347087999999999
#
# number of rings (size 3 to 8) (size 9 to 14) (size 15 to 20)
#    0.000    2.286    0.000    6.857    6.000    2.286 
#    2.571    0.000    0.000    0.000    0.000   17.000 
#    0.000    0.000    0.000    0.000    0.000    0.000 
#
# Total GULP energy -346979.402198 kJ/mol
# GULP energy per Si atom -12392.121507 kJ/mol
# Density = 1.930305 g / cm^3
# Si number density = 19.347088 Si / 1000 Ang^3
#
#
#
# Elastic Constant Matrix: (Units=GPa)
#
#
# Indices 1 2 3 4 5 6 
#
# 1 116.2038 26.6985 13.8264 0.0000 8.3181 0.0000
# 2 26.6985 69.1405 14.8853 0.0000 -4.9770 0.0000
# 3 13.8264 14.8853 57.4647 0.0000 3.8637 0.0000
# 4 0.0000 0.0000 0.0000 9.5399 0.0000 -4.0180
# 5 8.3181 -4.9770 3.8637 0.0000 29.2881 0.0000
# 6 0.0000 0.0000 0.0000 -4.0180 0.0000 21.7931
#
#
#
# Elastic Compliance Matrix: (Units=1/GPa)
#
#
# Indices 1 2 3 4 5 6 
#
# 1 0.009850 -0.003789 -0.001168 0.000000 -0.003287 0.000000
# 2 -0.003789 0.017069 -0.003811 0.000000 0.004479 0.000000
# 3 -0.001168 -0.003811 0.018859 0.000000 -0.002804 0.000000
# 4 0.000000 0.000000 0.000000 0.113647 0.000000 0.020953
# 5 -0.003287 0.004479 -0.002804 0.000000 0.036208 0.000000
# 6 0.000000 0.000000 0.000000 0.020953 0.000000 0.049749
#
#
# Mechanical properties :
#
#
# Convention : Reuss Voigt Hill
#
# Bulk Modulus (GPa) = 35.40684 39.29215 37.34950
# Shear Modulus (GPa) = 18.35988 24.61747 21.48868
#
# Velocity S-wave (km/s) = 3.08388 3.57096 3.33632
# Velocity P-wave (km/s) = 5.56965 6.11191 5.84707
#
# Compressibility (1/GPa) = 0.02824313
#
# Stress axis : x y z
#
# Youngs Moduli (GPa) = 101.51918 58.58459 53.02613
#
# Poissons Ratio (x) = 0.22198 0.06191
# Poissons Ratio (y) = 0.38465 0.20209
# Poissons Ratio (z) = 0.11853 0.22327
#
# Static dielectric constant tensor:
#      x y z
#    x 3.658350 0.000000 0.094430 
#    y 0.000000 3.190250 0.000000 
#    z 0.094430 0.000000 3.625920 
# 
# 
# High freq. dielectric constant tensor:
#      x y z
#    x 1.763070 0.000000 0.005230 
#    y 0.000000 1.700350 0.000000 
#    z 0.005230 0.000000 1.761680 
# 
# From -- ./inp_files/50135.got.cif
#   From: 2010.06.25/outbox.cif.g09.slc.cpg/sg15_26_cif.got.tgz:50135.got - 2010.06.28 07:06:18.
