data_PCOD8131534
_publ_section_title
;
Structure prediction by ZEFSAII (Michael W. Deem and Ramdas Pophale) SiO2 
 PCOD8131534
Probable space group: C 2/C
;
_chemical_formula_sum "Si O2"
_cell_formula_units_Z 40
_cell_length_a 21.380327
_cell_length_b 6.207045
_cell_length_c 10.910149
_cell_angle_alpha 90.000000
_cell_angle_beta 97.713239
_cell_angle_gamma 90.000000
_cell_volume 1434.771136
_symmetry_space_group_name_H-M "C 2/C"
_symmetry_group_IT_number 15
_symmetry_cell_setting 'monoclinic'
loop_
_space_group_symop_operation_xyz
x,y,z
-x,y,1/2-z
-x,-y,-z
x,-y,1/2+z
1/2+x,1/2+y,z
1/2-x,1/2+y,1/2-z
1/2-x,1/2-y,-z
1/2+x,1/2-y,1/2+z
loop_
_atom_site_type_symbol
_atom_site_label
_atom_site_fract_x
_atom_site_fract_y
_atom_site_fract_z
Si Si1 0.301132 0.553767 0.659138
Si Si2 0.061471 0.856439 0.341327
Si Si3 0.903853 0.361046 0.191496
Si Si4 0.731616 0.031064 0.900068
Si Si5 0.982601 0.279087 0.432530
O O1 0.376756 0.499032 0.680762
O O2 0.277594 0.545862 0.793779
O O3 0.261238 0.413190 0.545050
O O4 0.295905 0.791700 0.601764
O O5 0.079273 0.608364 0.327908
O O6 0.040282 0.896856 0.475818
O O7 0.000000 0.925797 0.250000
O O8 0.829070 0.313724 0.145175
O O9 0.919966 0.317951 0.336180
O O10 0.952736 0.212043 0.123643
O O11 0.000000 0.500000 0.500000
#
# Coordination Sequence:
#
# PCOD8131534 Si02
#       5
#     8   8   8   8   8
#     4  10  24  41  63  88 125 164 208 255 304 367
#     4  10  18  33  57  85 116 158 198 250 302 358
#     4   9  17  28  54  84 118 147 191 258 300 345
#     4  10  23  40  62  92 125 164 203 253 312 367
#     4   9  15  27  49  86 115 140 192 251 308 340
#
# _framework density 27.879014000000002
#
# number of rings (size 3 to 8) (size 9 to 14) (size 15 to 20)
#    0.000    2.400    4.000    0.000   11.200    0.800 
#    0.000    1.000    0.000    0.000    0.000    0.000 
#    0.000    0.000    0.000    0.000    0.000    0.000 
#
# Total GULP energy -248023.451397 kJ/mol
# GULP energy per Si atom -12401.172570 kJ/mol
# Density = 2.781556 g / cm^3
# Si number density = 27.879014 Si / 1000 Ang^3
#
#
#
# Elastic Constant Matrix: (Units=GPa)
#
#
# Indices 1 2 3 4 5 6 
#
# 1 274.9218 74.7522 127.6906 0.0000 18.6246 0.0000
# 2 74.7522 99.9435 51.0448 0.0000 6.8870 0.0000
# 3 127.6906 51.0448 244.9931 0.0000 13.5050 0.0000
# 4 0.0000 0.0000 0.0000 -29.4178 0.0000 -17.1059
# 5 18.6246 6.8870 13.5050 0.0000 54.0510 0.0000
# 6 0.0000 0.0000 0.0000 -17.1059 0.0000 52.9172
#
#
#
# Elastic Compliance Matrix: (Units=1/GPa)
#
#
# Indices 1 2 3 4 5 6 
#
# 1 0.005532 -0.002938 -0.002217 0.000000 -0.000978 0.000000
# 2 -0.002938 0.012797 -0.001116 0.000000 -0.000339 0.000000
# 3 -0.002217 -0.001116 0.005496 0.000000 -0.000467 0.000000
# 4 0.000000 0.000000 0.000000 -0.028614 0.000000 -0.009250
# 5 -0.000978 -0.000339 -0.000467 0.000000 0.018998 0.000000
# 6 0.000000 0.000000 0.000000 -0.009250 0.000000 0.015907
#
#
# Mechanical properties :
#
#
# Convention : Reuss Voigt Hill
#
# Bulk Modulus (GPa) = 88.64109 125.20375 106.92242
# Shear Modulus (GPa) = 107.71338 39.93480 73.82409
#
# Velocity S-wave (km/s) = 6.22253 3.78885 5.15147
# Velocity P-wave (km/s) = 9.13731 8.00923 8.59180
#
# Compressibility (1/GPa) = 0.01128145
#
# Stress axis : x y z
#
# Youngs Moduli (GPa) = 180.75226 78.14584 181.95768
#
# Poissons Ratio (x) = 0.22959 0.40348
# Poissons Ratio (y) = 0.53106 0.20310
# Poissons Ratio (z) = 0.40081 0.08723
#
# Static dielectric constant tensor:
#      x y z
#    x 5.495150 0.000000 0.016140 
#    y 0.000000 5.878830 0.000000 
#    z 0.016140 0.000000 5.281170 
# 
# 
# High freq. dielectric constant tensor:
#      x y z
#    x 2.143580 0.000000 0.006580 
#    y 0.000000 2.237040 0.000000 
#    z 0.006580 0.000000 2.123830 
# 
# From -- ./inp_files/109682.got.cif
#   From: 2010.06.25/outbox.cif.g09.slc.cpg/sg15_55_cif.got.tgz:109682.got - 2010.06.28 07:06:18.
