data_PCOD8131992
_publ_section_title
;
Structure prediction by ZEFSAII (Michael W. Deem and Ramdas Pophale) SiO2 
 PCOD8131992
Probable space group: C 2/C
;
_chemical_formula_sum "Si O2"
_cell_formula_units_Z 52
_cell_length_a 26.273102
_cell_length_b 16.721919
_cell_length_c 8.766094
_cell_angle_alpha 90.000000
_cell_angle_beta 42.732967
_cell_angle_gamma 90.000000
_cell_volume 2613.401834
_symmetry_space_group_name_H-M "C 2/C"
_symmetry_group_IT_number 15
_symmetry_cell_setting 'monoclinic'
loop_
_space_group_symop_operation_xyz
x,y,z
-x,y,1/2-z
-x,-y,-z
x,-y,1/2+z
1/2+x,1/2+y,z
1/2-x,1/2+y,1/2-z
1/2-x,1/2-y,-z
1/2+x,1/2-y,1/2+z
loop_
_atom_site_type_symbol
_atom_site_label
_atom_site_fract_x
_atom_site_fract_y
_atom_site_fract_z
Si Si1 0.345305 0.954815 0.767682
Si Si2 0.500000 0.489013 0.750000
Si Si3 0.787960 0.067107 0.400752
Si Si4 0.598155 0.561441 0.779512
Si Si5 0.221190 0.700349 0.708534
Si Si6 0.586932 0.095348 0.070674
Si Si7 0.771094 0.153702 0.126708
O O1 0.393720 0.914645 0.793798
O O2 0.308248 0.883244 0.749314
O O3 0.397950 0.011418 0.548995
O O4 0.278348 0.005046 0.990232
O O5 0.554254 0.550724 0.718326
O O6 0.541767 0.426933 0.544663
O O7 0.768962 0.118421 0.595839
O O8 0.798108 0.120333 0.229691
O O9 0.864041 0.024104 0.273756
O O10 0.660009 0.632396 0.638528
O O11 0.250000 0.750000 0.500000
O O12 0.236375 0.750089 0.831866
O O13 0.134289 0.669968 0.894870
O O14 0.500000 0.118332 0.250000
#
# Coordination Sequence:
#
# PCOD8131992 Si02
#       7
#     8   4   8   8   8   8   8
#     4  10  20  35  62  88 116 149 199 252 292 349
#     4  10  20  32  46  80 112 144 184 240 292 336
#     4   9  17  34  58  82 110 150 198 246 289 345
#     4  10  19  32  54  80 112 146 195 239 287 342
#     4   9  21  38  60  84 119 155 195 238 297 359
#     4  11  22  39  60  92 122 156 196 245 308 361
#     4  10  18  35  58  86 112 153 204 241 289 345
#
# _framework density 19.897438999999999
#
# number of rings (size 3 to 8) (size 9 to 14) (size 15 to 20)
#    0.000    2.154    3.077    0.462    0.000    0.615 
#    1.385    0.000    0.000    0.000    2.000    0.000 
#    0.000    0.000    0.000    0.000    0.000    0.000 
#
# Total GULP energy -322190.154123 kJ/mol
# GULP energy per Si atom -12391.929005 kJ/mol
# Density = 1.985215 g / cm^3
# Si number density = 19.897439 Si / 1000 Ang^3
#
#
#
# Elastic Constant Matrix: (Units=GPa)
#
#
# Indices 1 2 3 4 5 6 
#
# 1 106.1367 36.2547 43.1117 0.0000 -4.4950 0.0000
# 2 36.2547 79.7836 35.6002 0.0000 -3.5199 0.0000
# 3 43.1117 35.6002 99.2498 0.0000 -5.3670 0.0000
# 4 0.0000 0.0000 0.0000 27.1055 0.0000 5.4484
# 5 -4.4950 -3.5199 -5.3670 0.0000 27.2308 0.0000
# 6 0.0000 0.0000 0.0000 5.4484 0.0000 22.3261
#
#
#
# Elastic Compliance Matrix: (Units=1/GPa)
#
#
# Indices 1 2 3 4 5 6 
#
# 1 0.012368 -0.003819 -0.003961 0.000000 0.000767 0.000000
# 2 -0.003819 0.016122 -0.004089 0.000000 0.000648 0.000000
# 3 -0.003961 -0.004089 0.013341 0.000000 0.001447 0.000000
# 4 0.000000 0.000000 0.000000 0.038796 0.000000 -0.009468
# 5 0.000767 0.000648 0.001447 0.000000 0.037219 0.000000
# 6 0.000000 0.000000 0.000000 -0.009468 0.000000 0.047101
#
#
# Mechanical properties :
#
#
# Convention : Reuss Voigt Hill
#
# Bulk Modulus (GPa) = 55.26882 57.23371 56.25127
# Shear Modulus (GPa) = 25.67843 26.67938 26.17891
#
# Velocity S-wave (km/s) = 3.59631 3.66573 3.63118
# Velocity P-wave (km/s) = 6.71429 6.83693 6.77589
#
# Compressibility (1/GPa) = 0.01809338
#
# Stress axis : x y z
#
# Youngs Moduli (GPa) = 80.85619 62.02548 74.95615
#
# Poissons Ratio (x) = 0.23686 0.29690
# Poissons Ratio (y) = 0.30877 0.30651
# Poissons Ratio (z) = 0.32027 0.25363
#
# Static dielectric constant tensor:
#      x y z
#    x 3.418250 0.000000 0.081340 
#    y 0.000000 3.829930 0.000000 
#    z 0.081340 0.000000 3.841330 
# 
# 
# High freq. dielectric constant tensor:
#      x y z
#    x 1.763590 0.000000 0.007620 
#    y 0.000000 1.755680 0.000000 
#    z 0.007620 0.000000 1.783860 
# 
# From -- ./inp_files/66968.got.cif
#   From: 2010.06.25/outbox.cif.g09.slc.cpg/sg15_34_cif.got.tgz:66968.got - 2010.06.28 07:06:18.
