data_PCOD8131614
_publ_section_title
;
Structure prediction by ZEFSAII (Michael W. Deem and Ramdas Pophale) SiO2 
 PCOD8131614
Probable space group: C 2/C
;
_chemical_formula_sum "Si O2"
_cell_formula_units_Z 64
_cell_length_a 19.110780
_cell_length_b 20.124487
_cell_length_c 23.691501
_cell_angle_alpha 90.000000
_cell_angle_beta 156.849666
_cell_angle_gamma 90.000000
_cell_volume 3582.189777
_symmetry_space_group_name_H-M "C 2/C"
_symmetry_group_IT_number 15
_symmetry_cell_setting 'monoclinic'
loop_
_space_group_symop_operation_xyz
x,y,z
-x,y,1/2-z
-x,-y,-z
x,-y,1/2+z
1/2+x,1/2+y,z
1/2-x,1/2+y,1/2-z
1/2-x,1/2-y,-z
1/2+x,1/2-y,1/2+z
loop_
_atom_site_type_symbol
_atom_site_label
_atom_site_fract_x
_atom_site_fract_y
_atom_site_fract_z
Si Si1 0.754185 0.185770 0.773181
Si Si2 0.951616 0.805734 0.917201
Si Si3 0.280340 0.561167 0.333745
Si Si4 0.432379 0.502307 0.137033
Si Si5 0.987387 0.623403 0.822212
Si Si6 0.594332 0.449489 0.150955
Si Si7 0.052254 0.477103 0.853672
Si Si8 0.199291 0.864816 0.017370
O O1 0.696154 0.247890 0.691798
O O2 0.568789 0.162994 0.664153
O O3 0.829751 0.125114 0.792772
O O4 0.902617 0.210553 0.927250
O O5 0.847055 0.873533 0.851816
O O6 0.050295 0.812686 0.929054
O O7 0.276242 0.500040 0.286391
O O8 0.403305 0.544722 0.478735
O O9 0.080277 0.570964 0.209849
O O10 0.500000 0.512849 0.250000
O O11 0.578050 0.467449 0.204885
O O12 0.397152 0.573640 0.083077
O O13 0.257825 0.454304 0.009782
O O14 0.054774 0.549539 0.885299
O O15 0.808023 0.611213 0.652912
O O16 0.149088 0.665013 0.912361
O O17 0.000000 0.482903 0.750000
#
# Coordination Sequence:
#
# PCOD8131614 Si02
#       8
#     8   8   8   8   8   8   8   8
#     4  10  21  36  55  79 112 148 183 227 275 325
#     4  10  21  37  55  79 113 147 184 227 274 327
#     4  10  18  33  63  86 100 141 198 237 258 319
#     4  11  21  34  52  87 121 140 169 233 297 326
#     4   9  15  29  57  80 102 139 187 225 257 318
#     4  10  18  34  60  84 107 143 189 232 276 317
#     4  11  17  32  59  87 107 135 189 235 270 329
#     4   9  16  32  54  75 110 145 181 216 265 332
#
# _framework density 17.866167000000001
#
# number of rings (size 3 to 8) (size 9 to 14) (size 15 to 20)
#    0.000    2.000    6.250    0.000    0.000    0.500 
#    6.750    0.625    0.000    1.500    0.000    0.000 
#    0.000    0.000    0.000    0.000    0.000    0.000 
#
# Total GULP energy -396547.568320 kJ/mol
# GULP energy per Si atom -12392.111510 kJ/mol
# Density = 1.782550 g / cm^3
# Si number density = 17.866167 Si / 1000 Ang^3
#
#
#
# Elastic Constant Matrix: (Units=GPa)
#
#
# Indices 1 2 3 4 5 6 
#
# 1 84.4603 31.0266 32.2129 -0.0063 5.0496 -0.0078
# 2 31.0266 70.2469 36.2862 0.1305 -2.2623 0.0691
# 3 32.2129 36.2862 55.6095 0.0781 5.0992 0.0469
# 4 -0.0063 0.1305 0.0781 25.8144 0.0370 6.1915
# 5 5.0496 -2.2623 5.0992 0.0370 25.5821 0.0005
# 6 -0.0078 0.0691 0.0469 6.1915 0.0005 17.3522
#
#
#
# Elastic Compliance Matrix: (Units=1/GPa)
#
#
# Indices 1 2 3 4 5 6 
#
# 1 0.015822 -0.003656 -0.006584 0.000039 -0.002134 0.000025
# 2 -0.003656 0.022908 -0.013325 -0.000077 0.005404 -0.000030
# 3 -0.006584 -0.013325 0.031048 -0.000012 -0.006067 -0.000029
# 4 0.000039 -0.000077 -0.000012 0.042364 -0.000073 -0.015116
# 5 -0.002134 0.005404 -0.006067 -0.000073 0.041198 0.000019
# 6 0.000025 -0.000030 -0.000029 -0.015116 0.000019 0.063023
#
#
# Mechanical properties :
#
#
# Convention : Reuss Voigt Hill
#
# Bulk Modulus (GPa) = 44.15606 45.48533 44.82070
# Shear Modulus (GPa) = 18.44739 21.13582 19.79161
#
# Velocity S-wave (km/s) = 3.21679 3.44322 3.33193
# Velocity P-wave (km/s) = 6.21012 6.42821 6.32010
#
# Compressibility (1/GPa) = 0.02264695
#
# Stress axis : x y z
#
# Youngs Moduli (GPa) = 63.20499 43.65349 32.20862
#
# Poissons Ratio (x) = 0.15960 0.21205
# Poissons Ratio (y) = 0.23108 0.42919
# Poissons Ratio (z) = 0.41612 0.58169
#
# Static dielectric constant tensor:
#      x y z
#    x 3.456780 -0.000100 0.289150 
#    y -0.000100 2.980800 -0.000330 
#    z 0.289150 -0.000330 3.176140 
# 
# 
# High freq. dielectric constant tensor:
#      x y z
#    x 1.693840 -0.000010 0.020920 
#    y -0.000010 1.656550 -0.000040 
#    z 0.020920 -0.000040 1.670280 
# 
# From -- ./inp_files/249931.got.cif
#   From: 2010.06.25/outbox.cif.g09.slc.cpg/sg15_125_cif.got.tgz:249931.got - 2010.06.28 07:06:18.
