data_PCOD8131647
_publ_section_title
;
Structure prediction by ZEFSAII (Michael W. Deem and Ramdas Pophale) SiO2 
 PCOD8131647
Probable space group: C 2/C
;
_chemical_formula_sum "Si O2"
_cell_formula_units_Z 40
_cell_length_a 13.275002
_cell_length_b 11.181669
_cell_length_c 10.532558
_cell_angle_alpha 90.000000
_cell_angle_beta 88.729293
_cell_angle_gamma 90.000000
_cell_volume 1563.033445
_symmetry_space_group_name_H-M "C 2/C"
_symmetry_group_IT_number 15
_symmetry_cell_setting 'monoclinic'
loop_
_space_group_symop_operation_xyz
x,y,z
-x,y,1/2-z
-x,-y,-z
x,-y,1/2+z
1/2+x,1/2+y,z
1/2-x,1/2+y,1/2-z
1/2-x,1/2-y,-z
1/2+x,1/2-y,1/2+z
loop_
_atom_site_type_symbol
_atom_site_label
_atom_site_fract_x
_atom_site_fract_y
_atom_site_fract_z
Si Si1 0.466516 0.348686 0.428403
Si Si2 0.392544 0.114767 0.334540
Si Si3 0.365013 0.584999 0.406985
Si Si4 0.329238 0.717300 0.165416
Si Si5 0.650269 0.984149 0.409402
O O1 0.459679 0.234351 0.337952
O O2 0.422272 0.464695 0.357443
O O3 0.583231 0.367730 0.464696
O O4 0.402890 0.332677 0.557673
O O5 0.275460 0.148406 0.348313
O O6 0.413298 0.031270 0.458246
O O7 0.417578 0.050035 0.198250
O O8 0.377012 0.687321 0.300339
O O9 0.247654 0.563541 0.438251
O O10 0.313557 0.858600 0.151092
#
# Coordination Sequence:
#
# PCOD8131647 Si02
#       5
#     8   8   8   8   8
#     4  10  18  34  53  81 115 154 195 240 293 349
#     4  10  19  35  58  82 117 154 198 237 292 352
#     4  10  19  30  54  84 109 149 199 244 282 343
#     4  10  18  34  53  80 117 157 190 236 296 360
#     4  10  19  36  57  86 112 159 194 242 286 359
#
# _framework density 25.591259999999998
#
# number of rings (size 3 to 8) (size 9 to 14) (size 15 to 20)
#    0.000    2.000    4.000    1.800    0.000    0.000 
#    0.000    7.000    0.000    0.000    0.000    0.000 
#    0.000    0.000    0.000    0.000    0.000    0.000 
#
# Total GULP energy -248047.860438 kJ/mol
# GULP energy per Si atom -12402.393022 kJ/mol
# Density = 2.553301 g / cm^3
# Si number density = 25.591260 Si / 1000 Ang^3
#
#
#
# Elastic Constant Matrix: (Units=GPa)
#
#
# Indices 1 2 3 4 5 6 
#
# 1 56.1471 25.9378 51.3368 0.0000 10.1182 0.0000
# 2 25.9378 80.9190 57.5966 0.0000 4.7341 0.0000
# 3 51.3368 57.5966 153.6824 0.0000 8.5216 0.0000
# 4 0.0000 0.0000 0.0000 41.7294 0.0000 25.4297
# 5 10.1182 4.7341 8.5216 0.0000 45.6438 0.0000
# 6 0.0000 0.0000 0.0000 25.4297 0.0000 25.0122
#
#
#
# Elastic Compliance Matrix: (Units=1/GPa)
#
#
# Indices 1 2 3 4 5 6 
#
# 1 0.026935 -0.002931 -0.007664 0.000000 -0.004236 0.000000
# 2 -0.002931 0.017188 -0.005456 0.000000 -0.000114 0.000000
# 3 -0.007664 -0.005456 0.011101 0.000000 0.000192 0.000000
# 4 0.000000 0.000000 0.000000 0.062991 0.000000 -0.064042
# 5 -0.004236 -0.000114 0.000192 0.000000 0.022824 0.000000
# 6 0.000000 0.000000 0.000000 -0.064042 0.000000 0.105092
#
#
# Mechanical properties :
#
#
# Convention : Reuss Voigt Hill
#
# Bulk Modulus (GPa) = 43.24911 62.27679 52.76295
# Shear Modulus (GPa) = 17.48611 32.86890 25.17751
#
# Velocity S-wave (km/s) = 2.61681 3.58771 3.14001
# Velocity P-wave (km/s) = 5.10557 6.44595 5.81451
#
# Compressibility (1/GPa) = 0.02312186
#
# Stress axis : x y z
#
# Youngs Moduli (GPa) = 37.12595 58.18086 90.07881
#
# Poissons Ratio (x) = 0.17051 0.69040
# Poissons Ratio (y) = 0.10880 0.49149
# Poissons Ratio (z) = 0.28455 0.31745
#
# Static dielectric constant tensor:
#      x y z
#    x 4.389410 0.000000 0.299040 
#    y 0.000000 4.817510 0.000000 
#    z 0.299040 0.000000 4.871320 
# 
# 
# High freq. dielectric constant tensor:
#      x y z
#    x 2.031560 0.000000 0.014080 
#    y 0.000000 2.017550 0.000000 
#    z 0.014080 0.000000 2.029610 
# 
# From -- ./inp_files/94520.got.cif
#   From: 2010.06.25/outbox.cif.g09.slc.cpg/sg15_48_cif.got.tgz:94520.got - 2010.06.28 07:06:18.
