data_PCOD8131027
_publ_section_title
;
Structure prediction by ZEFSAII (Michael W. Deem and Ramdas Pophale) SiO2 
 PCOD8131027
Probable space group: C 2/C
;
_chemical_formula_sum "Si O2"
_cell_formula_units_Z 64
_cell_length_a 27.425510
_cell_length_b 17.819546
_cell_length_c 14.013513
_cell_angle_alpha 90.000000
_cell_angle_beta 144.734961
_cell_angle_gamma 90.000000
_cell_volume 3954.073165
_symmetry_space_group_name_H-M "C 2/C"
_symmetry_group_IT_number 15
_symmetry_cell_setting 'monoclinic'
loop_
_space_group_symop_operation_xyz
x,y,z
-x,y,1/2-z
-x,-y,-z
x,-y,1/2+z
1/2+x,1/2+y,z
1/2-x,1/2+y,1/2-z
1/2-x,1/2-y,-z
1/2+x,1/2-y,1/2+z
loop_
_atom_site_type_symbol
_atom_site_label
_atom_site_fract_x
_atom_site_fract_y
_atom_site_fract_z
Si Si1 0.135018 0.075888 0.111635
Si Si2 0.962330 0.146858 0.873358
Si Si3 0.226007 0.636753 0.477470
Si Si4 0.335608 0.508884 0.652980
Si Si5 0.727741 0.698577 0.150618
Si Si6 0.096107 0.939932 0.918472
Si Si7 0.916254 0.719762 0.161414
Si Si8 0.653084 0.320660 0.154939
O O1 0.210092 0.124014 0.183125
O O2 0.175083 0.030929 0.262749
O O3 0.061341 0.129566 0.032598
O O4 0.096137 0.019613 0.971990
O O5 0.911306 0.069609 0.775383
O O6 0.942191 0.205264 0.758587
O O7 0.938082 0.182704 0.938001
O O8 0.245255 0.549095 0.485288
O O9 0.257105 0.685348 0.437821
O O10 0.128175 0.656450 0.342786
O O11 0.281194 0.653508 0.659138
O O12 0.356380 0.447321 0.606403
O O13 0.811448 0.740404 0.326516
O O14 0.646479 0.753801 0.023781
O O15 0.000000 0.913467 0.750000
O O16 0.148448 0.877848 0.059975
O O17 0.000000 0.682587 0.250000
#
# Coordination Sequence:
#
# PCOD8131027 Si02
#       8
#     8   8   8   8   8   8   8   8
#     4  12  21  30  49  79 104 137 163 201 255 307
#     4  11  17  29  45  71 110 126 162 199 248 308
#     4  10  18  31  49  71 103 134 166 210 251 297
#     4  11  21  31  46  75 104 134 167 203 252 304
#     4  11  19  32  50  71 103 139 168 203 250 300
#     4  12  21  31  50  76 111 138 164 201 253 311
#     4  11  18  28  47  75 101 133 160 206 259 289
#     4  10  20  33  47  70 104 142 170 199 244 308
#
# _framework density 16.185841
#
# number of rings (size 3 to 8) (size 9 to 14) (size 15 to 20)
#    0.000    1.000   10.000    1.875    0.000    0.000 
#    0.000    0.625    0.000    0.000    0.000   10.500 
#    0.000    0.000    0.000    0.000    0.000    0.000 
#
# Total GULP energy -396625.548983 kJ/mol
# GULP energy per Si atom -12394.548406 kJ/mol
# Density = 1.614900 g / cm^3
# Si number density = 16.185841 Si / 1000 Ang^3
#
#
#
# Elastic Constant Matrix: (Units=GPa)
#
#
# Indices 1 2 3 4 5 6 
#
# 1 96.1930 37.8502 37.0455 0.0000 8.8048 0.0000
# 2 37.8502 69.8505 41.2679 0.0000 5.5707 0.0000
# 3 37.0455 41.2679 44.5725 0.0000 3.9706 0.0000
# 4 0.0000 0.0000 0.0000 28.4570 0.0000 -0.8487
# 5 8.8048 5.5707 3.9706 0.0000 22.4049 0.0000
# 6 0.0000 0.0000 0.0000 -0.8487 0.0000 23.8101
#
#
#
# Elastic Compliance Matrix: (Units=1/GPa)
#
#
# Indices 1 2 3 4 5 6 
#
# 1 0.015692 -0.001534 -0.011284 0.000000 -0.003785 0.000000
# 2 -0.001534 0.031917 -0.028065 0.000000 -0.002359 0.000000
# 3 -0.011284 -0.028065 0.057692 0.000000 0.001188 0.000000
# 4 0.000000 0.000000 0.000000 0.035178 0.000000 0.001254
# 5 -0.003785 -0.002359 0.001188 0.000000 0.046497 0.000000
# 6 0.000000 0.000000 0.000000 0.001254 0.000000 0.042044
#
#
# Mechanical properties :
#
#
# Convention : Reuss Voigt Hill
#
# Bulk Modulus (GPa) = 42.49189 49.21592 45.85391
# Shear Modulus (GPa) = 15.69216 21.23122 18.46169
#
# Velocity S-wave (km/s) = 3.11706 3.62569 3.38095
# Velocity P-wave (km/s) = 6.26612 6.92822 6.60547
#
# Compressibility (1/GPa) = 0.02353390
#
# Stress axis : x y z
#
# Youngs Moduli (GPa) = 63.72817 31.33147 17.33337
#
# Poissons Ratio (x) = 0.04808 0.19559
# Poissons Ratio (y) = 0.09779 0.48646
# Poissons Ratio (z) = 0.71910 0.87932
#
# Static dielectric constant tensor:
#      x y z
#    x 3.389340 0.000000 0.187630 
#    y 0.000000 3.165000 0.000000 
#    z 0.187630 0.000000 2.885120 
# 
# 
# High freq. dielectric constant tensor:
#      x y z
#    x 1.632530 0.000000 0.000730 
#    y 0.000000 1.599620 0.000000 
#    z 0.000730 0.000000 1.581340 
# 
# From -- ./inp_files/182768.got.cif
#   From: 2010.06.25/outbox.cif.g09.slc.cpg/sg15_92_cif.got.tgz:182768.got - 2010.06.28 07:06:18.
