data_PCOD8131623
_publ_section_title
;
Structure prediction by ZEFSAII (Michael W. Deem and Ramdas Pophale) SiO2 
 PCOD8131623
Probable space group: C 2/C
;
_chemical_formula_sum "Si O2"
_cell_formula_units_Z 44
_cell_length_a 17.840816
_cell_length_b 17.682421
_cell_length_c 12.474275
_cell_angle_alpha 90.000000
_cell_angle_beta 36.646054
_cell_angle_gamma 90.000000
_cell_volume 2348.829498
_symmetry_space_group_name_H-M "C 2/C"
_symmetry_group_IT_number 15
_symmetry_cell_setting 'monoclinic'
loop_
_space_group_symop_operation_xyz
x,y,z
-x,y,1/2-z
-x,-y,-z
x,-y,1/2+z
1/2+x,1/2+y,z
1/2-x,1/2+y,1/2-z
1/2-x,1/2-y,-z
1/2+x,1/2-y,1/2+z
loop_
_atom_site_type_symbol
_atom_site_label
_atom_site_fract_x
_atom_site_fract_y
_atom_site_fract_z
Si Si1 0.873793 0.082846 0.549561
Si Si2 0.185105 0.602292 0.390728
Si Si3 0.886623 0.009913 0.754028
Si Si4 0.362974 0.254149 0.955570
Si Si5 0.000000 0.479828 0.250000
Si Si6 0.218517 0.534559 0.131077
O O1 0.877606 0.167649 0.502942
O O2 0.979874 0.028679 0.375881
O O3 0.889904 0.075391 0.659372
O O4 0.741541 0.047154 0.661896
O O5 0.299763 0.561494 0.319864
O O6 0.180895 0.691952 0.409127
O O7 0.197976 0.595054 0.247956
O O8 0.057409 0.570026 0.588308
O O9 0.836926 0.052163 0.917531
O O10 0.500000 0.235040 0.750000
O O11 0.250000 0.250000 0.000000
O O12 0.098670 0.534680 0.192590
#
# Coordination Sequence:
#
# PCOD8131623 Si02
#       6
#     8   8   8   8   4   8
#     4  10  20  35  58  82 109 148 188 235 276 333
#     4  10  20  33  53  80 110 142 179 228 283 334
#     4   9  19  37  57  81 108 146 196 230 273 331
#     4  12  23  37  56  86 120 147 185 237 298 345
#     4  10  18  34  48  76 108 142 180 222 268 330
#     4  10  19  33  54  79 106 144 186 224 271 332
#
# _framework density 18.732735000000002
#
# number of rings (size 3 to 8) (size 9 to 14) (size 15 to 20)
#    0.000    1.818    0.909    5.455    0.000    0.000 
#    0.000    0.909    0.000    0.000    4.727    0.000 
#    0.000    0.000    0.000    0.000    0.000    0.000 
#
# Total GULP energy -272587.794149 kJ/mol
# GULP energy per Si atom -12390.354280 kJ/mol
# Density = 1.869010 g / cm^3
# Si number density = 18.732735 Si / 1000 Ang^3
#
#
#
# Elastic Constant Matrix: (Units=GPa)
#
#
# Indices 1 2 3 4 5 6 
#
# 1 100.4948 52.9122 55.1886 0.0000 6.5052 0.0000
# 2 52.9122 104.4674 50.3256 0.0000 19.7828 0.0000
# 3 55.1886 50.3256 129.6412 0.0000 24.6908 0.0000
# 4 0.0000 0.0000 0.0000 28.7219 0.0000 8.2896
# 5 6.5052 19.7828 24.6908 0.0000 40.7844 0.0000
# 6 0.0000 0.0000 0.0000 8.2896 0.0000 22.0316
#
#
#
# Elastic Compliance Matrix: (Units=1/GPa)
#
#
# Indices 1 2 3 4 5 6 
#
# 1 0.015726 -0.006252 -0.004937 0.000000 0.003513 0.000000
# 2 -0.006252 0.014674 -0.002112 0.000000 -0.004841 0.000000
# 3 -0.004937 -0.002112 0.011631 0.000000 -0.005229 0.000000
# 4 0.000000 0.000000 0.000000 0.039058 0.000000 -0.014696
# 5 0.003513 -0.004841 -0.005229 0.000000 0.029473 0.000000
# 6 0.000000 0.000000 0.000000 -0.014696 0.000000 0.050919
#
#
# Mechanical properties :
#
#
# Convention : Reuss Voigt Hill
#
# Bulk Modulus (GPa) = 64.81689 72.38401 68.60045
# Shear Modulus (GPa) = 25.87626 30.05271 27.96448
#
# Velocity S-wave (km/s) = 3.72067 4.00970 3.86789
# Velocity P-wave (km/s) = 7.28929 7.75637 7.52645
#
# Compressibility (1/GPa) = 0.01542808
#
# Stress axis : x y z
#
# Youngs Moduli (GPa) = 63.58703 68.14946 85.97579
#
# Poissons Ratio (x) = 0.42610 0.42444
# Poissons Ratio (y) = 0.39757 0.18162
# Poissons Ratio (z) = 0.31391 0.14396
#
# Static dielectric constant tensor:
#      x y z
#    x 3.548960 0.000000 -0.031520 
#    y 0.000000 3.117090 0.000000 
#    z -0.031520 0.000000 3.782310 
# 
# 
# High freq. dielectric constant tensor:
#      x y z
#    x 1.743080 0.000000 -0.002350 
#    y 0.000000 1.684060 0.000000 
#    z -0.002350 0.000000 1.741890 
# 
# From -- ./inp_files/96606.got.cif
#   From: 2010.06.25/outbox.cif.g09.slc.cpg/sg15_49_cif.got.tgz:96606.got - 2010.06.28 07:06:18.
