data_PCOD8131869
_publ_section_title
;
Structure prediction by ZEFSAII (Michael W. Deem and Ramdas Pophale) SiO2 
 PCOD8131869
Probable space group: C 2/C
;
_chemical_formula_sum "Si O2"
_cell_formula_units_Z 60
_cell_length_a 13.449628
_cell_length_b 11.557776
_cell_length_c 22.689458
_cell_angle_alpha 90.000000
_cell_angle_beta 57.860828
_cell_angle_gamma 90.000000
_cell_volume 2986.538994
_symmetry_space_group_name_H-M "C 2/C"
_symmetry_group_IT_number 15
_symmetry_cell_setting 'monoclinic'
loop_
_space_group_symop_operation_xyz
x,y,z
-x,y,1/2-z
-x,-y,-z
x,-y,1/2+z
1/2+x,1/2+y,z
1/2-x,1/2+y,1/2-z
1/2-x,1/2-y,-z
1/2+x,1/2-y,1/2+z
loop_
_atom_site_type_symbol
_atom_site_label
_atom_site_fract_x
_atom_site_fract_y
_atom_site_fract_z
Si Si1 0.127731 0.505754 0.934679
Si Si2 0.000000 0.435315 0.750000
Si Si3 0.876216 0.343271 0.268140
Si Si4 0.164839 0.698740 0.115697
Si Si5 0.312389 0.408728 0.469695
Si Si6 0.083552 0.849662 0.553845
Si Si7 0.349012 0.780032 0.147474
Si Si8 0.231806 0.265267 0.910884
O O1 0.205290 0.555713 0.962546
O O2 0.119130 0.589848 0.881682
O O3 0.177599 0.381365 0.899623
O O4 0.000000 0.500000 0.000000
O O5 0.104738 0.517528 0.742306
O O6 0.048737 0.363094 0.678397
O O7 0.831848 0.284323 0.222537
O O8 0.774006 0.319537 0.346693
O O9 0.000000 0.285207 0.250000
O O10 0.124919 0.799083 0.081954
O O11 0.228475 0.745918 0.154023
O O12 0.256537 0.617686 0.051386
O O13 0.407121 0.510981 0.446844
O O14 0.131074 0.802840 0.477023
O O15 0.157075 0.791998 0.582997
O O16 0.948741 0.813110 0.600359
#
# Coordination Sequence:
#
# PCOD8131869 Si02
#       8
#     8   4   8   8   8   8   8   8
#     4  10  20  34  61  93 117 159 202 258 298 368
#     4  10  22  40  64  78 120 172 202 238 324 378
#     4  10  22  38  60  88 119 159 198 256 307 369
#     4  10  22  42  58  84 120 161 199 255 305 386
#     4   9  21  38  60  83 120 157 202 249 317 354
#     4  10  18  34  63  88 116 158 202 258 296 370
#     4  11  22  38  58  91 126 151 209 255 305 368
#     4  10  19  35  59  92 124 154 202 251 319 351
#
# _framework density 20.090146000000001
#
# number of rings (size 3 to 8) (size 9 to 14) (size 15 to 20)
#    0.400    1.600    2.667    0.800    1.867    1.600 
#    0.000    5.333    0.000    0.000    0.000    0.000 
#    0.000    0.000    0.000    0.000    0.000    0.000 
#
# Total GULP energy -371910.797418 kJ/mol
# GULP energy per Si atom -12397.026581 kJ/mol
# Density = 2.004442 g / cm^3
# Si number density = 20.090146 Si / 1000 Ang^3
#
#
#
# Elastic Constant Matrix: (Units=GPa)
#
#
# Indices 1 2 3 4 5 6 
#
# 1 33.7644 23.1852 22.5532 0.0000 6.8353 0.0000
# 2 23.1852 126.3189 64.4038 0.0000 -2.2346 0.0000
# 3 22.5532 64.4038 146.6274 0.0000 9.7734 0.0000
# 4 0.0000 0.0000 0.0000 35.4469 0.0000 -3.1058
# 5 6.8353 -2.2346 9.7734 0.0000 28.5200 0.0000
# 6 0.0000 0.0000 0.0000 -3.1058 0.0000 29.3079
#
#
#
# Elastic Compliance Matrix: (Units=1/GPa)
#
#
# Indices 1 2 3 4 5 6 
#
# 1 0.036917 -0.005558 -0.002680 0.000000 -0.008365 0.000000
# 2 -0.005558 0.011199 -0.004310 0.000000 0.003686 0.000000
# 3 -0.002680 -0.004310 0.009318 0.000000 -0.002889 0.000000
# 4 0.000000 0.000000 0.000000 0.028476 0.000000 0.003018
# 5 -0.008365 0.003686 -0.002889 0.000000 0.038347 0.000000
# 6 0.000000 0.000000 0.000000 0.003018 0.000000 0.034440
#
#
# Mechanical properties :
#
#
# Convention : Reuss Voigt Hill
#
# Bulk Modulus (GPa) = 30.92224 58.55501 44.73863
# Shear Modulus (GPa) = 25.69767 31.75951 28.72859
#
# Velocity S-wave (km/s) = 3.58036 3.98030 3.78562
# Velocity P-wave (km/s) = 5.70238 7.09459 6.43624
#
# Compressibility (1/GPa) = 0.03233918
#
# Stress axis : x y z
#
# Youngs Moduli (GPa) = 27.08810 89.29210 107.32174
#
# Poissons Ratio (x) = 0.49625 0.28758
# Poissons Ratio (y) = 0.15055 0.46255
# Poissons Ratio (z) = 0.07258 0.38484
#
# Static dielectric constant tensor:
#      x y z
#    x 3.289810 0.000000 0.036060 
#    y 0.000000 3.797060 0.000000 
#    z 0.036060 0.000000 3.429570 
# 
# 
# High freq. dielectric constant tensor:
#      x y z
#    x 1.766100 0.000000 0.009380 
#    y 0.000000 1.787620 0.000000 
#    z 0.009380 0.000000 1.780760 
# 
# From -- ./inp_files/273828.got.cif
#   From: 2010.06.25/outbox.cif.g09.slc.cpg/sg15_137_cif.got.tgz:273828.got - 2010.06.28 07:06:18.
