data_PCOD8131525
_publ_section_title
;
Structure prediction by ZEFSAII (Michael W. Deem and Ramdas Pophale) SiO2 
 PCOD8131525
Probable space group: C 2/C
;
_chemical_formula_sum "Si O2"
_cell_formula_units_Z 56
_cell_length_a 9.575382
_cell_length_b 23.074529
_cell_length_c 17.100598
_cell_angle_alpha 90.000000
_cell_angle_beta 121.867474
_cell_angle_gamma 90.000000
_cell_volume 3208.830824
_symmetry_space_group_name_H-M "C 2/C"
_symmetry_group_IT_number 15
_symmetry_cell_setting 'monoclinic'
loop_
_space_group_symop_operation_xyz
x,y,z
-x,y,1/2-z
-x,-y,-z
x,-y,1/2+z
1/2+x,1/2+y,z
1/2-x,1/2+y,1/2-z
1/2-x,1/2-y,-z
1/2+x,1/2-y,1/2+z
loop_
_atom_site_type_symbol
_atom_site_label
_atom_site_fract_x
_atom_site_fract_y
_atom_site_fract_z
Si Si1 0.384862 0.718141 0.491262
Si Si2 0.293235 0.408733 0.014970
Si Si3 0.760451 0.209983 0.857239
Si Si4 0.642210 0.910797 0.140677
Si Si5 0.842035 0.080522 0.850226
Si Si6 0.905090 0.502586 0.144218
Si Si7 0.943495 0.717771 0.852767
O O1 0.250000 0.750000 0.500000
O O2 0.339789 0.650947 0.485680
O O3 0.561430 0.738139 0.577491
O O4 0.381657 0.739342 0.401437
O O5 0.169298 0.442724 0.922373
O O6 0.201924 0.404931 0.070186
O O7 0.468407 0.438130 0.084527
O O8 0.788775 0.141431 0.871406
O O9 0.630596 0.232573 0.883569
O O10 0.689994 0.229765 0.753542
O O11 0.796145 0.919235 0.244707
O O12 0.518372 0.964504 0.119113
O O13 0.550537 0.850458 0.128204
O O14 0.747291 0.034218 0.872608
O O15 0.000000 0.524141 0.250000
#
# Coordination Sequence:
#
# PCOD8131525 Si02
#       7
#     8   8   8   8   8   8   8
#     4  11  22  35  50  82 114 141 176 219 268 326
#     4  11  21  34  51  81 113 140 171 214 279 321
#     4   9  19  34  59  78  99 141 184 227 264 305
#     4  10  18  33  57  80 104 133 182 226 265 309
#     4   9  18  33  57  81 101 131 178 233 262 304
#     4  10  20  36  55  77 104 142 179 216 266 322
#     4  10  18  36  56  79 104 139 186 226 266 309
#
# _framework density 17.451839
#
# number of rings (size 3 to 8) (size 9 to 14) (size 15 to 20)
#    0.000    2.000    2.857    1.714    0.000    0.571 
#    2.571    0.000    0.000    0.000    3.714    0.000 
#    0.000    0.000    0.000    0.000    0.000    0.000 
#
# Total GULP energy -346994.632417 kJ/mol
# GULP energy per Si atom -12392.665443 kJ/mol
# Density = 1.741212 g / cm^3
# Si number density = 17.451839 Si / 1000 Ang^3
#
#
#
# Elastic Constant Matrix: (Units=GPa)
#
#
# Indices 1 2 3 4 5 6 
#
# 1 130.3035 40.4355 70.0692 0.0000 0.2704 0.0000
# 2 40.4355 53.2172 41.1534 0.0000 4.8178 0.0000
# 3 70.0692 41.1534 95.1311 0.0000 1.4727 0.0000
# 4 0.0000 0.0000 0.0000 30.1086 0.0000 3.1375
# 5 0.2704 4.8178 1.4727 0.0000 33.7528 0.0000
# 6 0.0000 0.0000 0.0000 3.1375 0.0000 22.3734
#
#
#
# Elastic Compliance Matrix: (Units=1/GPa)
#
#
# Indices 1 2 3 4 5 6 
#
# 1 0.013214 -0.003872 -0.008070 0.000000 0.000799 0.000000
# 2 -0.003872 0.029791 -0.009977 0.000000 -0.003786 0.000000
# 3 -0.008070 -0.009977 0.020763 0.000000 0.000583 0.000000
# 4 0.000000 0.000000 0.000000 0.033706 0.000000 -0.004727
# 5 0.000799 -0.003786 0.000583 0.000000 0.030136 0.000000
# 6 0.000000 0.000000 0.000000 -0.004727 0.000000 0.045359
#
#
# Mechanical properties :
#
#
# Convention : Reuss Voigt Hill
#
# Bulk Modulus (GPa) = 50.17641 64.66313 57.41977
# Shear Modulus (GPa) = 22.37647 25.71321 24.04484
#
# Velocity S-wave (km/s) = 3.58464 3.84263 3.71588
# Velocity P-wave (km/s) = 6.77840 7.53794 7.16823
#
# Compressibility (1/GPa) = 0.01992968
#
# Stress axis : x y z
#
# Youngs Moduli (GPa) = 75.67820 33.56733 48.16260
#
# Poissons Ratio (x) = 0.12996 0.38868
# Poissons Ratio (y) = 0.29300 0.48052
# Poissons Ratio (z) = 0.61074 0.33491
#
# Static dielectric constant tensor:
#      x y z
#    x 3.485930 0.000000 0.064830 
#    y 0.000000 2.886870 0.000000 
#    z 0.064830 0.000000 3.384070 
# 
# 
# High freq. dielectric constant tensor:
#      x y z
#    x 1.692050 0.000000 0.003210 
#    y 0.000000 1.651570 0.000000 
#    z 0.003210 0.000000 1.677190 
# 
# From -- ./inp_files/136476.got.cif
#   From: 2010.06.25/outbox.cif.g09.slc.cpg/sg15_69_cif.got.tgz:136476.got - 2010.06.28 07:06:18.
