data_PCOD8131910
_publ_section_title
;
Structure prediction by ZEFSAII (Michael W. Deem and Ramdas Pophale) SiO2 
 PCOD8131910
Probable space group: C 2/C
;
_chemical_formula_sum "Si O2"
_cell_formula_units_Z 36
_cell_length_a 8.570103
_cell_length_b 21.911845
_cell_length_c 12.697718
_cell_angle_alpha 90.000000
_cell_angle_beta 45.652083
_cell_angle_gamma 90.000000
_cell_volume 1705.149811
_symmetry_space_group_name_H-M "C 2/C"
_symmetry_group_IT_number 15
_symmetry_cell_setting 'monoclinic'
loop_
_space_group_symop_operation_xyz
x,y,z
-x,y,1/2-z
-x,-y,-z
x,-y,1/2+z
1/2+x,1/2+y,z
1/2-x,1/2+y,1/2-z
1/2-x,1/2-y,-z
1/2+x,1/2-y,1/2+z
loop_
_atom_site_type_symbol
_atom_site_label
_atom_site_fract_x
_atom_site_fract_y
_atom_site_fract_z
Si Si1 0.697320 0.474509 0.548639
Si Si2 0.103468 0.449213 0.840813
Si Si3 0.000000 0.241386 0.750000
Si Si4 0.667975 0.167817 0.011070
Si Si5 0.427036 0.416252 0.516200
O O1 0.687759 0.458503 0.678385
O O2 0.626615 0.417425 0.505866
O O3 0.540433 0.531804 0.589899
O O4 0.952892 0.490525 0.408240
O O5 0.198296 0.434686 0.681421
O O6 0.963841 0.392856 0.955610
O O7 0.780486 0.199289 0.855949
O O8 0.006117 0.284132 0.643608
O O9 0.876917 0.149599 0.988673
#
# Coordination Sequence:
#
# PCOD8131910 Si02
#       5
#     8   8   4   8   8
#     4   9  19  31  51  79 111 142 175 197 267 323
#     4  10  18  35  52  81 108 147 168 221 260 325
#     4  10  20  36  58  78  98 140 182 238 256 316
#     4  10  19  36  58  78 104 135 186 221 275 305
#     4  10  18  35  52  81 108 147 168 221 260 325
#
# _framework density 21.112513
#
# number of rings (size 3 to 8) (size 9 to 14) (size 15 to 20)
#    0.000    2.222    2.222    2.667    0.000    0.000 
#   40.000    0.000    0.000    8.000    0.000    0.000 
#    0.000    0.000    0.000    0.000    0.000    0.000 
#
# Total GULP energy -223005.276014 kJ/mol
# GULP energy per Si atom -12389.182001 kJ/mol
# Density = 2.106446 g / cm^3
# Si number density = 21.112513 Si / 1000 Ang^3
#
#
#
# Elastic Constant Matrix: (Units=GPa)
#
#
# Indices 1 2 3 4 5 6 
#
# 1 92.4062 20.8392 -1.6811 0.0000 2.9477 0.0000
# 2 20.8392 82.1343 30.8416 0.0000 2.3648 0.0000
# 3 -1.6811 30.8416 81.3217 0.0000 5.0646 0.0000
# 4 0.0000 0.0000 0.0000 31.7810 0.0000 -7.3202
# 5 2.9477 2.3648 5.0646 0.0000 25.3683 0.0000
# 6 0.0000 0.0000 0.0000 -7.3202 0.0000 13.3850
#
#
#
# Elastic Compliance Matrix: (Units=1/GPa)
#
#
# Indices 1 2 3 4 5 6 
#
# 1 0.011698 -0.003558 0.001676 0.000000 -0.001362 0.000000
# 2 -0.003558 0.015281 -0.005879 0.000000 0.000163 0.000000
# 3 0.001676 -0.005879 0.014722 0.000000 -0.002586 0.000000
# 4 0.000000 0.000000 0.000000 0.036000 0.000000 0.019688
# 5 -0.001362 0.000163 -0.002586 0.000000 0.040079 0.000000
# 6 0.000000 0.000000 0.000000 0.019688 0.000000 0.085478
#
#
# Mechanical properties :
#
#
# Convention : Reuss Voigt Hill
#
# Bulk Modulus (GPa) = 38.19858 39.54017 38.86938
# Shear Modulus (GPa) = 21.97737 27.83103 24.90420
#
# Velocity S-wave (km/s) = 3.22990 3.63467 3.43825
# Velocity P-wave (km/s) = 5.66055 6.03187 5.84916
#
# Compressibility (1/GPa) = 0.02617898
#
# Stress axis : x y z
#
# Youngs Moduli (GPa) = 85.48343 65.44129 67.92469
#
# Poissons Ratio (x) = 0.23286 -0.11385
# Poissons Ratio (y) = 0.30417 0.39933
# Poissons Ratio (z) = -0.14328 0.38473
#
# Static dielectric constant tensor:
#      x y z
#    x 3.903090 0.000000 0.029380 
#    y 0.000000 3.751410 0.000000 
#    z 0.029380 0.000000 3.826300 
# 
# 
# High freq. dielectric constant tensor:
#      x y z
#    x 1.808500 0.000000 -0.004300 
#    y 0.000000 1.797080 0.000000 
#    z -0.004300 0.000000 1.837780 
# 
# From -- ./inp_files/78946.got.cif
#   From: 2010.06.25/outbox.cif.g09.slc.cpg/sg15_40_cif.got.tgz:78946.got - 2010.06.28 07:06:18.
