data_PCOD8131631
_publ_section_title
;
Structure prediction by ZEFSAII (Michael W. Deem and Ramdas Pophale) SiO2 
 PCOD8131631
Probable space group: C 2/C
;
_chemical_formula_sum "Si O2"
_cell_formula_units_Z 64
_cell_length_a 13.354724
_cell_length_b 13.431081
_cell_length_c 25.074559
_cell_angle_alpha 90.000000
_cell_angle_beta 129.495131
_cell_angle_gamma 90.000000
_cell_volume 3470.688725
_symmetry_space_group_name_H-M "C 2/C"
_symmetry_group_IT_number 15
_symmetry_cell_setting 'monoclinic'
loop_
_space_group_symop_operation_xyz
x,y,z
-x,y,1/2-z
-x,-y,-z
x,-y,1/2+z
1/2+x,1/2+y,z
1/2-x,1/2+y,1/2-z
1/2-x,1/2-y,-z
1/2+x,1/2-y,1/2+z
loop_
_atom_site_type_symbol
_atom_site_label
_atom_site_fract_x
_atom_site_fract_y
_atom_site_fract_z
Si Si1 0.859337 0.802412 0.222869
Si Si2 0.262308 0.764298 0.583644
Si Si3 0.499564 0.503664 0.922780
Si Si4 0.347338 0.103901 0.700616
Si Si5 0.532927 0.271921 0.431553
Si Si6 0.287048 0.516294 0.430315
Si Si7 0.827032 0.998203 0.771223
Si Si8 0.781706 0.297919 0.804364
O O1 0.757446 0.779991 0.141243
O O2 0.818058 0.733765 0.257349
O O3 0.000000 0.769553 0.250000
O O4 0.857127 0.917418 0.238340
O O5 0.378270 0.712138 0.590706
O O6 0.122118 0.737780 0.510946
O O7 0.294770 0.882504 0.590473
O O8 0.465631 0.621162 0.917248
O O9 0.406671 0.448142 0.933330
O O10 0.459437 0.471006 0.849143
O O11 0.650036 0.482441 0.990816
O O12 0.500000 0.087692 0.750000
O O13 0.315927 0.219264 0.701330
O O14 0.296548 0.071249 0.624646
O O15 0.283855 0.032886 0.724363
O O16 0.415391 0.194126 0.383567
O O17 0.784805 0.904947 0.721296
#
# Coordination Sequence:
#
# PCOD8131631 Si02
#       8
#     8   8   8   8   8   8   8   8
#     4  11  19  34  55  80 108 137 179 214 257 325
#     4  10  20  29  53  84 106 137 169 218 269 314
#     4   9  15  33  49  74 105 134 170 214 257 311
#     4  10  21  36  52  77 108 138 179 221 265 311
#     4  10  18  34  50  78 114 133 169 220 270 310
#     4   9  17  28  53  78 100 131 174 215 260 308
#     4  10  21  33  54  79 106 137 175 218 263 315
#     4  11  21  36  52  79 111 141 173 223 267 311
#
# _framework density 18.440142999999999
#
# number of rings (size 3 to 8) (size 9 to 14) (size 15 to 20)
#    0.000    2.000    5.000    1.500    1.750    1.500 
#    0.000    0.625    0.000    0.750    0.000    0.000 
#    0.000    0.000    0.000    0.000    0.000    0.000 
#
# Total GULP energy -396642.670748 kJ/mol
# GULP energy per Si atom -12395.083461 kJ/mol
# Density = 1.839817 g / cm^3
# Si number density = 18.440143 Si / 1000 Ang^3
#
#
#
# Elastic Constant Matrix: (Units=GPa)
#
#
# Indices 1 2 3 4 5 6 
#
# 1 41.1752 6.3596 27.5993 0.0000 0.1206 0.0000
# 2 6.3596 46.2455 22.7448 0.0000 0.0414 0.0000
# 3 27.5993 22.7448 137.2217 0.0000 6.1092 0.0000
# 4 0.0000 0.0000 0.0000 28.7632 0.0000 -3.5455
# 5 0.1206 0.0414 6.1092 0.0000 18.0591 0.0000
# 6 0.0000 0.0000 0.0000 -3.5455 0.0000 15.5595
#
#
#
# Elastic Compliance Matrix: (Units=1/GPa)
#
#
# Indices 1 2 3 4 5 6 
#
# 1 0.028181 -0.001146 -0.005554 0.000000 0.001693 0.000000
# 2 -0.001146 0.023619 -0.003739 0.000000 0.001218 0.000000
# 3 -0.005554 -0.003739 0.009160 0.000000 -0.003053 0.000000
# 4 0.000000 0.000000 0.000000 0.035771 0.000000 0.008151
# 5 0.001693 0.001218 -0.003053 0.000000 0.056393 0.000000
# 6 0.000000 0.000000 0.000000 0.008151 0.000000 0.066127
#
#
# Mechanical properties :
#
#
# Convention : Reuss Voigt Hill
#
# Bulk Modulus (GPa) = 24.94736 37.56109 31.25423
# Shear Modulus (GPa) = 19.72483 23.67226 21.69855
#
# Velocity S-wave (km/s) = 3.27413 3.58681 3.43403
# Velocity P-wave (km/s) = 5.27744 6.12920 5.71920
#
# Compressibility (1/GPa) = 0.04008440
#
# Stress axis : x y z
#
# Youngs Moduli (GPa) = 35.48500 42.33885 109.16924
#
# Poissons Ratio (x) = 0.04850 0.60627
# Poissons Ratio (y) = 0.04065 0.40816
# Poissons Ratio (z) = 0.19707 0.15829
#
# Static dielectric constant tensor:
#      x y z
#    x 3.111090 0.000000 -0.024950 
#    y 0.000000 3.178870 0.000000 
#    z -0.024950 0.000000 3.774870 
# 
# 
# High freq. dielectric constant tensor:
#      x y z
#    x 1.680260 0.000000 0.001450 
#    y 0.000000 1.692010 0.000000 
#    z 0.001450 0.000000 1.737920 
# 
# From -- ./inp_files/296422.got.cif
#   From: 2010.06.25/outbox.cif.g09.slc.cpg/sg15_149_cif.got.tgz:296422.got - 2010.06.28 07:06:18.
