data_PCOD8131649
_publ_section_title
;
Structure prediction by ZEFSAII (Michael W. Deem and Ramdas Pophale) SiO2 
 PCOD8131649
Probable space group: C 2/C
;
_chemical_formula_sum "Si O2"
_cell_formula_units_Z 56
_cell_length_a 26.975929
_cell_length_b 11.471594
_cell_length_c 20.185135
_cell_angle_alpha 90.000000
_cell_angle_beta 152.839227
_cell_angle_gamma 90.000000
_cell_volume 2851.425626
_symmetry_space_group_name_H-M "C 2/C"
_symmetry_group_IT_number 15
_symmetry_cell_setting 'monoclinic'
loop_
_space_group_symop_operation_xyz
x,y,z
-x,y,1/2-z
-x,-y,-z
x,-y,1/2+z
1/2+x,1/2+y,z
1/2-x,1/2+y,1/2-z
1/2-x,1/2-y,-z
1/2+x,1/2-y,1/2+z
loop_
_atom_site_type_symbol
_atom_site_label
_atom_site_fract_x
_atom_site_fract_y
_atom_site_fract_z
Si Si1 0.736308 0.100222 0.909242
Si Si2 0.379715 0.047991 0.434285
Si Si3 0.845461 0.062915 0.284492
Si Si4 0.916925 0.591801 0.325071
Si Si5 0.125374 0.171795 0.310358
Si Si6 0.109617 0.197711 0.512696
Si Si7 0.044640 0.163118 0.582097
O O1 0.649570 0.189079 0.839527
O O2 0.679346 0.972964 0.830726
O O3 0.836173 0.098843 0.079736
O O4 0.783411 0.143137 0.894347
O O5 0.255526 0.007763 0.295820
O O6 0.403357 0.066061 0.385809
O O7 0.392054 0.162846 0.493606
O O8 0.467158 0.954144 0.564227
O O9 0.806660 0.128579 0.172547
O O10 0.914674 0.154554 0.412615
O O11 0.920945 0.959348 0.345397
O O12 0.922388 0.733180 0.327597
O O13 0.997307 0.149452 0.151123
O O14 0.110096 0.167489 0.590769
#
# Coordination Sequence:
#
# PCOD8131649 Si02
#       7
#     8   8   8   8   8   8   8
#     4  11  20  34  54  79 111 145 177 230 274 328
#     4  10  19  31  56  78 111 140 178 235 278 330
#     4  10  19  37  53  81 108 150 182 225 281 332
#     4  10  21  34  51  84 110 140 186 228 279 330
#     4  10  21  33  53  79 110 143 186 222 270 329
#     4  10  18  34  53  82 107 144 180 230 277 326
#     4   9  21  35  57  79 114 141 186 230 278 334
#
# _framework density 19.639299999999999
#
# number of rings (size 3 to 8) (size 9 to 14) (size 15 to 20)
#    0.000    2.000    2.857    1.286    2.000    2.286 
#    0.000    1.429    0.000    0.000    0.000    2.000 
#    0.000    0.000    0.000    0.000    0.000    0.000 
#
# Total GULP energy -346872.942170 kJ/mol
# GULP energy per Si atom -12388.319363 kJ/mol
# Density = 1.959460 g / cm^3
# Si number density = 19.639300 Si / 1000 Ang^3
#
#
#
# Elastic Constant Matrix: (Units=GPa)
#
#
# Indices 1 2 3 4 5 6 
#
# 1 49.4001 13.1545 28.8308 0.0000 14.7644 0.0000
# 2 13.1545 107.0721 45.5679 0.0000 -6.4977 0.0000
# 3 28.8308 45.5679 73.8984 0.0000 1.3787 0.0000
# 4 0.0000 0.0000 0.0000 26.8409 0.0000 -0.4117
# 5 14.7644 -6.4977 1.3787 0.0000 28.4260 0.0000
# 6 0.0000 0.0000 0.0000 -0.4117 0.0000 18.7716
#
#
#
# Elastic Compliance Matrix: (Units=1/GPa)
#
#
# Indices 1 2 3 4 5 6 
#
# 1 0.032243 0.000394 -0.012523 0.000000 -0.016050 0.000000
# 2 0.000394 0.012980 -0.008216 0.000000 0.003161 0.000000
# 3 -0.012523 -0.008216 0.023419 0.000000 0.003491 0.000000
# 4 0.000000 0.000000 0.000000 0.037269 0.000000 0.000817
# 5 -0.016050 0.003161 0.003491 0.000000 0.044068 0.000000
# 6 0.000000 0.000000 0.000000 0.000817 0.000000 0.053290
#
#
# Mechanical properties :
#
#
# Convention : Reuss Voigt Hill
#
# Bulk Modulus (GPa) = 35.77593 45.05299 40.41446
# Shear Modulus (GPa) = 19.74119 24.32888 22.03503
#
# Velocity S-wave (km/s) = 3.17391 3.52346 3.35324
# Velocity P-wave (km/s) = 5.62918 6.28832 5.96786
#
# Compressibility (1/GPa) = 0.02795176
#
# Stress axis : x y z
#
# Youngs Moduli (GPa) = 31.01402 77.04390 42.69979
#
# Poissons Ratio (x) = -0.03039 0.53474
# Poissons Ratio (y) = -0.01223 0.35084
# Poissons Ratio (z) = 0.38840 0.63303
#
# Static dielectric constant tensor:
#      x y z
#    x 3.421310 0.000000 0.196320 
#    y 0.000000 3.662730 0.000000 
#    z 0.196320 0.000000 3.564200 
# 
# 
# High freq. dielectric constant tensor:
#      x y z
#    x 1.740470 0.000000 0.022010 
#    y 0.000000 1.751320 0.000000 
#    z 0.022010 0.000000 1.759160 
# 
# From -- ./inp_files/257426.got.cif
#   From: 2010.06.25/outbox.cif.g09.slc.cpg/sg15_129_cif.got.tgz:257426.got - 2010.06.28 07:06:18.
