data_PCOD8131677
_publ_section_title
;
Structure prediction by ZEFSAII (Michael W. Deem and Ramdas Pophale) SiO2 
 PCOD8131677
Probable space group: C 2/C
;
_chemical_formula_sum "Si O2"
_cell_formula_units_Z 48
_cell_length_a 10.025528
_cell_length_b 9.133148
_cell_length_c 26.465445
_cell_angle_alpha 90.000000
_cell_angle_beta 84.473202
_cell_angle_gamma 90.000000
_cell_volume 2412.033423
_symmetry_space_group_name_H-M "C 2/C"
_symmetry_group_IT_number 15
_symmetry_cell_setting 'monoclinic'
loop_
_space_group_symop_operation_xyz
x,y,z
-x,y,1/2-z
-x,-y,-z
x,-y,1/2+z
1/2+x,1/2+y,z
1/2-x,1/2+y,1/2-z
1/2-x,1/2-y,-z
1/2+x,1/2-y,1/2+z
loop_
_atom_site_type_symbol
_atom_site_label
_atom_site_fract_x
_atom_site_fract_y
_atom_site_fract_z
Si Si1 0.074076 0.545119 0.196779
Si Si2 0.373800 0.075666 0.527564
Si Si3 0.177746 0.100513 0.856752
Si Si4 0.669223 0.063150 0.368214
Si Si5 0.881444 0.833768 0.346635
Si Si6 0.772889 0.147557 0.066678
O O1 0.209903 0.451831 0.187038
O O2 0.116387 0.716135 0.199174
O O3 0.000000 0.493707 0.250000
O O4 0.975525 0.529914 0.151646
O O5 0.268142 0.090531 0.486639
O O6 0.395584 0.237296 0.552359
O O7 0.500000 0.000000 0.500000
O O8 0.323377 0.968372 0.572839
O O9 0.213150 0.269039 0.864378
O O10 0.025449 0.087816 0.843746
O O11 0.183328 0.996787 0.905452
O O12 0.776377 0.959708 0.336076
O O13 0.842381 0.741376 0.399273
#
# Coordination Sequence:
#
# PCOD8131677 Si02
#       6
#     8   8   8   8   8   8
#     4  10  22  40  59  80 109 143 180 228 283 334
#     4  10  18  34  55  78 113 152 185 222 268 318
#     4  10  20  37  58  83 112 144 184 226 274 330
#     4  10  22  37  56  84 112 142 186 231 272 325
#     4   9  20  39  58  80 111 144 182 228 275 326
#     4   9  20  35  54  80 113 150 184 221 269 323
#
# _framework density 19.900220999999998
#
# number of rings (size 3 to 8) (size 9 to 14) (size 15 to 20)
#    0.000    2.333    0.000    3.000    0.000    8.667 
#    0.000   14.167    0.000    0.000    0.000    0.000 
#    0.000    0.000    0.000    0.000    0.000    0.000 
#
# Total GULP energy -297314.825048 kJ/mol
# GULP energy per Si atom -12388.117710 kJ/mol
# Density = 1.985493 g / cm^3
# Si number density = 19.900221 Si / 1000 Ang^3
#
#
#
# Elastic Constant Matrix: (Units=GPa)
#
#
# Indices 1 2 3 4 5 6 
#
# 1 117.8571 66.5211 17.6486 0.0000 -17.1963 0.0000
# 2 66.5211 120.5701 15.6006 0.0000 -1.0839 0.0000
# 3 17.6486 15.6006 55.9077 0.0000 -11.4570 0.0000
# 4 0.0000 0.0000 0.0000 16.6256 0.0000 -4.8405
# 5 -17.1963 -1.0839 -11.4570 0.0000 18.8951 0.0000
# 6 0.0000 0.0000 0.0000 -4.8405 0.0000 42.6439
#
#
#
# Elastic Compliance Matrix: (Units=1/GPa)
#
#
# Indices 1 2 3 4 5 6 
#
# 1 0.015026 -0.008207 0.000289 0.000000 0.013379 0.000000
# 2 -0.008207 0.013107 -0.002790 0.000000 -0.008409 0.000000
# 3 0.000289 -0.002790 0.021233 0.000000 0.012978 0.000000
# 4 0.000000 0.000000 0.000000 0.062204 0.000000 0.007061
# 5 0.013379 -0.008409 0.012978 0.000000 0.072487 0.000000
# 6 0.000000 0.000000 0.000000 0.007061 0.000000 0.024252
#
#
# Mechanical properties :
#
#
# Convention : Reuss Voigt Hill
#
# Bulk Modulus (GPa) = 35.77845 54.87505 45.32675
# Shear Modulus (GPa) = 20.91671 28.60389 24.76030
#
# Velocity S-wave (km/s) = 3.24555 3.79537 3.53118
# Velocity P-wave (km/s) = 5.66240 6.84408 6.28109
#
# Compressibility (1/GPa) = 0.02794978
#
# Stress axis : x y z
#
# Youngs Moduli (GPa) = 66.55048 76.29223 47.09541
#
# Poissons Ratio (x) = 0.62616 -0.01359
# Poissons Ratio (y) = 0.54620 0.13140
# Poissons Ratio (z) = -0.01921 0.21285
#
# Static dielectric constant tensor:
#      x y z
#    x 3.745480 0.000000 -0.191460 
#    y 0.000000 3.885830 0.000000 
#    z -0.191460 0.000000 3.415330 
# 
# 
# High freq. dielectric constant tensor:
#      x y z
#    x 1.765160 0.000000 -0.016880 
#    y 0.000000 1.790650 0.000000 
#    z -0.016880 0.000000 1.766930 
# 
# From -- ./inp_files/306682.got.cif
#   From: 2010.06.25/outbox.cif.g09.slc.cpg/sg15_154_cif.got.tgz:306682.got - 2010.06.28 07:06:18.
