data_PCOD8131710
_publ_section_title
;
Structure prediction by ZEFSAII (Michael W. Deem and Ramdas Pophale) SiO2 
 PCOD8131710
Probable space group: C 2/C
;
_chemical_formula_sum "Si O2"
_cell_formula_units_Z 60
_cell_length_a 12.255836
_cell_length_b 22.699967
_cell_length_c 18.349289
_cell_angle_alpha 90.000000
_cell_angle_beta 144.489736
_cell_angle_gamma 90.000000
_cell_volume 2965.176125
_symmetry_space_group_name_H-M "C 2/C"
_symmetry_group_IT_number 15
_symmetry_cell_setting 'monoclinic'
loop_
_space_group_symop_operation_xyz
x,y,z
-x,y,1/2-z
-x,-y,-z
x,-y,1/2+z
1/2+x,1/2+y,z
1/2-x,1/2+y,1/2-z
1/2-x,1/2-y,-z
1/2+x,1/2-y,1/2+z
loop_
_atom_site_type_symbol
_atom_site_label
_atom_site_fract_x
_atom_site_fract_y
_atom_site_fract_z
Si Si1 0.216515 0.212210 0.374814
Si Si2 0.368105 0.622964 0.744062
Si Si3 0.263550 0.664614 0.958844
Si Si4 0.500000 0.929716 0.250000
Si Si5 0.079462 0.907499 0.574428
Si Si6 0.297021 0.526019 0.814495
Si Si7 0.813854 0.173671 0.485039
Si Si8 0.911360 0.303681 0.500886
O O1 0.226521 0.283041 0.381326
O O2 0.291821 0.186122 0.491285
O O3 0.362683 0.191689 0.390856
O O4 0.000000 0.191205 0.250000
O O5 0.500000 0.603549 0.750000
O O6 0.292769 0.561413 0.736281
O O7 0.486729 0.660905 0.866884
O O8 0.194022 0.662026 0.621548
O O9 0.138574 0.609547 0.871991
O O10 0.478220 0.642524 0.068141
O O11 0.404375 0.971499 0.256923
O O12 0.226306 0.873691 0.601017
O O13 0.943441 0.943005 0.447181
O O14 0.167240 0.956002 0.677055
O O15 0.830881 0.237448 0.456965
O O16 0.640169 0.169222 0.447756
#
# Coordination Sequence:
#
# PCOD8131710 Si02
#       8
#     8   8   8   4   8   8   8   8
#     4  11  22  34  51  81 119 161 191 227 285 355
#     4   9  18  33  56  86 112 150 194 236 295 347
#     4  10  20  34  55  79 113 151 189 239 286 348
#     4  10  18  34  56  84 106 144 192 240 292 338
#     4   9  17  35  53  80 105 142 189 236 291 329
#     4   9  18  31  58  78 105 140 188 242 278 338
#     4   9  18  33  56  82 119 151 184 243 291 355
#     4  10  19  33  54  84 122 155 193 230 292 357
#
# _framework density 20.234885999999999
#
# number of rings (size 3 to 8) (size 9 to 14) (size 15 to 20)
#    0.000    2.400    2.000    0.800    0.000    2.133 
#    0.000    2.000    4.400    0.000    0.000   11.200 
#    0.000    0.000    0.000    0.000    0.000    0.000 
#
# Total GULP energy -371777.366847 kJ/mol
# GULP energy per Si atom -12392.578895 kJ/mol
# Density = 2.018883 g / cm^3
# Si number density = 20.234886 Si / 1000 Ang^3
#
#
#
# Elastic Constant Matrix: (Units=GPa)
#
#
# Indices 1 2 3 4 5 6 
#
# 1 136.8768 49.9340 32.4794 0.0018 21.2361 -0.0006
# 2 49.9340 93.7194 24.8688 0.0038 -3.2251 0.0003
# 3 32.4794 24.8688 48.6891 0.0153 10.1866 0.0106
# 4 0.0018 0.0038 0.0153 24.7475 0.0068 -3.4848
# 5 21.2361 -3.2251 10.1866 0.0068 28.6479 0.0027
# 6 -0.0006 0.0003 0.0106 -3.4848 0.0027 28.0893
#
#
#
# Elastic Compliance Matrix: (Units=1/GPa)
#
#
# Indices 1 2 3 4 5 6 
#
# 1 0.011239 -0.005442 -0.003075 0.000004 -0.007850 0.000003
# 2 -0.005442 0.015401 -0.005880 0.000000 0.007859 0.000001
# 3 -0.003075 -0.005880 0.027284 -0.000015 -0.008084 -0.000011
# 4 0.000004 0.000000 -0.000015 0.041127 -0.000008 0.005102
# 5 -0.007850 0.007859 -0.008084 -0.000008 0.044485 -0.000002
# 6 0.000003 0.000001 -0.000011 0.005102 -0.000002 0.036234
#
#
# Mechanical properties :
#
#
# Convention : Reuss Voigt Hill
#
# Bulk Modulus (GPa) = 39.79394 54.87219 47.33306
# Shear Modulus (GPa) = 23.48078 27.76382 25.62230
#
# Velocity S-wave (km/s) = 3.41018 3.70817 3.56229
# Velocity P-wave (km/s) = 5.93417 6.74615 6.35315
#
# Compressibility (1/GPa) = 0.02512946
#
# Stress axis : x y z
#
# Youngs Moduli (GPa) = 88.97670 64.93295 36.65105
#
# Poissons Ratio (x) = 0.35339 0.11270
# Poissons Ratio (y) = 0.48424 0.21550
# Poissons Ratio (z) = 0.27360 0.38179
#
# Static dielectric constant tensor:
#      x y z
#    x 3.971100 -0.000010 0.133100 
#    y -0.000010 3.785310 -0.000020 
#    z 0.133100 -0.000020 3.343450 
# 
# 
# High freq. dielectric constant tensor:
#      x y z
#    x 1.803460 0.000000 0.006220 
#    y 0.000000 1.782900 0.000000 
#    z 0.006220 0.000000 1.750000 
# 
# From -- ./inp_files/200938.got.cif
#   From: 2010.06.25/outbox.cif.g09.slc.cpg/sg15_101_cif.got.tgz:200938.got - 2010.06.28 07:06:18.
