data_PCOD8131353
_publ_section_title
;
Structure prediction by ZEFSAII (Michael W. Deem and Ramdas Pophale) SiO2 
 PCOD8131353
Probable space group: C 2/C
;
_chemical_formula_sum "Si O2"
_cell_formula_units_Z 52
_cell_length_a 21.755080
_cell_length_b 10.015781
_cell_length_c 17.825283
_cell_angle_alpha 90.000000
_cell_angle_beta 48.921281
_cell_angle_gamma 90.000000
_cell_volume 2927.806665
_symmetry_space_group_name_H-M "C 2/C"
_symmetry_group_IT_number 15
_symmetry_cell_setting 'monoclinic'
loop_
_space_group_symop_operation_xyz
x,y,z
-x,y,1/2-z
-x,-y,-z
x,-y,1/2+z
1/2+x,1/2+y,z
1/2-x,1/2+y,1/2-z
1/2-x,1/2-y,-z
1/2+x,1/2-y,1/2+z
loop_
_atom_site_type_symbol
_atom_site_label
_atom_site_fract_x
_atom_site_fract_y
_atom_site_fract_z
Si Si1 0.747574 0.868088 0.902674
Si Si2 0.675652 0.489463 0.286827
Si Si3 0.105790 0.273105 0.908658
Si Si4 0.161056 0.390765 0.117971
Si Si5 0.000000 0.735821 0.750000
Si Si6 0.150892 0.508714 0.777771
Si Si7 0.445505 0.718435 0.131920
O O1 0.795711 0.986342 0.821996
O O2 0.671423 0.810582 0.918473
O O3 0.807008 0.744530 0.868369
O O4 0.718370 0.934657 0.003777
O O5 0.636803 0.345770 0.330589
O O6 0.755793 0.505773 0.272567
O O7 0.607704 0.599815 0.361203
O O8 0.093795 0.397229 0.861696
O O9 0.022906 0.234355 0.016110
O O10 0.070894 0.358886 0.160494
O O11 0.155367 0.508605 0.183884
O O12 0.971183 0.816883 0.698315
O O13 0.110041 0.650281 0.828922
#
# Coordination Sequence:
#
# PCOD8131353 Si02
#       7
#     8   8   8   8   4   8   8
#     4  10  19  33  57  82 113 147 191 226 276 335
#     4  11  20  36  54  87 118 146 184 235 287 335
#     4  11  21  34  55  86 117 147 183 236 292 333
#     4  10  18  35  57  85 105 147 198 231 266 325
#     4  10  18  32  58  86 106 136 198 242 264 310
#     4  10  20  36  57  82 112 151 193 230 274 340
#     4  11  21  37  57  87 112 150 191 238 276 332
#
# _framework density 17.760736000000001
#
# number of rings (size 3 to 8) (size 9 to 14) (size 15 to 20)
#    0.000    1.538    6.154    1.846    0.000    0.000 
#    0.000    0.769    0.000    3.692    0.000    0.000 
#    0.000    0.000    0.000    0.000    0.000    0.000 
#
# Total GULP energy -322193.990709 kJ/mol
# GULP energy per Si atom -12392.076566 kJ/mol
# Density = 1.772031 g / cm^3
# Si number density = 17.760736 Si / 1000 Ang^3
#
#
#
# Elastic Constant Matrix: (Units=GPa)
#
#
# Indices 1 2 3 4 5 6 
#
# 1 65.6887 15.2646 25.3619 0.0000 -2.6193 0.0000
# 2 15.2646 54.5976 17.3080 0.0005 10.3627 0.0000
# 3 25.3619 17.3080 115.2437 -0.0002 4.3225 0.0000
# 4 0.0000 0.0005 -0.0002 -10.8234 0.0000 -50.3326
# 5 -2.6193 10.3627 4.3225 0.0000 30.5601 0.0000
# 6 0.0000 0.0000 0.0000 -50.3326 0.0000 -25.2152
#
#
#
# Elastic Compliance Matrix: (Units=1/GPa)
#
#
# Indices 1 2 3 4 5 6 
#
# 1 0.017717 -0.004564 -0.003346 0.000000 0.003540 0.000000
# 2 -0.004564 0.021628 -0.001964 0.000000 -0.007447 0.000000
# 3 -0.003346 -0.001964 0.009746 0.000000 -0.000999 0.000000
# 4 0.000000 0.000000 0.000000 0.011155 0.000000 -0.022267
# 5 0.003540 -0.007447 -0.000999 0.000000 0.035692 0.000000
# 6 0.000000 0.000000 0.000000 -0.022267 0.000000 0.004788
#
#
# Mechanical properties :
#
#
# Convention : Reuss Voigt Hill
#
# Bulk Modulus (GPa) = 34.08172 39.04434 36.56303
# Shear Modulus (GPa) = 38.38540 10.74398 24.56469
#
# Velocity S-wave (km/s) = 4.65397 2.46220 3.72303
# Velocity P-wave (km/s) = 6.93616 5.48766 6.25399
#
# Compressibility (1/GPa) = 0.02934124
#
# Stress axis : x y z
#
# Youngs Moduli (GPa) = 56.44256 46.23585 102.60418
#
# Poissons Ratio (x) = 0.21104 0.34334
# Poissons Ratio (y) = 0.25763 0.20156
# Poissons Ratio (z) = 0.18887 0.09083
#
# Static dielectric constant tensor:
#      x y z
#    x 3.378170 0.000000 -0.039940 
#    y 0.000000 3.104850 0.000000 
#    z -0.039940 0.000000 3.640650 
# 
# 
# High freq. dielectric constant tensor:
#      x y z
#    x 1.688940 0.000000 -0.011490 
#    y 0.000000 1.649430 0.000000 
#    z -0.011490 0.000000 1.713050 
# 
# From -- ./inp_files/167194.got.cif
#   From: 2010.06.25/outbox.cif.g09.slc.cpg/sg15_84_cif.got.tgz:167194.got - 2010.06.28 07:06:18.
