data_PCOD8131995
_publ_section_title
;
Structure prediction by ZEFSAII (Michael W. Deem and Ramdas Pophale) SiO2 
 PCOD8131995
Probable space group: C 2/C
;
_chemical_formula_sum "Si O2"
_cell_formula_units_Z 56
_cell_length_a 10.129926
_cell_length_b 26.868374
_cell_length_c 13.148633
_cell_angle_alpha 90.000000
_cell_angle_beta 132.850696
_cell_angle_gamma 90.000000
_cell_volume 2623.664534
_symmetry_space_group_name_H-M "C 2/C"
_symmetry_group_IT_number 15
_symmetry_cell_setting 'monoclinic'
loop_
_space_group_symop_operation_xyz
x,y,z
-x,y,1/2-z
-x,-y,-z
x,-y,1/2+z
1/2+x,1/2+y,z
1/2-x,1/2+y,1/2-z
1/2-x,1/2-y,-z
1/2+x,1/2-y,1/2+z
loop_
_atom_site_type_symbol
_atom_site_label
_atom_site_fract_x
_atom_site_fract_y
_atom_site_fract_z
Si Si1 0.290973 0.625612 0.206330
Si Si2 0.983261 0.736713 0.929819
Si Si3 0.263491 0.326738 0.481958
Si Si4 0.770748 0.028194 0.422548
Si Si5 0.376721 0.212329 0.283618
Si Si6 0.085172 0.076534 0.487756
Si Si7 0.953562 0.459852 0.891938
O O1 0.327428 0.661279 0.130458
O O2 0.226761 0.659202 0.268890
O O3 0.469207 0.595036 0.330372
O O4 0.128714 0.587763 0.094054
O O5 0.092021 0.788197 0.984550
O O6 0.773585 0.743981 0.794497
O O7 0.064575 0.697950 0.888095
O O8 0.997525 0.715783 0.051383
O O9 0.274859 0.377370 0.418166
O O10 0.808096 0.973228 0.487299
O O11 0.688938 0.020361 0.266675
O O12 0.635889 0.055804 0.428342
O O13 0.951864 0.062040 0.511408
O O14 0.500000 0.216741 0.250000
O O15 0.000000 0.500000 0.000000
#
# Coordination Sequence:
#
# PCOD8131995 Si02
#       7
#     8   8   8   8   8   8   8
#     4  10  21  33  64  90 112 161 215 244 302 385
#     4  10  23  39  61  94 126 157 205 271 311 377
#     4  10  20  35  60  91 124 155 209 255 314 373
#     4   9  21  35  57  89 126 157 206 258 313 359
#     4  11  23  41  64  91 120 167 207 258 323 385
#     4  10  18  35  58  86 118 162 202 254 301 366
#     4  10  20  37  55  87 126 162 204 260 307 373
#
# _framework density 21.344192
#
# number of rings (size 3 to 8) (size 9 to 14) (size 15 to 20)
#    0.000    2.000    1.429    1.714    6.000    2.857 
#    0.000    9.286    0.000    0.000    0.000    0.000 
#    0.000    0.000    0.000    0.000    0.000    0.000 
#
# Total GULP energy -346998.382382 kJ/mol
# GULP energy per Si atom -12392.799371 kJ/mol
# Density = 2.129561 g / cm^3
# Si number density = 21.344192 Si / 1000 Ang^3
#
#
#
# Elastic Constant Matrix: (Units=GPa)
#
#
# Indices 1 2 3 4 5 6 
#
# 1 95.1366 30.0804 15.1735 0.0000 3.2208 0.0000
# 2 30.0804 105.3793 11.9285 0.0000 1.6127 0.0000
# 3 15.1735 11.9285 49.4890 0.0000 2.8706 0.0000
# 4 0.0000 0.0000 0.0000 30.0701 0.0000 0.2050
# 5 3.2208 1.6127 2.8706 0.0000 27.2979 0.0000
# 6 0.0000 0.0000 0.0000 0.2050 0.0000 38.8430
#
#
#
# Elastic Compliance Matrix: (Units=1/GPa)
#
#
# Indices 1 2 3 4 5 6 
#
# 1 0.011975 -0.003078 -0.002876 0.000000 -0.000929 0.000000
# 2 -0.003078 0.010550 -0.001594 0.000000 -0.000092 0.000000
# 3 -0.002876 -0.001594 0.021579 0.000000 -0.001836 0.000000
# 4 0.000000 0.000000 0.000000 0.033257 0.000000 -0.000175
# 5 -0.000929 -0.000092 -0.001836 0.000000 0.036941 0.000000
# 6 0.000000 0.000000 0.000000 -0.000175 0.000000 0.025746
#
#
# Mechanical properties :
#
#
# Convention : Reuss Voigt Hill
#
# Bulk Modulus (GPa) = 34.47319 40.48552 37.47935
# Shear Modulus (GPa) = 30.33766 32.09703 31.21734
#
# Velocity S-wave (km/s) = 3.77418 3.88207 3.82850
# Velocity P-wave (km/s) = 5.93116 6.25325 6.09433
#
# Compressibility (1/GPa) = 0.02900805
#
# Stress axis : x y z
#
# Youngs Moduli (GPa) = 83.50999 94.78601 46.34177
#
# Poissons Ratio (x) = 0.29179 0.13326
# Poissons Ratio (y) = 0.25708 0.07385
# Poissons Ratio (z) = 0.24014 0.15106
#
# Static dielectric constant tensor:
#      x y z
#    x 4.158040 0.000000 0.245590 
#    y 0.000000 4.236350 0.000000 
#    z 0.245590 0.000000 3.632190 
# 
# 
# High freq. dielectric constant tensor:
#      x y z
#    x 1.851860 0.000000 0.014100 
#    y 0.000000 1.838700 0.000000 
#    z 0.014100 0.000000 1.802850 
# 
# From -- ./inp_files/148588.got.cif
#   From: 2010.06.25/outbox.cif.g09.slc.cpg/sg15_75_cif.got.tgz:148588.got - 2010.06.28 07:06:18.
