data_PCOD8131500
_publ_section_title
;
Structure prediction by ZEFSAII (Michael W. Deem and Ramdas Pophale) SiO2 
 PCOD8131500
Probable space group: C 2/C
;
_chemical_formula_sum "Si O2"
_cell_formula_units_Z 64
_cell_length_a 11.859666
_cell_length_b 16.419049
_cell_length_c 17.952061
_cell_angle_alpha 90.000000
_cell_angle_beta 65.294041
_cell_angle_gamma 90.000000
_cell_volume 3175.724615
_symmetry_space_group_name_H-M "C 2/C"
_symmetry_group_IT_number 15
_symmetry_cell_setting 'monoclinic'
loop_
_space_group_symop_operation_xyz
x,y,z
-x,y,1/2-z
-x,-y,-z
x,-y,1/2+z
1/2+x,1/2+y,z
1/2-x,1/2+y,1/2-z
1/2-x,1/2-y,-z
1/2+x,1/2-y,1/2+z
loop_
_atom_site_type_symbol
_atom_site_label
_atom_site_fract_x
_atom_site_fract_y
_atom_site_fract_z
Si Si1 0.388459 0.227255 0.619681
Si Si2 0.647521 0.442659 0.474497
Si Si3 0.931639 0.147021 0.653109
Si Si4 0.275806 0.738982 0.307645
Si Si5 0.822968 0.105922 0.838457
Si Si6 0.854139 0.065605 0.281481
Si Si7 0.837630 0.314959 0.437718
Si Si8 0.392875 0.410754 0.603174
O O1 0.360451 0.244060 0.713122
O O2 0.298669 0.158579 0.610699
O O3 0.524887 0.190893 0.567340
O O4 0.373325 0.315991 0.585720
O O5 0.592232 0.401527 0.415271
O O6 0.777347 0.404425 0.466095
O O7 0.541420 0.430616 0.566776
O O8 0.668741 0.537420 0.447578
O O9 0.870389 0.237506 0.662904
O O10 0.862622 0.106270 0.741456
O O11 0.077219 0.145361 0.632601
O O12 0.281957 0.645188 0.331472
O O13 0.340463 0.797145 0.349553
O O14 0.803364 0.007914 0.848893
O O15 0.829440 0.061879 0.198656
O O16 0.000000 0.076873 0.250000
O O17 0.750000 0.250000 0.500000
#
# Coordination Sequence:
#
# PCOD8131500 Si02
#       8
#     8   8   8   8   8   8   8   8
#     4  10  20  35  53  80 112 144 183 226 276 330
#     4  10  19  32  55  78 112 136 180 228 279 324
#     4   9  17  34  51  78 103 146 174 222 275 325
#     4   9  20  32  55  80 110 136 184 234 272 321
#     4  10  18  33  56  76 107 141 187 219 269 333
#     4  11  18  31  56  84 106 136 193 235 270 317
#     4  11  20  34  53  82 113 146 176 226 289 333
#     4  10  19  33  51  82 106 139 181 233 268 328
#
# _framework density 20.152881000000001
#
# number of rings (size 3 to 8) (size 9 to 14) (size 15 to 20)
#    0.000    2.000    3.750    1.875    0.000    0.000 
#    0.000    1.875    0.000    2.250    0.000    0.000 
#    0.000    0.000    0.000    0.000    0.000    0.000 
#
# Total GULP energy -396499.366926 kJ/mol
# GULP energy per Si atom -12390.605216 kJ/mol
# Density = 2.010701 g / cm^3
# Si number density = 20.152881 Si / 1000 Ang^3
#
#
#
# Elastic Constant Matrix: (Units=GPa)
#
#
# Indices 1 2 3 4 5 6 
#
# 1 98.8970 58.1393 9.2279 0.0000 -29.0428 0.0000
# 2 58.1393 144.7054 6.5339 0.0000 -25.3591 0.0000
# 3 9.2279 6.5339 27.4012 0.0000 -11.7314 0.0000
# 4 0.0000 0.0000 0.0000 24.2075 0.0000 -4.7604
# 5 -29.0428 -25.3591 -11.7314 0.0000 22.3574 0.0000
# 6 0.0000 0.0000 0.0000 -4.7604 0.0000 33.2979
#
#
#
# Elastic Compliance Matrix: (Units=1/GPa)
#
#
# Indices 1 2 3 4 5 6 
#
# 1 0.018280 -0.003740 0.003980 0.000000 0.021592 0.000000
# 2 -0.003740 0.009554 0.001987 0.000000 0.007021 0.000000
# 3 0.003980 0.001987 0.048829 0.000000 0.033046 0.000000
# 4 0.000000 0.000000 0.000000 0.042504 0.000000 0.006077
# 5 0.021592 0.007021 0.033046 0.000000 0.098079 0.000000
# 6 0.000000 0.000000 0.000000 0.006077 0.000000 0.030901
#
#
# Mechanical properties :
#
#
# Convention : Reuss Voigt Hill
#
# Bulk Modulus (GPa) = 12.32794 46.53399 29.43097
# Shear Modulus (GPa) = 18.46849 29.11274 23.79062
#
# Velocity S-wave (km/s) = 3.03053 3.80491 3.43958
# Velocity P-wave (km/s) = 4.28672 6.51488 5.51451
#
# Compressibility (1/GPa) = 0.08111655
#
# Stress axis : x y z
#
# Youngs Moduli (GPa) = 54.70530 104.66859 20.47983
#
# Poissons Ratio (x) = 0.39148 -0.08151
# Poissons Ratio (y) = 0.20461 -0.04070
# Poissons Ratio (z) = -0.21773 -0.20800
#
# Static dielectric constant tensor:
#      x y z
#    x 3.561740 0.000000 0.079640 
#    y 0.000000 4.163410 0.000000 
#    z 0.079640 0.000000 3.681240 
# 
# 
# High freq. dielectric constant tensor:
#      x y z
#    x 1.751450 0.000000 0.011720 
#    y 0.000000 1.788260 0.000000 
#    z 0.011720 0.000000 1.783460 
# 
# From -- ./inp_files/199201.got.cif
#   From: 2010.06.25/outbox.cif.g09.slc.cpg/sg15_100_cif.got.tgz:199201.got - 2010.06.28 07:06:18.
