data_PCOD8131093
_publ_section_title
;
Structure prediction by ZEFSAII (Michael W. Deem and Ramdas Pophale) SiO2 
 PCOD8131093
Probable space group: C 2/C
;
_chemical_formula_sum "Si O2"
_cell_formula_units_Z 64
_cell_length_a 23.683103
_cell_length_b 21.754660
_cell_length_c 8.825337
_cell_angle_alpha 90.000000
_cell_angle_beta 131.073625
_cell_angle_gamma 90.000000
_cell_volume 3427.806627
_symmetry_space_group_name_H-M "C 2/C"
_symmetry_group_IT_number 15
_symmetry_cell_setting 'monoclinic'
loop_
_space_group_symop_operation_xyz
x,y,z
-x,y,1/2-z
-x,-y,-z
x,-y,1/2+z
1/2+x,1/2+y,z
1/2-x,1/2+y,1/2-z
1/2-x,1/2-y,-z
1/2+x,1/2-y,1/2+z
loop_
_atom_site_type_symbol
_atom_site_label
_atom_site_fract_x
_atom_site_fract_y
_atom_site_fract_z
Si Si1 0.576221 0.241825 0.795103
Si Si2 0.927670 0.621566 0.915682
Si Si3 0.286591 0.070215 0.520755
Si Si4 0.698706 0.327178 0.504588
Si Si5 0.272678 0.052843 0.144554
Si Si6 0.301570 0.305963 0.647920
Si Si7 0.143844 0.727394 0.221832
Si Si8 0.910714 0.384069 0.730366
O O1 0.500000 0.260804 0.750000
O O2 0.565022 0.186480 0.658444
O O3 0.614919 0.299521 0.777470
O O4 0.637515 0.223987 0.029953
O O5 0.872490 0.578149 0.723763
O O6 0.893917 0.628245 0.024305
O O7 0.008008 0.588011 0.081250
O O8 0.290816 0.052928 0.353286
O O9 0.237488 0.130500 0.470181
O O10 0.248591 0.014539 0.546896
O O11 0.701889 0.401188 0.492208
O O12 0.683638 0.304297 0.647236
O O13 0.779460 0.304255 0.592164
O O14 0.638402 0.296448 0.283201
O O15 0.347216 0.072438 0.186371
O O16 0.250000 0.250000 0.500000
O O17 0.081099 0.683997 0.182899
#
# Coordination Sequence:
#
# PCOD8131093 Si02
#       8
#     8   8   8   8   8   8   8   8
#     4  12  22  34  53  84 118 147 189 238 297 343
#     4  11  21  34  55  78 113 160 189 234 274 339
#     4  11  23  37  60  80 113 154 189 241 278 342
#     4   9  19  34  55  81 111 142 187 235 280 343
#     4  10  22  39  55  84 114 147 195 232 285 338
#     4  11  20  36  57  84 108 147 193 238 293 337
#     4  10  18  31  53  80 109 148 177 239 283 330
#     4  10  21  34  52  80 116 151 197 229 279 336
#
# _framework density 18.670832000000001
#
# number of rings (size 3 to 8) (size 9 to 14) (size 15 to 20)
#    0.000    1.500    3.750    3.000    0.000    2.500 
#    0.000    0.000    0.000    0.000    0.000    7.875 
#    0.000    0.000    0.000    0.000    0.000    0.000 
#
# Total GULP energy -396542.164404 kJ/mol
# GULP energy per Si atom -12391.942638 kJ/mol
# Density = 1.862834 g / cm^3
# Si number density = 18.670832 Si / 1000 Ang^3
#
#
#
# Elastic Constant Matrix: (Units=GPa)
#
#
# Indices 1 2 3 4 5 6 
#
# 1 90.5546 41.7475 15.2784 0.0000 -16.4838 0.0000
# 2 41.7475 114.2466 35.2101 0.0000 -11.3967 0.0000
# 3 15.2784 35.2101 65.4710 0.0000 -19.6319 0.0000
# 4 0.0000 0.0000 0.0000 24.7510 0.0000 -7.3652
# 5 -16.4838 -11.3967 -19.6319 0.0000 27.7209 0.0000
# 6 0.0000 0.0000 0.0000 -7.3652 0.0000 27.4019
#
#
#
# Elastic Compliance Matrix: (Units=1/GPa)
#
#
# Indices 1 2 3 4 5 6 
#
# 1 0.014489 -0.005029 0.001634 0.000000 0.007705 0.000000
# 2 -0.005029 0.012241 -0.006091 0.000000 -0.002271 0.000000
# 3 0.001634 -0.006091 0.022483 0.000000 0.014390 0.000000
# 4 0.000000 0.000000 0.000000 0.043915 0.000000 0.011804
# 5 0.007705 -0.002271 0.014390 0.000000 0.049913 0.000000
# 6 0.000000 0.000000 0.000000 0.011804 0.000000 0.039667
#
#
# Mechanical properties :
#
#
# Convention : Reuss Voigt Hill
#
# Bulk Modulus (GPa) = 33.06777 50.52713 41.79745
# Shear Modulus (GPa) = 23.61169 27.84383 25.72776
#
# Velocity S-wave (km/s) = 3.56002 3.86593 3.71612
# Velocity P-wave (km/s) = 5.88623 6.85915 6.39123
#
# Compressibility (1/GPa) = 0.03024092
#
# Stress axis : x y z
#
# Youngs Moduli (GPa) = 69.02017 81.69037 44.47768
#
# Poissons Ratio (x) = 0.41085 -0.07268
# Poissons Ratio (y) = 0.34712 0.27090
# Poissons Ratio (z) = -0.11278 0.49756
#
# Static dielectric constant tensor:
#      x y z
#    x 3.491940 0.000000 -0.090590 
#    y 0.000000 3.539410 0.000000 
#    z -0.090590 0.000000 3.507080 
# 
# 
# High freq. dielectric constant tensor:
#      x y z
#    x 1.719650 0.000000 -0.025860 
#    y 0.000000 1.705260 0.000000 
#    z -0.025860 0.000000 1.722270 
# 
# From -- ./inp_files/57518.got.cif
#   From: 2010.06.25/outbox.cif.g09.slc.cpg/sg15_29_cif.got.tgz:57518.got - 2010.06.28 07:06:18.
