data_PCOD8131637
_publ_section_title
;
Structure prediction by ZEFSAII (Michael W. Deem and Ramdas Pophale) SiO2 
 PCOD8131637
Probable space group: C 2/C
;
_chemical_formula_sum "Si O2"
_cell_formula_units_Z 60
_cell_length_a 29.097455
_cell_length_b 26.484245
_cell_length_c 12.196556
_cell_angle_alpha 90.000000
_cell_angle_beta 20.609716
_cell_angle_gamma 90.000000
_cell_volume 3308.437574
_symmetry_space_group_name_H-M "C 2/C"
_symmetry_group_IT_number 15
_symmetry_cell_setting 'monoclinic'
loop_
_space_group_symop_operation_xyz
x,y,z
-x,y,1/2-z
-x,-y,-z
x,-y,1/2+z
1/2+x,1/2+y,z
1/2-x,1/2+y,1/2-z
1/2-x,1/2-y,-z
1/2+x,1/2-y,1/2+z
loop_
_atom_site_type_symbol
_atom_site_label
_atom_site_fract_x
_atom_site_fract_y
_atom_site_fract_z
Si Si1 0.000000 0.457778 0.750000
Si Si2 0.601883 0.806103 0.308231
Si Si3 0.309932 0.602651 0.766318
Si Si4 0.216196 0.778182 0.408834
Si Si5 0.595598 0.619514 0.184311
Si Si6 0.300920 0.788479 0.976914
Si Si7 0.638580 0.993586 0.634056
Si Si8 0.817104 0.587615 0.841100
O O1 0.889624 0.491013 0.933715
O O2 0.074640 0.424236 0.493635
O O3 0.658902 0.799262 0.303704
O O4 0.455479 0.787531 0.634358
O O5 0.622981 0.864480 0.228640
O O6 0.677283 0.774764 0.047704
O O7 0.448022 0.599161 0.521358
O O8 0.333474 0.600876 0.584080
O O9 0.242561 0.654593 0.953041
O O10 0.217258 0.555333 0.003009
O O11 0.098552 0.819195 0.679949
O O12 0.249301 0.769030 0.208699
O O13 0.674825 0.597796 0.109338
O O14 0.250000 0.750000 0.000000
O O15 0.714525 0.044093 0.499295
O O16 0.500000 0.000000 0.000000
#
# Coordination Sequence:
#
# PCOD8131637 Si02
#       8
#     4   8   8   8   8   8   8   8
#     4  10  18  34  52  76 110 132 180 232 260 328
#     4  10  20  35  57  83 111 149 191 232 283 333
#     4  10  19  34  53  80 108 143 183 228 275 331
#     4   9  20  36  54  84 115 143 190 239 274 334
#     4   9  18  33  57  78 105 142 183 228 273 325
#     4  11  21  33  56  84 114 153 186 229 286 340
#     4  10  20  33  53  79 106 135 180 227 275 318
#     4  10  20  33  57  82 102 145 184 227 279 335
#
# _framework density 18.135449000000001
#
# number of rings (size 3 to 8) (size 9 to 14) (size 15 to 20)
#    0.000    2.133    1.333    2.800    3.733    2.133 
#    0.000    4.000    0.000    0.000    6.933    0.000 
#    0.000    0.000    0.000    0.000    0.000    0.000 
#
# Total GULP energy -371881.204398 kJ/mol
# GULP energy per Si atom -12396.040147 kJ/mol
# Density = 1.809417 g / cm^3
# Si number density = 18.135449 Si / 1000 Ang^3
#
#
#
# Elastic Constant Matrix: (Units=GPa)
#
#
# Indices 1 2 3 4 5 6 
#
# 1 105.7818 69.3809 39.1148 -0.0016 -13.5191 0.0017
# 2 69.3809 145.1765 48.7161 -0.0067 1.9813 0.0024
# 3 39.1148 48.7161 70.8135 -0.0229 -16.5937 0.0076
# 4 -0.0016 -0.0067 -0.0229 28.2777 0.0051 -2.8923
# 5 -13.5191 1.9813 -16.5937 0.0051 23.4318 -0.0031
# 6 0.0017 0.0024 0.0076 -2.8923 -0.0031 27.9538
#
#
#
# Elastic Compliance Matrix: (Units=1/GPa)
#
#
# Indices 1 2 3 4 5 6 
#
# 1 0.015862 -0.007036 -0.001963 -0.000004 0.008356 0.000001
# 2 -0.007036 0.012879 -0.007410 -0.000001 -0.010396 0.000000
# 3 -0.001963 -0.007410 0.024201 0.000014 0.016632 -0.000002
# 4 -0.000004 -0.000001 0.000014 0.035742 0.000001 0.003698
# 5 0.008356 -0.010396 0.016632 0.000001 0.060156 0.000003
# 6 0.000001 0.000000 -0.000002 0.003698 0.000003 0.036156
#
#
# Mechanical properties :
#
#
# Convention : Reuss Voigt Hill
#
# Bulk Modulus (GPa) = 49.69082 70.68837 60.18959
# Shear Modulus (GPa) = 22.26960 26.90332 24.58646
#
# Velocity S-wave (km/s) = 3.50803 3.85576 3.68599
# Velocity P-wave (km/s) = 6.62327 7.67366 7.16773
#
# Compressibility (1/GPa) = 0.02012444
#
# Stress axis : x y z
#
# Youngs Moduli (GPa) = 63.04369 77.64579 41.32057
#
# Poissons Ratio (x) = 0.54630 0.08112
# Poissons Ratio (y) = 0.44357 0.30618
# Poissons Ratio (z) = 0.12376 0.57534
#
# Static dielectric constant tensor:
#      x y z
#    x 3.900610 -0.000050 -0.193650 
#    y -0.000050 3.626400 0.000010 
#    z -0.193650 0.000010 3.151170 
# 
# 
# High freq. dielectric constant tensor:
#      x y z
#    x 1.704090 0.000000 -0.024260 
#    y 0.000000 1.703220 0.000000 
#    z -0.024260 0.000000 1.686220 
# 
# From -- ./inp_files/127516.got.cif
#   From: 2010.06.25/outbox.cif.g09.slc.cpg/sg15_64_cif.got.tgz:127516.got - 2010.06.28 07:06:18.
