data_PCOD8131797
_publ_section_title
;
Structure prediction by ZEFSAII (Michael W. Deem and Ramdas Pophale) SiO2 
 PCOD8131797
Probable space group: C 2/C
;
_chemical_formula_sum "Si O2"
_cell_formula_units_Z 40
_cell_length_a 18.146019
_cell_length_b 7.163058
_cell_length_c 15.332625
_cell_angle_alpha 90.000000
_cell_angle_beta 52.233768
_cell_angle_gamma 90.000000
_cell_volume 1575.458843
_symmetry_space_group_name_H-M "C 2/C"
_symmetry_group_IT_number 15
_symmetry_cell_setting 'monoclinic'
loop_
_space_group_symop_operation_xyz
x,y,z
-x,y,1/2-z
-x,-y,-z
x,-y,1/2+z
1/2+x,1/2+y,z
1/2-x,1/2+y,1/2-z
1/2-x,1/2-y,-z
1/2+x,1/2-y,1/2+z
loop_
_atom_site_type_symbol
_atom_site_label
_atom_site_fract_x
_atom_site_fract_y
_atom_site_fract_z
Si Si1 0.078006 0.195061 0.995285
Si Si2 0.492223 0.654458 0.881718
Si Si3 0.724773 0.116124 0.691655
Si Si4 0.287612 0.003672 0.107392
Si Si5 0.151510 0.720835 0.141657
O O1 0.118362 0.395680 0.999527
O O2 0.002406 0.224787 0.973494
O O3 0.164193 0.075508 0.891480
O O4 0.033255 0.067737 0.103691
O O5 0.405860 0.776757 0.906843
O O6 0.587244 0.680964 0.760731
O O7 0.687384 0.083240 0.816547
O O8 0.672641 0.987878 0.658320
O O9 0.709157 0.333313 0.677169
O O10 0.246659 0.849501 0.068996
#
# Coordination Sequence:
#
# PCOD8131797 Si02
#       5
#     8   8   8   8   8
#     4   9  20  36  58  77 113 136 187 211 274 310
#     4  10  20  34  56  86 106 144 164 240 268 306
#     4  10  18  34  59  80  99 150 182 213 250 341
#     4  10  18  34  59  80  99 150 182 213 250 341
#     4  11  20  36  62  75 111 140 185 209 280 306
#
# _framework density 25.389427999999999
#
# number of rings (size 3 to 8) (size 9 to 14) (size 15 to 20)
#    1.200    0.800    6.000    0.000    0.000    1.600 
#    0.000    4.000    8.800    4.800    0.000    0.000 
#    0.000    0.000    0.000    0.000    0.000    0.000 
#
# Total GULP energy -247827.724108 kJ/mol
# GULP energy per Si atom -12391.386205 kJ/mol
# Density = 2.533164 g / cm^3
# Si number density = 25.389428 Si / 1000 Ang^3
#
#
#
# Elastic Constant Matrix: (Units=GPa)
#
#
# Indices 1 2 3 4 5 6 
#
# 1 136.5486 41.3235 4.5594 0.0001 28.1690 0.0000
# 2 41.3235 109.2925 0.5044 -0.0002 13.4765 0.0004
# 3 4.5594 0.5044 17.6825 -0.0002 -7.3769 0.0001
# 4 0.0001 -0.0002 -0.0002 25.1618 0.0001 1.9197
# 5 28.1690 13.4765 -7.3769 0.0001 34.0568 -0.0001
# 6 0.0000 0.0004 0.0001 1.9197 -0.0001 36.7686
#
#
#
# Elastic Compliance Matrix: (Units=1/GPa)
#
#
# Indices 1 2 3 4 5 6 
#
# 1 0.010138 -0.002741 -0.006136 0.000000 -0.008630 0.000000
# 2 -0.002741 0.010428 -0.000403 0.000000 -0.001947 0.000000
# 3 -0.006136 -0.000403 0.066324 0.000001 0.019601 0.000000
# 4 0.000000 0.000000 0.000001 0.039902 0.000000 -0.002083
# 5 -0.008630 -0.001947 0.019601 0.000000 0.041517 0.000000
# 6 0.000000 0.000000 0.000000 -0.002083 0.000000 0.027306
#
#
# Mechanical properties :
#
#
# Convention : Reuss Voigt Hill
#
# Bulk Modulus (GPa) = 14.63483 39.58869 27.11176
# Shear Modulus (GPa) = 21.10149 33.67322 27.38735
#
# Velocity S-wave (km/s) = 2.88603 3.64575 3.28791
# Velocity P-wave (km/s) = 4.10880 5.77481 5.01152
#
# Compressibility (1/GPa) = 0.06833016
#
# Stress axis : x y z
#
# Youngs Moduli (GPa) = 98.63880 95.89625 15.07755
#
# Poissons Ratio (x) = 0.26283 0.09252
# Poissons Ratio (y) = 0.27034 0.00608
# Poissons Ratio (z) = 0.60526 0.03864
#
# Static dielectric constant tensor:
#      x y z
#    x 4.487820 0.000000 -0.098110 
#    y 0.000000 4.439760 0.000000 
#    z -0.098110 0.000000 4.289530 
# 
# 
# High freq. dielectric constant tensor:
#      x y z
#    x 2.010520 0.000000 -0.006090 
#    y 0.000000 2.009410 0.000000 
#    z -0.006090 0.000000 1.997430 
# 
# From -- ./inp_files/208461.got.cif
#   From: 2010.06.25/outbox.cif.g09.slc.cpg/sg15_105_cif.got.tgz:208461.got - 2010.06.28 07:06:18.
