data_PCOD8131472
_publ_section_title
;
Structure prediction by ZEFSAII (Michael W. Deem and Ramdas Pophale) SiO2 
 PCOD8131472
Probable space group: C 2/C
;
_chemical_formula_sum "Si O2"
_cell_formula_units_Z 60
_cell_length_a 9.711908
_cell_length_b 26.402617
_cell_length_c 26.553758
_cell_angle_alpha 90.000000
_cell_angle_beta 152.626942
_cell_angle_gamma 90.000000
_cell_volume 3130.615554
_symmetry_space_group_name_H-M "C 2/C"
_symmetry_group_IT_number 15
_symmetry_cell_setting 'monoclinic'
loop_
_space_group_symop_operation_xyz
x,y,z
-x,y,1/2-z
-x,-y,-z
x,-y,1/2+z
1/2+x,1/2+y,z
1/2-x,1/2+y,1/2-z
1/2-x,1/2-y,-z
1/2+x,1/2-y,1/2+z
loop_
_atom_site_type_symbol
_atom_site_label
_atom_site_fract_x
_atom_site_fract_y
_atom_site_fract_z
Si Si1 0.644555 0.850242 0.746150
Si Si2 0.599171 0.401795 0.519755
Si Si3 0.317090 0.411607 0.533813
Si Si4 0.500000 0.523075 0.750000
Si Si5 0.408600 0.674394 0.568447
Si Si6 0.248466 0.094359 0.907022
Si Si7 0.681900 0.219549 0.168171
Si Si8 0.138289 0.521916 0.467390
O O1 0.500000 0.828956 0.750000
O O2 0.424190 0.887857 0.646051
O O3 0.694812 0.800066 0.729614
O O4 0.937601 0.883172 0.853093
O O5 0.362456 0.405004 0.488461
O O6 0.474488 0.359794 0.440119
O O7 0.654113 0.455282 0.509708
O O8 0.308884 0.471813 0.542760
O O9 0.998095 0.388566 0.447138
O O10 0.506278 0.558777 0.801354
O O11 0.798947 0.489865 0.839971
O O12 0.409196 0.643579 0.620908
O O13 0.635357 0.720308 0.651052
O O14 0.072344 0.692840 0.447725
O O15 0.401950 0.062740 0.001701
O O16 0.000000 0.204111 0.250000
#
# Coordination Sequence:
#
# PCOD8131472 Si02
#       8
#     8   8   8   4   8   8   8   8
#     4   9  19  33  54  83 107 135 178 232 268 322
#     4   9  19  34  54  78 112 144 177 224 273 314
#     4  10  18  33  54  81 113 140 185 218 270 316
#     4  10  20  34  52  80 112 144 188 220 268 314
#     4   9  20  39  56  79 113 138 180 235 269 333
#     4  10  21  37  54  79 113 147 183 225 265 324
#     4  10  19  37  61  82 102 141 186 224 282 330
#     4  10  21  33  55  78 113 152 185 222 259 327
#
# _framework density 19.165559999999999
#
# number of rings (size 3 to 8) (size 9 to 14) (size 15 to 20)
#    0.000    2.400    0.000    2.800    3.733    0.000 
#    8.400    0.000    0.000    6.400    0.000    0.000 
#    0.000    0.000    0.000    0.000    0.000    0.000 
#
# Total GULP energy -371912.696259 kJ/mol
# GULP energy per Si atom -12397.089875 kJ/mol
# Density = 1.912194 g / cm^3
# Si number density = 19.165560 Si / 1000 Ang^3
#
#
#
# Elastic Constant Matrix: (Units=GPa)
#
#
# Indices 1 2 3 4 5 6 
#
# 1 109.3798 29.4068 23.2551 0.0001 -0.7147 0.0022
# 2 29.4068 78.4500 16.4562 -0.0042 -5.9141 0.0117
# 3 23.2551 16.4562 59.1035 -0.0317 -4.0428 0.1012
# 4 0.0001 -0.0042 -0.0317 22.4910 0.0077 -8.2447
# 5 -0.7147 -5.9141 -4.0428 0.0077 22.8310 0.0305
# 6 0.0022 0.0117 0.1012 -8.2447 0.0305 22.5964
#
#
#
# Elastic Compliance Matrix: (Units=1/GPa)
#
#
# Indices 1 2 3 4 5 6 
#
# 1 0.010769 -0.003417 -0.003364 0.000001 -0.001144 0.000018
# 2 -0.003417 0.014811 -0.002555 -0.000002 0.003277 -0.000001
# 3 -0.003364 -0.002555 0.019134 -0.000007 0.002621 -0.000090
# 4 0.000001 -0.000002 -0.000007 0.051328 -0.000044 0.018728
# 5 -0.001144 0.003277 0.002621 -0.000044 0.045077 -0.000090
# 6 0.000018 -0.000001 -0.000090 0.018728 -0.000090 0.051089
#
#
# Mechanical properties :
#
#
# Convention : Reuss Voigt Hill
#
# Bulk Modulus (GPa) = 38.40076 42.79660 40.59868
# Shear Modulus (GPa) = 22.77278 25.43802 24.10540
#
# Velocity S-wave (km/s) = 3.45079 3.64713 3.55032
# Velocity P-wave (km/s) = 5.99642 6.33355 6.16729
#
# Compressibility (1/GPa) = 0.02604115
#
# Stress axis : x y z
#
# Youngs Moduli (GPa) = 92.85971 67.51753 52.26320
#
# Poissons Ratio (x) = 0.23073 0.17581
# Poissons Ratio (y) = 0.31733 0.13354
# Poissons Ratio (z) = 0.31238 0.17251
#
# Static dielectric constant tensor:
#      x y z
#    x 3.794570 0.000000 -0.162430 
#    y 0.000000 3.502500 -0.000120 
#    z -0.162430 -0.000120 3.317140 
# 
# 
# High freq. dielectric constant tensor:
#      x y z
#    x 1.755010 0.000000 -0.004100 
#    y 0.000000 1.740690 -0.000010 
#    z -0.004100 -0.000010 1.729750 
# 
# From -- ./inp_files/290307.got.cif
#   From: 2010.06.25/outbox.cif.g09.slc.cpg/sg15_146_cif.got.tgz:290307.got - 2010.06.28 07:06:18.
