data_PCOD8131441
_publ_section_title
;
Structure prediction by ZEFSAII (Michael W. Deem and Ramdas Pophale) SiO2 
 PCOD8131441
Probable space group: C 2/C
;
_chemical_formula_sum "Si O2"
_cell_formula_units_Z 64
_cell_length_a 16.224169
_cell_length_b 12.015531
_cell_length_c 22.381466
_cell_angle_alpha 90.000000
_cell_angle_beta 122.711195
_cell_angle_gamma 90.000000
_cell_volume 3671.124859
_symmetry_space_group_name_H-M "C 2/C"
_symmetry_group_IT_number 15
_symmetry_cell_setting 'monoclinic'
loop_
_space_group_symop_operation_xyz
x,y,z
-x,y,1/2-z
-x,-y,-z
x,-y,1/2+z
1/2+x,1/2+y,z
1/2-x,1/2+y,1/2-z
1/2-x,1/2-y,-z
1/2+x,1/2-y,1/2+z
loop_
_atom_site_type_symbol
_atom_site_label
_atom_site_fract_x
_atom_site_fract_y
_atom_site_fract_z
Si Si1 0.363153 0.035272 0.819406
Si Si2 0.704415 0.183399 0.152440
Si Si3 0.514457 0.590182 0.417640
Si Si4 0.176637 0.779815 0.682784
Si Si5 0.445080 0.078663 0.669045
Si Si6 0.772955 0.471059 0.661543
Si Si7 0.913798 0.888798 0.425330
Si Si8 0.676522 0.713974 0.420101
O O1 0.337866 0.151826 0.841748
O O2 0.477455 0.027286 0.846729
O O3 0.342866 0.937509 0.858057
O O4 0.294782 0.024788 0.734517
O O5 0.777862 0.215410 0.233705
O O6 0.616027 0.272681 0.116551
O O7 0.763868 0.180080 0.114611
O O8 0.427134 0.659103 0.353501
O O9 0.485154 0.459084 0.409017
O O10 0.531079 0.635920 0.491199
O O11 0.611583 0.608290 0.415920
O O12 0.245786 0.841030 0.660754
O O13 0.500000 0.120826 0.750000
O O14 0.394486 0.183416 0.619545
O O15 0.366180 0.982359 0.654441
O O16 0.682902 0.538311 0.597579
O O17 0.750000 0.750000 0.500000
#
# Coordination Sequence:
#
# PCOD8131441 Si02
#       8
#     8   8   8   8   8   8   8   8
#     4  10  19  32  52  82 106 138 179 222 270 320
#     4  11  21  34  56  80 113 141 173 225 277 316
#     4  10  21  32  56  79 106 140 182 222 261 323
#     4  10  19  34  53  80 110 142 181 216 271 326
#     4  10  18  33  53  76 103 137 182 216 259 322
#     4   9  17  31  55  75 103 145 180 221 261 320
#     4  10  18  36  52  78 106 142 180 216 270 322
#     4  12  21  34  53  81 105 135 181 230 270 310
#
# _framework density 17.433347999999999
#
# number of rings (size 3 to 8) (size 9 to 14) (size 15 to 20)
#    0.000    1.750    5.000    0.750    0.000    0.000 
#    0.000    3.750    0.000    0.000    0.000    7.000 
#    0.000    0.000    0.000    0.000    0.000    0.000 
#
# Total GULP energy -396771.949385 kJ/mol
# GULP energy per Si atom -12399.123418 kJ/mol
# Density = 1.739367 g / cm^3
# Si number density = 17.433348 Si / 1000 Ang^3
#
#
#
# Elastic Constant Matrix: (Units=GPa)
#
#
# Indices 1 2 3 4 5 6 
#
# 1 108.9812 59.4372 26.8285 0.0000 1.2074 0.0000
# 2 59.4372 116.7182 21.7234 0.0000 -9.9367 0.0000
# 3 26.8285 21.7234 68.6791 0.0000 2.1641 0.0000
# 4 0.0000 0.0000 0.0000 23.7201 0.0000 5.5110
# 5 1.2074 -9.9367 2.1641 0.0000 18.1400 0.0000
# 6 0.0000 0.0000 0.0000 5.5110 0.0000 35.2304
#
#
#
# Elastic Compliance Matrix: (Units=1/GPa)
#
#
# Indices 1 2 3 4 5 6 
#
# 1 0.013656 -0.006744 -0.003068 0.000000 -0.004237 0.000000
# 2 -0.006744 0.012983 -0.001717 0.000000 0.007765 0.000000
# 3 -0.003068 -0.001717 0.016387 0.000000 -0.002691 0.000000
# 4 0.000000 0.000000 0.000000 0.043748 0.000000 -0.006843
# 5 -0.004237 0.007765 -0.002691 0.000000 0.059984 0.000000
# 6 0.000000 0.000000 0.000000 -0.006843 0.000000 0.029455
#
#
# Mechanical properties :
#
#
# Convention : Reuss Voigt Hill
#
# Bulk Modulus (GPa) = 50.07946 56.70629 53.39288
# Shear Modulus (GPa) = 24.28063 27.84407 26.06235
#
# Velocity S-wave (km/s) = 3.73603 4.00080 3.87068
# Velocity P-wave (km/s) = 6.88471 7.34438 7.11826
#
# Compressibility (1/GPa) = 0.01996827
#
# Stress axis : x y z
#
# Youngs Moduli (GPa) = 73.22697 77.02675 61.02514
#
# Poissons Ratio (x) = 0.51946 0.18722
# Poissons Ratio (y) = 0.49384 0.10476
# Poissons Ratio (z) = 0.22466 0.13223
#
# Static dielectric constant tensor:
#      x y z
#    x 3.323830 0.000000 0.207030 
#    y 0.000000 3.406920 0.000000 
#    z 0.207030 0.000000 3.374040 
# 
# 
# High freq. dielectric constant tensor:
#      x y z
#    x 1.664020 0.000000 0.021620 
#    y 0.000000 1.663200 0.000000 
#    z 0.021620 0.000000 1.676600 
# 
# From -- ./inp_files/210350.got.cif
#   From: 2010.06.25/outbox.cif.g09.slc.cpg/sg15_106_cif.got.tgz:210350.got - 2010.06.28 07:06:18.
