data_PCOD8131729
_publ_section_title
;
Structure prediction by ZEFSAII (Michael W. Deem and Ramdas Pophale) SiO2 
 PCOD8131729
Probable space group: C 2/C
;
_chemical_formula_sum "Si O2"
_cell_formula_units_Z 52
_cell_length_a 11.089331
_cell_length_b 16.045534
_cell_length_c 13.923042
_cell_angle_alpha 90.000000
_cell_angle_beta 73.658920
_cell_angle_gamma 90.000000
_cell_volume 2377.308920
_symmetry_space_group_name_H-M "C 2/C"
_symmetry_group_IT_number 15
_symmetry_cell_setting 'monoclinic'
loop_
_space_group_symop_operation_xyz
x,y,z
-x,y,1/2-z
-x,-y,-z
x,-y,1/2+z
1/2+x,1/2+y,z
1/2-x,1/2+y,1/2-z
1/2-x,1/2-y,-z
1/2+x,1/2-y,1/2+z
loop_
_atom_site_type_symbol
_atom_site_label
_atom_site_fract_x
_atom_site_fract_y
_atom_site_fract_z
Si Si1 0.734990 0.980434 0.178951
Si Si2 0.493832 0.456022 0.602501
Si Si3 0.346988 0.127946 0.187430
Si Si4 0.902825 0.790458 0.691797
Si Si5 0.243636 0.355422 0.337955
Si Si6 0.500000 0.261743 0.250000
Si Si7 0.267956 0.984305 0.546876
O O1 0.877418 0.000877 0.182353
O O2 0.644659 0.056549 0.231254
O O3 0.709169 0.895712 0.241903
O O4 0.718623 0.967519 0.068937
O O5 0.500000 0.500000 0.500000
O O6 0.465491 0.357572 0.605875
O O7 0.628428 0.467772 0.621873
O O8 0.214420 0.174203 0.222555
O O9 0.453993 0.198761 0.175423
O O10 0.360529 0.079526 0.081954
O O11 0.856296 0.718769 0.630129
O O12 0.000000 0.758095 0.750000
O O13 0.386543 0.320218 0.312978
O O14 0.209512 0.418919 0.431857
#
# Coordination Sequence:
#
# PCOD8131729 Si02
#       7
#     8   8   8   8   8   4   8
#     4   9  19  35  56  87 110 147 198 230 278 344
#     4   9  17  31  59  86 108 145 196 241 272 336
#     4   9  19  35  60  77 111 158 179 234 281 350
#     4  10  18  34  57  83 115 143 185 237 293 326
#     4  10  21  35  59  84 112 151 186 242 286 337
#     4  10  20  38  54  80 118 148 186 228 302 334
#     4  10  18  36  60  83 111 149 199 232 279 344
#
# _framework density 21.873473000000001
#
# number of rings (size 3 to 8) (size 9 to 14) (size 15 to 20)
#    0.000    2.462    1.538    0.923    0.000    0.000 
#    5.538   19.231   10.154    0.000    0.000    0.000 
#    0.000    0.000    0.000    0.000    0.000    0.000 
#
# Total GULP energy -322099.435812 kJ/mol
# GULP energy per Si atom -12388.439839 kJ/mol
# Density = 2.182369 g / cm^3
# Si number density = 21.873473 Si / 1000 Ang^3
#
#
#
# Elastic Constant Matrix: (Units=GPa)
#
#
# Indices 1 2 3 4 5 6 
#
# 1 64.9092 34.0230 16.6970 0.0000 15.4129 0.0000
# 2 34.0230 106.0515 20.4870 0.0000 5.0312 0.0000
# 3 16.6970 20.4870 85.8640 0.0000 24.0096 0.0000
# 4 0.0000 0.0000 0.0000 20.6000 0.0000 5.7082
# 5 15.4129 5.0312 24.0096 0.0000 20.7876 0.0000
# 6 0.0000 0.0000 0.0000 5.7082 0.0000 42.3385
#
#
#
# Elastic Compliance Matrix: (Units=1/GPa)
#
#
# Indices 1 2 3 4 5 6 
#
# 1 0.022615 -0.006837 0.002156 0.000000 -0.017603 0.000000
# 2 -0.006837 0.011955 -0.003148 0.000000 0.005812 0.000000
# 3 0.002156 -0.003148 0.018038 0.000000 -0.021670 0.000000
# 4 0.000000 0.000000 0.000000 0.050428 0.000000 -0.006799
# 5 -0.017603 0.005812 -0.021670 0.000000 0.084779 0.000000
# 6 0.000000 0.000000 0.000000 -0.006799 0.000000 0.024536
#
#
# Mechanical properties :
#
#
# Convention : Reuss Voigt Hill
#
# Bulk Modulus (GPa) = 27.06362 44.35985 35.71173
# Shear Modulus (GPa) = 20.80514 29.11974 24.96244
#
# Velocity S-wave (km/s) = 3.08743 3.65263 3.38186
# Velocity P-wave (km/s) = 5.01092 6.17359 5.62239
#
# Compressibility (1/GPa) = 0.03694997
#
# Stress axis : x y z
#
# Youngs Moduli (GPa) = 44.21840 83.64615 55.43957
#
# Poissons Ratio (x) = 0.57186 -0.11952
# Poissons Ratio (y) = 0.30230 0.17453
# Poissons Ratio (z) = -0.09533 0.26332
#
# Static dielectric constant tensor:
#      x y z
#    x 3.963720 0.000000 -0.139660 
#    y 0.000000 4.144750 0.000000 
#    z -0.139660 0.000000 3.442980 
# 
# 
# High freq. dielectric constant tensor:
#      x y z
#    x 1.860910 0.000000 0.010970 
#    y 0.000000 1.870480 0.000000 
#    z 0.010970 0.000000 1.823600 
# 
# From -- ./inp_files/144138.got.cif
#   From: 2010.06.25/outbox.cif.g09.slc.cpg/sg15_73_cif.got.tgz:144138.got - 2010.06.28 07:06:18.
