data_PCOD8131799
_publ_section_title
;
Structure prediction by ZEFSAII (Michael W. Deem and Ramdas Pophale) SiO2 
 PCOD8131799
Probable space group: C 2/C
;
_chemical_formula_sum "Si O2"
_cell_formula_units_Z 64
_cell_length_a 15.818930
_cell_length_b 23.676441
_cell_length_c 9.885907
_cell_angle_alpha 90.000000
_cell_angle_beta 117.535871
_cell_angle_gamma 90.000000
_cell_volume 3283.199858
_symmetry_space_group_name_H-M "C 2/C"
_symmetry_group_IT_number 15
_symmetry_cell_setting 'monoclinic'
loop_
_space_group_symop_operation_xyz
x,y,z
-x,y,1/2-z
-x,-y,-z
x,-y,1/2+z
1/2+x,1/2+y,z
1/2-x,1/2+y,1/2-z
1/2-x,1/2-y,-z
1/2+x,1/2-y,1/2+z
loop_
_atom_site_type_symbol
_atom_site_label
_atom_site_fract_x
_atom_site_fract_y
_atom_site_fract_z
Si Si1 0.906745 0.234058 0.626184
Si Si2 0.237952 0.744062 0.699197
Si Si3 0.637648 0.572326 0.744409
Si Si4 0.247657 0.356945 0.382680
Si Si5 0.792276 0.133801 0.215097
Si Si6 0.611365 0.044373 0.810461
Si Si7 0.066913 0.112483 0.959759
Si Si8 0.792509 0.482324 0.851969
O O1 0.853214 0.266674 0.465524
O O2 0.833224 0.224211 0.693867
O O3 0.952614 0.176017 0.603971
O O4 0.000000 0.268425 0.750000
O O5 0.222551 0.707301 0.823153
O O6 0.247832 0.809743 0.745143
O O7 0.693591 0.617827 0.697745
O O8 0.642528 0.586353 0.908168
O O9 0.528128 0.573936 0.612126
O O10 0.687911 0.511519 0.761299
O O11 0.308934 0.357395 0.566934
O O12 0.150409 0.391658 0.331047
O O13 0.891186 0.114429 0.357860
O O14 0.716269 0.084166 0.186379
O O15 0.500000 0.048269 0.750000
O O16 0.630373 0.010310 0.688024
O O17 0.665916 0.009766 0.967299
#
# Coordination Sequence:
#
# PCOD8131799 Si02
#       8
#     8   8   8   8   8   8   8   8
#     4  10  18  35  58  87 115 145 199 243 285 342
#     4  10  20  36  60  82 118 158 192 242 294 341
#     4  10  19  34  62  82 114 152 188 238 286 346
#     4  10  20  38  57  83 116 154 192 233 301 343
#     4  10  22  35  55  83 122 153 192 236 284 352
#     4  10  21  39  62  81 112 149 195 246 288 351
#     4  10  18  34  59  87 112 149 192 232 282 341
#     4  10  21  38  57  86 113 151 192 237 295 343
#
# _framework density 19.493179999999999
#
# number of rings (size 3 to 8) (size 9 to 14) (size 15 to 20)
#    0.000    2.000    2.500    1.500    0.000    1.000 
#    4.500    3.125    2.750    0.000    0.000    0.000 
#    0.000    0.000    0.000    0.000    0.000    0.000 
#
# Total GULP energy -396655.206079 kJ/mol
# GULP energy per Si atom -12395.475190 kJ/mol
# Density = 1.944881 g / cm^3
# Si number density = 19.493180 Si / 1000 Ang^3
#
#
#
# Elastic Constant Matrix: (Units=GPa)
#
#
# Indices 1 2 3 4 5 6 
#
# 1 116.8253 35.9976 56.8190 0.0000 10.8065 0.0000
# 2 35.9976 84.4169 50.7031 0.0000 -0.0443 0.0000
# 3 56.8190 50.7031 129.0353 0.0000 7.2061 0.0000
# 4 0.0000 0.0000 0.0000 26.1450 0.0000 -4.3669
# 5 10.8065 -0.0443 7.2061 0.0000 25.3596 0.0000
# 6 0.0000 0.0000 0.0000 -4.3669 0.0000 15.5611
#
#
#
# Elastic Compliance Matrix: (Units=1/GPa)
#
#
# Indices 1 2 3 4 5 6 
#
# 1 0.011605 -0.002632 -0.003861 0.000000 -0.003853 0.000000
# 2 -0.002632 0.016182 -0.005349 0.000000 0.002670 0.000000
# 3 -0.003861 -0.005349 0.011645 0.000000 -0.001673 0.000000
# 4 0.000000 0.000000 0.000000 0.040129 0.000000 0.011262
# 5 -0.003853 0.002670 -0.001673 0.000000 0.041555 0.000000
# 6 0.000000 0.000000 0.000000 0.011262 0.000000 0.067423
#
#
# Mechanical properties :
#
#
# Convention : Reuss Voigt Hill
#
# Bulk Modulus (GPa) = 63.49450 68.59077 66.04263
# Shear Modulus (GPa) = 22.99147 25.86366 24.42756
#
# Velocity S-wave (km/s) = 3.43806 3.64649 3.54380
# Velocity P-wave (km/s) = 6.95728 7.27960 7.12026
#
# Compressibility (1/GPa) = 0.01574940
#
# Stress axis : x y z
#
# Youngs Moduli (GPa) = 86.17120 61.79578 85.87312
#
# Poissons Ratio (x) = 0.16263 0.33153
# Poissons Ratio (y) = 0.22678 0.45933
# Poissons Ratio (z) = 0.33269 0.33054
#
# Static dielectric constant tensor:
#      x y z
#    x 3.348320 0.000000 0.007170 
#    y 0.000000 3.474040 0.000000 
#    z 0.007170 0.000000 3.848700 
# 
# 
# High freq. dielectric constant tensor:
#      x y z
#    x 1.739400 0.000000 -0.003250 
#    y 0.000000 1.749210 0.000000 
#    z -0.003250 0.000000 1.775060 
# 
# From -- ./inp_files/43586.got.cif
#   From: 2010.06.25/outbox.cif.g09.slc.cpg/sg15_22_cif.got.tgz:43586.got - 2010.06.28 07:06:18.
