data_PCOD8131203
_publ_section_title
;
Structure prediction by ZEFSAII (Michael W. Deem and Ramdas Pophale) SiO2 
 PCOD8131203
Probable space group: C 2/C
;
_chemical_formula_sum "Si O2"
_cell_formula_units_Z 64
_cell_length_a 16.506543
_cell_length_b 12.068626
_cell_length_c 20.385511
_cell_angle_alpha 90.000000
_cell_angle_beta 122.142296
_cell_angle_gamma 90.000000
_cell_volume 3438.588476
_symmetry_space_group_name_H-M "C 2/C"
_symmetry_group_IT_number 15
_symmetry_cell_setting 'monoclinic'
loop_
_space_group_symop_operation_xyz
x,y,z
-x,y,1/2-z
-x,-y,-z
x,-y,1/2+z
1/2+x,1/2+y,z
1/2-x,1/2+y,1/2-z
1/2-x,1/2-y,-z
1/2+x,1/2-y,1/2+z
loop_
_atom_site_type_symbol
_atom_site_label
_atom_site_fract_x
_atom_site_fract_y
_atom_site_fract_z
Si Si1 0.731733 0.660048 0.826157
Si Si2 0.938645 0.137500 0.660418
Si Si3 0.800296 0.234161 0.090312
Si Si4 0.223487 0.413903 0.668203
Si Si5 0.445242 0.591530 0.094672
Si Si6 0.682358 0.418709 0.084033
Si Si7 0.658401 0.627737 0.155351
Si Si8 0.906011 0.770491 0.349583
O O1 0.672043 0.660813 0.869126
O O2 0.789730 0.545262 0.843536
O O3 0.809902 0.756396 0.862532
O O4 0.661395 0.673564 0.734339
O O5 0.000000 0.163493 0.750000
O O6 0.982036 0.220452 0.623273
O O7 0.956961 0.011380 0.647983
O O8 0.751113 0.134736 0.109508
O O9 0.909772 0.198047 0.122543
O O10 0.783614 0.350744 0.121531
O O11 0.750000 0.250000 0.000000
O O12 0.308371 0.384030 0.755346
O O13 0.124611 0.357312 0.651267
O O14 0.544230 0.621838 0.102688
O O15 0.365956 0.557286 0.006806
O O16 0.705901 0.531994 0.131449
O O17 0.606765 0.342973 0.090671
#
# Coordination Sequence:
#
# PCOD8131203 Si02
#       8
#     8   8   8   8   8   8   8   8
#     4  10  19  33  52  79 109 133 173 226 266 313
#     4  10  18  32  51  78 102 131 179 218 260 310
#     4   9  20  34  55  78 106 143 180 217 270 318
#     4  10  18  34  55  77 110 141 174 221 274 320
#     4  11  20  32  56  79 104 137 182 226 257 310
#     4  10  19  35  52  78 107 138 176 217 270 321
#     4  11  21  32  54  85 108 136 176 226 272 316
#     4   9  18  31  54  76 101 140 177 213 261 318
#
# _framework density 18.612289000000001
#
# number of rings (size 3 to 8) (size 9 to 14) (size 15 to 20)
#    0.000    2.000    3.750    1.125    0.000    0.000 
#    0.000    1.875    0.000    6.750    0.000    0.000 
#    0.000    0.000    0.000    0.000    0.000    0.000 
#
# Total GULP energy -396595.881393 kJ/mol
# GULP energy per Si atom -12393.621294 kJ/mol
# Density = 1.856993 g / cm^3
# Si number density = 18.612289 Si / 1000 Ang^3
#
#
#
# Elastic Constant Matrix: (Units=GPa)
#
#
# Indices 1 2 3 4 5 6 
#
# 1 108.9471 71.4245 13.7737 0.0000 -10.2510 0.0000
# 2 71.4245 146.8803 17.1334 0.0000 -6.1328 0.0000
# 3 13.7737 17.1334 33.7521 0.0000 -12.0242 0.0000
# 4 0.0000 0.0000 0.0000 17.5278 0.0000 -5.3374
# 5 -10.2510 -6.1328 -12.0242 0.0000 21.6566 0.0000
# 6 0.0000 0.0000 0.0000 -5.3374 0.0000 39.0903
#
#
#
# Elastic Compliance Matrix: (Units=1/GPa)
#
#
# Indices 1 2 3 4 5 6 
#
# 1 0.013957 -0.006507 -0.000867 0.000000 0.004283 0.000000
# 2 -0.006507 0.010271 -0.003265 0.000000 -0.001985 0.000000
# 3 -0.000867 -0.003265 0.038847 0.000000 0.020234 0.000000
# 4 0.000000 0.000000 0.000000 0.059527 0.000000 0.008128
# 5 0.004283 -0.001985 0.020234 0.000000 0.058875 0.000000
# 6 0.000000 0.000000 0.000000 0.008128 0.000000 0.026692
#
#
# Mechanical properties :
#
#
# Convention : Reuss Voigt Hill
#
# Bulk Modulus (GPa) = 23.92526 54.91584 39.42055
# Shear Modulus (GPa) = 20.54407 28.13815 24.34111
#
# Velocity S-wave (km/s) = 3.32594 3.89241 3.62027
# Velocity P-wave (km/s) = 5.25658 7.05481 6.22101
#
# Compressibility (1/GPa) = 0.04179682
#
# Stress axis : x y z
#
# Youngs Moduli (GPa) = 71.64677 97.36554 25.74185
#
# Poissons Ratio (x) = 0.63358 0.02232
# Poissons Ratio (y) = 0.46622 0.08405
# Poissons Ratio (z) = 0.06211 0.31791
#
# Static dielectric constant tensor:
#      x y z
#    x 3.871730 0.000000 -0.330670 
#    y 0.000000 3.519820 0.000000 
#    z -0.330670 0.000000 3.213610 
# 
# 
# High freq. dielectric constant tensor:
#      x y z
#    x 1.721200 0.000000 -0.032100 
#    y 0.000000 1.714730 0.000000 
#    z -0.032100 0.000000 1.700760 
# 
# From -- ./inp_files/248402.got.cif
#   From: 2010.06.25/outbox.cif.g09.slc.cpg/sg15_125_cif.got.tgz:248402.got - 2010.06.28 07:06:18.
