data_PCOD8131935
_publ_section_title
;
Structure prediction by ZEFSAII (Michael W. Deem and Ramdas Pophale) SiO2 
 PCOD8131935
Probable space group: C 2/C
;
_chemical_formula_sum "Si O2"
_cell_formula_units_Z 48
_cell_length_a 23.358757
_cell_length_b 16.286765
_cell_length_c 12.227381
_cell_angle_alpha 90.000000
_cell_angle_beta 155.794107
_cell_angle_gamma 90.000000
_cell_volume 1907.303051
_symmetry_space_group_name_H-M "C 2/C"
_symmetry_group_IT_number 15
_symmetry_cell_setting 'monoclinic'
loop_
_space_group_symop_operation_xyz
x,y,z
-x,y,1/2-z
-x,-y,-z
x,-y,1/2+z
1/2+x,1/2+y,z
1/2-x,1/2+y,1/2-z
1/2-x,1/2-y,-z
1/2+x,1/2-y,1/2+z
loop_
_atom_site_type_symbol
_atom_site_label
_atom_site_fract_x
_atom_site_fract_y
_atom_site_fract_z
Si Si1 0.272058 0.660716 0.593222
Si Si2 0.271811 0.985416 0.613783
Si Si3 0.533851 0.079553 0.690880
Si Si4 0.188648 0.131914 0.595099
Si Si5 0.986389 0.286731 0.610011
Si Si6 0.410962 0.260621 0.755879
O O1 0.250000 0.750000 0.500000
O O2 0.325619 0.587613 0.606425
O O3 0.352772 0.656003 0.851562
O O4 0.105840 0.642529 0.326980
O O5 0.316454 0.048359 0.594279
O O6 0.192545 0.034372 0.573742
O O7 0.410269 0.942239 0.895435
O O8 0.500000 0.041337 0.750000
O O9 0.531687 0.177652 0.696394
O O10 0.074886 0.168344 0.311130
O O11 0.341645 0.167986 0.835604
O O12 0.999071 0.222740 0.526092
O O13 0.000000 0.237196 0.750000
O O14 0.250000 0.250000 0.500000
#
# Coordination Sequence:
#
# PCOD8131935 Si02
#       6
#     8   8   8   8   8   8
#     4  11  23  37  56  88 126 158 206 251 305 362
#     4  11  20  38  54  86 124 155 199 252 313 371
#     4  11  21  32  59  89 118 152 199 251 311 358
#     4  10  21  37  61  86 123 163 193 250 315 371
#     4   9  17  35  57  81 119 159 190 243 302 366
#     4  10  18  35  55  87 119 157 197 238 310 373
#
# _framework density 25.166425
#
# number of rings (size 3 to 8) (size 9 to 14) (size 15 to 20)
#    0.000    1.667    5.000    2.000    2.333    1.333 
#    0.000    0.000    0.000    1.000    0.000    3.500 
#    0.000    0.000    0.000    0.000    0.000    0.000 
#
# Total GULP energy -297314.080737 kJ/mol
# GULP energy per Si atom -12388.086697 kJ/mol
# Density = 2.510915 g / cm^3
# Si number density = 25.166425 Si / 1000 Ang^3
#
#
#
# Elastic Constant Matrix: (Units=GPa)
#
#
# Indices 1 2 3 4 5 6 
#
# 1 128.3879 50.0557 33.8292 0.0000 -53.4109 0.0000
# 2 50.0557 150.4898 30.8925 0.0000 -36.9875 0.0000
# 3 33.8292 30.8925 135.8518 0.0000 -49.4633 0.0000
# 4 0.0000 0.0000 0.0000 22.0616 0.0000 -8.2877
# 5 -53.4109 -36.9875 -49.4633 0.0000 43.1120 0.0000
# 6 0.0000 0.0000 0.0000 -8.2877 0.0000 41.6218
#
#
#
# Elastic Compliance Matrix: (Units=1/GPa)
#
#
# Indices 1 2 3 4 5 6 
#
# 1 0.018978 -0.000037 0.006581 0.000000 0.031031 0.000000
# 2 -0.000037 0.008542 0.001234 0.000000 0.008699 0.000000
# 3 0.006581 0.001234 0.015106 0.000000 0.026542 0.000000
# 4 0.000000 0.000000 0.000000 0.048992 0.000000 0.009755
# 5 0.031031 0.008699 0.026542 0.000000 0.099555 0.000000
# 6 0.000000 0.000000 0.000000 0.009755 0.000000 0.025968
#
#
# Mechanical properties :
#
#
# Convention : Reuss Voigt Hill
#
# Bulk Modulus (GPa) = 17.18755 71.58716 44.38735
# Shear Modulus (GPa) = 22.62656 41.35589 31.99122
#
# Velocity S-wave (km/s) = 3.00171 4.05816 3.56924
# Velocity P-wave (km/s) = 4.34259 7.10390 5.88742
#
# Compressibility (1/GPa) = 0.05818164
#
# Stress axis : x y z
#
# Youngs Moduli (GPa) = 52.69143 117.07094 66.20012
#
# Poissons Ratio (x) = 0.00429 -0.43564
# Poissons Ratio (y) = 0.00193 -0.08168
# Poissons Ratio (z) = -0.34674 -0.14445
#
# Static dielectric constant tensor:
#      x y z
#    x 5.261470 0.000000 0.045630 
#    y 0.000000 4.694350 0.000000 
#    z 0.045630 0.000000 5.641560 
# 
# 
# High freq. dielectric constant tensor:
#      x y z
#    x 2.016860 0.000000 -0.013230 
#    y 0.000000 1.969660 0.000000 
#    z -0.013230 0.000000 2.022090 
# 
# From -- ./inp_files/119487.got.cif
#   From: 2010.06.25/outbox.cif.g09.slc.cpg/sg15_60_cif.got.tgz:119487.got - 2010.06.28 07:06:18.
