data_PCOD8131545
_publ_section_title
;
Structure prediction by ZEFSAII (Michael W. Deem and Ramdas Pophale) SiO2 
 PCOD8131545
Probable space group: C 2/C
;
_chemical_formula_sum "Si O2"
_cell_formula_units_Z 32
_cell_length_a 11.129136
_cell_length_b 7.913673
_cell_length_c 13.660124
_cell_angle_alpha 90.000000
_cell_angle_beta 122.536838
_cell_angle_gamma 90.000000
_cell_volume 1014.250827
_symmetry_space_group_name_H-M "C 2/C"
_symmetry_group_IT_number 15
_symmetry_cell_setting 'monoclinic'
loop_
_space_group_symop_operation_xyz
x,y,z
-x,y,1/2-z
-x,-y,-z
x,-y,1/2+z
1/2+x,1/2+y,z
1/2-x,1/2+y,1/2-z
1/2-x,1/2-y,-z
1/2+x,1/2-y,1/2+z
loop_
_atom_site_type_symbol
_atom_site_label
_atom_site_fract_x
_atom_site_fract_y
_atom_site_fract_z
Si Si1 0.970973 0.366175 0.571468
Si Si2 0.956523 0.184623 0.340945
Si Si3 0.179144 0.040773 0.990189
Si Si4 0.687562 0.643018 0.769930
O O1 0.896928 0.197605 0.484975
O O2 0.848681 0.459404 0.585257
O O3 0.000000 0.500000 0.500000
O O4 0.108804 0.312366 0.694165
O O5 0.863268 0.014573 0.317852
O O6 0.000000 0.220727 0.250000
O O7 0.104871 0.144505 0.468132
O O8 0.859096 0.344534 0.329164
O O9 0.145205 0.106448 0.863476
#
# Coordination Sequence:
#
# PCOD8131545 Si02
#       4
#     8   8   8   8
#     4  10  18  33  58  83 110 146 186 228 276 329
#     4   9  18  35  57  81 109 145 185 225 273 327
#     4   9  20  36  56  82 113 148 184 226 278 332
#     4  10  19  36  61  83 112 152 185 226 282 332
#
# _framework density 31.550381999999999
#
# number of rings (size 3 to 8) (size 9 to 14) (size 15 to 20)
#    0.000    2.500    0.000    5.250    0.000    2.000 
#    0.000   20.000    0.000   13.500    0.000    0.000 
#    0.000    0.000    0.000    0.000    0.000    0.000 
#
# Total GULP energy -198220.460343 kJ/mol
# GULP energy per Si atom -12388.778771 kJ/mol
# Density = 3.147857 g / cm^3
# Si number density = 31.550382 Si / 1000 Ang^3
#
#
#
# Elastic Constant Matrix: (Units=GPa)
#
#
# Indices 1 2 3 4 5 6 
#
# 1 148.2988 21.8715 16.7639 0.0000 32.3985 0.0000
# 2 21.8715 93.0714 7.6513 0.0000 -7.6178 0.0000
# 3 16.7639 7.6513 82.9341 0.0000 15.1492 0.0000
# 4 0.0000 0.0000 0.0000 55.6139 0.0000 7.7243
# 5 32.3985 -7.6178 15.1492 0.0000 41.9122 0.0000
# 6 0.0000 0.0000 0.0000 7.7243 0.0000 55.0559
#
#
#
# Elastic Compliance Matrix: (Units=1/GPa)
#
#
# Indices 1 2 3 4 5 6 
#
# 1 0.008711 -0.002613 -0.000217 0.000000 -0.007130 0.000000
# 2 -0.002613 0.011859 -0.001423 0.000000 0.004689 0.000000
# 3 -0.000217 -0.001423 0.013115 0.000000 -0.004831 0.000000
# 4 0.000000 0.000000 0.000000 0.018338 0.000000 -0.002573
# 5 -0.007130 0.004689 -0.004831 0.000000 0.031969 0.000000
# 6 0.000000 0.000000 0.000000 -0.002573 0.000000 0.018524
#
#
# Mechanical properties :
#
#
# Convention : Reuss Voigt Hill
#
# Bulk Modulus (GPa) = 39.71386 46.31973 43.01679
# Shear Modulus (GPa) = 41.87052 49.05091 45.46072
#
# Velocity S-wave (km/s) = 3.64689 3.94723 3.80003
# Velocity P-wave (km/s) = 5.50889 5.95711 5.73738
#
# Compressibility (1/GPa) = 0.02518013
#
# Stress axis : x y z
#
# Youngs Moduli (GPa) = 114.80209 84.32294 76.24611
#
# Poissons Ratio (x) = 0.22031 0.01657
# Poissons Ratio (y) = 0.29994 0.10846
# Poissons Ratio (z) = 0.02495 0.11995
#
# Static dielectric constant tensor:
#      x y z
#    x 6.368270 0.000000 0.290010 
#    y 0.000000 2.255660 0.000000 
#    z 0.290010 0.000000 6.223530 
# 
# 
# High freq. dielectric constant tensor:
#      x y z
#    x 2.321930 0.000000 -0.001170 
#    y 0.000000 2.297290 0.000000 
#    z -0.001170 0.000000 2.313830 
# 
# From -- ./inp_files/235572.got.cif
#   From: 2010.06.25/outbox.cif.g09.slc.cpg/sg15_118_cif.got.tgz:235572.got - 2010.06.28 07:06:18.
