data_PCOD8131345
_publ_section_title
;
Structure prediction by ZEFSAII (Michael W. Deem and Ramdas Pophale) SiO2 
 PCOD8131345
Probable space group: C 2/C
;
_chemical_formula_sum "Si O2"
_cell_formula_units_Z 52
_cell_length_a 16.486630
_cell_length_b 9.472201
_cell_length_c 20.381167
_cell_angle_alpha 90.000000
_cell_angle_beta 110.140055
_cell_angle_gamma 90.000000
_cell_volume 2988.200954
_symmetry_space_group_name_H-M "C 2/C"
_symmetry_group_IT_number 15
_symmetry_cell_setting 'monoclinic'
loop_
_space_group_symop_operation_xyz
x,y,z
-x,y,1/2-z
-x,-y,-z
x,-y,1/2+z
1/2+x,1/2+y,z
1/2-x,1/2+y,1/2-z
1/2-x,1/2-y,-z
1/2+x,1/2-y,1/2+z
loop_
_atom_site_type_symbol
_atom_site_label
_atom_site_fract_x
_atom_site_fract_y
_atom_site_fract_z
Si Si1 0.534195 0.344127 0.120850
Si Si2 0.000000 0.251789 0.750000
Si Si3 0.683893 0.128758 0.291826
Si Si4 0.146560 0.893208 0.484036
Si Si5 0.202587 0.087702 0.608449
Si Si6 0.836231 0.623490 0.364086
Si Si7 0.773463 0.342289 0.406040
O O1 0.509464 0.351478 0.190362
O O2 0.456141 0.396932 0.054137
O O3 0.617410 0.444194 0.130174
O O4 0.564247 0.181598 0.111610
O O5 0.083295 0.351836 0.780987
O O6 0.701086 0.108956 0.219737
O O7 0.739277 0.263165 0.331783
O O8 0.714231 0.989948 0.339048
O O9 0.165714 0.756267 0.533336
O O10 0.190791 0.887261 0.425480
O O11 0.181335 0.033701 0.529360
O O12 0.220323 0.256567 0.613101
O O13 0.830248 0.476584 0.400407
#
# Coordination Sequence:
#
# PCOD8131345 Si02
#       7
#     8   4   8   8   8   8   8
#     4   9  19  34  53  81 102 139 177 220 260 311
#     4  10  18  32  58  80  98 138 182 224 248 318
#     4  10  18  34  56  78 103 137 180 216 262 313
#     4  10  19  34  56  74 109 141 182 212 253 319
#     4   9  20  33  53  79 106 142 171 220 268 309
#     4   9  20  32  52  79 108 135 172 220 268 303
#     4  10  20  33  54  81 103 144 176 215 259 317
#
# _framework density 17.401774
#
# number of rings (size 3 to 8) (size 9 to 14) (size 15 to 20)
#    0.923    1.538    1.538    1.385    0.000    1.231 
#    0.000    0.000    0.000    4.615    0.000    0.000 
#    0.000    0.000    0.000    0.000    0.000    0.000 
#
# Total GULP energy -322199.369679 kJ/mol
# GULP energy per Si atom -12392.283449 kJ/mol
# Density = 1.736217 g / cm^3
# Si number density = 17.401774 Si / 1000 Ang^3
#
#
#
# Elastic Constant Matrix: (Units=GPa)
#
#
# Indices 1 2 3 4 5 6 
#
# 1 42.0590 -0.2220 16.6331 0.0000 7.6780 0.0000
# 2 -0.2220 50.6876 11.8598 0.0000 -10.4982 0.0000
# 3 16.6331 11.8598 71.2340 0.0000 -2.4087 0.0000
# 4 0.0000 0.0000 0.0000 15.6688 0.0000 -6.4696
# 5 7.6780 -10.4982 -2.4087 0.0000 31.4503 0.0000
# 6 0.0000 0.0000 0.0000 -6.4696 0.0000 26.2287
#
#
#
# Elastic Compliance Matrix: (Units=1/GPa)
#
#
# Indices 1 2 3 4 5 6 
#
# 1 0.027772 0.000207 -0.006764 0.000000 -0.007229 0.000000
# 2 0.000207 0.021997 -0.003473 0.000000 0.007026 0.000000
# 3 -0.006764 -0.003473 0.016254 0.000000 0.001737 0.000000
# 4 0.000000 0.000000 0.000000 0.071058 0.000000 0.017527
# 5 -0.007229 0.007026 0.001737 0.000000 0.036039 0.000000
# 6 0.000000 0.000000 0.000000 0.017527 0.000000 0.042449
#
#
# Mechanical properties :
#
#
# Convention : Reuss Voigt Hill
#
# Bulk Modulus (GPa) = 21.75607 24.50249 23.12928
# Shear Modulus (GPa) = 19.92415 23.71686 21.82050
#
# Velocity S-wave (km/s) = 3.38738 3.69575 3.54492
# Velocity P-wave (km/s) = 5.27527 5.68528 5.48411
#
# Compressibility (1/GPa) = 0.04596419
#
# Stress axis : x y z
#
# Youngs Moduli (GPa) = 36.00793 45.45972 61.52146
#
# Poissons Ratio (x) = -0.00941 0.41610
# Poissons Ratio (y) = -0.00745 0.21367
# Poissons Ratio (z) = 0.24354 0.15789
#
# Static dielectric constant tensor:
#      x y z
#    x 3.106890 0.000000 -0.018360 
#    y 0.000000 3.012480 0.000000 
#    z -0.018360 0.000000 3.259740 
# 
# 
# High freq. dielectric constant tensor:
#      x y z
#    x 1.660560 0.000000 0.000800 
#    y 0.000000 1.647840 0.000000 
#    z 0.000800 0.000000 1.681630 
# 
# From -- ./inp_files/247059.got.cif
#   From: 2010.06.25/outbox.cif.g09.slc.cpg/sg15_124_cif.got.tgz:247059.got - 2010.06.28 07:06:18.
