data_PCOD8131804
_publ_section_title
;
Structure prediction by ZEFSAII (Michael W. Deem and Ramdas Pophale) SiO2 
 PCOD8131804
Probable space group: C 2/C
;
_chemical_formula_sum "Si O2"
_cell_formula_units_Z 60
_cell_length_a 28.669959
_cell_length_b 12.953851
_cell_length_c 23.590440
_cell_angle_alpha 90.000000
_cell_angle_beta 18.877309
_cell_angle_gamma 90.000000
_cell_volume 2834.612070
_symmetry_space_group_name_H-M "C 2/C"
_symmetry_group_IT_number 15
_symmetry_cell_setting 'monoclinic'
loop_
_space_group_symop_operation_xyz
x,y,z
-x,y,1/2-z
-x,-y,-z
x,-y,1/2+z
1/2+x,1/2+y,z
1/2-x,1/2+y,1/2-z
1/2-x,1/2-y,-z
1/2+x,1/2-y,1/2+z
loop_
_atom_site_type_symbol
_atom_site_label
_atom_site_fract_x
_atom_site_fract_y
_atom_site_fract_z
Si Si1 0.188701 0.669979 0.954562
Si Si2 0.069611 0.845833 0.899622
Si Si3 0.156992 0.949671 0.414120
Si Si4 0.017971 0.835517 0.085845
Si Si5 0.315992 0.004586 0.129772
Si Si6 0.756944 0.782958 0.104310
Si Si7 0.000000 0.540555 0.250000
Si Si8 0.005337 0.629975 0.832872
O O1 0.351024 0.690198 0.787487
O O2 0.168062 0.600571 0.922676
O O3 0.110205 0.776311 0.027784
O O4 0.124606 0.614619 0.083742
O O5 0.156773 0.953200 0.797645
O O6 0.159938 0.757488 0.766462
O O7 0.050279 0.800712 0.984612
O O8 0.920422 0.867408 0.038804
O O9 0.185063 0.893359 0.441309
O O10 0.053799 0.043646 0.550437
O O11 0.305102 0.986318 0.210860
O O12 0.440071 0.086085 0.967896
O O13 0.649576 0.802264 0.175108
O O14 0.884396 0.702567 0.941527
O O15 0.947691 0.466154 0.259605
#
# Coordination Sequence:
#
# PCOD8131804 Si02
#       8
#     8   8   8   8   8   8   4   8
#     4  11  22  42  61  88 115 166 210 264 298 362
#     4  10  18  34  59  94 128 170 189 235 304 379
#     4  11  19  36  60  97 133 170 193 237 299 387
#     4  11  23  35  64  91 128 164 209 241 307 366
#     4   9  18  35  58  85 130 169 199 232 301 360
#     4  11  22  36  64  95 131 153 206 249 309 376
#     4  10  26  46  68  76 116 160 216 268 334 346
#     4  10  23  41  62  92 117 164 205 266 310 367
#
# _framework density 21.166917999999999
#
# number of rings (size 3 to 8) (size 9 to 14) (size 15 to 20)
#    0.000    1.600    4.000    1.600    0.000    4.800 
#    0.000    0.000    0.000    1.600    0.000    0.000 
#    0.000    0.000    0.000    0.000    0.000    0.000 
#
# Total GULP energy -371845.849023 kJ/mol
# GULP energy per Si atom -12394.861634 kJ/mol
# Density = 2.111874 g / cm^3
# Si number density = 21.166918 Si / 1000 Ang^3
#
#
#
# Elastic Constant Matrix: (Units=GPa)
#
#
# Indices 1 2 3 4 5 6 
#
# 1 55.5397 32.4283 51.8806 0.0019 -5.9251 -0.0023
# 2 32.4283 83.0336 50.3905 0.0012 -7.9692 -0.0041
# 3 51.8806 50.3905 87.4595 0.0012 -4.9654 -0.0030
# 4 0.0019 0.0012 0.0012 24.9274 -0.0022 1.7857
# 5 -5.9251 -7.9692 -4.9654 -0.0022 25.9289 0.0023
# 6 -0.0023 -0.0041 -0.0030 1.7857 0.0023 37.1017
#
#
#
# Elastic Compliance Matrix: (Units=1/GPa)
#
#
# Indices 1 2 3 4 5 6 
#
# 1 0.041073 -0.001507 -0.023242 -0.000002 0.004472 0.000000
# 2 -0.001507 0.018929 -0.009808 0.000000 0.003595 0.000001
# 3 -0.023242 -0.009808 0.030734 0.000001 -0.002440 0.000000
# 4 -0.000002 0.000000 0.000001 0.040255 0.000003 -0.001937
# 5 0.004472 0.003595 -0.002440 0.000003 0.040227 -0.000002
# 6 0.000000 0.000001 0.000000 -0.001937 -0.000002 0.027046
#
#
# Mechanical properties :
#
#
# Convention : Reuss Voigt Hill
#
# Bulk Modulus (GPa) = 46.25084 55.04796 50.64940
# Shear Modulus (GPa) = 18.20922 23.68048 20.94485
#
# Velocity S-wave (km/s) = 2.93621 3.34840 3.14906
# Velocity P-wave (km/s) = 5.77868 6.40407 6.09939
#
# Compressibility (1/GPa) = 0.02162123
#
# Stress axis : x y z
#
# Youngs Moduli (GPa) = 24.34687 52.82848 32.53737
#
# Poissons Ratio (x) = 0.07959 0.75625
# Poissons Ratio (y) = 0.03668 0.31914
# Poissons Ratio (z) = 0.56588 0.51816
#
# Static dielectric constant tensor:
#      x y z
#    x 3.481780 0.000000 0.020950 
#    y 0.000000 3.833500 0.000010 
#    z 0.020950 0.000010 3.925840 
# 
# 
# High freq. dielectric constant tensor:
#      x y z
#    x 1.794920 0.000000 -0.001680 
#    y 0.000000 1.834670 0.000000 
#    z -0.001680 0.000000 1.825750 
# 
# From -- ./inp_files/284745.got.cif
#   From: 2010.06.25/outbox.cif.g09.slc.cpg/sg15_143_cif.got.tgz:284745.got - 2010.06.28 07:06:18.
