data_PCOD8131672
_publ_section_title
;
Structure prediction by ZEFSAII (Michael W. Deem and Ramdas Pophale) SiO2 
 PCOD8131672
Probable space group: C 2/C
;
_chemical_formula_sum "Si O2"
_cell_formula_units_Z 64
_cell_length_a 21.326306
_cell_length_b 11.775356
_cell_length_c 21.881482
_cell_angle_alpha 90.000000
_cell_angle_beta 38.207208
_cell_angle_gamma 90.000000
_cell_volume 3398.687329
_symmetry_space_group_name_H-M "C 2/C"
_symmetry_group_IT_number 15
_symmetry_cell_setting 'monoclinic'
loop_
_space_group_symop_operation_xyz
x,y,z
-x,y,1/2-z
-x,-y,-z
x,-y,1/2+z
1/2+x,1/2+y,z
1/2-x,1/2+y,1/2-z
1/2-x,1/2-y,-z
1/2+x,1/2-y,1/2+z
loop_
_atom_site_type_symbol
_atom_site_label
_atom_site_fract_x
_atom_site_fract_y
_atom_site_fract_z
Si Si1 0.293451 0.151848 0.261764
Si Si2 0.490423 0.219236 0.041486
Si Si3 0.331587 0.431271 0.752309
Si Si4 0.988500 0.956643 0.441086
Si Si5 0.882172 0.827451 0.007996
Si Si6 0.475310 0.247603 0.698464
Si Si7 0.689350 0.092716 0.716105
Si Si8 0.302414 0.124040 0.646709
O O1 0.404682 0.158330 0.146770
O O2 0.260908 0.263588 0.325172
O O3 0.208877 0.143438 0.273163
O O4 0.293652 0.042677 0.306900
O O5 0.541579 0.324361 0.039385
O O6 0.447109 0.271072 0.012245
O O7 0.579298 0.129153 0.961143
O O8 0.403587 0.531983 0.673984
O O9 0.394165 0.349218 0.749084
O O10 0.240300 0.507087 0.852110
O O11 0.906444 0.040431 0.474262
O O12 0.000000 0.000000 0.500000
O O13 0.917523 0.761002 0.919824
O O14 0.764086 0.827809 0.117037
O O15 0.500000 0.242452 0.750000
O O16 0.423709 0.129637 0.716428
O O17 0.712272 0.113355 0.769359
#
# Coordination Sequence:
#
# PCOD8131672 Si02
#       8
#     8   8   8   8   8   8   8   8
#     4  11  19  32  53  83 117 142 176 223 283 341
#     4  11  17  28  50  83 115 144 167 216 292 337
#     4  10  19  32  50  75 110 138 177 225 269 321
#     4   9  15  27  47  74 106 142 173 206 266 342
#     4  10  18  34  55  77 108 147 186 225 271 331
#     4  11  23  40  57  77 108 149 199 231 263 320
#     4  11  21  35  52  81 113 148 180 224 278 331
#     4  11  18  31  52  83 113 140 168 225 283 340
#
# _framework density 18.830798999999999
#
# number of rings (size 3 to 8) (size 9 to 14) (size 15 to 20)
#    0.000    1.500    5.000    4.500    0.000    2.500 
#    2.250    0.000    0.000    0.750    0.000    4.375 
#    0.000    0.000    0.000    0.000    0.000    0.000 
#
# Total GULP energy -396444.885357 kJ/mol
# GULP energy per Si atom -12388.902667 kJ/mol
# Density = 1.878794 g / cm^3
# Si number density = 18.830799 Si / 1000 Ang^3
#
#
#
# Elastic Constant Matrix: (Units=GPa)
#
#
# Indices 1 2 3 4 5 6 
#
# 1 45.9612 17.7238 9.0766 0.0000 2.6915 0.0000
# 2 17.7238 54.5208 -9.9252 0.0000 -4.9713 0.0000
# 3 9.0766 -9.9252 82.7725 0.0000 -7.8220 0.0000
# 4 0.0000 0.0000 0.0000 33.2081 0.0000 -6.8313
# 5 2.6915 -4.9713 -7.8220 0.0000 13.3385 0.0000
# 6 0.0000 0.0000 0.0000 -6.8313 0.0000 13.1613
#
#
#
# Elastic Compliance Matrix: (Units=1/GPa)
#
#
# Indices 1 2 3 4 5 6 
#
# 1 0.028033 -0.011353 -0.005685 0.000000 -0.013222 0.000000
# 2 -0.011353 0.024377 0.005551 0.000000 0.014632 0.000000
# 3 -0.005685 0.005551 0.014476 0.000000 0.011705 0.000000
# 4 0.000000 0.000000 0.000000 0.033713 0.000000 0.017499
# 5 -0.013222 0.014632 0.011705 0.000000 0.089956 0.000000
# 6 0.000000 0.000000 0.000000 0.017499 0.000000 0.085063
#
#
# Mechanical properties :
#
#
# Convention : Reuss Voigt Hill
#
# Bulk Modulus (GPa) = 22.77334 24.11165 23.44250
# Shear Modulus (GPa) = 15.96269 23.03353 19.49811
#
# Velocity S-wave (km/s) = 2.91467 3.50120 3.22131
# Velocity P-wave (km/s) = 4.84221 5.40155 5.12951
#
# Compressibility (1/GPa) = 0.04391099
#
# Stress axis : x y z
#
# Youngs Moduli (GPa) = 35.67279 41.02220 69.07784
#
# Poissons Ratio (x) = 0.46574 0.39270
# Poissons Ratio (y) = 0.40501 -0.38343
# Poissons Ratio (z) = 0.20279 -0.22770
#
# Static dielectric constant tensor:
#      x y z
#    x 2.814800 0.000000 -0.239450 
#    y 0.000000 3.967430 0.000000 
#    z -0.239450 0.000000 3.631410 
# 
# 
# High freq. dielectric constant tensor:
#      x y z
#    x 1.643240 0.000000 -0.029530 
#    y 0.000000 1.746820 0.000000 
#    z -0.029530 0.000000 1.742930 
# 
# From -- ./inp_files/279872.got.cif
#   From: 2010.06.25/outbox.cif.g09.slc.cpg/sg15_140_cif.got.tgz:279872.got - 2010.06.28 07:06:18.
