data_PCOD8131728
_publ_section_title
;
Structure prediction by ZEFSAII (Michael W. Deem and Ramdas Pophale) SiO2 
 PCOD8131728
Probable space group: C 2/C
;
_chemical_formula_sum "Si O2"
_cell_formula_units_Z 56
_cell_length_a 15.190024
_cell_length_b 16.552506
_cell_length_c 15.972960
_cell_angle_alpha 90.000000
_cell_angle_beta 131.629273
_cell_angle_gamma 90.000000
_cell_volume 3001.890659
_symmetry_space_group_name_H-M "C 2/C"
_symmetry_group_IT_number 15
_symmetry_cell_setting 'monoclinic'
loop_
_space_group_symop_operation_xyz
x,y,z
-x,y,1/2-z
-x,-y,-z
x,-y,1/2+z
1/2+x,1/2+y,z
1/2-x,1/2+y,1/2-z
1/2-x,1/2-y,-z
1/2+x,1/2-y,1/2+z
loop_
_atom_site_type_symbol
_atom_site_label
_atom_site_fract_x
_atom_site_fract_y
_atom_site_fract_z
Si Si1 0.871451 0.221590 0.683465
Si Si2 0.295299 0.719185 0.939834
Si Si3 0.944585 0.762194 0.920871
Si Si4 0.092573 0.628575 0.739405
Si Si5 0.037752 0.532810 0.113317
Si Si6 0.210555 0.323858 0.721302
Si Si7 0.635830 0.831174 0.976923
O O1 0.866371 0.260319 0.772618
O O2 0.765579 0.157506 0.601718
O O3 0.850972 0.295150 0.606700
O O4 0.000000 0.180920 0.750000
O O5 0.222185 0.641170 0.861717
O O6 0.278978 0.794286 0.867119
O O7 0.250000 0.750000 0.000000
O O8 0.433094 0.695167 0.027159
O O9 0.920399 0.683880 0.849566
O O10 0.841790 0.828576 0.844023
O O11 0.944799 0.727552 0.015789
O O12 0.069302 0.536720 0.698940
O O13 0.000000 0.657454 0.750000
O O14 0.153784 0.588020 0.182368
O O15 0.000000 0.500000 0.000000
O O16 0.924977 0.582489 0.074780
#
# Coordination Sequence:
#
# PCOD8131728 Si02
#       7
#     8   8   8   8   8   8   8
#     4  10  18  34  57  82 111 140 199 237 275 345
#     4  11  20  37  61  85 115 150 205 253 286 338
#     4  10  19  40  57  85 112 147 202 249 281 342
#     4  11  23  34  58  90 116 154 200 240 300 349
#     4  12  22  38  56  83 124 152 187 240 300 359
#     4  10  22  34  57  84 113 152 192 240 296 344
#     4  10  20  33  55  85 109 152 183 237 292 338
#
# _framework density 18.654910999999998
#
# number of rings (size 3 to 8) (size 9 to 14) (size 15 to 20)
#    0.000    1.429    5.714    0.000    2.000    0.000 
#    0.000    0.714    0.000    1.714    0.000    0.000 
#    0.000    0.000    0.000    0.000    0.000    0.000 
#
# Total GULP energy -347137.964333 kJ/mol
# GULP energy per Si atom -12397.784440 kJ/mol
# Density = 1.861245 g / cm^3
# Si number density = 18.654911 Si / 1000 Ang^3
#
#
#
# Elastic Constant Matrix: (Units=GPa)
#
#
# Indices 1 2 3 4 5 6 
#
# 1 105.3496 22.5498 49.7763 0.0000 13.1125 0.0000
# 2 22.5498 83.4075 53.4334 0.0000 13.6680 0.0000
# 3 49.7763 53.4334 118.2289 0.0000 22.6247 0.0000
# 4 0.0000 0.0000 0.0000 34.8128 0.0000 8.8958
# 5 13.1125 13.6680 22.6247 0.0000 48.1276 0.0000
# 6 0.0000 0.0000 0.0000 8.8958 0.0000 18.0694
#
#
#
# Elastic Compliance Matrix: (Units=1/GPa)
#
#
# Indices 1 2 3 4 5 6 
#
# 1 0.011891 0.000046 -0.004840 0.000000 -0.000978 0.000000
# 2 0.000046 0.016953 -0.007425 0.000000 -0.001336 0.000000
# 3 -0.004840 -0.007425 0.014500 0.000000 -0.003389 0.000000
# 4 0.000000 0.000000 0.000000 0.032859 0.000000 -0.016177
# 5 -0.000978 -0.001336 -0.003389 0.000000 0.023017 0.000000
# 6 0.000000 0.000000 0.000000 -0.016177 0.000000 0.063306
#
#
# Mechanical properties :
#
#
# Convention : Reuss Voigt Hill
#
# Bulk Modulus (GPa) = 52.89539 62.05612 57.47575
# Shear Modulus (GPa) = 25.87099 32.28373 29.07736
#
# Velocity S-wave (km/s) = 3.72804 4.16453 3.95232
# Velocity P-wave (km/s) = 6.85181 7.51412 7.19059
#
# Compressibility (1/GPa) = 0.01890524
#
# Stress axis : x y z
#
# Youngs Moduli (GPa) = 84.09826 58.98708 68.96368
#
# Poissons Ratio (x) = -0.00272 0.33378
# Poissons Ratio (y) = -0.00387 0.51209
# Poissons Ratio (z) = 0.40704 0.43801
#
# Static dielectric constant tensor:
#      x y z
#    x 3.673780 0.000000 0.179160 
#    y 0.000000 3.050470 0.000000 
#    z 0.179160 0.000000 3.868290 
# 
# 
# High freq. dielectric constant tensor:
#      x y z
#    x 1.742920 0.000000 -0.002700 
#    y 0.000000 1.667020 0.000000 
#    z -0.002700 0.000000 1.748040 
# 
# From -- ./inp_files/206289.got.cif
#   From: 2010.06.25/outbox.cif.g09.slc.cpg/sg15_104_cif.got.tgz:206289.got - 2010.06.28 07:06:18.
