data_PCOD8131853
_publ_section_title
;
Structure prediction by ZEFSAII (Michael W. Deem and Ramdas Pophale) SiO2 
 PCOD8131853
Probable space group: C 2/C
;
_chemical_formula_sum "Si O2"
_cell_formula_units_Z 60
_cell_length_a 21.653877
_cell_length_b 18.979010
_cell_length_c 13.634755
_cell_angle_alpha 90.000000
_cell_angle_beta 148.542812
_cell_angle_gamma 90.000000
_cell_volume 2924.230921
_symmetry_space_group_name_H-M "C 2/C"
_symmetry_group_IT_number 15
_symmetry_cell_setting 'monoclinic'
loop_
_space_group_symop_operation_xyz
x,y,z
-x,y,1/2-z
-x,-y,-z
x,-y,1/2+z
1/2+x,1/2+y,z
1/2-x,1/2+y,1/2-z
1/2-x,1/2-y,-z
1/2+x,1/2-y,1/2+z
loop_
_atom_site_type_symbol
_atom_site_label
_atom_site_fract_x
_atom_site_fract_y
_atom_site_fract_z
Si Si1 0.691203 0.822990 0.806114
Si Si2 0.500000 0.283095 0.750000
Si Si3 0.370748 0.213456 0.062325
Si Si4 0.966823 0.326941 0.374907
Si Si5 0.710104 0.927317 0.109091
Si Si6 0.519499 0.976149 0.386877
Si Si7 0.226440 0.527768 0.411287
Si Si8 0.211101 0.884992 0.091027
O O1 0.689624 0.805917 0.917748
O O2 0.560237 0.808282 0.586894
O O3 0.743774 0.902711 0.867408
O O4 0.787806 0.769135 0.890424
O O5 0.539225 0.236678 0.710100
O O6 0.388726 0.331673 0.576962
O O7 0.500000 0.247475 0.250000
O O8 0.379920 0.138956 0.019309
O O9 0.837915 0.347198 0.241755
O O10 0.027083 0.392540 0.401330
O O11 0.810642 0.901621 0.322226
O O12 0.756393 0.955738 0.066915
O O13 0.643895 0.987960 0.083703
O O14 0.500000 0.001891 0.250000
O O15 0.410624 0.008815 0.299441
O O16 0.303644 0.459283 0.487699
#
# Coordination Sequence:
#
# PCOD8131853 Si02
#       8
#     8   4   8   8   8   8   8   8
#     4  10  20  33  56  84 112 148 194 244 294 347
#     4  12  26  42  56  84 128 164 204 242 300 376
#     4  10  19  33  52  83 119 149 183 237 300 357
#     4  11  21  37  59  85 114 151 203 254 299 346
#     4  10  18  34  62  88 118 151 198 250 303 349
#     4   9  16  30  56  86 109 134 180 253 299 328
#     4   9  19  35  57  89 116 149 196 252 295 356
#     4  11  23  40  61  85 120 164 201 248 304 363
#
# _framework density 20.518215999999999
#
# number of rings (size 3 to 8) (size 9 to 14) (size 15 to 20)
#    0.000    1.867    0.667    5.600    0.000    2.133 
#    1.200    0.667    0.000    0.000    0.000    0.000 
#    0.000    0.000    0.000    0.000    0.000    0.000 
#
# Total GULP energy -371694.313967 kJ/mol
# GULP energy per Si atom -12389.810466 kJ/mol
# Density = 2.047152 g / cm^3
# Si number density = 20.518216 Si / 1000 Ang^3
#
#
#
# Elastic Constant Matrix: (Units=GPa)
#
#
# Indices 1 2 3 4 5 6 
#
# 1 34.6916 23.6186 24.6045 0.0000 -5.9570 0.0000
# 2 23.6186 132.9775 64.5806 0.0000 3.4800 0.0000
# 3 24.6045 64.5806 106.9514 0.0000 -0.6631 0.0000
# 4 0.0000 0.0000 0.0000 33.4935 0.0000 -2.8763
# 5 -5.9570 3.4800 -0.6631 0.0000 27.7906 0.0000
# 6 0.0000 0.0000 0.0000 -2.8763 0.0000 11.7030
#
#
#
# Elastic Compliance Matrix: (Units=1/GPa)
#
#
# Indices 1 2 3 4 5 6 
#
# 1 0.037260 -0.003817 -0.006215 0.000000 0.008317 0.000000
# 2 -0.003817 0.011093 -0.005835 0.000000 -0.002347 0.000000
# 3 -0.006215 -0.005835 0.014302 0.000000 -0.000260 0.000000
# 4 0.000000 0.000000 0.000000 0.030500 0.000000 0.007496
# 5 0.008317 -0.002347 -0.000260 0.000000 0.038054 0.000000
# 6 0.000000 0.000000 0.000000 0.007496 0.000000 0.087291
#
#
# Mechanical properties :
#
#
# Convention : Reuss Voigt Hill
#
# Bulk Modulus (GPa) = 32.34106 55.58087 43.96097
# Shear Modulus (GPa) = 19.19082 25.38520 22.28801
#
# Velocity S-wave (km/s) = 3.06160 3.52121 3.29941
# Velocity P-wave (km/s) = 5.31923 6.60903 5.99889
#
# Compressibility (1/GPa) = 0.03092044
#
# Stress axis : x y z
#
# Youngs Moduli (GPa) = 26.83817 90.14608 69.92261
#
# Poissons Ratio (x) = 0.34409 0.43460
# Poissons Ratio (y) = 0.10244 0.40798
# Poissons Ratio (z) = 0.16681 0.52598
#
# Static dielectric constant tensor:
#      x y z
#    x 3.562760 0.000000 -0.208880 
#    y 0.000000 4.123820 0.000000 
#    z -0.208880 0.000000 3.569660 
# 
# 
# High freq. dielectric constant tensor:
#      x y z
#    x 1.777900 0.000000 -0.029160 
#    y 0.000000 1.819840 0.000000 
#    z -0.029160 0.000000 1.784480 
# 
# From -- ./inp_files/174127.got.cif
#   From: 2010.06.25/outbox.cif.g09.slc.cpg/sg15_88_cif.got.tgz:174127.got - 2010.06.28 07:06:18.
