data_PCOD8131341
_publ_section_title
;
Structure prediction by ZEFSAII (Michael W. Deem and Ramdas Pophale) SiO2 
 PCOD8131341
Probable space group: C 2/C
;
_chemical_formula_sum "Si O2"
_cell_formula_units_Z 56
_cell_length_a 26.235977
_cell_length_b 11.979392
_cell_length_c 20.205552
_cell_angle_alpha 90.000000
_cell_angle_beta 149.185855
_cell_angle_gamma 90.000000
_cell_volume 3253.035962
_symmetry_space_group_name_H-M "C 2/C"
_symmetry_group_IT_number 15
_symmetry_cell_setting 'monoclinic'
loop_
_space_group_symop_operation_xyz
x,y,z
-x,y,1/2-z
-x,-y,-z
x,-y,1/2+z
1/2+x,1/2+y,z
1/2-x,1/2+y,1/2-z
1/2-x,1/2-y,-z
1/2+x,1/2-y,1/2+z
loop_
_atom_site_type_symbol
_atom_site_label
_atom_site_fract_x
_atom_site_fract_y
_atom_site_fract_z
Si Si1 0.780350 0.379919 0.649599
Si Si2 0.942574 0.160444 0.620509
Si Si3 0.976473 0.595020 0.296110
Si Si4 0.268092 0.471864 0.291973
Si Si5 0.070968 0.471922 0.518350
Si Si6 0.453810 0.402832 0.990509
Si Si7 0.115742 0.243824 0.620489
O O1 0.676196 0.344027 0.500584
O O2 0.858388 0.392178 0.676658
O O3 0.770278 0.499594 0.676431
O O4 0.819857 0.286144 0.745308
O O5 0.973884 0.085079 0.592165
O O6 0.000000 0.117019 0.750000
O O7 0.969673 0.287274 0.634317
O O8 0.000000 0.547509 0.250000
O O9 0.019016 0.503089 0.392830
O O10 0.174257 0.459695 0.138996
O O11 0.334893 0.582507 0.346850
O O12 0.331023 0.358350 0.358015
O O13 0.098142 0.341093 0.547891
O O14 0.000000 0.500000 0.500000
O O15 0.504392 0.288837 0.021811
O O16 0.500000 0.500000 0.000000
#
# Coordination Sequence:
#
# PCOD8131341 Si02
#       7
#     8   8   8   8   8   8   8
#     4  10  19  36  52  80 112 142 180 223 266 325
#     4  10  20  33  53  76 111 145 177 214 277 325
#     4  11  22  36  52  80 113 143 178 228 268 323
#     4   9  19  32  54  81 108 137 174 228 265 315
#     4  11  19  34  54  79 104 140 183 218 268 322
#     4   9  17  33  51  79 109 131 177 221 265 312
#     4  10  18  32  58  78 106 140 178 223 274 315
#
# _framework density 17.214687999999999
#
# number of rings (size 3 to 8) (size 9 to 14) (size 15 to 20)
#    0.000    2.000    4.286    0.857    0.000    4.571 
#    5.143    0.000    0.000    8.571    0.000    0.000 
#    0.000    0.000    0.000    0.000    0.000    0.000 
#
# Total GULP energy -346931.772672 kJ/mol
# GULP energy per Si atom -12390.420453 kJ/mol
# Density = 1.717551 g / cm^3
# Si number density = 17.214688 Si / 1000 Ang^3
#
#
#
# Elastic Constant Matrix: (Units=GPa)
#
#
# Indices 1 2 3 4 5 6 
#
# 1 127.9555 44.5749 61.6312 0.0000 3.2633 0.0000
# 2 44.5749 74.3350 40.0893 0.0000 2.7149 0.0000
# 3 61.6312 40.0893 122.7541 0.0000 7.0277 0.0000
# 4 0.0000 0.0000 0.0000 26.9575 0.0000 3.0998
# 5 3.2633 2.7149 7.0277 0.0000 29.9771 0.0000
# 6 0.0000 0.0000 0.0000 3.0998 0.0000 24.3577
#
#
#
# Elastic Compliance Matrix: (Units=1/GPa)
#
#
# Indices 1 2 3 4 5 6 
#
# 1 0.011462 -0.004577 -0.004270 0.000000 0.000168 0.000000
# 2 -0.004577 0.018157 -0.003615 0.000000 -0.000299 0.000000
# 3 -0.004270 -0.003615 0.011581 0.000000 -0.001923 0.000000
# 4 0.000000 0.000000 0.000000 0.037646 0.000000 -0.004791
# 5 0.000168 -0.000299 -0.001923 0.000000 0.033818 0.000000
# 6 0.000000 0.000000 0.000000 -0.004791 0.000000 0.041665
#
#
# Mechanical properties :
#
#
# Convention : Reuss Voigt Hill
#
# Bulk Modulus (GPa) = 61.43436 68.62617 65.03026
# Shear Modulus (GPa) = 27.07426 28.17507 27.62467
#
# Velocity S-wave (km/s) = 3.97008 4.04999 4.01024
# Velocity P-wave (km/s) = 7.53525 7.86265 7.70069
#
# Compressibility (1/GPa) = 0.01627754
#
# Stress axis : x y z
#
# Youngs Moduli (GPa) = 87.24686 55.07373 86.35063
#
# Poissons Ratio (x) = 0.25205 0.36868
# Poissons Ratio (y) = 0.39929 0.31216
# Poissons Ratio (z) = 0.37251 0.19909
#
# Static dielectric constant tensor:
#      x y z
#    x 2.281480 0.000000 3.695470 
#    y 0.000000 3.188870 0.000000 
#    z 3.695470 0.000000 -4.394960 
# 
# 
# High freq. dielectric constant tensor:
#      x y z
#    x 1.666820 0.000000 0.027400 
#    y 0.000000 1.645390 0.000000 
#    z 0.027400 0.000000 1.665430 
# 
# From -- ./inp_files/122712.got.cif
#   From: 2010.06.25/outbox.cif.g09.slc.cpg/sg15_62_cif.got.tgz:122712.got - 2010.06.28 07:06:18.
