data_PCOD8131032
_publ_section_title
;
Structure prediction by ZEFSAII (Michael W. Deem and Ramdas Pophale) SiO2 
 PCOD8131032
Probable space group: C 2/C
;
_chemical_formula_sum "Si O2"
_cell_formula_units_Z 48
_cell_length_a 24.084326
_cell_length_b 11.477771
_cell_length_c 22.942334
_cell_angle_alpha 90.000000
_cell_angle_beta 156.394114
_cell_angle_gamma 90.000000
_cell_volume 2539.630533
_symmetry_space_group_name_H-M "C 2/C"
_symmetry_group_IT_number 15
_symmetry_cell_setting 'monoclinic'
loop_
_space_group_symop_operation_xyz
x,y,z
-x,y,1/2-z
-x,-y,-z
x,-y,1/2+z
1/2+x,1/2+y,z
1/2-x,1/2+y,1/2-z
1/2-x,1/2-y,-z
1/2+x,1/2-y,1/2+z
loop_
_atom_site_type_symbol
_atom_site_label
_atom_site_fract_x
_atom_site_fract_y
_atom_site_fract_z
Si Si1 0.131105 0.387174 0.037817
Si Si2 0.100889 0.125011 0.895920
Si Si3 0.122276 0.607169 0.403949
Si Si4 0.534590 0.464910 0.458196
Si Si5 0.718203 0.562563 0.238177
Si Si6 0.637117 0.242753 0.190207
O O1 0.167921 0.475867 0.124972
O O2 0.236809 0.275207 0.143489
O O3 0.154842 0.451646 0.997903
O O4 0.969693 0.351609 0.886145
O O5 0.074971 0.262548 0.878243
O O6 0.071142 0.056831 0.926709
O O7 0.000000 0.072583 0.750000
O O8 0.254724 0.101921 0.023098
O O9 0.000000 0.545376 0.250000
O O10 0.421180 0.570205 0.355342
O O11 0.672838 0.483581 0.629515
O O12 0.449649 0.358385 0.407304
O O13 0.791409 0.688398 0.299319
#
# Coordination Sequence:
#
# PCOD8131032 Si02
#       6
#     8   8   8   8   8   8
#     4  11  22  34  53  76 110 143 175 215 259 307
#     4  10  18  31  50  72 103 142 174 194 250 323
#     4  10  21  29  48  76 105 141 174 202 248 317
#     4  10  20  34  53  76 110 142 173 216 260 309
#     4  10  21  33  51  74 103 145 181 214 260 305
#     4  11  19  35  52  74 106 143 173 216 260 302
#
# _framework density 18.900386000000001
#
# number of rings (size 3 to 8) (size 9 to 14) (size 15 to 20)
#    0.000    1.667    3.333    2.500    7.000    0.000 
#    0.000    0.000    0.000    0.000    0.000    0.000 
#    0.000   86.667    0.000    0.000    0.000    0.000 
#
# Total GULP energy -297330.136143 kJ/mol
# GULP energy per Si atom -12388.755673 kJ/mol
# Density = 1.885737 g / cm^3
# Si number density = 18.900386 Si / 1000 Ang^3
#
#
#
# Elastic Constant Matrix: (Units=GPa)
#
#
# Indices 1 2 3 4 5 6 
#
# 1 141.5579 37.3106 55.0575 0.0004 -15.8751 0.0002
# 2 37.3106 32.3482 24.4031 0.0000 -3.1625 -0.0002
# 3 55.0575 24.4031 116.5582 0.0010 -11.2767 0.0003
# 4 0.0004 0.0000 0.0010 21.8764 0.0004 5.7346
# 5 -15.8751 -3.1625 -11.2767 0.0004 32.2688 0.0001
# 6 0.0002 -0.0002 0.0003 5.7346 0.0001 27.1133
#
#
#
# Elastic Compliance Matrix: (Units=1/GPa)
#
#
# Indices 1 2 3 4 5 6 
#
# 1 0.011355 -0.010643 -0.002790 0.000000 0.003568 0.000000
# 2 -0.010643 0.046716 -0.004985 0.000000 -0.002400 0.000000
# 3 -0.002790 -0.004985 0.011138 -0.000001 0.002031 0.000000
# 4 0.000000 0.000000 -0.000001 0.048395 -0.000001 -0.010236
# 5 0.003568 -0.002400 0.002031 -0.000001 0.033220 0.000000
# 6 0.000000 0.000000 0.000000 -0.010236 0.000000 0.039047
#
#
# Mechanical properties :
#
#
# Convention : Reuss Voigt Hill
#
# Bulk Modulus (GPa) = 30.89184 58.22293 44.55739
# Shear Modulus (GPa) = 21.05293 27.83124 24.44208
#
# Velocity S-wave (km/s) = 3.34112 3.84151 3.60002
# Velocity P-wave (km/s) = 5.59143 7.10973 6.39580
#
# Compressibility (1/GPa) = 0.03237101
#
# Stress axis : x y z
#
# Youngs Moduli (GPa) = 88.06889 21.40609 89.78611
#
# Poissons Ratio (x) = 0.22783 0.25051
# Poissons Ratio (y) = 0.93732 0.44762
# Poissons Ratio (z) = 0.24572 0.10672
#
# Static dielectric constant tensor:
#      x y z
#    x 3.496960 0.000000 0.054200 
#    y 0.000000 3.043500 0.000000 
#    z 0.054200 0.000000 3.836740 
# 
# 
# High freq. dielectric constant tensor:
#      x y z
#    x 1.733870 0.000000 0.005250 
#    y 0.000000 1.654450 0.000000 
#    z 0.005250 0.000000 1.764410 
# 
# From -- ./inp_files/252898.got.cif
#   From: 2010.06.25/outbox.cif.g09.slc.cpg/sg15_127_cif.got.tgz:252898.got - 2010.06.28 07:06:18.
