data_PCOD8131852
_publ_section_title
;
Structure prediction by ZEFSAII (Michael W. Deem and Ramdas Pophale) SiO2 
 PCOD8131852
Probable space group: C 2/C
;
_chemical_formula_sum "Si O2"
_cell_formula_units_Z 60
_cell_length_a 8.524158
_cell_length_b 17.379482
_cell_length_c 18.946561
_cell_angle_alpha 90.000000
_cell_angle_beta 98.975165
_cell_angle_gamma 90.000000
_cell_volume 2772.479936
_symmetry_space_group_name_H-M "C 2/C"
_symmetry_group_IT_number 15
_symmetry_cell_setting 'monoclinic'
loop_
_space_group_symop_operation_xyz
x,y,z
-x,y,1/2-z
-x,-y,-z
x,-y,1/2+z
1/2+x,1/2+y,z
1/2-x,1/2+y,1/2-z
1/2-x,1/2-y,-z
1/2+x,1/2-y,1/2+z
loop_
_atom_site_type_symbol
_atom_site_label
_atom_site_fract_x
_atom_site_fract_y
_atom_site_fract_z
Si Si1 0.251892 0.219955 0.124309
Si Si2 0.000000 0.700841 0.250000
Si Si3 0.828444 0.565439 0.766971
Si Si4 0.114401 0.030555 0.630650
Si Si5 0.343274 0.937434 0.555056
Si Si6 0.210674 0.116243 0.907510
Si Si7 0.983395 0.868918 0.667575
Si Si8 0.142949 0.413178 0.653299
O O1 0.350962 0.244182 0.203223
O O2 0.305060 0.143381 0.088662
O O3 0.274996 0.292821 0.073807
O O4 0.068444 0.201246 0.131946
O O5 0.941957 0.655039 0.313369
O O6 0.703481 0.581646 0.695783
O O7 0.779830 0.610135 0.833840
O O8 0.818885 0.474964 0.783394
O O9 0.000000 0.590762 0.750000
O O10 0.234585 0.008361 0.575426
O O11 0.062749 0.951145 0.661635
O O12 0.967333 0.082986 0.594794
O O13 0.320040 0.930947 0.469580
O O14 0.529164 0.952406 0.586077
O O15 0.801671 0.878671 0.628853
O O16 0.000000 0.847033 0.750000
#
# Coordination Sequence:
#
# PCOD8131852 Si02
#       8
#     8   4   8   8   8   8   8   8
#     4  10  23  38  60  89 129 166 221 267 324 390
#     4  10  18  34  62  88 110 166 210 266 308 380
#     4  12  22  39  60  94 130 157 204 277 331 379
#     4  11  21  39  67  93 120 164 220 274 324 388
#     4  10  23  43  64  88 123 177 221 259 324 412
#     4  12  25  40  60  93 136 167 206 273 346 395
#     4  11  18  35  63  93 117 162 225 269 311 386
#     4  11  18  37  65  87 121 159 220 265 313 375
#
# _framework density 21.641273999999999
#
# number of rings (size 3 to 8) (size 9 to 14) (size 15 to 20)
#    0.000    1.067    6.000    2.000    1.867    1.067 
#    0.000    0.667    0.000    0.000    0.000    0.000 
#    0.000    0.000    0.000    0.000    0.000    0.000 
#
# Total GULP energy -371722.944924 kJ/mol
# GULP energy per Si atom -12390.764831 kJ/mol
# Density = 2.159202 g / cm^3
# Si number density = 21.641274 Si / 1000 Ang^3
#
#
#
# Elastic Constant Matrix: (Units=GPa)
#
#
# Indices 1 2 3 4 5 6 
#
# 1 149.8949 31.0421 32.2874 0.0000 15.6302 0.0000
# 2 31.0421 61.4394 12.8620 0.0000 -9.3966 0.0000
# 3 32.2874 12.8620 64.1068 0.0000 15.9160 0.0000
# 4 0.0000 0.0000 0.0000 22.5885 0.0000 -1.7459
# 5 15.6302 -9.3966 15.9160 0.0000 26.7720 0.0000
# 6 0.0000 0.0000 0.0000 -1.7459 0.0000 21.1804
#
#
#
# Elastic Compliance Matrix: (Units=1/GPa)
#
#
# Indices 1 2 3 4 5 6 
#
# 1 0.008684 -0.004812 -0.002030 0.000000 -0.005552 0.000000
# 2 -0.004812 0.021929 -0.005379 0.000000 0.013704 0.000000
# 3 -0.002030 -0.005379 0.020970 0.000000 -0.013169 0.000000
# 4 0.000000 0.000000 0.000000 0.044554 0.000000 0.003673
# 5 -0.005552 0.013704 -0.013169 0.000000 0.053233 0.000000
# 6 0.000000 0.000000 0.000000 0.003673 0.000000 0.047516
#
#
# Mechanical properties :
#
#
# Convention : Reuss Voigt Hill
#
# Bulk Modulus (GPa) = 36.84212 47.53603 42.18908
# Shear Modulus (GPa) = 21.70379 27.39147 24.54763
#
# Velocity S-wave (km/s) = 3.17028 3.56153 3.37159
# Velocity P-wave (km/s) = 5.51923 6.23906 5.89015
#
# Compressibility (1/GPa) = 0.02714284
#
# Stress axis : x y z
#
# Youngs Moduli (GPa) = 115.15457 45.60148 47.68709
#
# Poissons Ratio (x) = 0.21942 0.09680
# Poissons Ratio (y) = 0.55409 0.25649
# Poissons Ratio (z) = 0.23375 0.24527
#
# Static dielectric constant tensor:
#      x y z
#    x 4.381150 0.000000 0.220690 
#    y 0.000000 3.617780 0.000000 
#    z 0.220690 0.000000 3.841540 
# 
# 
# High freq. dielectric constant tensor:
#      x y z
#    x 1.860440 0.000000 0.008760 
#    y 0.000000 1.824550 0.000000 
#    z 0.008760 0.000000 1.840080 
# 
# From -- ./inp_files/192187.got.cif
#   From: 2010.06.25/outbox.cif.g09.slc.cpg/sg15_97_cif.got.tgz:192187.got - 2010.06.28 07:06:18.
