data_PCOD8131194
_publ_section_title
;
Structure prediction by ZEFSAII (Michael W. Deem and Ramdas Pophale) SiO2 
 PCOD8131194
Probable space group: C 2/C
;
_chemical_formula_sum "Si O2"
_cell_formula_units_Z 56
_cell_length_a 26.449035
_cell_length_b 12.243534
_cell_length_c 12.583478
_cell_angle_alpha 90.000000
_cell_angle_beta 45.447235
_cell_angle_gamma 90.000000
_cell_volume 2903.795161
_symmetry_space_group_name_H-M "C 2/C"
_symmetry_group_IT_number 15
_symmetry_cell_setting 'monoclinic'
loop_
_space_group_symop_operation_xyz
x,y,z
-x,y,1/2-z
-x,-y,-z
x,-y,1/2+z
1/2+x,1/2+y,z
1/2-x,1/2+y,1/2-z
1/2-x,1/2-y,-z
1/2+x,1/2-y,1/2+z
loop_
_atom_site_type_symbol
_atom_site_label
_atom_site_fract_x
_atom_site_fract_y
_atom_site_fract_z
Si Si1 0.257858 0.999188 0.312701
Si Si2 0.561442 0.154466 0.236683
Si Si3 0.829748 0.169481 0.956346
Si Si4 0.500580 0.877402 0.459888
Si Si5 0.711472 0.333038 0.212460
Si Si6 0.357600 0.069258 0.839185
Si Si7 0.638042 0.841322 0.943082
O O1 0.247954 0.933921 0.218151
O O2 0.287584 0.928302 0.368132
O O3 0.183546 0.060211 0.453310
O O4 0.322985 0.081412 0.198930
O O5 0.500000 0.111252 0.250000
O O6 0.597813 0.262476 0.131715
O O7 0.526216 0.193727 0.400086
O O8 0.617074 0.055025 0.171578
O O9 0.829355 0.130068 0.833826
O O10 0.768263 0.249707 0.083543
O O11 0.580856 0.855088 0.304403
O O12 0.446682 0.858776 0.441310
O O13 0.500000 0.000000 0.500000
O O14 0.658941 0.281354 0.378139
O O15 0.335250 0.132231 0.978610
#
# Coordination Sequence:
#
# PCOD8131194 Si02
#       7
#     8   8   8   8   8   8   8
#     4  11  21  34  57  81 114 152 189 236 279 338
#     4  11  20  33  59  85 112 151 189 233 287 352
#     4  10  20  38  56  82 112 148 195 231 282 345
#     4  10  18  32  50  82 114 145 176 227 290 352
#     4  10  21  35  57  79 111 153 190 232 284 345
#     4  11  21  31  53  87 121 140 182 238 303 341
#     4  11  19  35  51  79 116 150 181 227 295 348
#
# _framework density 19.285107
#
# number of rings (size 3 to 8) (size 9 to 14) (size 15 to 20)
#    0.000    1.429    4.286    5.571    2.000    0.571 
#    0.000    0.000    0.000    2.571    0.000    0.000 
#    0.000    0.000    0.000    0.000    0.000    0.000 
#
# Total GULP energy -346954.545257 kJ/mol
# GULP energy per Si atom -12391.233759 kJ/mol
# Density = 1.924121 g / cm^3
# Si number density = 19.285107 Si / 1000 Ang^3
#
#
#
# Elastic Constant Matrix: (Units=GPa)
#
#
# Indices 1 2 3 4 5 6 
#
# 1 54.3067 19.5140 10.5150 0.0000 6.7452 0.0000
# 2 19.5140 41.8990 26.5576 0.0000 -1.1099 0.0000
# 3 10.5150 26.5576 91.9269 0.0000 7.2182 0.0000
# 4 0.0000 0.0000 0.0000 27.0646 0.0000 2.9904
# 5 6.7452 -1.1099 7.2182 0.0000 32.3428 0.0000
# 6 0.0000 0.0000 0.0000 2.9904 0.0000 18.5393
#
#
#
# Elastic Compliance Matrix: (Units=1/GPa)
#
#
# Indices 1 2 3 4 5 6 
#
# 1 0.023038 -0.011600 0.001145 0.000000 -0.005458 0.000000
# 2 -0.011600 0.035335 -0.009330 0.000000 0.005714 0.000000
# 3 0.001145 -0.009330 0.013727 0.000000 -0.003622 0.000000
# 4 0.000000 0.000000 0.000000 0.037619 0.000000 -0.006068
# 5 -0.005458 0.005714 -0.003622 0.000000 0.033062 0.000000
# 6 0.000000 0.000000 0.000000 -0.006068 0.000000 0.054918
#
#
# Mechanical properties :
#
#
# Convention : Reuss Voigt Hill
#
# Bulk Modulus (GPa) = 30.74131 33.47841 32.10986
# Shear Modulus (GPa) = 20.15210 24.35907 22.25558
#
# Velocity S-wave (km/s) = 3.23609 3.55787 3.40079
# Velocity P-wave (km/s) = 5.47157 5.85451 5.66628
#
# Compressibility (1/GPa) = 0.03252952
#
# Stress axis : x y z
#
# Youngs Moduli (GPa) = 43.40567 28.30088 72.84838
#
# Poissons Ratio (x) = 0.32829 -0.08338
# Poissons Ratio (y) = 0.50350 0.67967
# Poissons Ratio (z) = -0.04968 0.26405
#
# Static dielectric constant tensor:
#      x y z
#    x 3.358160 0.000000 0.063860 
#    y 0.000000 3.282090 0.000000 
#    z 0.063860 0.000000 4.218400 
# 
# 
# High freq. dielectric constant tensor:
#      x y z
#    x 1.735450 0.000000 0.017100 
#    y 0.000000 1.698880 0.000000 
#    z 0.017100 0.000000 1.761310 
# 
# From -- ./inp_files/122621.got.cif
#   From: 2010.06.25/outbox.cif.g09.slc.cpg/sg15_62_cif.got.tgz:122621.got - 2010.06.28 07:06:18.
