data_PCOD8131695
_publ_section_title
;
Structure prediction by ZEFSAII (Michael W. Deem and Ramdas Pophale) SiO2 
 PCOD8131695
Probable space group: C 2/C
;
_chemical_formula_sum "Si O2"
_cell_formula_units_Z 56
_cell_length_a 8.636589
_cell_length_b 10.907067
_cell_length_c 30.345961
_cell_angle_alpha 90.000000
_cell_angle_beta 73.023504
_cell_angle_gamma 90.000000
_cell_volume 2734.021169
_symmetry_space_group_name_H-M "C 2/C"
_symmetry_group_IT_number 15
_symmetry_cell_setting 'monoclinic'
loop_
_space_group_symop_operation_xyz
x,y,z
-x,y,1/2-z
-x,-y,-z
x,-y,1/2+z
1/2+x,1/2+y,z
1/2-x,1/2+y,1/2-z
1/2-x,1/2-y,-z
1/2+x,1/2-y,1/2+z
loop_
_atom_site_type_symbol
_atom_site_label
_atom_site_fract_x
_atom_site_fract_y
_atom_site_fract_z
Si Si1 0.959619 0.118797 0.446788
Si Si2 0.530699 0.129129 0.912071
Si Si3 0.000000 0.203966 0.750000
Si Si4 0.338402 0.131765 0.192358
Si Si5 0.000000 0.200846 0.250000
Si Si6 0.333375 0.132778 0.090017
Si Si7 0.844241 0.366507 0.192027
Si Si8 0.159390 0.115809 0.947353
O O1 0.053086 0.251067 0.442039
O O2 0.849766 0.121746 0.412325
O O3 0.848519 0.103612 0.499214
O O4 0.075432 0.001560 0.431932
O O5 0.639474 0.164403 0.860841
O O6 0.342823 0.113559 0.915307
O O7 0.583713 0.998292 0.928753
O O8 0.050380 0.278345 0.789124
O O9 0.155859 0.127977 0.721788
O O10 0.336800 0.165159 0.141187
O O11 0.154786 0.120881 0.225013
O O12 0.419145 0.000399 0.192980
O O13 0.956446 0.279422 0.210966
O O14 0.418850 0.252073 0.060125
#
# Coordination Sequence:
#
# PCOD8131695 Si02
#       8
#     8   8   4   8   4   8   8   8
#     4  10  22  39  58  84 117 151 189 234 284 338
#     4  10  21  37  58  84 114 149 191 235 280 335
#     4  10  22  38  56  80 114 146 182 230 280 336
#     4  10  21  36  55  81 110 144 185 230 278 331
#     4  10  18  34  56  76 106 146 182 222 280 332
#     4  10  21  37  58  84 114 149 191 235 280 335
#     4  10  21  36  55  81 110 144 185 230 278 331
#     4  10  22  39  58  84 117 151 189 234 284 338
#
# _framework density 20.482651000000001
#
# number of rings (size 3 to 8) (size 9 to 14) (size 15 to 20)
#    0.000    2.000    0.000    4.286    0.000    8.000 
#    0.000   10.000    0.000    0.000    0.000    0.000 
#    0.000    0.000    0.000    0.000    0.000    0.000 
#
# Total GULP energy -346952.339170 kJ/mol
# GULP energy per Si atom -12391.154970 kJ/mol
# Density = 2.043603 g / cm^3
# Si number density = 20.482651 Si / 1000 Ang^3
#
#
#
# Elastic Constant Matrix: (Units=GPa)
#
#
# Indices 1 2 3 4 5 6 
#
# 1 58.2651 38.9915 23.2917 0.0000 7.1699 0.0000
# 2 38.9915 165.3126 30.0362 0.0000 6.9411 0.0000
# 3 23.2917 30.0362 81.5061 0.0000 4.9326 0.0000
# 4 0.0000 0.0000 0.0000 28.7145 0.0000 -0.6273
# 5 7.1699 6.9411 4.9326 0.0000 31.4215 0.0000
# 6 0.0000 0.0000 0.0000 -0.6273 0.0000 57.8842
#
#
#
# Elastic Compliance Matrix: (Units=1/GPa)
#
#
# Indices 1 2 3 4 5 6 
#
# 1 0.022279 -0.004279 -0.004583 0.000000 -0.003419 0.000000
# 2 -0.004279 0.007341 -0.001457 0.000000 -0.000416 0.000000
# 3 -0.004583 -0.001457 0.014167 0.000000 -0.000856 0.000000
# 4 0.000000 0.000000 0.000000 0.034834 0.000000 0.000378
# 5 -0.003419 -0.000416 -0.000856 0.000000 0.032832 0.000000
# 6 0.000000 0.000000 0.000000 0.000378 0.000000 0.017280
#
#
# Mechanical properties :
#
#
# Convention : Reuss Voigt Hill
#
# Bulk Modulus (GPa) = 43.19737 54.41364 48.80550
# Shear Modulus (GPa) = 31.82951 37.78833 34.80892
#
# Velocity S-wave (km/s) = 3.94632 4.29988 4.12689
# Velocity P-wave (km/s) = 6.47303 7.16068 6.82552
#
# Compressibility (1/GPa) = 0.02314956
#
# Stress axis : x y z
#
# Youngs Moduli (GPa) = 44.88536 136.22911 70.58408
#
# Poissons Ratio (x) = 0.58287 0.32348
# Poissons Ratio (y) = 0.19205 0.10286
# Poissons Ratio (z) = 0.20571 0.19852
#
# Static dielectric constant tensor:
#      x y z
#    x 3.354420 0.000000 -0.092550 
#    y 0.000000 4.093620 0.000000 
#    z -0.092550 0.000000 3.651800 
# 
# 
# High freq. dielectric constant tensor:
#      x y z
#    x 1.780190 0.000000 -0.001240 
#    y 0.000000 1.820310 0.000000 
#    z -0.001240 0.000000 1.801920 
# 
# From -- ./inp_files/287988.got.cif
#   From: 2010.06.25/outbox.cif.g09.slc.cpg/sg15_144_cif.got.tgz:287988.got - 2010.06.28 07:06:18.
