data_PCOD8131295
_publ_section_title
;
Structure prediction by ZEFSAII (Michael W. Deem and Ramdas Pophale) SiO2 
 PCOD8131295
Probable space group: C 2/C
;
_chemical_formula_sum "Si O2"
_cell_formula_units_Z 52
_cell_length_a 17.203413
_cell_length_b 22.773972
_cell_length_c 10.398011
_cell_angle_alpha 90.000000
_cell_angle_beta 41.352083
_cell_angle_gamma 90.000000
_cell_volume 2691.520321
_symmetry_space_group_name_H-M "C 2/C"
_symmetry_group_IT_number 15
_symmetry_cell_setting 'monoclinic'
loop_
_space_group_symop_operation_xyz
x,y,z
-x,y,1/2-z
-x,-y,-z
x,-y,1/2+z
1/2+x,1/2+y,z
1/2-x,1/2+y,1/2-z
1/2-x,1/2-y,-z
1/2+x,1/2-y,1/2+z
loop_
_atom_site_type_symbol
_atom_site_label
_atom_site_fract_x
_atom_site_fract_y
_atom_site_fract_z
Si Si1 0.133134 0.049360 0.437932
Si Si2 0.283140 0.157673 0.164019
Si Si3 0.236508 0.330070 0.391549
Si Si4 0.899307 0.270032 0.743323
Si Si5 0.500000 0.175110 0.750000
Si Si6 0.636747 0.550135 0.727831
Si Si7 0.871776 0.261673 0.181776
O O1 0.218330 0.103525 0.307788
O O2 0.153490 0.027414 0.559762
O O3 0.998527 0.069711 0.584021
O O4 0.168397 0.000156 0.290828
O O5 0.339730 0.199191 0.197681
O O6 0.191568 0.200161 0.202222
O O7 0.393620 0.135401 0.939258
O O8 0.115257 0.315574 0.619269
O O9 0.334663 0.292254 0.345839
O O10 0.273502 0.397647 0.351820
O O11 0.219153 0.310539 0.263377
O O12 0.033953 0.252160 0.550321
O O13 0.562110 0.217351 0.774607
#
# Coordination Sequence:
#
# PCOD8131295 Si02
#       7
#     8   8   8   8   4   8   8
#     4  10  21  38  59  84 116 153 193 246 287 341
#     4  10  19  36  57  78 113 155 188 237 284 343
#     4  10  18  32  55  84 113 144 183 238 285 341
#     4   9  18  31  53  87 112 139 183 234 290 339
#     4  10  22  36  52  80 122 152 192 226 288 358
#     4  10  21  37  59  87 116 150 197 240 294 344
#     4  10  20  33  54  83 115 149 184 230 290 345
#
# _framework density 19.319935000000001
#
# number of rings (size 3 to 8) (size 9 to 14) (size 15 to 20)
#    0.000    2.154    1.538    1.846    0.000    1.231 
#    0.000    3.077    3.385    2.769    0.000    0.000 
#    0.000    0.000    0.000    0.000    0.000    0.000 
#
# Total GULP energy -322140.200360 kJ/mol
# GULP energy per Si atom -12390.007706 kJ/mol
# Density = 1.927596 g / cm^3
# Si number density = 19.319935 Si / 1000 Ang^3
#
#
#
# Elastic Constant Matrix: (Units=GPa)
#
#
# Indices 1 2 3 4 5 6 
#
# 1 91.9622 31.3300 23.1740 0.0000 7.5569 0.0000
# 2 31.3300 73.0364 34.4401 0.0000 1.1822 0.0000
# 3 23.1740 34.4401 105.8657 0.0001 0.4827 0.0000
# 4 0.0000 0.0000 0.0001 29.0084 0.0000 2.8388
# 5 7.5569 1.1822 0.4827 0.0000 25.2541 0.0000
# 6 0.0000 0.0000 0.0000 2.8388 0.0000 14.3505
#
#
#
# Elastic Compliance Matrix: (Units=1/GPa)
#
#
# Indices 1 2 3 4 5 6 
#
# 1 0.013199 -0.005017 -0.001240 0.000000 -0.003691 0.000000
# 2 -0.005017 0.018091 -0.004790 0.000000 0.000746 0.000000
# 3 -0.001240 -0.004790 0.011274 0.000000 0.000380 0.000000
# 4 0.000000 0.000000 0.000000 0.035153 0.000000 -0.006954
# 5 -0.003691 0.000746 0.000380 0.000000 0.040660 0.000000
# 6 0.000000 0.000000 0.000000 -0.006954 0.000000 0.071060
#
#
# Mechanical properties :
#
#
# Convention : Reuss Voigt Hill
#
# Bulk Modulus (GPa) = 48.85640 49.86137 49.35888
# Shear Modulus (GPa) = 22.89838 25.85061 24.37449
#
# Velocity S-wave (km/s) = 3.44644 3.66187 3.55579
# Velocity P-wave (km/s) = 6.41718 6.61388 6.51627
#
# Compressibility (1/GPa) = 0.02046815
#
# Stress axis : x y z
#
# Youngs Moduli (GPa) = 75.76202 55.27631 88.69896
#
# Poissons Ratio (x) = 0.27735 0.11001
# Poissons Ratio (y) = 0.38013 0.42490
# Poissons Ratio (z) = 0.09396 0.26480
#
# Static dielectric constant tensor:
#      x y z
#    x 3.596280 0.000000 -0.063120 
#    y 0.000000 3.167530 0.000000 
#    z -0.063120 0.000000 4.155600 
# 
# 
# High freq. dielectric constant tensor:
#      x y z
#    x 1.761910 0.000000 0.001540 
#    y 0.000000 1.710750 0.000000 
#    z 0.001540 0.000000 1.764600 
# 
# From -- ./inp_files/107459.got.cif
#   From: 2010.06.25/outbox.cif.g09.slc.cpg/sg15_54_cif.got.tgz:107459.got - 2010.06.28 07:06:18.
