data_PCOD8131640
_publ_section_title
;
Structure prediction by ZEFSAII (Michael W. Deem and Ramdas Pophale) SiO2 
 PCOD8131640
Probable space group: C 2/C
;
_chemical_formula_sum "Si O2"
_cell_formula_units_Z 52
_cell_length_a 20.963744
_cell_length_b 13.208740
_cell_length_c 19.010881
_cell_angle_alpha 90.000000
_cell_angle_beta 34.209497
_cell_angle_gamma 90.000000
_cell_volume 2959.641650
_symmetry_space_group_name_H-M "C 2/C"
_symmetry_group_IT_number 15
_symmetry_cell_setting 'monoclinic'
loop_
_space_group_symop_operation_xyz
x,y,z
-x,y,1/2-z
-x,-y,-z
x,-y,1/2+z
1/2+x,1/2+y,z
1/2-x,1/2+y,1/2-z
1/2-x,1/2-y,-z
1/2+x,1/2-y,1/2+z
loop_
_atom_site_type_symbol
_atom_site_label
_atom_site_fract_x
_atom_site_fract_y
_atom_site_fract_z
Si Si1 0.580236 0.861755 0.885042
Si Si2 0.437829 0.515422 0.953740
Si Si3 0.882635 0.132459 0.621131
Si Si4 0.226351 0.350382 0.619069
Si Si5 0.760159 0.126656 0.934037
Si Si6 0.000000 0.052325 0.750000
Si Si7 0.332669 0.950814 0.115483
O O1 0.595560 0.751042 0.902992
O O2 0.619131 0.865069 0.768016
O O3 0.654621 0.936424 0.865726
O O4 0.450016 0.891353 0.007434
O O5 0.544567 0.577966 0.885047
O O6 0.464372 0.483423 0.848949
O O7 0.416950 0.412013 0.014200
O O8 0.328964 0.587002 0.059006
O O9 0.751181 0.112134 0.757678
O O10 0.266458 0.233880 0.578505
O O11 0.195425 0.386858 0.567870
O O12 0.716666 0.041232 0.919287
O O13 0.894970 0.123924 0.825023
#
# Coordination Sequence:
#
# PCOD8131640 Si02
#       7
#     8   8   8   8   8   4   8
#     4  11  23  36  58  81 119 148 185 223 285 330
#     4  10  20  33  58  82 110 143 191 231 275 320
#     4  11  21  36  58  84 109 148 190 234 268 334
#     4  10  19  33  54  84 111 147 178 228 280 339
#     4  10  20  33  55  82 116 140 185 227 287 327
#     4  10  18  34  52  82 110 144 186 238 270 320
#     4  11  22  38  53  84 116 151 179 230 279 336
#
# _framework density 17.569693999999998
#
# number of rings (size 3 to 8) (size 9 to 14) (size 15 to 20)
#    0.000    1.538    4.615    0.923    0.000    3.077 
#    0.000    0.000    0.000    7.385    0.000    0.000 
#    0.000    0.000    0.000    0.000    0.000    0.000 
#
# Total GULP energy -322387.475052 kJ/mol
# GULP energy per Si atom -12399.518271 kJ/mol
# Density = 1.752970 g / cm^3
# Si number density = 17.569694 Si / 1000 Ang^3
#
#
#
# Elastic Constant Matrix: (Units=GPa)
#
#
# Indices 1 2 3 4 5 6 
#
# 1 90.9535 59.6893 42.5520 0.0000 13.4002 0.0000
# 2 59.6893 104.3563 70.1092 0.0000 11.6045 0.0000
# 3 42.5520 70.1092 115.4935 0.0000 15.3398 0.0000
# 4 0.0000 0.0000 0.0000 9.0806 0.0000 -13.1679
# 5 13.4002 11.6045 15.3398 0.0000 33.4735 0.0000
# 6 0.0000 0.0000 0.0000 -13.1679 0.0000 4.4437
#
#
#
# Elastic Compliance Matrix: (Units=1/GPa)
#
#
# Indices 1 2 3 4 5 6 
#
# 1 0.018057 -0.009755 -0.000235 0.000000 -0.003739 0.000000
# 2 -0.009755 0.021495 -0.009566 0.000000 0.000837 0.000000
# 3 -0.000235 -0.009566 0.015013 0.000000 -0.003470 0.000000
# 4 0.000000 0.000000 0.000000 -0.033401 0.000000 -0.098976
# 5 -0.003739 0.000837 -0.003470 0.000000 0.032671 0.000000
# 6 0.000000 0.000000 0.000000 -0.098976 0.000000 -0.068254
#
#
# Mechanical properties :
#
#
# Convention : Reuss Voigt Hill
#
# Bulk Modulus (GPa) = 64.70501 72.83381 68.76941
# Shear Modulus (GPa) = 167.54103 18.62975 93.08539
#
# Velocity S-wave (km/s) = 9.77573 3.25981 7.28668
# Velocity P-wave (km/s) = 12.81903 7.46409 10.48905
#
# Compressibility (1/GPa) = 0.01545475
#
# Stress axis : x y z
#
# Youngs Moduli (GPa) = 55.38030 46.52142 66.61061
#
# Poissons Ratio (x) = 0.45380 0.01564
# Poissons Ratio (y) = 0.54022 0.63718
# Poissons Ratio (z) = 0.01300 0.44501
#
# Static dielectric constant tensor:
#      x y z
#    x 3.384170 0.000000 0.107540 
#    y 0.000000 3.064360 0.000000 
#    z 0.107540 0.000000 3.516860 
# 
# 
# High freq. dielectric constant tensor:
#      x y z
#    x 1.680420 0.000000 0.002120 
#    y 0.000000 1.648750 0.000000 
#    z 0.002120 0.000000 1.700170 
# 
# From -- ./inp_files/112307.got.cif
#   From: 2010.06.25/outbox.cif.g09.slc.cpg/sg15_57_cif.got.tgz:112307.got - 2010.06.28 07:06:18.
