data_PCOD8131577
_publ_section_title
;
Structure prediction by ZEFSAII (Michael W. Deem and Ramdas Pophale) SiO2 
 PCOD8131577
Probable space group: C 2/C
;
_chemical_formula_sum "Si O2"
_cell_formula_units_Z 48
_cell_length_a 13.822667
_cell_length_b 17.111666
_cell_length_c 15.980280
_cell_angle_alpha 90.000000
_cell_angle_beta 139.750397
_cell_angle_gamma 90.000000
_cell_volume 2442.197766
_symmetry_space_group_name_H-M "C 2/C"
_symmetry_group_IT_number 15
_symmetry_cell_setting 'monoclinic'
loop_
_space_group_symop_operation_xyz
x,y,z
-x,y,1/2-z
-x,-y,-z
x,-y,1/2+z
1/2+x,1/2+y,z
1/2-x,1/2+y,1/2-z
1/2-x,1/2-y,-z
1/2+x,1/2-y,1/2+z
loop_
_atom_site_type_symbol
_atom_site_label
_atom_site_fract_x
_atom_site_fract_y
_atom_site_fract_z
Si Si1 0.865272 0.117116 0.809003
Si Si2 0.576652 0.678194 0.216482
Si Si3 0.390505 0.747089 0.952552
Si Si4 0.803371 0.132979 0.484139
Si Si5 0.646216 0.539967 0.136279
Si Si6 0.655492 0.809193 0.039608
O O1 0.897211 0.160039 0.918301
O O2 0.760220 0.171510 0.686173
O O3 0.029819 0.108314 0.874388
O O4 0.778920 0.034384 0.767434
O O5 0.500000 0.646582 0.250000
O O6 0.722685 0.723108 0.346060
O O7 0.615604 0.605016 0.184968
O O8 0.469015 0.738951 0.095442
O O9 0.483060 0.809032 0.955536
O O10 0.755055 0.076724 0.374655
O O11 0.685814 0.128769 0.484153
O O12 0.797171 0.221925 0.451026
O O13 0.500000 0.500000 0.000000
#
# Coordination Sequence:
#
# PCOD8131577 Si02
#       6
#     8   8   8   8   8   8
#     4  10  18  34  61  83 125 156 191 241 300 351
#     4  12  24  41  65  88 115 160 210 252 294 362
#     4  11  21  41  64  88 119 154 203 258 299 348
#     4   9  18  31  55  89 117 151 198 241 289 355
#     4  10  19  37  59  87 125 157 196 248 297 355
#     4  10  18  33  59  87 115 154 193 245 299 355
#
# _framework density 19.654427999999999
#
# number of rings (size 3 to 8) (size 9 to 14) (size 15 to 20)
#    0.000    1.667    6.667    1.000    0.000    2.667 
#    0.000    1.667    0.000    2.000    0.000    0.000 
#    0.000    0.000    0.000    0.000    0.000    0.000 
#
# Total GULP energy -297353.272404 kJ/mol
# GULP energy per Si atom -12389.719683 kJ/mol
# Density = 1.960969 g / cm^3
# Si number density = 19.654428 Si / 1000 Ang^3
#
#
#
# Elastic Constant Matrix: (Units=GPa)
#
#
# Indices 1 2 3 4 5 6 
#
# 1 89.5610 35.5065 37.1447 0.0003 -17.6639 0.0003
# 2 35.5065 78.4412 32.0876 0.0002 -2.8896 0.0001
# 3 37.1447 32.0876 94.0178 0.0005 -0.8825 0.0006
# 4 0.0003 0.0002 0.0005 8.4761 0.0006 4.6980
# 5 -17.6639 -2.8896 -0.8825 0.0006 23.9475 0.0006
# 6 0.0003 0.0001 0.0006 4.6980 0.0006 19.4166
#
#
#
# Elastic Compliance Matrix: (Units=1/GPa)
#
#
# Indices 1 2 3 4 5 6 
#
# 1 0.017912 -0.005585 -0.005055 -0.000001 0.012352 0.000000
# 2 -0.005585 0.016620 -0.003487 0.000000 -0.002243 0.000000
# 3 -0.005055 -0.003487 0.013789 0.000000 -0.003641 0.000000
# 4 -0.000001 0.000000 0.000000 0.136251 -0.000003 -0.032967
# 5 0.012352 -0.002243 -0.003641 -0.000003 0.050464 -0.000001
# 6 0.000000 0.000000 0.000000 -0.032967 -0.000001 0.059479
#
#
# Mechanical properties :
#
#
# Convention : Reuss Voigt Hill
#
# Bulk Modulus (GPa) = 49.82992 52.38861 51.10926
# Shear Modulus (GPa) = 15.17640 20.85345 18.01492
#
# Velocity S-wave (km/s) = 2.78179 3.26084 3.03080
# Velocity P-wave (km/s) = 5.97711 6.39454 6.18935
#
# Compressibility (1/GPa) = 0.02006827
#
# Stress axis : x y z
#
# Youngs Moduli (GPa) = 55.82699 60.16729 72.52085
#
# Poissons Ratio (x) = 0.33606 0.36657
# Poissons Ratio (y) = 0.31181 0.25286
# Poissons Ratio (z) = 0.28219 0.20979
#
# Static dielectric constant tensor:
#      x y z
#    x 3.855950 0.000000 -0.219130 
#    y 0.000000 4.009020 0.000000 
#    z -0.219130 0.000000 3.535020 
# 
# 
# High freq. dielectric constant tensor:
#      x y z
#    x 1.751260 0.000000 -0.019500 
#    y 0.000000 1.753470 0.000000 
#    z -0.019500 0.000000 1.759290 
# 
# From -- ./inp_files/155277.got.cif
#   From: 2010.06.25/outbox.cif.g09.slc.cpg/sg15_78_cif.got.tgz:155277.got - 2010.06.28 07:06:18.
