data_PCOD8131717
_publ_section_title
;
Structure prediction by ZEFSAII (Michael W. Deem and Ramdas Pophale) SiO2 
 PCOD8131717
Probable space group: C 2/C
;
_chemical_formula_sum "Si O2"
_cell_formula_units_Z 52
_cell_length_a 8.312209
_cell_length_b 14.735974
_cell_length_c 15.063478
_cell_angle_alpha 90.000000
_cell_angle_beta 84.036821
_cell_angle_gamma 90.000000
_cell_volume 1835.118660
_symmetry_space_group_name_H-M "C 2/C"
_symmetry_group_IT_number 15
_symmetry_cell_setting 'monoclinic'
loop_
_space_group_symop_operation_xyz
x,y,z
-x,y,1/2-z
-x,-y,-z
x,-y,1/2+z
1/2+x,1/2+y,z
1/2-x,1/2+y,1/2-z
1/2-x,1/2-y,-z
1/2+x,1/2-y,1/2+z
loop_
_atom_site_type_symbol
_atom_site_label
_atom_site_fract_x
_atom_site_fract_y
_atom_site_fract_z
Si Si1 0.245531 0.800686 0.806361
Si Si2 0.078168 0.516921 0.156990
Si Si3 0.741702 0.508483 0.099636
Si Si4 0.500000 0.576622 0.750000
Si Si5 0.146703 0.822274 0.056588
Si Si6 0.888045 0.194137 0.383854
Si Si7 0.305381 0.637709 0.596799
O O1 0.333683 0.708633 0.839604
O O2 0.205492 0.800539 0.705581
O O3 0.079460 0.812740 0.869824
O O4 0.362077 0.883928 0.820811
O O5 0.221568 0.461277 0.099360
O O6 0.000000 0.468509 0.250000
O O7 0.930492 0.524182 0.098876
O O8 0.630351 0.490868 0.194007
O O9 0.719689 0.422410 0.036687
O O10 0.680984 0.604108 0.059761
O O11 0.400501 0.638535 0.685989
O O12 0.962475 0.829307 0.028175
O O13 0.250000 0.750000 0.000000
O O14 0.833658 0.291865 0.422922
#
# Coordination Sequence:
#
# PCOD8131717 Si02
#       7
#     8   8   8   4   8   8   8
#     4  11  23  38  64  97 138 165 213 271 330 400
#     4  12  22  37  63 102 135 159 204 268 354 398
#     4  11  21  38  62  95 133 165 214 269 328 389
#     4  10  18  34  56  88 126 168 202 270 330 374
#     4  11  26  47  65  90 133 188 229 258 311 391
#     4  11  21  37  65 103 131 161 208 278 348 380
#     4  11  22  36  60  93 128 168 214 268 321 386
#
# _framework density 28.336044000000001
#
# number of rings (size 3 to 8) (size 9 to 14) (size 15 to 20)
#    0.000    0.923    3.077    6.462    2.154    0.000 
#    0.000    9.231    0.000    0.000    0.000    0.000 
#    0.000    0.000    0.000    0.000    0.000    0.000 
#
# Total GULP energy -322189.547515 kJ/mol
# GULP energy per Si atom -12391.905674 kJ/mol
# Density = 2.827155 g / cm^3
# Si number density = 28.336044 Si / 1000 Ang^3
#
#
#
# Elastic Constant Matrix: (Units=GPa)
#
#
# Indices 1 2 3 4 5 6 
#
# 1 214.8865 64.7586 18.7678 0.0000 5.3981 0.0000
# 2 64.7586 176.7654 25.5841 0.0000 12.0103 0.0000
# 3 18.7678 25.5841 42.3331 0.0000 -11.1062 0.0000
# 4 0.0000 0.0000 0.0000 35.5985 0.0000 1.2421
# 5 5.3981 12.0103 -11.1062 0.0000 28.3119 0.0000
# 6 0.0000 0.0000 0.0000 1.2421 0.0000 59.5271
#
#
#
# Elastic Compliance Matrix: (Units=1/GPa)
#
#
# Indices 1 2 3 4 5 6 
#
# 1 0.005315 -0.001651 -0.001606 0.000000 -0.000943 0.000000
# 2 -0.001651 0.007292 -0.004910 0.000000 -0.004705 0.000000
# 3 -0.001606 -0.004910 0.031132 0.000000 0.014601 0.000000
# 4 0.000000 0.000000 0.000000 0.028112 0.000000 -0.000587
# 5 -0.000943 -0.004705 0.014601 0.000000 0.043224 0.000000
# 6 0.000000 0.000000 0.000000 -0.000587 0.000000 0.016811
#
#
# Mechanical properties :
#
#
# Convention : Reuss Voigt Hill
#
# Bulk Modulus (GPa) = 36.48770 72.46733 54.47752
# Shear Modulus (GPa) = 31.77534 46.34582 39.06058
#
# Velocity S-wave (km/s) = 3.35233 4.04862 3.71681
# Velocity P-wave (km/s) = 5.28099 6.89092 6.13896
#
# Compressibility (1/GPa) = 0.02740649
#
# Stress axis : x y z
#
# Youngs Moduli (GPa) = 188.14556 137.13380 32.12117
#
# Poissons Ratio (x) = 0.22635 0.05160
# Poissons Ratio (y) = 0.31055 0.15770
# Poissons Ratio (z) = 0.30221 0.67326
#
# Static dielectric constant tensor:
#      x y z
#    x 5.623750 0.000000 -0.020970 
#    y 0.000000 5.341180 0.000000 
#    z -0.020970 0.000000 6.288170 
# 
# 
# High freq. dielectric constant tensor:
#      x y z
#    x 2.177640 0.000000 0.013350 
#    y 0.000000 2.150010 0.000000 
#    z 0.013350 0.000000 2.179800 
# 
# From -- ./inp_files/231173.got.cif
#   From: 2010.06.25/outbox.cif.g09.slc.cpg/sg15_116_cif.got.tgz:231173.got - 2010.06.28 07:06:18.
