data_PCOD8131132
_publ_section_title
;
Structure prediction by ZEFSAII (Michael W. Deem and Ramdas Pophale) SiO2 
 PCOD8131132
Probable space group: C 2/C
;
_chemical_formula_sum "Si O2"
_cell_formula_units_Z 48
_cell_length_a 25.908579
_cell_length_b 13.110563
_cell_length_c 13.925868
_cell_angle_alpha 90.000000
_cell_angle_beta 31.015730
_cell_angle_gamma 90.000000
_cell_volume 2437.389403
_symmetry_space_group_name_H-M "C 2/C"
_symmetry_group_IT_number 15
_symmetry_cell_setting 'monoclinic'
loop_
_space_group_symop_operation_xyz
x,y,z
-x,y,1/2-z
-x,-y,-z
x,-y,1/2+z
1/2+x,1/2+y,z
1/2-x,1/2+y,1/2-z
1/2-x,1/2-y,-z
1/2+x,1/2-y,1/2+z
loop_
_atom_site_type_symbol
_atom_site_label
_atom_site_fract_x
_atom_site_fract_y
_atom_site_fract_z
Si Si1 0.737952 0.870836 0.023938
Si Si2 0.612115 0.033572 0.556511
Si Si3 0.940199 0.956408 0.441573
Si Si4 0.047055 0.870329 0.887573
Si Si5 0.573007 0.245811 0.545057
Si Si6 0.761290 0.916295 0.197587
O O1 0.847092 0.910355 0.820356
O O2 0.750000 0.750000 0.000000
O O3 0.655321 0.920120 0.086599
O O4 0.709178 0.903360 0.177464
O O5 0.500000 0.991350 0.750000
O O6 0.608211 0.128887 0.488791
O O7 0.676304 0.938737 0.413128
O O8 0.949253 0.862734 0.501928
O O9 0.000000 0.933077 0.250000
O O10 0.827563 0.980568 0.588694
O O11 0.970815 0.051760 0.458994
O O12 0.001812 0.761198 0.926982
O O13 0.500000 0.275728 0.750000
O O14 0.672786 0.315837 0.384419
#
# Coordination Sequence:
#
# PCOD8131132 Si02
#       6
#     8   8   8   8   8   8
#     4  12  20  36  63  87 111 161 208 243 299 360
#     4  11  24  39  57  89 125 163 204 253 299 354
#     4  10  18  31  55  93 118 136 188 255 312 349
#     4  10  18  31  58  88 111 149 189 250 304 349
#     4  10  18  37  61  91 120 151 204 260 296 354
#     4  11  20  34  62  90 121 154 207 252 295 361
#
# _framework density 19.693200999999998
#
# number of rings (size 3 to 8) (size 9 to 14) (size 15 to 20)
#    0.000    1.333    6.667    2.000    0.000    0.667 
#    0.000    0.000    0.000   11.000    0.000    0.000 
#    0.000    0.000    0.000    0.000    0.000    0.000 
#
# Total GULP energy -297346.361063 kJ/mol
# GULP energy per Si atom -12389.431711 kJ/mol
# Density = 1.964838 g / cm^3
# Si number density = 19.693201 Si / 1000 Ang^3
#
#
#
# Elastic Constant Matrix: (Units=GPa)
#
#
# Indices 1 2 3 4 5 6 
#
# 1 102.2776 15.8760 23.3740 0.0000 10.5764 0.0000
# 2 15.8760 48.5906 31.2952 0.0000 6.0764 0.0000
# 3 23.3740 31.2952 116.0369 0.0000 -2.0332 0.0000
# 4 0.0000 0.0000 0.0000 23.6991 0.0000 3.0872
# 5 10.5764 6.0764 -2.0332 0.0000 36.6208 0.0000
# 6 0.0000 0.0000 0.0000 3.0872 0.0000 23.6130
#
#
#
# Elastic Compliance Matrix: (Units=1/GPa)
#
#
# Indices 1 2 3 4 5 6 
#
# 1 0.010777 -0.002098 -0.001655 0.000000 -0.002856 0.000000
# 2 -0.002098 0.026082 -0.006683 0.000000 -0.004093 0.000000
# 3 -0.001655 -0.006683 0.010792 0.000000 0.002186 0.000000
# 4 0.000000 0.000000 0.000000 0.042927 0.000000 -0.005612
# 5 -0.002856 -0.004093 0.002186 0.000000 0.028932 0.000000
# 6 0.000000 0.000000 0.000000 -0.005612 0.000000 0.043083
#
#
# Mechanical properties :
#
#
# Convention : Reuss Voigt Hill
#
# Bulk Modulus (GPa) = 37.34423 45.33284 41.33854
# Shear Modulus (GPa) = 25.98862 29.87722 27.93292
#
# Velocity S-wave (km/s) = 3.63667 3.89927 3.77026
# Velocity P-wave (km/s) = 6.05294 6.58345 6.32376
#
# Compressibility (1/GPa) = 0.02677790
#
# Stress axis : x y z
#
# Youngs Moduli (GPa) = 92.79410 38.34067 92.65980
#
# Poissons Ratio (x) = 0.08044 0.15335
# Poissons Ratio (y) = 0.19467 0.61929
# Poissons Ratio (z) = 0.15358 0.25625
#
# Static dielectric constant tensor:
#      x y z
#    x 4.173160 0.000000 -0.276380 
#    y 0.000000 3.397480 0.000000 
#    z -0.276380 0.000000 3.733570 
# 
# 
# High freq. dielectric constant tensor:
#      x y z
#    x 1.781890 0.000000 -0.017820 
#    y 0.000000 1.727600 0.000000 
#    z -0.017820 0.000000 1.756740 
# 
# From -- ./inp_files/153609.got.cif
#   From: 2010.06.25/outbox.cif.g09.slc.cpg/sg15_77_cif.got.tgz:153609.got - 2010.06.28 07:06:18.
