data_PCOD8131239
_publ_section_title
;
Structure prediction by ZEFSAII (Michael W. Deem and Ramdas Pophale) SiO2 
 PCOD8131239
Probable space group: C 2/C
;
_chemical_formula_sum "Si O2"
_cell_formula_units_Z 52
_cell_length_a 11.189060
_cell_length_b 25.671294
_cell_length_c 13.939047
_cell_angle_alpha 90.000000
_cell_angle_beta 45.845747
_cell_angle_gamma 90.000000
_cell_volume 2872.608152
_symmetry_space_group_name_H-M "C 2/C"
_symmetry_group_IT_number 15
_symmetry_cell_setting 'monoclinic'
loop_
_space_group_symop_operation_xyz
x,y,z
-x,y,1/2-z
-x,-y,-z
x,-y,1/2+z
1/2+x,1/2+y,z
1/2-x,1/2+y,1/2-z
1/2-x,1/2-y,-z
1/2+x,1/2-y,1/2+z
loop_
_atom_site_type_symbol
_atom_site_label
_atom_site_fract_x
_atom_site_fract_y
_atom_site_fract_z
Si Si1 0.092414 0.947047 0.969684
Si Si2 0.199190 0.132784 0.901273
Si Si3 0.000000 0.434451 0.250000
Si Si4 0.673012 0.986165 0.509002
Si Si5 0.814919 0.147184 0.366258
Si Si6 0.168283 0.558035 0.341590
Si Si7 0.811503 0.738397 0.859227
O O1 0.176934 0.953356 0.026967
O O2 0.236663 0.942034 0.811500
O O3 0.970210 0.896782 0.034254
O O4 0.000000 0.000000 0.000000
O O5 0.359161 0.100129 0.774424
O O6 0.203069 0.193683 0.863137
O O7 0.227705 0.142026 0.998423
O O8 0.100589 0.468844 0.117776
O O9 0.527172 0.946160 0.567447
O O10 0.737082 0.012562 0.374243
O O11 0.683840 0.113524 0.381952
O O12 0.803454 0.203613 0.319218
O O13 0.000000 0.124068 0.250000
O O14 0.000000 0.717365 0.750000
O O15 0.750000 0.750000 0.000000
#
# Coordination Sequence:
#
# PCOD8131239 Si02
#       7
#     8   8   4   8   8   8   8
#     4  12  21  34  53  79 111 143 180 219 262 329
#     4  11  20  31  53  74 110 142 166 224 276 314
#     4  12  18  34  46  74 108 138 172 206 268 314
#     4  11  23  35  52  80 107 146 181 215 266 320
#     4  10  18  32  53  79 100 134 179 218 269 316
#     4  11  21  36  55  74 111 143 179 222 264 319
#     4   9  19  32  50  78 108 134 176 225 273 324
#
# _framework density 18.102015999999999
#
# number of rings (size 3 to 8) (size 9 to 14) (size 15 to 20)
#    0.000    1.231    6.923    0.000    0.000    0.000 
#    0.000    0.000    0.000    0.923    0.000    0.000 
#    0.000    0.000    0.000    0.000    0.000    0.000 
#
# Total GULP energy -322141.366276 kJ/mol
# GULP energy per Si atom -12390.052549 kJ/mol
# Density = 1.806082 g / cm^3
# Si number density = 18.102016 Si / 1000 Ang^3
#
#
#
# Elastic Constant Matrix: (Units=GPa)
#
#
# Indices 1 2 3 4 5 6 
#
# 1 104.8753 68.5209 14.9561 0.0000 -3.7636 0.0000
# 2 68.5209 123.1733 5.0374 0.0000 -20.5290 0.0000
# 3 14.9561 5.0374 43.3290 0.0000 -14.7161 0.0000
# 4 0.0000 0.0000 0.0000 20.4180 0.0000 -8.3137
# 5 -3.7636 -20.5290 -14.7161 0.0000 17.0268 0.0000
# 6 0.0000 0.0000 0.0000 -8.3137 0.0000 27.7710
#
#
#
# Elastic Compliance Matrix: (Units=1/GPa)
#
#
# Indices 1 2 3 4 5 6 
#
# 1 0.020537 -0.015178 -0.014152 0.000000 -0.025992 0.000000
# 2 -0.015178 0.021953 0.014916 0.000000 0.036005 0.000000
# 3 -0.014152 0.014916 0.044271 0.000000 0.053119 0.000000
# 4 0.000000 0.000000 0.000000 0.055775 0.000000 0.016697
# 5 -0.025992 0.036005 0.053119 0.000000 0.142307 0.000000
# 6 0.000000 0.000000 0.000000 0.016697 0.000000 0.041007
#
#
# Mechanical properties :
#
#
# Convention : Reuss Voigt Hill
#
# Bulk Modulus (GPa) = 17.26170 49.82291 33.54231
# Shear Modulus (GPa) = 13.36930 25.23403 19.30166
#
# Velocity S-wave (km/s) = 2.72058 3.73767 3.26892
# Velocity P-wave (km/s) = 4.40741 6.79780 5.72867
#
# Compressibility (1/GPa) = 0.05793172
#
# Stress axis : x y z
#
# Youngs Moduli (GPa) = 48.69181 45.55171 22.58801
#
# Poissons Ratio (x) = 0.69139 0.31967
# Poissons Ratio (y) = 0.73905 -0.33691
# Poissons Ratio (z) = 0.68910 -0.67943
#
# Static dielectric constant tensor:
#      x y z
#    x 3.324690 0.000000 -0.142670 
#    y 0.000000 4.418770 0.000000 
#    z -0.142670 0.000000 3.739990 
# 
# 
# High freq. dielectric constant tensor:
#      x y z
#    x 1.661190 0.000000 -0.020050 
#    y 0.000000 1.706720 0.000000 
#    z -0.020050 0.000000 1.708900 
# 
# From -- ./inp_files/147826.got.cif
#   From: 2010.06.25/outbox.cif.g09.slc.cpg/sg15_74_cif.got.tgz:147826.got - 2010.06.28 07:06:18.
