data_PCOD8131033
_publ_section_title
;
Structure prediction by ZEFSAII (Michael W. Deem and Ramdas Pophale) SiO2 
 PCOD8131033
Probable space group: C 2/C
;
_chemical_formula_sum "Si O2"
_cell_formula_units_Z 64
_cell_length_a 20.083979
_cell_length_b 25.939113
_cell_length_c 9.224321
_cell_angle_alpha 90.000000
_cell_angle_beta 132.827469
_cell_angle_gamma 90.000000
_cell_volume 3524.378839
_symmetry_space_group_name_H-M "C 2/C"
_symmetry_group_IT_number 15
_symmetry_cell_setting 'monoclinic'
loop_
_space_group_symop_operation_xyz
x,y,z
-x,y,1/2-z
-x,-y,-z
x,-y,1/2+z
1/2+x,1/2+y,z
1/2-x,1/2+y,1/2-z
1/2-x,1/2-y,-z
1/2+x,1/2-y,1/2+z
loop_
_atom_site_type_symbol
_atom_site_label
_atom_site_fract_x
_atom_site_fract_y
_atom_site_fract_z
Si Si1 0.098394 0.736296 0.866066
Si Si2 0.217738 0.352238 0.155634
Si Si3 0.599856 0.687228 0.126181
Si Si4 0.898805 0.258521 0.623075
Si Si5 0.593490 0.947476 0.313252
Si Si6 0.400146 0.688667 0.882518
Si Si7 0.092606 0.553324 0.464143
Si Si8 0.277603 0.854441 0.996760
O O1 0.106837 0.756889 0.714845
O O2 0.173578 0.693460 0.010767
O O3 0.000000 0.710799 0.750000
O O4 0.110029 0.789413 0.970772
O O5 0.321302 0.354274 0.248635
O O6 0.215432 0.344989 0.323333
O O7 0.171859 0.302998 0.014770
O O8 0.168984 0.404921 0.038963
O O9 0.673908 0.644975 0.286398
O O10 0.615283 0.704338 0.983735
O O11 0.498957 0.663042 0.000406
O O12 0.885202 0.240550 0.767275
O O13 0.000000 0.280935 0.750000
O O14 0.500000 0.928670 0.250000
O O15 0.673062 0.907576 0.470306
O O16 0.623919 0.000619 0.433651
O O17 0.579663 0.953666 0.118839
O O18 0.000000 0.571904 0.250000
#
# Coordination Sequence:
#
# PCOD8131033 Si02
#       8
#     8   8   8   8   8   8   8   8
#     4  10  18  31  50  74 103 137 172 208 245 295
#     4  11  20  33  53  76 103 137 174 210 254 305
#     4  10  19  34  52  70 108 141 168 211 246 295
#     4  10  20  34  47  73 110 141 170 208 256 301
#     4  10  21  39  57  79 106 129 168 213 262 315
#     4  10  21  33  49  76 107 139 177 207 248 301
#     4  10  21  39  58  77 105 134 164 214 265 308
#     4  11  20  32  54  78 100 135 177 212 250 300
#
# _framework density 18.159227000000001
#
# number of rings (size 3 to 8) (size 9 to 14) (size 15 to 20)
#    0.000    1.750    2.500    3.750    0.000    0.000 
#    9.000    0.000    0.000    0.750    0.000    0.000 
#    0.000    0.000    0.000    0.000    0.000    0.000 
#
# Total GULP energy -396657.568138 kJ/mol
# GULP energy per Si atom -12395.549004 kJ/mol
# Density = 1.811790 g / cm^3
# Si number density = 18.159227 Si / 1000 Ang^3
#
#
#
# Elastic Constant Matrix: (Units=GPa)
#
#
# Indices 1 2 3 4 5 6 
#
# 1 94.6354 53.6563 43.9792 0.0000 29.0967 0.0000
# 2 53.6563 78.7228 44.8379 0.0000 28.0504 0.0000
# 3 43.9792 44.8379 91.6310 0.0000 25.1532 0.0000
# 4 0.0000 0.0000 0.0000 26.0738 0.0000 4.1926
# 5 29.0967 28.0504 25.1532 0.0000 38.0404 0.0000
# 6 0.0000 0.0000 0.0000 4.1926 0.0000 22.0414
#
#
#
# Elastic Compliance Matrix: (Units=1/GPa)
#
#
# Indices 1 2 3 4 5 6 
#
# 1 0.018911 -0.009113 -0.003043 0.000000 -0.005732 0.000000
# 2 -0.009113 0.024874 -0.005713 0.000000 -0.007593 0.000000
# 3 -0.003043 -0.005713 0.016340 0.000000 -0.004264 0.000000
# 4 0.000000 0.000000 0.000000 0.039563 0.000000 -0.007525
# 5 -0.005732 -0.007593 -0.004264 0.000000 0.039091 0.000000
# 6 0.000000 0.000000 0.000000 -0.007525 0.000000 0.046801
#
#
# Mechanical properties :
#
#
# Convention : Reuss Voigt Hill
#
# Bulk Modulus (GPa) = 41.00887 61.10398 51.05643
# Shear Modulus (GPa) = 21.79150 25.39884 23.59517
#
# Velocity S-wave (km/s) = 3.46789 3.74394 3.60856
# Velocity P-wave (km/s) = 6.21828 7.23958 6.74828
#
# Compressibility (1/GPa) = 0.02438497
#
# Stress axis : x y z
#
# Youngs Moduli (GPa) = 52.88011 40.20264 61.19906
#
# Poissons Ratio (x) = 0.36638 0.18625
# Poissons Ratio (y) = 0.48191 0.34964
# Poissons Ratio (z) = 0.16094 0.22968
#
# Static dielectric constant tensor:
#      x y z
#    x 3.487090 0.000000 0.080280 
#    y 0.000000 3.003660 0.000000 
#    z 0.080280 0.000000 3.536020 
# 
# 
# High freq. dielectric constant tensor:
#      x y z
#    x 1.712860 0.000000 -0.002050 
#    y 0.000000 1.656930 0.000000 
#    z -0.002050 0.000000 1.716150 
# 
# From -- ./inp_files/43590.got.cif
#   From: 2010.06.25/outbox.cif.g09.slc.cpg/sg15_22_cif.got.tgz:43590.got - 2010.06.28 07:06:18.
