data_PCOD8131872
_publ_section_title
;
Structure prediction by ZEFSAII (Michael W. Deem and Ramdas Pophale) SiO2 
 PCOD8131872
Probable space group: C 2/C
;
_chemical_formula_sum "Si O2"
_cell_formula_units_Z 44
_cell_length_a 9.038898
_cell_length_b 28.597113
_cell_length_c 9.279537
_cell_angle_alpha 90.000000
_cell_angle_beta 114.948494
_cell_angle_gamma 90.000000
_cell_volume 2174.811062
_symmetry_space_group_name_H-M "C 2/C"
_symmetry_group_IT_number 15
_symmetry_cell_setting 'monoclinic'
loop_
_space_group_symop_operation_xyz
x,y,z
-x,y,1/2-z
-x,-y,-z
x,-y,1/2+z
1/2+x,1/2+y,z
1/2-x,1/2+y,1/2-z
1/2-x,1/2-y,-z
1/2+x,1/2-y,1/2+z
loop_
_atom_site_type_symbol
_atom_site_label
_atom_site_fract_x
_atom_site_fract_y
_atom_site_fract_z
Si Si1 0.754408 0.650936 0.370869
Si Si2 0.430168 0.769588 0.063246
Si Si3 0.210937 0.458568 0.191854
Si Si4 0.461427 0.324450 0.958935
Si Si5 0.000000 0.111365 0.750000
Si Si6 0.835629 0.549105 0.493579
O O1 0.919422 0.680263 0.476305
O O2 0.707685 0.659478 0.184604
O O3 0.609506 0.668304 0.411461
O O4 0.769683 0.596503 0.402408
O O5 0.500000 0.779171 0.250000
O O6 0.541599 0.732283 0.019134
O O7 0.250000 0.750000 0.000000
O O8 0.339211 0.420767 0.185889
O O9 0.223898 0.460607 0.369162
O O10 0.030306 0.446096 0.063937
O O11 0.246109 0.509529 0.140188
O O12 0.491795 0.353998 0.112982
#
# Coordination Sequence:
#
# PCOD8131872 Si02
#       6
#     8   8   8   8   4   8
#     4  10  20  38  66  87 120 171 216 254 315 378
#     4  10  18  34  63  90 118 160 218 256 305 369
#     4  10  24  40  62  91 125 169 206 265 314 378
#     4  10  21  38  58  96 127 157 213 270 301 385
#     4  12  24  40  64  94 134 166 202 264 340 366
#     4  10  22  43  62  89 124 164 217 258 309 384
#
# _framework density 20.231642999999998
#
# number of rings (size 3 to 8) (size 9 to 14) (size 15 to 20)
#    0.000    1.818    5.455    0.000    5.091    2.182 
#    0.000    0.909    0.000    0.000    0.000    0.000 
#    0.000    0.000    0.000    0.000    0.000    0.000 
#
# Total GULP energy -272659.024977 kJ/mol
# GULP energy per Si atom -12393.592044 kJ/mol
# Density = 2.018559 g / cm^3
# Si number density = 20.231643 Si / 1000 Ang^3
#
#
#
# Elastic Constant Matrix: (Units=GPa)
#
#
# Indices 1 2 3 4 5 6 
#
# 1 38.0810 16.1696 20.7199 0.0000 -1.3402 0.0000
# 2 16.1696 152.5738 79.4024 0.0000 0.3399 0.0000
# 3 20.7199 79.4024 135.9542 0.0000 13.5106 0.0000
# 4 0.0000 0.0000 0.0000 16.2197 0.0000 -2.3116
# 5 -1.3402 0.3399 13.5106 0.0000 16.7010 0.0000
# 6 0.0000 0.0000 0.0000 -2.3116 0.0000 54.1567
#
#
#
# Elastic Compliance Matrix: (Units=1/GPa)
#
#
# Indices 1 2 3 4 5 6 
#
# 1 0.029313 -0.000686 -0.004678 0.000000 0.006151 0.000000
# 2 -0.000686 0.009773 -0.006066 0.000000 0.004653 0.000000
# 3 -0.004678 -0.006066 0.012653 0.000000 -0.010488 0.000000
# 4 0.000000 0.000000 0.000000 0.062031 0.000000 0.002648
# 5 0.006151 0.004653 -0.010488 0.000000 0.068760 0.000000
# 6 0.000000 0.000000 0.000000 0.002648 0.000000 0.018578
#
#
# Mechanical properties :
#
#
# Convention : Reuss Voigt Hill
#
# Bulk Modulus (GPa) = 34.62598 62.13254 48.37926
# Shear Modulus (GPa) = 21.40463 31.43663 26.42063
#
# Velocity S-wave (km/s) = 3.25619 3.94615 3.61765
# Velocity P-wave (km/s) = 5.59365 7.17914 6.43541
#
# Compressibility (1/GPa) = 0.02888005
#
# Stress axis : x y z
#
# Youngs Moduli (GPa) = 34.11482 102.31942 79.03037
#
# Poissons Ratio (x) = 0.07015 0.36972
# Poissons Ratio (y) = 0.02339 0.47939
# Poissons Ratio (z) = 0.15959 0.62066
#
# Static dielectric constant tensor:
#      x y z
#    x 3.456420 0.000000 0.168930 
#    y 0.000000 4.450910 0.000000 
#    z 0.168930 0.000000 3.823900 
# 
# 
# High freq. dielectric constant tensor:
#      x y z
#    x 1.754240 0.000000 0.013600 
#    y 0.000000 1.811280 0.000000 
#    z 0.013600 0.000000 1.800340 
# 
# From -- ./inp_files/26013.got.cif
#   From: 2010.06.25/outbox.cif.g09.slc.cpg/sg15_14_cif.got.tgz:26013.got - 2010.06.28 07:06:18.
