data_PCOD8131076
_publ_section_title
;
Structure prediction by ZEFSAII (Michael W. Deem and Ramdas Pophale) SiO2 
 PCOD8131076
Probable space group: C 2/C
;
_chemical_formula_sum "Si O2"
_cell_formula_units_Z 56
_cell_length_a 11.710191
_cell_length_b 20.206781
_cell_length_c 23.757452
_cell_angle_alpha 90.000000
_cell_angle_beta 146.523624
_cell_angle_gamma 90.000000
_cell_volume 3100.843224
_symmetry_space_group_name_H-M "C 2/C"
_symmetry_group_IT_number 15
_symmetry_cell_setting 'monoclinic'
loop_
_space_group_symop_operation_xyz
x,y,z
-x,y,1/2-z
-x,-y,-z
x,-y,1/2+z
1/2+x,1/2+y,z
1/2-x,1/2+y,1/2-z
1/2-x,1/2-y,-z
1/2+x,1/2-y,1/2+z
loop_
_atom_site_type_symbol
_atom_site_label
_atom_site_fract_x
_atom_site_fract_y
_atom_site_fract_z
Si Si1 0.177903 0.278612 0.111222
Si Si2 0.711757 0.446518 0.233317
Si Si3 0.500000 0.825320 0.750000
Si Si4 0.489729 0.053633 0.307233
Si Si5 0.044060 0.063966 0.981295
Si Si6 0.666237 0.702611 0.587002
Si Si7 0.000000 0.890044 0.250000
Si Si8 0.097176 0.690367 0.704449
O O1 0.321477 0.218736 0.150096
O O2 0.304167 0.345625 0.148265
O O3 0.137213 0.273422 0.161587
O O4 0.970228 0.266166 0.989366
O O5 0.547050 0.449741 0.116653
O O6 0.577410 0.438841 0.233840
O O7 0.876503 0.387949 0.293088
O O8 0.843883 0.514194 0.290232
O O9 0.602299 0.873132 0.744111
O O10 0.500000 0.015144 0.250000
O O11 0.710911 0.067607 0.425673
O O12 0.952144 0.132352 0.969235
O O13 0.000000 0.000000 0.000000
O O14 0.735327 0.714883 0.680154
O O15 0.865114 0.702735 0.628665
#
# Coordination Sequence:
#
# PCOD8131076 Si02
#       8
#     8   8   4   8   8   8   4   8
#     4  10  18  36  52  76 114 138 185 214 267 328
#     4  10  20  36  54  76 112 140 183 220 259 337
#     4   9  18  32  50  82 106 131 164 230 282 307
#     4  10  18  31  52  83 106 128 168 228 278 304
#     4  11  18  30  54  87 107 134 173 229 282 313
#     4  10  18  32  53  81 111 138 184 218 276 319
#     4   9  22  40  54  72 106 161 180 208 264 329
#     4   9  20  31  52  81 106 149 174 222 262 321
#
# _framework density 18.059604
#
# number of rings (size 3 to 8) (size 9 to 14) (size 15 to 20)
#    0.429    1.714    2.857    1.286    2.000    0.000 
#    2.571    3.571    0.000    1.714    0.000    0.000 
#    0.000    0.000    0.000    0.000    0.000    0.000 
#
# Total GULP energy -346913.245795 kJ/mol
# GULP energy per Si atom -12389.758778 kJ/mol
# Density = 1.801850 g / cm^3
# Si number density = 18.059604 Si / 1000 Ang^3
#
#
#
# Elastic Constant Matrix: (Units=GPa)
#
#
# Indices 1 2 3 4 5 6 
#
# 1 102.1620 43.7987 35.0748 0.0001 4.2718 0.0000
# 2 43.7987 72.6524 31.7109 -0.0001 -1.7187 -0.0001
# 3 35.0748 31.7109 102.1003 -0.0010 8.8276 -0.0007
# 4 0.0001 -0.0001 -0.0010 24.5370 -0.0001 3.9294
# 5 4.2718 -1.7187 8.8276 -0.0001 22.3436 0.0000
# 6 0.0000 -0.0001 -0.0007 3.9294 0.0000 26.5199
#
#
#
# Elastic Compliance Matrix: (Units=1/GPa)
#
#
# Indices 1 2 3 4 5 6 
#
# 1 0.013837 -0.007415 -0.002249 0.000000 -0.002327 0.000000
# 2 -0.007415 0.020133 -0.004102 0.000000 0.004587 0.000000
# 3 -0.002249 -0.004102 0.012250 0.000000 -0.004725 0.000000
# 4 0.000000 0.000000 0.000000 0.041745 0.000000 -0.006185
# 5 -0.002327 0.004587 -0.004725 0.000000 0.047420 0.000000
# 6 0.000000 0.000000 0.000000 -0.006185 0.000000 0.038624
#
#
# Mechanical properties :
#
#
# Convention : Reuss Voigt Hill
#
# Bulk Modulus (GPa) = 53.51406 55.34259 54.42832
# Shear Modulus (GPa) = 24.06491 25.76879 24.91685
#
# Velocity S-wave (km/s) = 3.65434 3.78150 3.71846
# Velocity P-wave (km/s) = 6.89216 7.05530 6.97420
#
# Compressibility (1/GPa) = 0.01868668
#
# Stress axis : x y z
#
# Youngs Moduli (GPa) = 72.27117 49.66882 81.63477
#
# Poissons Ratio (x) = 0.36829 0.18362
# Poissons Ratio (y) = 0.53588 0.33491
# Poissons Ratio (z) = 0.16255 0.20377
#
# Static dielectric constant tensor:
#      x y z
#    x 3.187800 0.000000 0.107020 
#    y 0.000000 3.382520 0.000000 
#    z 0.107020 0.000000 3.420280 
# 
# 
# High freq. dielectric constant tensor:
#      x y z
#    x 1.678340 0.000000 0.009420 
#    y 0.000000 1.685460 0.000000 
#    z 0.009420 0.000000 1.707060 
# 
# From -- ./inp_files/270988.got.cif
#   From: 2010.06.25/outbox.cif.g09.slc.cpg/sg15_136_cif.got.tgz:270988.got - 2010.06.28 07:06:18.
