data_PCOD8131247
_publ_section_title
;
Structure prediction by ZEFSAII (Michael W. Deem and Ramdas Pophale) SiO2 
 PCOD8131247
Probable space group: C 2/C
;
_chemical_formula_sum "Si O2"
_cell_formula_units_Z 44
_cell_length_a 17.456561
_cell_length_b 22.115459
_cell_length_c 5.504737
_cell_angle_alpha 90.000000
_cell_angle_beta 72.080807
_cell_angle_gamma 90.000000
_cell_volume 2022.069534
_symmetry_space_group_name_H-M "C 2/C"
_symmetry_group_IT_number 15
_symmetry_cell_setting 'monoclinic'
loop_
_space_group_symop_operation_xyz
x,y,z
-x,y,1/2-z
-x,-y,-z
x,-y,1/2+z
1/2+x,1/2+y,z
1/2-x,1/2+y,1/2-z
1/2-x,1/2-y,-z
1/2+x,1/2-y,1/2+z
loop_
_atom_site_type_symbol
_atom_site_label
_atom_site_fract_x
_atom_site_fract_y
_atom_site_fract_z
Si Si1 0.603242 0.650359 0.541056
Si Si2 0.845729 0.760691 0.135701
Si Si3 0.383564 0.473967 0.271543
Si Si4 0.796975 0.479460 0.502214
Si Si5 0.000000 0.802516 0.750000
Si Si6 0.752491 0.652707 0.076415
O O1 0.624850 0.715895 0.631967
O O2 0.598434 0.597931 0.748493
O O3 0.519385 0.657064 0.471820
O O4 0.673582 0.629617 0.291947
O O5 0.812701 0.692377 0.187163
O O6 0.773427 0.805364 0.124025
O O7 0.920917 0.762073 0.874953
O O8 0.423049 0.500862 0.481999
O O9 0.288949 0.488590 0.364496
O O10 0.841163 0.509063 0.221699
O O11 0.795598 0.407997 0.445677
#
# Coordination Sequence:
#
# PCOD8131247 Si02
#       6
#     8   8   8   8   4   8
#     4  11  20  36  58  76 116 151 190 238 285 334
#     4  10  21  37  55  81 112 147 195 239 290 337
#     4  10  19  32  55  80 114 152 187 234 280 337
#     4  10  18  32  53  84 120 146 179 231 291 345
#     4  10  24  38  52  78 110 156 194 236 284 340
#     4  10  20  33  58  87 109 145 192 239 289 341
#
# _framework density 21.759886000000002
#
# number of rings (size 3 to 8) (size 9 to 14) (size 15 to 20)
#    0.000    1.818    3.636    3.273    2.545    0.000 
#    0.000    0.909    0.000    0.000    0.000    1.273 
#    0.000    0.000    0.000    0.000    0.000    0.000 
#
# Total GULP energy -272686.681130 kJ/mol
# GULP energy per Si atom -12394.849142 kJ/mol
# Density = 2.171036 g / cm^3
# Si number density = 21.759886 Si / 1000 Ang^3
#
#
#
# Elastic Constant Matrix: (Units=GPa)
#
#
# Indices 1 2 3 4 5 6 
#
# 1 50.6657 33.4870 15.9653 0.0000 14.9111 0.0000
# 2 33.4870 111.4289 18.6256 0.0000 12.0742 0.0000
# 3 15.9653 18.6256 108.7562 0.0000 32.2447 0.0000
# 4 0.0000 0.0000 0.0000 29.7927 0.0000 7.9041
# 5 14.9111 12.0742 32.2447 0.0000 28.6504 0.0000
# 6 0.0000 0.0000 0.0000 7.9041 0.0000 16.3033
#
#
#
# Elastic Compliance Matrix: (Units=1/GPa)
#
#
# Indices 1 2 3 4 5 6 
#
# 1 0.027867 -0.007167 0.000812 0.000000 -0.012397 0.000000
# 2 -0.007167 0.011278 -0.000865 0.000000 -0.000050 0.000000
# 3 0.000812 -0.000865 0.013869 0.000000 -0.015667 0.000000
# 4 0.000000 0.000000 0.000000 0.038520 0.000000 -0.018675
# 5 -0.012397 -0.000050 -0.015667 0.000000 0.059009 0.000000
# 6 0.000000 0.000000 0.000000 -0.018675 0.000000 0.070391
#
#
# Mechanical properties :
#
#
# Convention : Reuss Voigt Hill
#
# Bulk Modulus (GPa) = 25.92386 45.22295 35.57340
# Shear Modulus (GPa) = 20.14253 28.46747 24.30500
#
# Velocity S-wave (km/s) = 3.04579 3.62090 3.34573
# Velocity P-wave (km/s) = 4.93037 6.18943 5.59543
#
# Compressibility (1/GPa) = 0.03857451
#
# Stress axis : x y z
#
# Youngs Moduli (GPa) = 35.88513 88.66732 72.10437
#
# Poissons Ratio (x) = 0.63548 -0.05856
# Poissons Ratio (y) = 0.25719 0.06234
# Poissons Ratio (z) = -0.02914 0.07666
#
# Static dielectric constant tensor:
#      x y z
#    x 3.622590 0.000000 0.444800 
#    y 0.000000 3.771760 0.000000 
#    z 0.444800 0.000000 4.384540 
# 
# 
# High freq. dielectric constant tensor:
#      x y z
#    x 1.800590 0.000000 0.024880 
#    y 0.000000 1.841750 0.000000 
#    z 0.024880 0.000000 1.866790 
# 
# From -- ./inp_files/7543.got.cif
#   From: 2010.06.25/outbox.cif.g09.slc.cpg/sg15_4_cif.got.tgz:7543.got - 2010.06.28 07:06:18.
