data_PCOD8131113
_publ_section_title
;
Structure prediction by ZEFSAII (Michael W. Deem and Ramdas Pophale) SiO2 
 PCOD8131113
Probable space group: C 2/C
;
_chemical_formula_sum "Si O2"
_cell_formula_units_Z 40
_cell_length_a 17.997593
_cell_length_b 6.199686
_cell_length_c 22.232961
_cell_angle_alpha 90.000000
_cell_angle_beta 58.722716
_cell_angle_gamma 90.000000
_cell_volume 2120.201863
_symmetry_space_group_name_H-M "C 2/C"
_symmetry_group_IT_number 15
_symmetry_cell_setting 'monoclinic'
loop_
_space_group_symop_operation_xyz
x,y,z
-x,y,1/2-z
-x,-y,-z
x,-y,1/2+z
1/2+x,1/2+y,z
1/2-x,1/2+y,1/2-z
1/2-x,1/2-y,-z
1/2+x,1/2-y,1/2+z
loop_
_atom_site_type_symbol
_atom_site_label
_atom_site_fract_x
_atom_site_fract_y
_atom_site_fract_z
Si Si1 0.295779 0.321977 0.420138
Si Si2 0.370059 0.032992 0.042757
Si Si3 0.545843 0.945116 0.667609
Si Si4 0.991007 0.769319 0.072919
Si Si5 0.422078 0.336992 0.919993
O O1 0.250000 0.250000 0.500000
O O2 0.222908 0.418306 0.405238
O O3 0.351752 0.123779 0.368755
O O4 0.361938 0.508997 0.407485
O O5 0.397769 0.186078 0.087369
O O6 0.363633 0.185298 0.987056
O O7 0.437981 0.841848 0.000357
O O8 0.500000 0.916092 0.750000
O O9 0.498383 0.793053 0.639476
O O10 0.531954 0.188173 0.649375
O O11 0.008235 0.029644 0.067120
#
# Coordination Sequence:
#
# PCOD8131113 Si02
#       5
#     8   8   8   8   8
#     4  11  19  34  57  85 110 142 187 240 282 334
#     4  10  18  31  54  87 113 136 175 238 288 331
#     4  10  22  37  55  78 111 153 195 232 281 349
#     4   9  19  33  54  82 113 141 179 228 284 340
#     4  10  18  31  54  82 111 144 185 226 287 344
#
# _framework density 18.866128
#
# number of rings (size 3 to 8) (size 9 to 14) (size 15 to 20)
#    0.000    2.000    6.000    1.200    0.000    3.200 
#    0.000    0.000    4.400    0.000    0.000    0.000 
#    0.000    0.000    0.000    0.000    0.000    0.000 
#
# Total GULP energy -247802.352942 kJ/mol
# GULP energy per Si atom -12390.117647 kJ/mol
# Density = 1.882319 g / cm^3
# Si number density = 18.866128 Si / 1000 Ang^3
#
#
#
# Elastic Constant Matrix: (Units=GPa)
#
#
# Indices 1 2 3 4 5 6 
#
# 1 114.1785 33.3612 27.1978 0.0104 -5.5232 0.0221
# 2 33.3612 103.7561 26.3244 0.0438 -9.8367 0.0197
# 3 27.1978 26.3244 94.7080 0.0045 -4.8918 0.0043
# 4 0.0104 0.0438 0.0045 13.7247 0.0039 2.4211
# 5 -5.5232 -9.8367 -4.8918 0.0039 15.0293 0.0043
# 6 0.0221 0.0197 0.0043 2.4211 0.0043 41.9279
#
#
#
# Elastic Compliance Matrix: (Units=1/GPa)
#
#
# Indices 1 2 3 4 5 6 
#
# 1 0.010079 -0.002580 -0.002109 0.000002 0.001329 -0.000004
# 2 -0.002580 0.011580 -0.002172 -0.000036 0.005924 -0.000002
# 3 -0.002109 -0.002172 0.011854 0.000004 0.001662 0.000001
# 4 0.000002 -0.000036 0.000004 0.073611 -0.000039 -0.004251
# 5 0.001329 0.005924 0.001662 -0.000039 0.071443 -0.000009
# 6 -0.000004 -0.000002 0.000001 -0.004251 -0.000009 0.024096
#
#
# Mechanical properties :
#
#
# Convention : Reuss Voigt Hill
#
# Bulk Modulus (GPa) = 50.52505 54.04549 52.28527
# Shear Modulus (GPa) = 22.42347 29.18702 25.80524
#
# Velocity S-wave (km/s) = 3.45129 3.93753 3.70240
# Velocity P-wave (km/s) = 6.53611 7.02718 6.78609
#
# Compressibility (1/GPa) = 0.01979216
#
# Stress axis : x y z
#
# Youngs Moduli (GPa) = 99.22099 86.35472 84.36079
#
# Poissons Ratio (x) = 0.22276 0.17789
# Poissons Ratio (y) = 0.25595 0.18323
# Poissons Ratio (z) = 0.20922 0.18756
#
# Static dielectric constant tensor:
#      x y z
#    x 3.638620 -0.000110 0.042330 
#    y -0.000110 3.480940 0.000000 
#    z 0.042330 0.000000 2.962220 
# 
# 
# High freq. dielectric constant tensor:
#      x y z
#    x 1.727500 0.000000 0.009980 
#    y 0.000000 1.754610 0.000000 
#    z 0.009980 0.000000 1.674040 
# 
# From -- ./inp_files/208091.got.cif
#   From: 2010.06.25/outbox.cif.g09.slc.cpg/sg15_105_cif.got.tgz:208091.got - 2010.06.28 07:06:18.
