data_PCOD8131746
_publ_section_title
;
Structure prediction by ZEFSAII (Michael W. Deem and Ramdas Pophale) SiO2 
 PCOD8131746
Probable space group: C 2/C
;
_chemical_formula_sum "Si O2"
_cell_formula_units_Z 64
_cell_length_a 21.734602
_cell_length_b 15.208102
_cell_length_c 15.240485
_cell_angle_alpha 90.000000
_cell_angle_beta 40.515185
_cell_angle_gamma 90.000000
_cell_volume 3272.688281
_symmetry_space_group_name_H-M "C 2/C"
_symmetry_group_IT_number 15
_symmetry_cell_setting 'monoclinic'
loop_
_space_group_symop_operation_xyz
x,y,z
-x,y,1/2-z
-x,-y,-z
x,-y,1/2+z
1/2+x,1/2+y,z
1/2-x,1/2+y,1/2-z
1/2-x,1/2-y,-z
1/2+x,1/2-y,1/2+z
loop_
_atom_site_type_symbol
_atom_site_label
_atom_site_fract_x
_atom_site_fract_y
_atom_site_fract_z
Si Si1 0.449121 0.531061 0.898247
Si Si2 0.043011 0.460551 0.295827
Si Si3 0.056835 0.811251 0.278692
Si Si4 0.622790 0.163534 0.470104
Si Si5 0.886619 0.362657 0.713218
Si Si6 0.767995 0.410974 0.490228
Si Si7 0.916844 0.155005 0.407679
Si Si8 0.780760 0.099658 0.985022
O O1 0.500000 0.517974 0.750000
O O2 0.511964 0.604554 0.881483
O O3 0.442796 0.430784 0.940714
O O4 0.344547 0.570118 0.998783
O O5 0.054088 0.547163 0.344115
O O6 0.143546 0.411163 0.173545
O O7 0.000000 0.491906 0.250000
O O8 0.973070 0.392423 0.417326
O O9 0.046450 0.722981 0.346707
O O10 0.166728 0.832901 0.137166
O O11 0.000000 0.798838 0.250000
O O12 0.661448 0.145770 0.330243
O O13 0.704287 0.137786 0.450152
O O14 0.598050 0.265764 0.509081
O O15 0.811416 0.356031 0.873598
O O16 0.679002 0.362268 0.543586
O O17 0.745297 0.511695 0.540913
O O18 0.000000 0.180744 0.250000
#
# Coordination Sequence:
#
# PCOD8131746 Si02
#       8
#     8   8   8   8   8   8   8   8
#     4   7  14  30  53  75  93 122 170 215 245 289
#     4   9  19  37  57  75 100 140 180 213 255 312
#     4   9  17  33  54  76  99 133 176 212 252 314
#     4  11  22  33  48  80 112 137 172 216 260 305
#     4  11  20  32  51  78 109 136 168 218 263 301
#     4   9  18  35  57  76  99 138 179 212 255 317
#     4  10  18  34  58  78 100 136 176 214 257 314
#     4   8  16  32  53  72  96 134 174 208 250 308
#
# _framework density 19.555788
#
# number of rings (size 3 to 8) (size 9 to 14) (size 15 to 20)
#    0.000    3.000    0.000    3.375    0.000    0.000 
#    0.000    9.375    0.000    0.000    0.000    1.750 
#    0.000    0.000    0.000    0.000    0.000    0.000 
#
# Total GULP energy -396488.906585 kJ/mol
# GULP energy per Si atom -12390.278331 kJ/mol
# Density = 1.951128 g / cm^3
# Si number density = 19.555788 Si / 1000 Ang^3
#
#
#
# Elastic Constant Matrix: (Units=GPa)
#
#
# Indices 1 2 3 4 5 6 
#
# 1 65.8088 48.7710 32.5940 0.0000 -7.2367 0.0000
# 2 48.7710 151.1652 27.3023 0.0000 4.2562 0.0000
# 3 32.5940 27.3023 31.0173 0.0000 -11.3817 0.0000
# 4 0.0000 0.0000 0.0000 10.4516 0.0000 -6.4656
# 5 -7.2367 4.2562 -11.3817 0.0000 29.2162 0.0000
# 6 0.0000 0.0000 0.0000 -6.4656 0.0000 18.7764
#
#
#
# Elastic Compliance Matrix: (Units=1/GPa)
#
#
# Indices 1 2 3 4 5 6 
#
# 1 0.035554 -0.005195 -0.034163 0.000000 -0.003745 0.000000
# 2 -0.005195 0.009163 -0.004163 0.000000 -0.004244 0.000000
# 3 -0.034163 -0.004163 0.080417 0.000000 0.023473 0.000000
# 4 0.000000 0.000000 0.000000 0.121578 0.000000 0.041865
# 5 -0.003745 -0.004244 0.023473 0.000000 0.043062 0.000000
# 6 0.000000 0.000000 0.000000 0.041865 0.000000 0.067674
#
#
# Mechanical properties :
#
#
# Convention : Reuss Voigt Hill
#
# Bulk Modulus (GPa) = 26.25241 51.70289 38.97765
# Shear Modulus (GPa) = 10.93642 20.97712 15.95677
#
# Velocity S-wave (km/s) = 2.36740 3.27873 2.85960
# Velocity P-wave (km/s) = 4.57452 6.38980 5.55679
#
# Compressibility (1/GPa) = 0.03809174
#
# Stress axis : x y z
#
# Youngs Moduli (GPa) = 28.12611 109.13620 12.43515
#
# Poissons Ratio (x) = 0.56699 0.42482
# Poissons Ratio (y) = 0.14612 0.05177
# Poissons Ratio (z) = 0.96087 0.45435
#
# Static dielectric constant tensor:
#      x y z
#    x 3.363240 0.000000 -0.359790 
#    y 0.000000 4.021280 0.000000 
#    z -0.359790 0.000000 3.361530 
# 
# 
# High freq. dielectric constant tensor:
#      x y z
#    x 1.732860 0.000000 -0.030450 
#    y 0.000000 1.784030 0.000000 
#    z -0.030450 0.000000 1.733590 
# 
# From -- ./inp_files/173646.got.cif
#   From: 2010.06.25/outbox.cif.g09.slc.cpg/sg15_87_cif.got.tgz:173646.got - 2010.06.28 07:06:18.
