data_PCOD8131084
_publ_section_title
;
Structure prediction by ZEFSAII (Michael W. Deem and Ramdas Pophale) SiO2 
 PCOD8131084
Probable space group: C 2/C
;
_chemical_formula_sum "Si O2"
_cell_formula_units_Z 52
_cell_length_a 31.465928
_cell_length_b 16.877983
_cell_length_c 8.900325
_cell_angle_alpha 90.000000
_cell_angle_beta 140.081149
_cell_angle_gamma 90.000000
_cell_volume 3033.195132
_symmetry_space_group_name_H-M "C 2/C"
_symmetry_group_IT_number 15
_symmetry_cell_setting 'monoclinic'
loop_
_space_group_symop_operation_xyz
x,y,z
-x,y,1/2-z
-x,-y,-z
x,-y,1/2+z
1/2+x,1/2+y,z
1/2-x,1/2+y,1/2-z
1/2-x,1/2-y,-z
1/2+x,1/2-y,1/2+z
loop_
_atom_site_type_symbol
_atom_site_label
_atom_site_fract_x
_atom_site_fract_y
_atom_site_fract_z
Si Si1 0.576110 0.409730 0.705469
Si Si2 0.436975 0.252316 0.684287
Si Si3 0.000000 0.006040 0.750000
Si Si4 0.706806 0.746550 0.737550
Si Si5 0.639839 0.892703 0.475895
Si Si6 0.271569 0.586891 0.835577
Si Si7 0.808791 0.499801 0.632891
O O1 0.559872 0.315282 0.670082
O O2 0.538087 0.450628 0.738334
O O3 0.551659 0.438321 0.477260
O O4 0.652473 0.434316 0.927957
O O5 0.500000 0.259905 0.750000
O O6 0.368452 0.275780 0.411492
O O7 0.427743 0.160549 0.715178
O O8 0.703224 0.832019 0.643858
O O9 0.736166 0.681620 0.703150
O O10 0.750000 0.750000 0.000000
O O11 0.641807 0.950995 0.340086
O O12 0.644782 0.940202 0.646769
O O13 0.227803 0.560324 0.856509
O O14 0.246375 0.545500 0.614367
#
# Coordination Sequence:
#
# PCOD8131084 Si02
#       7
#     8   8   4   8   8   8   8
#     4  10  19  33  51  75 105 146 172 214 254 313
#     4   9  18  35  56  75 103 146 175 214 259 322
#     4  10  20  32  50  72 112 136 184 208 256 300
#     4   9  17  33  53  78 103 138 172 214 258 322
#     4   9  20  34  57  72 112 131 180 214 272 309
#     4  10  18  31  53  75 110 129 181 206 273 302
#     4  10  19  33  52  82 102 137 168 232 257 311
#
# _framework density 17.143639
#
# number of rings (size 3 to 8) (size 9 to 14) (size 15 to 20)
#    0.923    1.538    2.308    0.923    0.000    0.615 
#    0.000    2.308    6.769    0.000    0.000    0.000 
#    0.000    0.000    0.000    0.000    0.000    0.000 
#
# Total GULP energy -322107.624631 kJ/mol
# GULP energy per Si atom -12388.754794 kJ/mol
# Density = 1.710462 g / cm^3
# Si number density = 17.143639 Si / 1000 Ang^3
#
#
#
# Elastic Constant Matrix: (Units=GPa)
#
#
# Indices 1 2 3 4 5 6 
#
# 1 56.7560 30.4379 29.2942 0.0000 -10.0632 0.0000
# 2 30.4379 110.6626 33.9066 0.0000 -13.1170 0.0000
# 3 29.2942 33.9066 66.4214 0.0000 -10.5347 0.0000
# 4 0.0000 0.0000 0.0000 26.7256 0.0000 0.0436
# 5 -10.0632 -13.1170 -10.5347 0.0000 25.9151 0.0000
# 6 0.0000 0.0000 0.0000 0.0436 0.0000 28.9236
#
#
#
# Elastic Compliance Matrix: (Units=1/GPa)
#
#
# Indices 1 2 3 4 5 6 
#
# 1 0.024664 -0.003733 -0.008287 0.000000 0.004319 0.000000
# 2 -0.003733 0.011568 -0.003806 0.000000 0.002859 0.000000
# 3 -0.008287 -0.003806 0.021204 0.000000 0.003475 0.000000
# 4 0.000000 0.000000 0.000000 0.037417 0.000000 -0.000056
# 5 0.004319 0.002859 0.003475 0.000000 0.043124 0.000000
# 6 0.000000 0.000000 0.000000 -0.000056 0.000000 0.034574
#
#
# Mechanical properties :
#
#
# Convention : Reuss Voigt Hill
#
# Bulk Modulus (GPa) = 38.78163 46.79082 42.78622
# Shear Modulus (GPa) = 23.49634 25.65961 24.57798
#
# Velocity S-wave (km/s) = 3.70612 3.87297 3.79046
# Velocity P-wave (km/s) = 6.40191 6.88132 6.64594
#
# Compressibility (1/GPa) = 0.02578541
#
# Stress axis : x y z
#
# Youngs Moduli (GPa) = 40.54420 86.44512 47.16030
#
# Poissons Ratio (x) = 0.32268 0.39083
# Poissons Ratio (y) = 0.15134 0.17947
# Poissons Ratio (z) = 0.33600 0.32897
#
# Static dielectric constant tensor:
#      x y z
#    x 2.867130 0.000000 -0.076760 
#    y 0.000000 3.496410 0.000000 
#    z -0.076760 0.000000 3.138460 
# 
# 
# High freq. dielectric constant tensor:
#      x y z
#    x 1.637790 0.000000 -0.003620 
#    y 0.000000 1.676780 0.000000 
#    z -0.003620 0.000000 1.648550 
# 
# From -- ./inp_files/67062.got.cif
#   From: 2010.06.25/outbox.cif.g09.slc.cpg/sg15_34_cif.got.tgz:67062.got - 2010.06.28 07:06:18.
