data_PCOD8131996
_publ_section_title
;
Structure prediction by ZEFSAII (Michael W. Deem and Ramdas Pophale) SiO2 
 PCOD8131996
Probable space group: C 2/C
;
_chemical_formula_sum "Si O2"
_cell_formula_units_Z 52
_cell_length_a 16.880454
_cell_length_b 24.317280
_cell_length_c 10.222518
_cell_angle_alpha 90.000000
_cell_angle_beta 139.808003
_cell_angle_gamma 90.000000
_cell_volume 2708.026977
_symmetry_space_group_name_H-M "C 2/C"
_symmetry_group_IT_number 15
_symmetry_cell_setting 'monoclinic'
loop_
_space_group_symop_operation_xyz
x,y,z
-x,y,1/2-z
-x,-y,-z
x,-y,1/2+z
1/2+x,1/2+y,z
1/2-x,1/2+y,1/2-z
1/2-x,1/2-y,-z
1/2+x,1/2-y,1/2+z
loop_
_atom_site_type_symbol
_atom_site_label
_atom_site_fract_x
_atom_site_fract_y
_atom_site_fract_z
Si Si1 0.688705 0.319738 0.803639
Si Si2 0.109342 0.372472 0.587179
Si Si3 0.500000 0.052709 0.750000
Si Si4 0.191838 0.982638 0.240645
Si Si5 0.839371 0.526710 0.183775
Si Si6 0.027131 0.922426 0.636493
Si Si7 0.910892 0.707118 0.757908
O O1 0.766916 0.335828 0.772106
O O2 0.575530 0.360508 0.686444
O O3 0.624892 0.260572 0.702671
O O4 0.783476 0.319249 0.045670
O O5 0.103727 0.408788 0.445951
O O6 0.117378 0.412350 0.721223
O O7 0.985414 0.335768 0.443676
O O8 0.548056 0.015423 0.691211
O O9 0.284573 0.964403 0.470077
O O10 0.251845 0.997755 0.177805
O O11 0.129687 0.038360 0.208449
O O12 0.097730 0.931948 0.103197
O O13 0.000000 0.939130 0.750000
O O14 0.000000 0.723875 0.750000
#
# Coordination Sequence:
#
# PCOD8131996 Si02
#       7
#     8   8   4   8   8   8   8
#     4  10  18  35  58  86 120 158 198 262 307 349
#     4  11  21  37  59  89 126 155 202 257 306 355
#     4  12  22  38  62  92 126 162 198 240 308 374
#     4  11  24  37  58  89 127 165 204 243 302 371
#     4  12  23  41  59  88 128 168 200 246 302 370
#     4  11  21  35  57  89 125 160 202 249 304 367
#     4   9  19  34  58  88 117 155 205 260 311 351
#
# _framework density 19.202172999999998
#
# number of rings (size 3 to 8) (size 9 to 14) (size 15 to 20)
#    0.000    1.231    6.923    0.923    0.000    0.000 
#    0.000    0.000    0.000    0.923    0.000    0.000 
#    0.000    0.000    0.000    0.000    0.000    0.000 
#
# Total GULP energy -322314.207318 kJ/mol
# GULP energy per Si atom -12396.700281 kJ/mol
# Density = 1.915847 g / cm^3
# Si number density = 19.202173 Si / 1000 Ang^3
#
#
#
# Elastic Constant Matrix: (Units=GPa)
#
#
# Indices 1 2 3 4 5 6 
#
# 1 71.7575 42.3474 15.9737 0.0000 8.9569 0.0000
# 2 42.3474 138.1640 49.7317 0.0000 13.3862 0.0000
# 3 15.9737 49.7317 71.9453 0.0000 4.2766 0.0000
# 4 0.0000 0.0000 0.0000 55.2911 0.0000 17.9350
# 5 8.9569 13.3862 4.2766 0.0000 26.5715 0.0000
# 6 0.0000 0.0000 0.0000 17.9350 0.0000 38.7006
#
#
#
# Elastic Compliance Matrix: (Units=1/GPa)
#
#
# Indices 1 2 3 4 5 6 
#
# 1 0.017291 -0.004881 -0.000267 0.000000 -0.003327 0.000000
# 2 -0.004881 0.011413 -0.006625 0.000000 -0.003038 0.000000
# 3 -0.000267 -0.006625 0.018511 0.000000 0.000448 0.000000
# 4 0.000000 0.000000 0.000000 0.021286 0.000000 -0.009865
# 5 -0.003327 -0.003038 0.000448 0.000000 0.040214 0.000000
# 6 0.000000 0.000000 0.000000 -0.009865 0.000000 0.030411
#
#
# Mechanical properties :
#
#
# Convention : Reuss Voigt Hill
#
# Bulk Modulus (GPa) = 42.24922 55.33027 48.78975
# Shear Modulus (GPa) = 29.31485 35.70024 32.50755
#
# Velocity S-wave (km/s) = 3.91147 4.31650 4.11896
# Velocity P-wave (km/s) = 6.51533 7.32939 6.93432
#
# Compressibility (1/GPa) = 0.02366908
#
# Stress axis : x y z
#
# Youngs Moduli (GPa) = 57.83286 87.62129 54.02082
#
# Poissons Ratio (x) = 0.42771 0.01443
# Poissons Ratio (y) = 0.28230 0.35787
# Poissons Ratio (z) = 0.01545 0.58046
#
# Static dielectric constant tensor:
#      x y z
#    x 3.841450 0.000000 0.051820 
#    y 0.000000 3.600550 0.000000 
#    z 0.051820 0.000000 3.621840 
# 
# 
# High freq. dielectric constant tensor:
#      x y z
#    x 1.734080 0.000000 0.026690 
#    y 0.000000 1.745510 0.000000 
#    z 0.026690 0.000000 1.737330 
# 
# From -- ./inp_files/107553.got.cif
#   From: 2010.06.25/outbox.cif.g09.slc.cpg/sg15_54_cif.got.tgz:107553.got - 2010.06.28 07:06:18.
