data_PCOD8131842
_publ_section_title
;
Structure prediction by ZEFSAII (Michael W. Deem and Ramdas Pophale) SiO2 
 PCOD8131842
Probable space group: C 2/C
;
_chemical_formula_sum "Si O2"
_cell_formula_units_Z 64
_cell_length_a 28.200244
_cell_length_b 10.265658
_cell_length_c 9.148713
_cell_angle_alpha 90.000000
_cell_angle_beta 94.426674
_cell_angle_gamma 90.000000
_cell_volume 2640.597413
_symmetry_space_group_name_H-M "C 2/C"
_symmetry_group_IT_number 15
_symmetry_cell_setting 'monoclinic'
loop_
_space_group_symop_operation_xyz
x,y,z
-x,y,1/2-z
-x,-y,-z
x,-y,1/2+z
1/2+x,1/2+y,z
1/2-x,1/2+y,1/2-z
1/2-x,1/2-y,-z
1/2+x,1/2-y,1/2+z
loop_
_atom_site_type_symbol
_atom_site_label
_atom_site_fract_x
_atom_site_fract_y
_atom_site_fract_z
Si Si1 0.296702 0.667727 0.983265
Si Si2 0.854464 0.331040 0.571059
Si Si3 0.671538 0.441592 0.301355
Si Si4 0.390992 0.828850 0.025942
Si Si5 0.065911 0.988798 0.216541
Si Si6 0.367128 0.967692 0.296484
Si Si7 0.460775 0.774447 0.633786
Si Si8 0.027193 0.140118 0.451970
O O1 0.294925 0.601472 0.823265
O O2 0.250000 0.750000 0.000000
O O3 0.301721 0.552576 0.102523
O O4 0.338329 0.772141 0.000533
O O5 0.838678 0.183519 0.597489
O O6 0.837732 0.372895 0.402540
O O7 0.834257 0.435321 0.686645
O O8 0.912212 0.352582 0.594564
O O9 0.622747 0.504378 0.223837
O O10 0.426392 0.718777 0.982871
O O11 0.398646 0.879330 0.194127
O O12 0.399217 0.943315 0.909958
O O13 0.052569 0.857060 0.289344
O O14 0.038687 0.109548 0.285988
O O15 0.036969 0.992870 0.054193
O O16 0.500000 0.845943 0.750000
O O17 0.483047 0.734430 0.480616
#
# Coordination Sequence:
#
# PCOD8131842 Si02
#       8
#     8   8   8   8   8   8   8   8
#     4  12  27  46  73 105 138 168 214 278 346 421
#     4  10  21  42  68  99 136 185 241 278 341 400
#     4  11  22  45  71 103 136 176 220 275 348 413
#     4  11  22  43  65  92 131 175 226 273 341 404
#     4  10  18  34  61  89 130 174 215 272 334 398
#     4  10  22  40  69  93 128 186 233 283 325 398
#     4   9  19  33  55  90 138 182 228 284 329 387
#     4  11  20  35  59  93 134 176 224 276 335 397
#
# _framework density 24.236937999999999
#
# number of rings (size 3 to 8) (size 9 to 14) (size 15 to 20)
#    0.000    1.500    3.750    1.875    1.750    3.000 
#    0.000    9.375    0.000    0.000    0.000    0.000 
#    0.000    0.000    0.000    0.000    0.000    0.000 
#
# Total GULP energy -396455.569823 kJ/mol
# GULP energy per Si atom -12389.236557 kJ/mol
# Density = 2.418177 g / cm^3
# Si number density = 24.236938 Si / 1000 Ang^3
#
#
#
# Elastic Constant Matrix: (Units=GPa)
#
#
# Indices 1 2 3 4 5 6 
#
# 1 103.3439 35.9115 30.7835 0.0000 -11.0741 0.0000
# 2 35.9115 80.0154 47.2924 0.0000 2.7559 0.0000
# 3 30.7835 47.2924 148.4604 0.0000 -17.7493 0.0000
# 4 0.0000 0.0000 0.0000 47.0111 0.0000 2.0698
# 5 -11.0741 2.7559 -17.7493 0.0000 24.0639 0.0000
# 6 0.0000 0.0000 0.0000 2.0698 0.0000 -4.3307
#
#
#
# Elastic Compliance Matrix: (Units=1/GPa)
#
#
# Indices 1 2 3 4 5 6 
#
# 1 0.012361 -0.005795 0.000047 0.000000 0.006386 0.000000
# 2 -0.005795 0.018917 -0.005925 0.000000 -0.009203 0.000000
# 3 0.000047 -0.005925 0.009538 0.000000 0.007735 0.000000
# 4 0.000000 0.000000 0.000000 0.020833 0.000000 0.009957
# 5 0.006386 -0.009203 0.007735 0.000000 0.051254 0.000000
# 6 0.000000 0.000000 0.000000 0.009957 0.000000 -0.226152
#
#
# Mechanical properties :
#
#
# Convention : Reuss Voigt Hill
#
# Bulk Modulus (GPa) = 57.24236 62.19939 59.72088
# Shear Modulus (GPa) = -59.46799 27.87103 -15.79848
#
# Velocity S-wave (km/s) = -4.95877 3.39476 -2.55588
# Velocity P-wave (km/s) = 3.01939 6.40973 3.99799
#
# Compressibility (1/GPa) = 0.01746958
#
# Stress axis : x y z
#
# Youngs Moduli (GPa) = 80.90196 52.86189 104.84020
#
# Poissons Ratio (x) = 0.30633 -0.00488
# Poissons Ratio (y) = 0.46883 0.62116
# Poissons Ratio (z) = -0.00376 0.31320
#
# Static dielectric constant tensor:
#      x y z
#    x 3.740530 0.000000 0.878700 
#    y 0.000000 4.556570 0.000000 
#    z 0.878700 0.000000 3.850870 
# 
# 
# High freq. dielectric constant tensor:
#      x y z
#    x 1.920540 0.000000 -0.010250 
#    y 0.000000 1.966860 0.000000 
#    z -0.010250 0.000000 1.985840 
# 
# From -- ./inp_files/69385.got.cif
#   From: 2010.06.25/outbox.cif.g09.slc.cpg/sg15_35_cif.got.tgz:69385.got - 2010.06.28 07:06:18.
