data_PCOD8131212
_publ_section_title
;
Structure prediction by ZEFSAII (Michael W. Deem and Ramdas Pophale) SiO2 
 PCOD8131212
Probable space group: C 2/C
;
_chemical_formula_sum "Si O2"
_cell_formula_units_Z 64
_cell_length_a 13.263864
_cell_length_b 30.744834
_cell_length_c 16.150735
_cell_angle_alpha 90.000000
_cell_angle_beta 34.294717
_cell_angle_gamma 90.000000
_cell_volume 3710.990062
_symmetry_space_group_name_H-M "C 2/C"
_symmetry_group_IT_number 15
_symmetry_cell_setting 'monoclinic'
loop_
_space_group_symop_operation_xyz
x,y,z
-x,y,1/2-z
-x,-y,-z
x,-y,1/2+z
1/2+x,1/2+y,z
1/2-x,1/2+y,1/2-z
1/2-x,1/2-y,-z
1/2+x,1/2-y,1/2+z
loop_
_atom_site_type_symbol
_atom_site_label
_atom_site_fract_x
_atom_site_fract_y
_atom_site_fract_z
Si Si1 0.189564 0.076279 0.166267
Si Si2 0.196492 0.294055 0.435840
Si Si3 0.154221 0.123363 0.441693
Si Si4 0.670463 0.028124 0.576340
Si Si5 0.138580 0.431261 0.581927
Si Si6 0.929795 0.628053 0.116188
Si Si7 0.541153 0.293177 0.092695
Si Si8 0.007791 0.956204 0.942054
O O1 0.291478 0.118589 0.134730
O O2 0.000000 0.088723 0.250000
O O3 0.151987 0.043023 0.268743
O O4 0.334041 0.054826 0.006362
O O5 0.349328 0.288390 0.264310
O O6 0.291901 0.301783 0.459062
O O7 0.078395 0.250417 0.516062
O O8 0.062929 0.333024 0.502485
O O9 0.215691 0.104399 0.489104
O O10 0.320938 0.139804 0.273348
O O11 0.029584 0.165163 0.540440
O O12 0.042832 0.085325 0.474639
O O13 0.500000 0.031265 0.750000
O O14 0.816417 0.051190 0.533229
O O15 0.723424 0.979039 0.513096
O O16 0.000000 0.436740 0.750000
O O17 0.046199 0.415245 0.559464
O O18 0.000000 0.000000 0.000000
#
# Coordination Sequence:
#
# PCOD8131212 Si02
#       8
#     8   8   8   8   8   8   8   8
#     4   9  21  37  52  75 103 141 183 221 267 316
#     4  10  20  33  50  76 108 139 170 210 258 318
#     4  10  18  32  52  73 103 141 176 214 257 314
#     4  10  20  35  51  72 102 140 181 229 265 306
#     4   9  17  29  47  73 103 134 175 211 260 308
#     4  10  19  33  54  74 101 141 175 215 262 314
#     4  10  20  33  49  77 110 138 169 208 260 312
#     4  10  19  35  52  73 103 143 178 216 268 314
#
# _framework density 17.246072000000002
#
# number of rings (size 3 to 8) (size 9 to 14) (size 15 to 20)
#    0.000    2.250    2.500    0.750    1.750    2.500 
#    2.250    0.000    0.000    0.000    0.000   14.875 
#    0.000    0.000    0.000    0.000    0.000    0.000 
#
# Total GULP energy -396556.418934 kJ/mol
# GULP energy per Si atom -12392.388092 kJ/mol
# Density = 1.720682 g / cm^3
# Si number density = 17.246072 Si / 1000 Ang^3
#
#
#
# Elastic Constant Matrix: (Units=GPa)
#
#
# Indices 1 2 3 4 5 6 
#
# 1 79.5635 47.3077 31.9281 0.0000 1.2964 0.0000
# 2 47.3077 110.4375 61.3740 0.0000 -4.0420 0.0000
# 3 31.9281 61.3740 97.1445 0.0000 2.4872 0.0000
# 4 0.0000 0.0000 0.0000 28.6590 0.0000 -4.5962
# 5 1.2964 -4.0420 2.4872 0.0000 19.9243 0.0000
# 6 0.0000 0.0000 0.0000 -4.5962 0.0000 20.2253
#
#
#
# Elastic Compliance Matrix: (Units=1/GPa)
#
#
# Indices 1 2 3 4 5 6 
#
# 1 0.017110 -0.006659 -0.001358 0.000000 -0.002295 0.000000
# 2 -0.006659 0.016862 -0.008590 0.000000 0.004926 0.000000
# 3 -0.001358 -0.008590 0.016262 0.000000 -0.003684 0.000000
# 4 0.000000 0.000000 0.000000 0.036213 0.000000 0.008229
# 5 -0.002295 0.004926 -0.003684 0.000000 0.051799 0.000000
# 6 0.000000 0.000000 0.000000 0.008229 0.000000 0.051313
#
#
# Mechanical properties :
#
#
# Convention : Reuss Voigt Hill
#
# Bulk Modulus (GPa) = 58.75661 63.15167 60.95414
# Shear Modulus (GPa) = 21.88708 23.53078 22.70893
#
# Velocity S-wave (km/s) = 3.56632 3.69780 3.63265
# Velocity P-wave (km/s) = 7.14854 7.41142 7.28117
#
# Compressibility (1/GPa) = 0.01701936
#
# Stress axis : x y z
#
# Youngs Moduli (GPa) = 58.44500 59.30642 61.49371
#
# Poissons Ratio (x) = 0.39491 0.08350
# Poissons Ratio (y) = 0.38917 0.52826
# Poissons Ratio (z) = 0.07936 0.50947
#
# Static dielectric constant tensor:
#      x y z
#    x 3.280180 0.000000 0.094000 
#    y 0.000000 3.178440 0.000000 
#    z 0.094000 0.000000 3.349040 
# 
# 
# High freq. dielectric constant tensor:
#      x y z
#    x 1.646980 0.000000 -0.002630 
#    y 0.000000 1.657310 0.000000 
#    z -0.002630 0.000000 1.662470 
# 
# From -- ./inp_files/149147.got.cif
#   From: 2010.06.25/outbox.cif.g09.slc.cpg/sg15_75_cif.got.tgz:149147.got - 2010.06.28 07:06:18.
