data_PCOD8131308
_publ_section_title
;
Structure prediction by ZEFSAII (Michael W. Deem and Ramdas Pophale) SiO2 
 PCOD8131308
Probable space group: C 2/C
;
_chemical_formula_sum "Si O2"
_cell_formula_units_Z 60
_cell_length_a 30.780179
_cell_length_b 18.275954
_cell_length_c 18.162516
_cell_angle_alpha 90.000000
_cell_angle_beta 18.633568
_cell_angle_gamma 90.000000
_cell_volume 3264.508576
_symmetry_space_group_name_H-M "C 2/C"
_symmetry_group_IT_number 15
_symmetry_cell_setting 'monoclinic'
loop_
_space_group_symop_operation_xyz
x,y,z
-x,y,1/2-z
-x,-y,-z
x,-y,1/2+z
1/2+x,1/2+y,z
1/2-x,1/2+y,1/2-z
1/2-x,1/2-y,-z
1/2+x,1/2-y,1/2+z
loop_
_atom_site_type_symbol
_atom_site_label
_atom_site_fract_x
_atom_site_fract_y
_atom_site_fract_z
Si Si1 0.045654 0.197851 0.937230
Si Si2 0.851018 0.415624 0.229870
Si Si3 0.335289 0.920888 0.741529
Si Si4 0.213093 0.668005 0.037013
Si Si5 0.688649 0.203078 0.322318
Si Si6 0.077717 0.294220 0.491047
Si Si7 0.000000 0.748550 0.750000
Si Si8 0.336125 0.680293 0.386135
O O1 0.172872 0.146448 0.707267
O O2 0.094648 0.264688 0.909111
O O3 0.966805 0.233328 0.995967
O O4 0.937640 0.152161 0.158724
O O5 0.792003 0.494739 0.302024
O O6 0.837884 0.359954 0.182230
O O7 0.762180 0.387371 0.440804
O O8 0.002690 0.418216 0.016613
O O9 0.273963 0.886740 0.914985
O O10 0.277709 0.878383 0.761715
O O11 0.058435 0.670290 0.253142
O O12 0.250000 0.750000 0.000000
O O13 0.824752 0.252669 0.108219
O O14 0.606371 0.199169 0.531837
O O15 0.081800 0.801450 0.672121
O O16 0.250000 0.750000 0.500000
#
# Coordination Sequence:
#
# PCOD8131308 Si02
#       8
#     8   8   8   8   8   8   4   8
#     4  10  19  33  54  81 111 136 191 227 268 313
#     4  10  18  35  55  86 111 140 185 228 277 326
#     4  10  20  33  59  83 111 147 179 229 280 322
#     4   9  17  35  51  77 112 140 184 228 257 331
#     4  11  18  32  54  86 105 147 179 227 278 318
#     4  10  18  32  56  81 107 140 187 228 267 329
#     4  10  20  28  54  84 110 132 190 232 262 322
#     4  11  18  33  57  83 108 144 180 227 274 321
#
# _framework density 18.379490000000001
#
# number of rings (size 3 to 8) (size 9 to 14) (size 15 to 20)
#    0.000    1.867    6.667    0.800    0.000    0.533 
#    0.000    0.667    5.867    8.000    0.000    0.000 
#    0.000    0.000    0.000    0.000    0.000    0.000 
#
# Total GULP energy -371803.195959 kJ/mol
# GULP energy per Si atom -12393.439865 kJ/mol
# Density = 1.833766 g / cm^3
# Si number density = 18.379490 Si / 1000 Ang^3
#
#
#
# Elastic Constant Matrix: (Units=GPa)
#
#
# Indices 1 2 3 4 5 6 
#
# 1 50.2142 22.1560 27.2616 -0.0002 4.2212 0.0000
# 2 22.1560 103.3247 45.9980 -0.0003 10.7125 0.0004
# 3 27.2616 45.9980 135.6566 -0.0005 36.1858 0.0003
# 4 -0.0002 -0.0003 -0.0005 21.1606 0.0006 3.4313
# 5 4.2212 10.7125 36.1858 0.0006 35.3393 -0.0002
# 6 0.0000 0.0004 0.0003 3.4313 -0.0002 27.2966
#
#
#
# Elastic Compliance Matrix: (Units=1/GPa)
#
#
# Indices 1 2 3 4 5 6 
#
# 1 0.023516 -0.003415 -0.004257 0.000000 0.002586 0.000000
# 2 -0.003415 0.011907 -0.003435 0.000000 0.000316 0.000000
# 3 -0.004257 -0.003435 0.012352 0.000001 -0.011098 0.000000
# 4 0.000000 0.000000 0.000001 0.048241 -0.000001 -0.006064
# 5 0.002586 0.000316 -0.011098 -0.000001 0.039257 0.000001
# 6 0.000000 0.000000 0.000000 -0.006064 0.000001 0.037397
#
#
# Mechanical properties :
#
#
# Convention : Reuss Voigt Hill
#
# Bulk Modulus (GPa) = 39.12522 53.33631 46.23076
# Shear Modulus (GPa) = 24.58143 29.67797 27.12970
#
# Velocity S-wave (km/s) = 3.66107 4.02273 3.84615
# Velocity P-wave (km/s) = 6.26138 7.11751 6.70313
#
# Compressibility (1/GPa) = 0.02555896
#
# Stress axis : x y z
#
# Youngs Moduli (GPa) = 42.52490 83.98297 80.95549
#
# Poissons Ratio (x) = 0.28682 0.34466
# Poissons Ratio (y) = 0.14523 0.27812
# Poissons Ratio (z) = 0.18105 0.28852
#
# Static dielectric constant tensor:
#      x y z
#    x 3.276960 0.000000 0.346740 
#    y 0.000000 3.235670 0.000010 
#    z 0.346740 0.000010 4.074980 
# 
# 
# High freq. dielectric constant tensor:
#      x y z
#    x 1.694890 0.000000 0.007350 
#    y 0.000000 1.669450 0.000000 
#    z 0.007350 0.000000 1.732150 
# 
# From -- ./inp_files/225765.got.cif
#   From: 2010.06.25/outbox.cif.g09.slc.cpg/sg15_113_cif.got.tgz:225765.got - 2010.06.28 07:06:18.
