data_PCOD8131430
_publ_section_title
;
Structure prediction by ZEFSAII (Michael W. Deem and Ramdas Pophale) SiO2 
 PCOD8131430
Probable space group: C 2/C
;
_chemical_formula_sum "Si O2"
_cell_formula_units_Z 64
_cell_length_a 29.447196
_cell_length_b 14.651631
_cell_length_c 9.223635
_cell_angle_alpha 90.000000
_cell_angle_beta 117.553262
_cell_angle_gamma 90.000000
_cell_volume 3528.178513
_symmetry_space_group_name_H-M "C 2/C"
_symmetry_group_IT_number 15
_symmetry_cell_setting 'monoclinic'
loop_
_space_group_symop_operation_xyz
x,y,z
-x,y,1/2-z
-x,-y,-z
x,-y,1/2+z
1/2+x,1/2+y,z
1/2-x,1/2+y,1/2-z
1/2-x,1/2-y,-z
1/2+x,1/2-y,1/2+z
loop_
_atom_site_type_symbol
_atom_site_label
_atom_site_fract_x
_atom_site_fract_y
_atom_site_fract_z
Si Si1 0.447083 0.403183 0.598083
Si Si2 0.811125 0.397842 0.506159
Si Si3 0.264185 0.594922 0.359774
Si Si4 0.241221 0.108580 0.643865
Si Si5 0.647094 0.722741 0.553111
Si Si6 0.354383 0.284929 0.109672
Si Si7 0.689318 0.101551 0.007407
Si Si8 0.052226 0.089689 0.748078
O O1 0.500000 0.370764 0.750000
O O2 0.405881 0.324640 0.570747
O O3 0.428502 0.495105 0.651928
O O4 0.454243 0.420751 0.435828
O O5 0.788796 0.386657 0.633937
O O6 0.760716 0.379829 0.335963
O O7 0.854928 0.320212 0.554273
O O8 0.834283 0.499062 0.512328
O O9 0.282998 0.491875 0.417662
O O10 0.309256 0.664217 0.458881
O O11 0.244940 0.608537 0.167501
O O12 0.195794 0.178865 0.542803
O O13 0.293646 0.123968 0.630899
O O14 0.655989 0.709407 0.735658
O O15 0.646127 0.828469 0.501458
O O16 0.408269 0.330833 0.152096
O O17 0.000000 0.118607 0.750000
#
# Coordination Sequence:
#
# PCOD8131430 Si02
#       8
#     8   8   8   8   8   8   8   8
#     4  10  21  39  59  79 107 136 166 214 266 314
#     4  10  19  34  52  71 107 143 176 206 250 308
#     4  10  18  33  52  73 108 142 175 205 252 311
#     4  10  20  32  47  80 109 137 173 215 254 294
#     4  11  20  34  54  77 104 136 179 212 256 309
#     4  11  20  33  57  76  98 144 179 207 253 316
#     4  10  21  33  49  76 110 140 172 219 251 295
#     4  10  21  39  58  81 107 132 170 214 264 313
#
# _framework density 18.139671
#
# number of rings (size 3 to 8) (size 9 to 14) (size 15 to 20)
#    0.000    1.750    2.500    3.750    0.000    0.000 
#    9.000    0.000    0.000    0.750    0.000    3.500 
#    0.000    0.000    0.000    0.000    0.000    0.000 
#
# Total GULP energy -396640.764049 kJ/mol
# GULP energy per Si atom -12395.023877 kJ/mol
# Density = 1.809838 g / cm^3
# Si number density = 18.139671 Si / 1000 Ang^3
#
#
#
# Elastic Constant Matrix: (Units=GPa)
#
#
# Indices 1 2 3 4 5 6 
#
# 1 74.2340 64.8103 28.5568 0.0000 8.3089 0.0000
# 2 64.8103 145.1757 45.2878 0.0000 20.6827 0.0000
# 3 28.5568 45.2878 61.7457 0.0000 4.3142 0.0000
# 4 0.0000 0.0000 0.0000 26.4808 0.0000 1.6211
# 5 8.3089 20.6827 4.3142 0.0000 22.1799 0.0000
# 6 0.0000 0.0000 0.0000 1.6211 0.0000 30.0448
#
#
#
# Elastic Compliance Matrix: (Units=1/GPa)
#
#
# Indices 1 2 3 4 5 6 
#
# 1 0.022818 -0.009043 -0.003967 0.000000 0.000656 0.000000
# 2 -0.009043 0.013795 -0.005346 0.000000 -0.008436 0.000000
# 3 -0.003967 -0.005346 0.021795 0.000000 0.002232 0.000000
# 4 0.000000 0.000000 0.000000 0.037888 0.000000 -0.002044
# 5 0.000656 -0.008436 0.002232 0.000000 0.052273 0.000000
# 6 0.000000 0.000000 0.000000 -0.002044 0.000000 0.033394
#
#
# Mechanical properties :
#
#
# Convention : Reuss Voigt Hill
#
# Bulk Modulus (GPa) = 46.08904 62.05169 54.07037
# Shear Modulus (GPa) = 22.13304 25.24114 23.68709
#
# Velocity S-wave (km/s) = 3.49685 3.73431 3.61753
# Velocity P-wave (km/s) = 6.46274 7.27155 6.87904
#
# Compressibility (1/GPa) = 0.02169713
#
# Stress axis : x y z
#
# Youngs Moduli (GPa) = 43.82477 72.49137 45.88153
#
# Poissons Ratio (x) = 0.65552 0.18199
# Poissons Ratio (y) = 0.39629 0.24529
# Poissons Ratio (z) = 0.17383 0.38756
#
# Static dielectric constant tensor:
#      x y z
#    x 3.082270 0.000000 -0.165670 
#    y 0.000000 3.547440 0.000000 
#    z -0.165670 0.000000 3.371070 
# 
# 
# High freq. dielectric constant tensor:
#      x y z
#    x 1.667350 0.000000 -0.022270 
#    y 0.000000 1.709760 0.000000 
#    z -0.022270 0.000000 1.706090 
# 
# From -- ./inp_files/66226.got.cif
#   From: 2010.06.25/outbox.cif.g09.slc.cpg/sg15_34_cif.got.tgz:66226.got - 2010.06.28 07:06:18.
