data_PCOD8131983
_publ_section_title
;
Structure prediction by ZEFSAII (Michael W. Deem and Ramdas Pophale) SiO2 
 PCOD8131983
Probable space group: C 2/C
;
_chemical_formula_sum "Si O2"
_cell_formula_units_Z 64
_cell_length_a 18.774115
_cell_length_b 16.828551
_cell_length_c 19.875436
_cell_angle_alpha 90.000000
_cell_angle_beta 147.488305
_cell_angle_gamma 90.000000
_cell_volume 3375.036713
_symmetry_space_group_name_H-M "C 2/C"
_symmetry_group_IT_number 15
_symmetry_cell_setting 'monoclinic'
loop_
_space_group_symop_operation_xyz
x,y,z
-x,y,1/2-z
-x,-y,-z
x,-y,1/2+z
1/2+x,1/2+y,z
1/2-x,1/2+y,1/2-z
1/2-x,1/2-y,-z
1/2+x,1/2-y,1/2+z
loop_
_atom_site_type_symbol
_atom_site_label
_atom_site_fract_x
_atom_site_fract_y
_atom_site_fract_z
Si Si1 0.356807 0.511125 0.104172
Si Si2 0.962611 0.361258 0.509748
Si Si3 0.718667 0.464815 0.318747
Si Si4 0.970939 0.716013 0.302607
Si Si5 0.842789 0.811651 0.614821
Si Si6 0.260473 0.864203 0.825871
Si Si7 0.687182 0.293183 0.630486
Si Si8 0.448104 0.617486 0.583151
O O1 0.500000 0.503962 0.250000
O O2 0.259843 0.476785 0.083897
O O3 0.330672 0.603755 0.065302
O O4 0.353299 0.450788 0.038895
O O5 0.855321 0.426816 0.404024
O O6 0.919073 0.275389 0.451435
O O7 0.991511 0.353296 0.613423
O O8 0.084849 0.383442 0.559432
O O9 0.687417 0.550963 0.262294
O O10 0.600157 0.408577 0.200544
O O11 0.814655 0.733002 0.188047
O O12 0.000000 0.685166 0.250000
O O13 0.054905 0.797723 0.379764
O O14 0.750000 0.750000 0.500000
O O15 0.775973 0.819584 0.634513
O O16 0.000000 0.787196 0.750000
O O17 0.219569 0.807705 0.733200
O O18 0.615144 0.369908 0.540629
#
# Coordination Sequence:
#
# PCOD8131983 Si02
#       8
#     8   8   8   8   8   8   8   8
#     4   8  17  33  57  86 114 148 193 241 283 339
#     4  10  21  35  56  82 116 153 185 227 282 343
#     4  10  18  35  58  80 109 154 193 227 282 343
#     4  10  20  33  53  84 115 155 191 224 270 330
#     4  10  22  42  68  90 109 149 200 252 302 348
#     4  10  23  40  58  82 116 146 188 239 289 347
#     4  10  22  36  53  86 121 150 185 233 285 335
#     4  10  19  33  57  84 116 149 192 229 280 342
#
# _framework density 18.962757
#
# number of rings (size 3 to 8) (size 9 to 14) (size 15 to 20)
#    0.000    2.250    1.250    2.250    3.500    1.500 
#    0.000    1.250   11.000    0.000    0.000    0.000 
#    0.000    0.000    0.000    0.000    0.000    0.000 
#
# Total GULP energy -396529.065031 kJ/mol
# GULP energy per Si atom -12391.533282 kJ/mol
# Density = 1.891960 g / cm^3
# Si number density = 18.962757 Si / 1000 Ang^3
#
#
#
# Elastic Constant Matrix: (Units=GPa)
#
#
# Indices 1 2 3 4 5 6 
#
# 1 107.9005 27.2396 32.3811 -0.0002 -6.9428 0.0000
# 2 27.2396 74.0086 26.0672 -0.0005 -7.2011 -0.0003
# 3 32.3811 26.0672 66.3793 -0.0005 -0.3833 -0.0005
# 4 -0.0002 -0.0005 -0.0005 21.1877 -0.0008 4.9426
# 5 -6.9428 -7.2011 -0.3833 -0.0008 19.6511 -0.0003
# 6 0.0000 -0.0003 -0.0005 4.9426 -0.0003 24.0571
#
#
#
# Elastic Compliance Matrix: (Units=1/GPa)
#
#
# Indices 1 2 3 4 5 6 
#
# 1 0.011443 -0.002261 -0.004676 0.000000 0.003123 0.000000
# 2 -0.002261 0.016775 -0.005455 0.000000 0.005242 0.000000
# 3 -0.004676 -0.005455 0.019469 0.000000 -0.003271 0.000000
# 4 0.000000 0.000000 0.000000 0.049573 0.000002 -0.010185
# 5 0.003123 0.005242 -0.003271 0.000002 0.053848 0.000000
# 6 0.000000 0.000000 0.000000 -0.010185 0.000000 0.043660
#
#
# Mechanical properties :
#
#
# Convention : Reuss Voigt Hill
#
# Bulk Modulus (GPa) = 43.65988 46.62934 45.14461
# Shear Modulus (GPa) = 22.00832 23.81921 22.91376
#
# Velocity S-wave (km/s) = 3.41046 3.54800 3.47991
# Velocity P-wave (km/s) = 6.21147 6.43644 6.32496
#
# Compressibility (1/GPa) = 0.02290432
#
# Stress axis : x y z
#
# Youngs Moduli (GPa) = 87.39115 59.61150 51.36314
#
# Poissons Ratio (x) = 0.13476 0.24018
# Poissons Ratio (y) = 0.19757 0.28016
# Poissons Ratio (z) = 0.40866 0.32516
#
# Static dielectric constant tensor:
#      x y z
#    x 3.830590 0.000000 0.104050 
#    y 0.000000 3.543700 0.000000 
#    z 0.104050 0.000000 3.414500 
# 
# 
# High freq. dielectric constant tensor:
#      x y z
#    x 1.736950 0.000000 0.012860 
#    y 0.000000 1.735360 0.000000 
#    z 0.012860 0.000000 1.718750 
# 
# From -- ./inp_files/211409.got.cif
#   From: 2010.06.25/outbox.cif.g09.slc.cpg/sg15_106_cif.got.tgz:211409.got - 2010.06.28 07:06:18.
