data_PCOD8131847
_publ_section_title
;
Structure prediction by ZEFSAII (Michael W. Deem and Ramdas Pophale) SiO2 
 PCOD8131847
Probable space group: C 2/C
;
_chemical_formula_sum "Si O2"
_cell_formula_units_Z 64
_cell_length_a 18.776049
_cell_length_b 19.737878
_cell_length_c 19.138320
_cell_angle_alpha 90.000000
_cell_angle_beta 151.329063
_cell_angle_gamma 90.000000
_cell_volume 3402.900662
_symmetry_space_group_name_H-M "C 2/C"
_symmetry_group_IT_number 15
_symmetry_cell_setting 'monoclinic'
loop_
_space_group_symop_operation_xyz
x,y,z
-x,y,1/2-z
-x,-y,-z
x,-y,1/2+z
1/2+x,1/2+y,z
1/2-x,1/2+y,1/2-z
1/2-x,1/2-y,-z
1/2+x,1/2-y,1/2+z
loop_
_atom_site_type_symbol
_atom_site_label
_atom_site_fract_x
_atom_site_fract_y
_atom_site_fract_z
Si Si1 0.402876 0.270771 0.831182
Si Si2 0.932149 0.643426 0.763990
Si Si3 0.090180 0.264099 0.616035
Si Si4 0.113117 0.463115 0.502096
Si Si5 0.938992 0.006767 0.774395
Si Si6 0.843359 0.878735 0.293605
Si Si7 0.015145 0.404275 0.973555
Si Si8 0.598187 0.394865 0.995678
O O1 0.458416 0.206427 0.836617
O O2 0.224532 0.276259 0.676469
O O3 0.447117 0.258815 0.949470
O O4 0.480447 0.338348 0.868512
O O5 0.760192 0.625046 0.608291
O O6 0.000000 0.667182 0.750000
O O7 0.025743 0.579085 0.869814
O O8 0.125321 0.200843 0.697411
O O9 0.051546 0.335922 0.620217
O O10 0.286593 0.465584 0.633727
O O11 0.042972 0.539076 0.438749
O O12 0.100870 0.432442 0.569434
O O13 0.915692 0.077762 0.794250
O O14 0.000000 0.022471 0.750000
O O15 0.054128 0.964793 0.920823
O O16 0.905926 0.900781 0.423391
O O17 0.666856 0.889042 0.145934
#
# Coordination Sequence:
#
# PCOD8131847 Si02
#       8
#     8   8   8   8   8   8   8   8
#     4  11  21  35  54  81 115 146 183 228 275 329
#     4  12  23  38  55  78 120 153 181 227 278 335
#     4  11  17  36  58  84 110 138 187 235 277 323
#     4  10  20  37  58  81 109 152 184 227 279 338
#     4  11  24  39  57  83 116 150 188 232 290 342
#     4  10  20  37  60  84 116 145 186 240 281 325
#     4  10  18  34  62  85 108 142 191 231 282 327
#     4  11  22  38  57  86 112 147 196 233 270 335
#
# _framework density 18.807483000000001
#
# number of rings (size 3 to 8) (size 9 to 14) (size 15 to 20)
#    0.000    1.250    6.250    1.875    0.000    1.000 
#    4.500    0.000    0.000    3.750    0.000    0.000 
#    0.000    0.000    0.000    0.000    0.000    0.000 
#
# Total GULP energy -396729.290867 kJ/mol
# GULP energy per Si atom -12397.790340 kJ/mol
# Density = 1.876468 g / cm^3
# Si number density = 18.807483 Si / 1000 Ang^3
#
#
#
# Elastic Constant Matrix: (Units=GPa)
#
#
# Indices 1 2 3 4 5 6 
#
# 1 89.1881 41.7501 32.4376 0.0043 8.8160 -0.0033
# 2 41.7501 137.6005 39.6193 0.0041 -0.9428 0.0001
# 3 32.4376 39.6193 56.1657 0.0088 8.8493 -0.0026
# 4 0.0043 0.0041 0.0088 35.1999 0.0039 5.8591
# 5 8.8160 -0.9428 8.8493 0.0039 19.0381 -0.0054
# 6 -0.0033 0.0001 -0.0026 5.8591 -0.0054 16.2315
#
#
#
# Elastic Compliance Matrix: (Units=1/GPa)
#
#
# Indices 1 2 3 4 5 6 
#
# 1 0.015201 -0.002902 -0.006043 0.000000 -0.004374 0.000001
# 2 -0.002902 0.009924 -0.006057 0.000000 0.004651 0.000000
# 3 -0.006043 -0.006057 0.027162 -0.000004 -0.010128 0.000001
# 4 0.000000 0.000000 -0.000004 0.030225 -0.000007 -0.010910
# 5 -0.004374 0.004651 -0.010128 -0.000007 0.059490 0.000020
# 6 0.000001 0.000000 0.000001 -0.010910 0.000020 0.065547
#
#
# Mechanical properties :
#
#
# Convention : Reuss Voigt Hill
#
# Bulk Modulus (GPa) = 44.87589 56.72981 50.80285
# Shear Modulus (GPa) = 20.40979 25.37038 22.89008
#
# Velocity S-wave (km/s) = 3.29780 3.67679 3.49244
# Velocity P-wave (km/s) = 6.19783 6.94651 6.58282
#
# Compressibility (1/GPa) = 0.02228368
#
# Stress axis : x y z
#
# Youngs Moduli (GPa) = 65.78553 100.76739 36.81560
#
# Poissons Ratio (x) = 0.29246 0.22246
# Poissons Ratio (y) = 0.19093 0.22299
# Poissons Ratio (z) = 0.39751 0.61033
#
# Static dielectric constant tensor:
#      x y z
#    x 3.136110 -0.000010 0.222630 
#    y -0.000010 3.777460 -0.000030 
#    z 0.222630 -0.000030 3.433660 
# 
# 
# High freq. dielectric constant tensor:
#      x y z
#    x 1.691300 0.000000 0.026800 
#    y 0.000000 1.746880 0.000000 
#    z 0.026800 0.000000 1.730360 
# 
# From -- ./inp_files/63425.got.cif
#   From: 2010.06.25/outbox.cif.g09.slc.cpg/sg15_32_cif.got.tgz:63425.got - 2010.06.28 07:06:18.
