data_PCOD8131244
_publ_section_title
;
Structure prediction by ZEFSAII (Michael W. Deem and Ramdas Pophale) SiO2 
 PCOD8131244
Probable space group: C 2/C
;
_chemical_formula_sum "Si O2"
_cell_formula_units_Z 40
_cell_length_a 20.920219
_cell_length_b 10.957151
_cell_length_c 8.631282
_cell_angle_alpha 90.000000
_cell_angle_beta 108.623285
_cell_angle_gamma 90.000000
_cell_volume 1874.916671
_symmetry_space_group_name_H-M "C 2/C"
_symmetry_group_IT_number 15
_symmetry_cell_setting 'monoclinic'
loop_
_space_group_symop_operation_xyz
x,y,z
-x,y,1/2-z
-x,-y,-z
x,-y,1/2+z
1/2+x,1/2+y,z
1/2-x,1/2+y,1/2-z
1/2-x,1/2-y,-z
1/2+x,1/2-y,1/2+z
loop_
_atom_site_type_symbol
_atom_site_label
_atom_site_fract_x
_atom_site_fract_y
_atom_site_fract_z
Si Si1 0.970741 0.152967 0.491306
Si Si2 0.585089 0.450922 0.242811
Si Si3 0.693484 0.002013 0.434167
Si Si4 0.712869 0.410009 0.750746
Si Si5 0.367216 0.164248 0.858874
O O1 0.921074 0.090367 0.583586
O O2 0.944730 0.290189 0.436261
O O3 0.048758 0.155614 0.608949
O O4 0.961010 0.070783 0.329963
O O5 0.662062 0.478274 0.256464
O O6 0.755262 0.061220 0.389722
O O7 0.655054 0.109162 0.494554
O O8 0.726534 0.905606 0.578197
O O9 0.639387 0.934341 0.282770
O O10 0.678116 0.279749 0.721569
#
# Coordination Sequence:
#
# PCOD8131244 Si02
#       5
#     8   8   8   8   8
#     4   9  18  33  54  80 110 138 177 228 283 323
#     4   9  17  31  54  82 107 134 174 229 277 328
#     4  10  21  33  51  81 114 147 183 219 276 349
#     4  10  18  32  53  81 113 138 176 231 285 328
#     4  10  20  35  51  75 112 151 184 223 271 329
#
# _framework density 21.334281000000001
#
# number of rings (size 3 to 8) (size 9 to 14) (size 15 to 20)
#    0.000    2.400    0.000    3.600    0.000    1.600 
#    0.000    8.000    0.000    4.800    0.000    5.600 
#    0.000    0.000    0.000    0.000    0.000    0.000 
#
# Total GULP energy -247832.837371 kJ/mol
# GULP energy per Si atom -12391.641869 kJ/mol
# Density = 2.128572 g / cm^3
# Si number density = 21.334281 Si / 1000 Ang^3
#
#
#
# Elastic Constant Matrix: (Units=GPa)
#
#
# Indices 1 2 3 4 5 6 
#
# 1 65.4183 34.4632 24.2564 0.0000 8.6502 0.0000
# 2 34.4632 64.2483 21.1826 0.0000 3.5724 0.0000
# 3 24.2564 21.1826 78.1879 0.0000 -4.3518 0.0000
# 4 0.0000 0.0000 0.0000 23.4621 0.0000 7.6715
# 5 8.6502 3.5724 -4.3518 0.0000 21.5264 0.0000
# 6 0.0000 0.0000 0.0000 7.6715 0.0000 42.7110
#
#
#
# Elastic Compliance Matrix: (Units=1/GPa)
#
#
# Indices 1 2 3 4 5 6 
#
# 1 0.023961 -0.010702 -0.005028 0.000000 -0.008869 0.000000
# 2 -0.010702 0.022187 -0.002686 0.000000 0.000075 0.000000
# 3 -0.005028 -0.002686 0.015388 0.000000 0.005577 0.000000
# 4 0.000000 0.000000 0.000000 0.045281 0.000000 -0.008133
# 5 -0.008869 0.000075 0.005577 0.000000 0.051133 0.000000
# 6 0.000000 0.000000 0.000000 -0.008133 0.000000 0.024874
#
#
# Mechanical properties :
#
#
# Convention : Reuss Voigt Hill
#
# Bulk Modulus (GPa) = 40.48096 40.85100 40.66598
# Shear Modulus (GPa) = 21.94026 26.07006 24.00516
#
# Velocity S-wave (km/s) = 3.21035 3.49948 3.35803
# Velocity P-wave (km/s) = 5.72343 5.95970 5.84276
#
# Compressibility (1/GPa) = 0.02470297
#
# Stress axis : x y z
#
# Youngs Moduli (GPa) = 41.73401 45.07165 64.98699
#
# Poissons Ratio (x) = 0.48237 0.32674
# Poissons Ratio (y) = 0.44665 0.17459
# Poissons Ratio (z) = 0.20983 0.12108
#
# Static dielectric constant tensor:
#      x y z
#    x 3.781610 0.000000 0.122950 
#    y 0.000000 3.617270 0.000000 
#    z 0.122950 0.000000 4.036420 
# 
# 
# High freq. dielectric constant tensor:
#      x y z
#    x 1.814840 0.000000 0.005890 
#    y 0.000000 1.800800 0.000000 
#    z 0.005890 0.000000 1.859700 
# 
# From -- ./inp_files/54185.got.cif
#   From: 2010.06.25/outbox.cif.g09.slc.cpg/sg15_28_cif.got.tgz:54185.got - 2010.06.28 07:06:18.
