data_PCOD8131658
_publ_section_title
;
Structure prediction by ZEFSAII (Michael W. Deem and Ramdas Pophale) SiO2 
 PCOD8131658
Probable space group: C 2/C
;
_chemical_formula_sum "Si O2"
_cell_formula_units_Z 48
_cell_length_a 7.958583
_cell_length_b 18.719555
_cell_length_c 17.101752
_cell_angle_alpha 90.000000
_cell_angle_beta 91.586194
_cell_angle_gamma 90.000000
_cell_volume 2546.862079
_symmetry_space_group_name_H-M "C 2/C"
_symmetry_group_IT_number 15
_symmetry_cell_setting 'monoclinic'
loop_
_space_group_symop_operation_xyz
x,y,z
-x,y,1/2-z
-x,-y,-z
x,-y,1/2+z
1/2+x,1/2+y,z
1/2-x,1/2+y,1/2-z
1/2-x,1/2-y,-z
1/2+x,1/2-y,1/2+z
loop_
_atom_site_type_symbol
_atom_site_label
_atom_site_fract_x
_atom_site_fract_y
_atom_site_fract_z
Si Si1 0.480347 0.775547 0.013164
Si Si2 0.402028 0.423011 0.898221
Si Si3 0.908942 0.960697 0.172767
Si Si4 0.313728 0.648011 0.547360
Si Si5 0.220278 0.174319 0.397290
Si Si6 0.695491 0.911505 0.741542
O O1 0.537783 0.705730 0.963543
O O2 0.381969 0.831873 0.956818
O O3 0.639054 0.811762 0.054080
O O4 0.360438 0.752000 0.084405
O O5 0.449538 0.505526 0.883650
O O6 0.577848 0.383316 0.912223
O O7 0.291663 0.394974 0.823605
O O8 0.299023 0.409549 0.976241
O O9 0.828833 0.893647 0.128723
O O10 0.000000 0.929504 0.250000
O O11 0.774708 0.020953 0.196928
O O12 0.283395 0.161137 0.309472
O O13 0.500000 0.928636 0.750000
#
# Coordination Sequence:
#
# PCOD8131658 Si02
#       6
#     8   8   8   8   8   8
#     4   9  19  32  52  77 105 138 174 208 250 310
#     4   9  18  33  56  77  99 134 173 215 259 307
#     4   9  19  35  52  75 105 134 168 214 266 308
#     4  10  18  34  54  77 106 137 172 213 255 307
#     4   9  17  34  52  74 104 134 168 216 255 292
#     4  10  19  34  55  77 101 132 175 220 257 303
#
# _framework density 18.846720999999999
#
# number of rings (size 3 to 8) (size 9 to 14) (size 15 to 20)
#    0.000    2.667    0.000    3.000    0.000    0.000 
#    0.000   25.000    0.000    0.000    0.000    0.000 
#    0.000    0.000    0.000    0.000    0.000    0.000 
#
# Total GULP energy -297363.615226 kJ/mol
# GULP energy per Si atom -12390.150634 kJ/mol
# Density = 1.880383 g / cm^3
# Si number density = 18.846721 Si / 1000 Ang^3
#
#
#
# Elastic Constant Matrix: (Units=GPa)
#
#
# Indices 1 2 3 4 5 6 
#
# 1 100.2611 34.3991 48.1074 0.0000 12.0942 0.0000
# 2 34.3991 63.4451 57.6256 0.0000 14.2374 0.0000
# 3 48.1074 57.6256 113.7091 0.0000 14.4901 0.0000
# 4 0.0000 0.0000 0.0000 34.7815 0.0000 9.3245
# 5 12.0942 14.2374 14.4901 0.0000 29.5463 0.0000
# 6 0.0000 0.0000 0.0000 9.3245 0.0000 15.5783
#
#
#
# Elastic Compliance Matrix: (Units=1/GPa)
#
#
# Indices 1 2 3 4 5 6 
#
# 1 0.013092 -0.003435 -0.003548 0.000000 -0.001964 0.000000
# 2 -0.003435 0.031646 -0.013675 0.000000 -0.007137 0.000000
# 3 -0.003548 -0.013675 0.017281 0.000000 -0.000433 0.000000
# 4 0.000000 0.000000 0.000000 0.034246 0.000000 -0.020498
# 5 -0.001964 -0.007137 -0.000433 0.000000 0.038300 0.000000
# 6 0.000000 0.000000 0.000000 -0.020498 0.000000 0.076461
#
#
# Mechanical properties :
#
#
# Convention : Reuss Voigt Hill
#
# Bulk Modulus (GPa) = 48.30208 61.96439 55.13324
# Shear Modulus (GPa) = 19.28691 25.13342 22.21017
#
# Velocity S-wave (km/s) = 3.20246 3.65577 3.43660
# Velocity P-wave (km/s) = 6.27367 7.12524 6.71297
#
# Compressibility (1/GPa) = 0.02070304
#
# Stress axis : x y z
#
# Youngs Moduli (GPa) = 76.38451 31.59925 57.86818
#
# Poissons Ratio (x) = 0.10855 0.20529
# Poissons Ratio (y) = 0.26240 0.79134
# Poissons Ratio (z) = 0.27098 0.43212
#
# Static dielectric constant tensor:
#      x y z
#    x 3.561730 0.000000 -0.049640 
#    y 0.000000 3.288160 0.000000 
#    z -0.049640 0.000000 3.612820 
# 
# 
# High freq. dielectric constant tensor:
#      x y z
#    x 1.740820 0.000000 0.005310 
#    y 0.000000 1.704270 0.000000 
#    z 0.005310 0.000000 1.727010 
# 
# From -- ./inp_files/134879.got.cif
#   From: 2010.06.25/outbox.cif.g09.slc.cpg/sg15_68_cif.got.tgz:134879.got - 2010.06.28 07:06:18.
