data_PCOD8131737
_publ_section_title
;
Structure prediction by ZEFSAII (Michael W. Deem and Ramdas Pophale) SiO2 
 PCOD8131737
Probable space group: C 2/C
;
_chemical_formula_sum "Si O2"
_cell_formula_units_Z 56
_cell_length_a 10.699819
_cell_length_b 30.405536
_cell_length_c 9.419697
_cell_angle_alpha 90.000000
_cell_angle_beta 65.292583
_cell_angle_gamma 90.000000
_cell_volume 2783.998559
_symmetry_space_group_name_H-M "C 2/C"
_symmetry_group_IT_number 15
_symmetry_cell_setting 'monoclinic'
loop_
_space_group_symop_operation_xyz
x,y,z
-x,y,1/2-z
-x,-y,-z
x,-y,1/2+z
1/2+x,1/2+y,z
1/2-x,1/2+y,1/2-z
1/2-x,1/2-y,-z
1/2+x,1/2-y,1/2+z
loop_
_atom_site_type_symbol
_atom_site_label
_atom_site_fract_x
_atom_site_fract_y
_atom_site_fract_z
Si Si1 0.321400 0.081225 0.444521
Si Si2 0.263157 0.171913 0.987107
Si Si3 0.494181 0.224734 0.529970
Si Si4 0.252352 0.160168 0.662224
Si Si5 0.102002 0.487420 0.071180
Si Si6 0.000000 0.779105 0.250000
Si Si7 0.000000 0.790503 0.750000
Si Si8 0.635449 0.093031 0.384437
O O1 0.237831 0.111860 0.595639
O O2 0.479666 0.087033 0.409620
O O3 0.279892 0.094984 0.303623
O O4 0.291311 0.028324 0.460435
O O5 0.246311 0.155066 0.834508
O O6 0.363253 0.213963 0.953685
O O7 0.345598 0.137750 0.042818
O O8 0.112210 0.179026 0.120921
O O9 0.395751 0.183120 0.550140
O O10 0.533025 0.247283 0.364432
O O11 0.423721 0.260877 0.666111
O O12 0.130889 0.190221 0.658572
O O13 0.000000 0.476356 0.250000
O O14 0.184100 0.444766 0.973598
O O15 0.000000 0.500000 0.000000
#
# Coordination Sequence:
#
# PCOD8131737 Si02
#       8
#     8   8   8   8   8   4   4   8
#     4  10  21  37  57  91 127 157 196 248 303 361
#     4  12  25  40  64  91 120 162 206 255 307 362
#     4  12  24  43  65  87 118 158 212 263 303 357
#     4  12  25  41  62  91 123 160 206 255 308 363
#     4  10  18  34  57  88 129 160 194 245 305 362
#     4  12  28  42  58  89 122 169 206 246 316 358
#     4  12  24  44  60  83 126 161 208 252 300 368
#     4  10  22  35  59  91 124 161 196 244 307 358
#
# _framework density 20.114953
#
# number of rings (size 3 to 8) (size 9 to 14) (size 15 to 20)
#    0.000    0.857    7.143    1.714    8.000    0.000 
#    0.000    0.000    0.000    0.857    0.000    4.000 
#    0.000    0.000    0.000    0.000    0.000    0.000 
#
# Total GULP energy -346968.391265 kJ/mol
# GULP energy per Si atom -12391.728259 kJ/mol
# Density = 2.006917 g / cm^3
# Si number density = 20.114953 Si / 1000 Ang^3
#
#
#
# Elastic Constant Matrix: (Units=GPa)
#
#
# Indices 1 2 3 4 5 6 
#
# 1 50.3906 19.1931 26.7564 0.0000 -2.9935 0.0000
# 2 19.1931 92.6452 59.4773 0.0000 4.5789 0.0000
# 3 26.7564 59.4773 146.2262 0.0000 16.9915 0.0000
# 4 0.0000 0.0000 0.0000 40.0837 0.0000 5.2203
# 5 -2.9935 4.5789 16.9915 0.0000 33.7352 0.0000
# 6 0.0000 0.0000 0.0000 5.2203 0.0000 5.8188
#
#
#
# Elastic Compliance Matrix: (Units=1/GPa)
#
#
# Indices 1 2 3 4 5 6 
#
# 1 0.023032 -0.002652 -0.003627 0.000000 0.004231 0.000000
# 2 -0.002652 0.014951 -0.005664 0.000000 0.000588 0.000000
# 3 -0.003627 -0.005664 0.010361 0.000000 -0.004772 0.000000
# 4 0.000000 0.000000 0.000000 0.028248 0.000000 -0.025343
# 5 0.004231 0.000588 -0.004772 0.000000 0.032341 0.000000
# 6 0.000000 0.000000 0.000000 -0.025343 0.000000 0.194593
#
#
# Mechanical properties :
#
#
# Convention : Reuss Voigt Hill
#
# Bulk Modulus (GPa) = 40.88854 55.56839 48.22846
# Shear Modulus (GPa) = 14.90020 28.18320 21.54170
#
# Velocity S-wave (km/s) = 2.72463 3.74720 3.27606
# Velocity P-wave (km/s) = 5.50179 6.81230 6.19181
#
# Compressibility (1/GPa) = 0.02445673
#
# Stress axis : x y z
#
# Youngs Moduli (GPa) = 43.41695 66.88704 96.51722
#
# Poissons Ratio (x) = 0.17738 0.35011
# Poissons Ratio (y) = 0.11514 0.54670
# Poissons Ratio (z) = 0.15749 0.37887
#
# Static dielectric constant tensor:
#      x y z
#    x 3.317210 0.000000 0.288390 
#    y 0.000000 1.734120 0.000000 
#    z 0.288390 0.000000 3.831630 
# 
# 
# High freq. dielectric constant tensor:
#      x y z
#    x 1.742980 0.000000 0.029480 
#    y 0.000000 1.792850 0.000000 
#    z 0.029480 0.000000 1.796950 
# 
# From -- ./inp_files/35632.got.cif
#   From: 2010.06.25/outbox.cif.g09.slc.cpg/sg15_18_cif.got.tgz:35632.got - 2010.06.28 07:06:18.
