data_PCOD8131403
_publ_section_title
;
Structure prediction by ZEFSAII (Michael W. Deem and Ramdas Pophale) SiO2 
 PCOD8131403
Probable space group: C 2/C
;
_chemical_formula_sum "Si O2"
_cell_formula_units_Z 44
_cell_length_a 17.424705
_cell_length_b 17.133792
_cell_length_c 9.463727
_cell_angle_alpha 90.000000
_cell_angle_beta 49.137501
_cell_angle_gamma 90.000000
_cell_volume 2136.804569
_symmetry_space_group_name_H-M "C 2/C"
_symmetry_group_IT_number 15
_symmetry_cell_setting 'monoclinic'
loop_
_space_group_symop_operation_xyz
x,y,z
-x,y,1/2-z
-x,-y,-z
x,-y,1/2+z
1/2+x,1/2+y,z
1/2-x,1/2+y,1/2-z
1/2-x,1/2-y,-z
1/2+x,1/2-y,1/2+z
loop_
_atom_site_type_symbol
_atom_site_label
_atom_site_fract_x
_atom_site_fract_y
_atom_site_fract_z
Si Si1 0.500000 0.883992 0.250000
Si Si2 0.214086 0.190475 0.164086
Si Si3 0.324585 0.255216 0.278374
Si Si4 0.708572 0.040521 0.552242
Si Si5 0.714809 0.901539 0.350225
Si Si6 0.540133 0.209522 0.978379
O O1 0.402864 0.939103 0.368324
O O2 0.501008 0.829864 0.112865
O O3 0.293967 0.192315 0.196682
O O4 0.104352 0.214537 0.355447
O O5 0.250000 0.250000 0.000000
O O6 0.210898 0.102923 0.106963
O O7 0.250000 0.250000 0.500000
O O8 0.309635 0.341852 0.229812
O O9 0.441235 0.239210 0.184832
O O10 0.715537 0.041916 0.713491
O O11 0.729599 0.953215 0.472885
O O12 0.609963 0.851091 0.482618
#
# Coordination Sequence:
#
# PCOD8131403 Si02
#       6
#     4   8   8   8   8   8
#     4  10  18  32  66  88 116 160 202 260 314 354
#     4  11  19  39  63  88 122 163 214 258 296 375
#     4  11  23  39  63  90 124 165 214 259 306 365
#     4  11  22  39  57  95 131 160 201 256 322 376
#     4  10  25  39  62  94 130 165 200 256 325 366
#     4  10  20  38  63  92 118 163 218 253 306 366
#
# _framework density 20.591494999999998
#
# number of rings (size 3 to 8) (size 9 to 14) (size 15 to 20)
#    0.000    1.455    7.273    0.000    2.545    7.273 
#    0.000    0.909    0.000    0.000    0.000    0.000 
#    0.000    0.000    0.000    0.000    0.000    0.000 
#
# Total GULP energy -272734.558437 kJ/mol
# GULP energy per Si atom -12397.025383 kJ/mol
# Density = 2.054463 g / cm^3
# Si number density = 20.591495 Si / 1000 Ang^3
#
#
#
# Elastic Constant Matrix: (Units=GPa)
#
#
# Indices 1 2 3 4 5 6 
#
# 1 58.8145 32.4545 31.9186 0.0000 -0.9082 0.0000
# 2 32.4545 84.7134 37.1297 0.0000 -5.3078 0.0000
# 3 31.9186 37.1297 103.7008 0.0000 -19.3992 0.0000
# 4 0.0000 0.0000 0.0000 32.6507 0.0000 6.6557
# 5 -0.9082 -5.3078 -19.3992 0.0000 31.6374 0.0000
# 6 0.0000 0.0000 0.0000 6.6557 0.0000 12.4134
#
#
#
# Elastic Compliance Matrix: (Units=1/GPa)
#
#
# Indices 1 2 3 4 5 6 
#
# 1 0.023781 -0.006912 -0.005573 0.000000 -0.003894 0.000000
# 2 -0.006912 0.016030 -0.003553 0.000000 0.000312 0.000000
# 3 -0.005573 -0.003553 0.014108 0.000000 0.007894 0.000000
# 4 0.000000 0.000000 0.000000 0.034385 0.000000 -0.018437
# 5 -0.003894 0.000312 0.007894 0.000000 0.036389 0.000000
# 6 0.000000 0.000000 0.000000 -0.018437 0.000000 0.090443
#
#
# Mechanical properties :
#
#
# Convention : Reuss Voigt Hill
#
# Bulk Modulus (GPa) = 45.78620 50.02603 47.90611
# Shear Modulus (GPa) = 19.64676 25.05536 22.35106
#
# Velocity S-wave (km/s) = 3.09223 3.49202 3.29819
# Velocity P-wave (km/s) = 5.91887 6.37230 6.14976
#
# Compressibility (1/GPa) = 0.02184064
#
# Stress axis : x y z
#
# Youngs Moduli (GPa) = 42.04985 62.38464 70.88320
#
# Poissons Ratio (x) = 0.43120 0.39507
# Poissons Ratio (y) = 0.29065 0.25188
# Poissons Ratio (z) = 0.23436 0.22168
#
# Static dielectric constant tensor:
#      x y z
#    x 4.040520 0.000000 -0.214950 
#    y 0.000000 3.754540 0.000000 
#    z -0.214950 0.000000 4.387850 
# 
# 
# High freq. dielectric constant tensor:
#      x y z
#    x 1.802430 0.000000 0.015190 
#    y 0.000000 1.788060 0.000000 
#    z 0.015190 0.000000 1.803710 
# 
# From -- ./inp_files/39073.got.cif
#   From: 2010.06.25/outbox.cif.g09.slc.cpg/sg15_20_cif.got.tgz:39073.got - 2010.06.28 07:06:18.
