data_PCOD8131680
_publ_section_title
;
Structure prediction by ZEFSAII (Michael W. Deem and Ramdas Pophale) SiO2 
 PCOD8131680
Probable space group: C 2/C
;
_chemical_formula_sum "Si O2"
_cell_formula_units_Z 56
_cell_length_a 15.485554
_cell_length_b 8.206895
_cell_length_c 24.172541
_cell_angle_alpha 90.000000
_cell_angle_beta 69.679345
_cell_angle_gamma 90.000000
_cell_volume 2880.854971
_symmetry_space_group_name_H-M "C 2/C"
_symmetry_group_IT_number 15
_symmetry_cell_setting 'monoclinic'
loop_
_space_group_symop_operation_xyz
x,y,z
-x,y,1/2-z
-x,-y,-z
x,-y,1/2+z
1/2+x,1/2+y,z
1/2-x,1/2+y,1/2-z
1/2-x,1/2-y,-z
1/2+x,1/2-y,1/2+z
loop_
_atom_site_type_symbol
_atom_site_label
_atom_site_fract_x
_atom_site_fract_y
_atom_site_fract_z
Si Si1 0.120277 0.952375 0.387675
Si Si2 0.873366 0.659702 0.191593
Si Si3 0.671325 0.223145 0.473281
Si Si4 0.464503 0.930633 0.316074
Si Si5 0.192018 0.558075 0.885189
Si Si6 0.495893 0.754530 0.084243
Si Si7 0.794247 0.352814 0.825681
O O1 0.197058 0.059324 0.340258
O O2 0.029394 0.063430 0.416815
O O3 0.093577 0.811290 0.351653
O O4 0.159676 0.879703 0.436179
O O5 0.803790 0.543975 0.172906
O O6 0.824263 0.711848 0.259002
O O7 0.968661 0.575486 0.183473
O O8 0.750000 0.250000 0.500000
O O9 0.703727 0.061927 0.433959
O O10 0.574229 0.192975 0.524203
O O11 0.500000 0.853563 0.250000
O O12 0.364183 0.014897 0.335618
O O13 0.467053 0.789492 0.361667
O O14 0.275059 0.691308 0.867424
O O15 0.092404 0.639966 0.911931
#
# Coordination Sequence:
#
# PCOD8131680 Si02
#       7
#     8   8   8   8   8   8   8
#     4  10  21  35  55  80 104 139 180 217 264 320
#     4   9  18  34  55  79 109 138 171 214 263 318
#     4  11  22  37  54  78 106 135 178 230 267 305
#     4   9  19  35  55  79 109 141 174 214 264 316
#     4   9  20  35  55  78 103 142 179 209 262 322
#     4  10  20  38  56  75 106 145 177 214 264 320
#     4  10  18  34  55  81 109 138 173 216 261 313
#
# _framework density 19.438673999999999
#
# number of rings (size 3 to 8) (size 9 to 14) (size 15 to 20)
#    0.000    2.286    0.000    2.571    0.000    2.286 
#    0.000   11.429    0.000    0.000    0.000    0.000 
#    0.000    0.000    0.000    0.000    0.000    0.000 
#
# Total GULP energy -347132.413520 kJ/mol
# GULP energy per Si atom -12397.586197 kJ/mol
# Density = 1.939443 g / cm^3
# Si number density = 19.438674 Si / 1000 Ang^3
#
#
#
# Elastic Constant Matrix: (Units=GPa)
#
#
# Indices 1 2 3 4 5 6 
#
# 1 66.9818 21.8736 39.2464 0.0000 5.3581 0.0000
# 2 21.8736 88.5543 39.6055 0.0000 6.5157 0.0000
# 3 39.2464 39.6055 104.1220 0.0000 3.0590 0.0000
# 4 0.0000 0.0000 0.0000 25.5240 0.0000 -0.8054
# 5 5.3581 6.5157 3.0590 0.0000 32.1717 0.0000
# 6 0.0000 0.0000 0.0000 -0.8054 0.0000 24.6340
#
#
#
# Elastic Compliance Matrix: (Units=1/GPa)
#
#
# Indices 1 2 3 4 5 6 
#
# 1 0.019569 -0.001683 -0.006669 0.000000 -0.002284 0.000000
# 2 -0.001683 0.013920 -0.004599 0.000000 -0.002102 0.000000
# 3 -0.006669 -0.004599 0.013846 0.000000 0.000726 0.000000
# 4 0.000000 0.000000 0.000000 0.039219 0.000000 0.001282
# 5 -0.002284 -0.002102 0.000726 0.000000 0.031820 0.000000
# 6 0.000000 0.000000 0.000000 0.001282 0.000000 0.040636
#
#
# Mechanical properties :
#
#
# Convention : Reuss Voigt Hill
#
# Bulk Modulus (GPa) = 46.65591 51.23434 48.94513
# Shear Modulus (GPa) = 26.03411 27.06144 26.54777
#
# Velocity S-wave (km/s) = 3.66361 3.73519 3.69957
# Velocity P-wave (km/s) = 6.47686 6.70942 6.59417
#
# Compressibility (1/GPa) = 0.02143351
#
# Stress axis : x y z
#
# Youngs Moduli (GPa) = 51.10059 71.84149 72.22484
#
# Poissons Ratio (x) = 0.12091 0.48166
# Poissons Ratio (y) = 0.08601 0.33213
# Poissons Ratio (z) = 0.34078 0.33036
#
# Static dielectric constant tensor:
#      x y z
#    x 3.443430 0.000000 -0.000510 
#    y 0.000000 3.670580 0.000000 
#    z -0.000510 0.000000 3.766940 
# 
# 
# High freq. dielectric constant tensor:
#      x y z
#    x 1.749030 0.000000 -0.004510 
#    y 0.000000 1.755650 0.000000 
#    z -0.004510 0.000000 1.764660 
# 
# From -- ./inp_files/272623.got.cif
#   From: 2010.06.25/outbox.cif.g09.slc.cpg/sg15_137_cif.got.tgz:272623.got - 2010.06.28 07:06:18.
