data_PCOD8131963
_publ_section_title
;
Structure prediction by ZEFSAII (Michael W. Deem and Ramdas Pophale) SiO2 
 PCOD8131963
Probable space group: C 2/C
;
_chemical_formula_sum "Si O2"
_cell_formula_units_Z 56
_cell_length_a 22.302160
_cell_length_b 15.688308
_cell_length_c 8.389093
_cell_angle_alpha 90.000000
_cell_angle_beta 107.251186
_cell_angle_gamma 90.000000
_cell_volume 2803.158746
_symmetry_space_group_name_H-M "C 2/C"
_symmetry_group_IT_number 15
_symmetry_cell_setting 'monoclinic'
loop_
_space_group_symop_operation_xyz
x,y,z
-x,y,1/2-z
-x,-y,-z
x,-y,1/2+z
1/2+x,1/2+y,z
1/2-x,1/2+y,1/2-z
1/2-x,1/2-y,-z
1/2+x,1/2-y,1/2+z
loop_
_atom_site_type_symbol
_atom_site_label
_atom_site_fract_x
_atom_site_fract_y
_atom_site_fract_z
Si Si1 0.500000 0.750491 0.250000
Si Si2 0.221249 0.063276 0.423332
Si Si3 0.691869 0.826753 0.301679
Si Si4 0.500000 0.966577 0.750000
Si Si5 0.126382 0.185647 0.455987
Si Si6 0.437346 0.108060 0.905506
Si Si7 0.190358 0.764314 0.305288
Si Si8 0.768096 0.113893 0.423136
O O1 0.553234 0.687125 0.357634
O O2 0.525142 0.809878 0.128312
O O3 0.281054 0.114932 0.535263
O O4 0.156901 0.091423 0.464748
O O5 0.209282 0.078333 0.227535
O O6 0.236741 0.964167 0.458166
O O7 0.666242 0.742197 0.364774
O O8 0.637107 0.876670 0.164895
O O9 0.745664 0.801191 0.221982
O O10 0.457602 0.906561 0.603944
O O11 0.452815 0.024296 0.815173
O O12 0.132364 0.222292 0.640648
O O13 0.181389 0.818363 0.461935
O O14 0.201329 0.664072 0.351429
#
# Coordination Sequence:
#
# PCOD8131963 Si02
#       8
#     4   8   8   4   8   8   8   8
#     4   9  20  36  58  82  99 158 190 220 289 334
#     4  11  20  35  57  84 115 144 185 232 284 334
#     4  10  18  35  57  81 111 149 180 231 281 331
#     4   9  18  36  48  74 113 148 184 238 269 320
#     4  10  18  38  60  79 117 144 188 233 277 335
#     4   9  19  34  52  75 109 146 191 225 278 332
#     4  10  20  38  56  85 116 145 182 230 285 338
#     4  11  22  35  55  87 115 147 181 223 292 338
#
# _framework density 19.977461999999999
#
# number of rings (size 3 to 8) (size 9 to 14) (size 15 to 20)
#    0.000    2.000    2.857    2.571    0.000    2.286 
#   10.286    0.000    0.000    3.429    0.000    0.000 
#    0.000    0.000    0.000    0.000    0.000    0.000 
#
# Total GULP energy -347122.750488 kJ/mol
# GULP energy per Si atom -12397.241089 kJ/mol
# Density = 1.993199 g / cm^3
# Si number density = 19.977462 Si / 1000 Ang^3
#
#
#
# Elastic Constant Matrix: (Units=GPa)
#
#
# Indices 1 2 3 4 5 6 
#
# 1 70.2693 24.5112 34.3171 0.0000 27.4757 0.0000
# 2 24.5112 100.8631 42.4945 0.0000 7.7143 0.0000
# 3 34.3171 42.4945 147.4391 0.0000 16.2662 0.0000
# 4 0.0000 0.0000 0.0000 34.0501 0.0000 0.6844
# 5 27.4757 7.7143 16.2662 0.0000 30.1274 0.0000
# 6 0.0000 0.0000 0.0000 0.6844 0.0000 12.3783
#
#
#
# Elastic Compliance Matrix: (Units=1/GPa)
#
#
# Indices 1 2 3 4 5 6 
#
# 1 0.024498 -0.003355 -0.002515 0.000000 -0.020125 0.000000
# 2 -0.003355 0.011785 -0.002787 0.000000 0.001546 0.000000
# 3 -0.002515 -0.002787 0.008336 0.000000 -0.001493 0.000000
# 4 0.000000 0.000000 0.000000 0.029401 0.000000 -0.001626
# 5 -0.020125 0.001546 -0.001493 0.000000 0.051957 0.000000
# 6 0.000000 0.000000 0.000000 -0.001626 0.000000 0.080877
#
#
# Mechanical properties :
#
#
# Convention : Reuss Voigt Hill
#
# Bulk Modulus (GPa) = 36.62021 57.91299 47.26660
# Shear Modulus (GPa) = 21.43452 29.79442 25.61447
#
# Velocity S-wave (km/s) = 3.27912 3.86606 3.58462
# Velocity P-wave (km/s) = 5.71904 6.99862 6.39093
#
# Compressibility (1/GPa) = 0.02730732
#
# Stress axis : x y z
#
# Youngs Moduli (GPa) = 40.81891 84.85081 119.96573
#
# Poissons Ratio (x) = 0.28465 0.30171
# Poissons Ratio (y) = 0.13693 0.33429
# Poissons Ratio (z) = 0.10266 0.23644
#
# Static dielectric constant tensor:
#      x y z
#    x 3.255540 0.000000 0.095550 
#    y 0.000000 3.721840 0.000000 
#    z 0.095550 0.000000 3.969800 
# 
# 
# High freq. dielectric constant tensor:
#      x y z
#    x 1.730480 0.000000 0.000790 
#    y 0.000000 1.773580 0.000000 
#    z 0.000790 0.000000 1.804240 
# 
# From -- ./inp_files/61637.got.cif
#   From: 2010.06.25/outbox.cif.g09.slc.cpg/sg15_31_cif.got.tgz:61637.got - 2010.06.28 07:06:18.
