data_PCOD8131550
_publ_section_title
;
Structure prediction by ZEFSAII (Michael W. Deem and Ramdas Pophale) SiO2 
 PCOD8131550
Probable space group: C 2/C
;
_chemical_formula_sum "Si O2"
_cell_formula_units_Z 56
_cell_length_a 8.910160
_cell_length_b 16.838627
_cell_length_c 19.826618
_cell_angle_alpha 90.000000
_cell_angle_beta 65.970228
_cell_angle_gamma 90.000000
_cell_volume 2716.879877
_symmetry_space_group_name_H-M "C 2/C"
_symmetry_group_IT_number 15
_symmetry_cell_setting 'monoclinic'
loop_
_space_group_symop_operation_xyz
x,y,z
-x,y,1/2-z
-x,-y,-z
x,-y,1/2+z
1/2+x,1/2+y,z
1/2-x,1/2+y,1/2-z
1/2-x,1/2-y,-z
1/2+x,1/2-y,1/2+z
loop_
_atom_site_type_symbol
_atom_site_label
_atom_site_fract_x
_atom_site_fract_y
_atom_site_fract_z
Si Si1 0.506066 0.024699 0.169929
Si Si2 0.241964 0.335532 0.650841
Si Si3 0.821759 0.899175 0.778509
Si Si4 0.496882 0.133379 0.610937
Si Si5 0.329350 0.324077 0.266149
Si Si6 0.261853 0.738853 0.634782
Si Si7 0.916509 0.255870 0.012516
O O1 0.500000 0.000533 0.250000
O O2 0.611039 0.105367 0.139018
O O3 0.322217 0.040391 0.176533
O O4 0.576967 0.954053 0.108744
O O5 0.314964 0.377692 0.701628
O O6 0.151071 0.255658 0.691878
O O7 0.392223 0.312532 0.573664
O O8 0.807536 0.823917 0.830546
O O9 0.000000 0.940146 0.750000
O O10 0.328850 0.126430 0.683727
O O11 0.617290 0.199831 0.618116
O O12 0.449154 0.158293 0.543031
O O13 0.500000 0.370981 0.250000
O O14 0.308325 0.311762 0.190981
O O15 0.425791 0.739888 0.560833
O O16 0.750000 0.250000 0.000000
#
# Coordination Sequence:
#
# PCOD8131550 Si02
#       7
#     8   8   8   8   8   8   8
#     4  10  20  37  58  83 115 148 181 234 292 338
#     4   9  19  36  56  79 111 150 189 226 281 347
#     4  10  19  34  59  85 111 147 191 232 281 346
#     4  11  23  37  57  87 116 144 188 242 289 329
#     4  10  18  33  58  84 109 145 189 232 277 336
#     4  11  20  35  59  85 113 149 191 236 279 334
#     4  11  22  38  58  83 114 155 197 236 281 342
#
# _framework density 20.611879999999999
#
# number of rings (size 3 to 8) (size 9 to 14) (size 15 to 20)
#    0.000    1.714    0.000    9.000    0.000    0.571 
#    0.000    6.429    0.000    0.000    0.000    0.000 
#    0.000    0.000    0.000    0.000    0.000    0.000 
#
# Total GULP energy -346979.267384 kJ/mol
# GULP energy per Si atom -12392.116692 kJ/mol
# Density = 2.056497 g / cm^3
# Si number density = 20.611880 Si / 1000 Ang^3
#
#
#
# Elastic Constant Matrix: (Units=GPa)
#
#
# Indices 1 2 3 4 5 6 
#
# 1 125.1334 19.3311 16.6386 0.0000 -10.0429 0.0000
# 2 19.3311 71.9916 5.3831 0.0000 6.7266 0.0000
# 3 16.6386 5.3831 85.8670 0.0000 -12.4199 0.0000
# 4 0.0000 0.0000 0.0000 11.1611 0.0000 -3.0438
# 5 -10.0429 6.7266 -12.4199 0.0000 34.1476 0.0000
# 6 0.0000 0.0000 0.0000 -3.0438 0.0000 21.5822
#
#
#
# Elastic Compliance Matrix: (Units=1/GPa)
#
#
# Indices 1 2 3 4 5 6 
#
# 1 0.008745 -0.002509 -0.001154 0.000000 0.002646 0.000000
# 2 -0.002509 0.015023 -0.001045 0.000000 -0.004078 0.000000
# 3 -0.001154 -0.001045 0.012578 0.000000 0.004441 0.000000
# 4 0.000000 0.000000 0.000000 0.093181 0.000000 0.013142
# 5 0.002646 -0.004078 0.004441 0.000000 0.032481 0.000000
# 6 0.000000 0.000000 0.000000 0.013142 0.000000 0.048188
#
#
# Mechanical properties :
#
#
# Convention : Reuss Voigt Hill
#
# Bulk Modulus (GPa) = 37.13623 40.63306 38.88464
# Shear Modulus (GPa) = 21.87325 29.48747 25.68036
#
# Velocity S-wave (km/s) = 3.26113 3.78644 3.53356
# Velocity P-wave (km/s) = 5.67768 6.23477 5.96273
#
# Compressibility (1/GPa) = 0.02692789
#
# Stress axis : x y z
#
# Youngs Moduli (GPa) = 114.35124 66.56276 79.50704
#
# Poissons Ratio (x) = 0.16701 0.09179
# Poissons Ratio (y) = 0.28692 0.08312
# Poissons Ratio (z) = 0.13202 0.06959
#
# Static dielectric constant tensor:
#      x y z
#    x 3.772180 0.000000 0.032960 
#    y 0.000000 3.554070 0.000000 
#    z 0.032960 0.000000 3.821430 
# 
# 
# High freq. dielectric constant tensor:
#      x y z
#    x 1.825240 0.000000 0.003040 
#    y 0.000000 1.779540 0.000000 
#    z 0.003040 0.000000 1.795930 
# 
# From -- ./inp_files/190902.got.cif
#   From: 2010.06.25/outbox.cif.g09.slc.cpg/sg15_96_cif.got.tgz:190902.got - 2010.06.28 07:06:18.
