data_PCOD8131048
_publ_section_title
;
Structure prediction by ZEFSAII (Michael W. Deem and Ramdas Pophale) SiO2 
 PCOD8131048
Probable space group: C 2/C
;
_chemical_formula_sum "Si O2"
_cell_formula_units_Z 60
_cell_length_a 17.749603
_cell_length_b 23.891621
_cell_length_c 8.217442
_cell_angle_alpha 90.000000
_cell_angle_beta 123.569560
_cell_angle_gamma 90.000000
_cell_volume 2903.541612
_symmetry_space_group_name_H-M "C 2/C"
_symmetry_group_IT_number 15
_symmetry_cell_setting 'monoclinic'
loop_
_space_group_symop_operation_xyz
x,y,z
-x,y,1/2-z
-x,-y,-z
x,-y,1/2+z
1/2+x,1/2+y,z
1/2-x,1/2+y,1/2-z
1/2-x,1/2-y,-z
1/2+x,1/2-y,1/2+z
loop_
_atom_site_type_symbol
_atom_site_label
_atom_site_fract_x
_atom_site_fract_y
_atom_site_fract_z
Si Si1 0.000000 0.257007 0.250000
Si Si2 0.488823 0.062864 0.546219
Si Si3 0.005352 0.818955 0.442166
Si Si4 0.807572 0.169068 0.730379
Si Si5 0.190829 0.539892 0.314306
Si Si6 0.672899 0.921785 0.154274
Si Si7 0.806494 0.133520 0.374459
Si Si8 0.306285 0.778387 0.927931
O O1 0.090035 0.293103 0.395745
O O2 0.976222 0.223448 0.387335
O O3 0.500000 0.068963 0.750000
O O4 0.388171 0.077239 0.366756
O O5 0.569370 0.099615 0.559057
O O6 0.500000 0.000000 0.500000
O O7 0.087915 0.862642 0.542428
O O8 0.000000 0.791980 0.250000
O O9 0.912063 0.851601 0.370663
O O10 0.742387 0.129740 0.763050
O O11 0.778288 0.164042 0.508826
O O12 0.804530 0.234090 0.776923
O O13 0.192637 0.472847 0.301729
O O14 0.182477 0.549329 0.493803
O O15 0.283170 0.567547 0.356016
O O16 0.743508 0.163846 0.167831
O O17 0.250000 0.750000 0.000000
#
# Coordination Sequence:
#
# PCOD8131048 Si02
#       8
#     4   8   8   8   8   8   8   8
#     4  10  20  38  56  88 110 154 188 234 286 342
#     4  10  18  31  51  76 106 145 181 224 279 331
#     4   9  18  37  60  82 113 151 190 231 289 344
#     4   9  21  37  60  81 108 151 190 230 280 343
#     4  10  20  34  55  80 109 148 184 233 281 337
#     4  10  19  36  55  79 110 143 192 228 280 335
#     4  10  20  38  58  82 112 150 186 230 287 340
#     4  11  21  36  59  83 116 141 188 234 283 333
#
# _framework density 20.664418999999999
#
# number of rings (size 3 to 8) (size 9 to 14) (size 15 to 20)
#    0.000    2.133    1.333    4.000    0.000    2.133 
#    3.600    0.667    0.000    0.000    0.000    0.000 
#    0.000    0.000    0.000    0.000    0.000    0.000 
#
# Total GULP energy -371657.093857 kJ/mol
# GULP energy per Si atom -12388.569795 kJ/mol
# Density = 2.061739 g / cm^3
# Si number density = 20.664419 Si / 1000 Ang^3
#
#
#
# Elastic Constant Matrix: (Units=GPa)
#
#
# Indices 1 2 3 4 5 6 
#
# 1 101.8173 5.6662 5.1066 0.0000 17.8741 0.0000
# 2 5.6662 29.2879 0.6784 0.0000 7.0564 0.0000
# 3 5.1066 0.6784 58.5505 0.0000 6.8489 0.0000
# 4 0.0000 0.0000 0.0000 21.2410 0.0000 3.3823
# 5 17.8741 7.0564 6.8489 0.0000 35.7350 0.0000
# 6 0.0000 0.0000 0.0000 3.3823 0.0000 27.0681
#
#
#
# Elastic Compliance Matrix: (Units=1/GPa)
#
#
# Indices 1 2 3 4 5 6 
#
# 1 0.010792 -0.000835 -0.000327 0.000000 -0.005171 0.000000
# 2 -0.000835 0.035924 0.000448 0.000000 -0.006762 0.000000
# 3 -0.000327 0.000448 0.017486 0.000000 -0.003276 0.000000
# 4 0.000000 0.000000 0.000000 0.048035 0.000000 -0.006002
# 5 -0.005171 -0.006762 -0.003276 0.000000 0.032533 0.000000
# 6 0.000000 0.000000 0.000000 -0.006002 0.000000 0.037694
#
#
# Mechanical properties :
#
#
# Convention : Reuss Voigt Hill
#
# Bulk Modulus (GPa) = 15.93003 23.61756 19.77379
# Shear Modulus (GPa) = 24.41214 28.68911 26.55062
#
# Velocity S-wave (km/s) = 3.44082 3.73008 3.58837
# Velocity P-wave (km/s) = 4.84885 5.47770 5.17284
#
# Compressibility (1/GPa) = 0.06277454
#
# Stress axis : x y z
#
# Youngs Moduli (GPa) = 92.66086 27.83643 57.18914
#
# Poissons Ratio (x) = 0.02323 0.01869
# Poissons Ratio (y) = 0.07733 -0.02560
# Poissons Ratio (z) = 0.03028 -0.01246
#
# Static dielectric constant tensor:
#      x y z
#    x 4.193440 0.000000 0.054020 
#    y 0.000000 3.506330 0.000000 
#    z 0.054020 0.000000 3.726840 
# 
# 
# High freq. dielectric constant tensor:
#      x y z
#    x 1.828310 0.000000 -0.002310 
#    y 0.000000 1.760990 0.000000 
#    z -0.002310 0.000000 1.818980 
# 
# From -- ./inp_files/52043.got.cif
#   From: 2010.06.25/outbox.cif.g09.slc.cpg/sg15_27_cif.got.tgz:52043.got - 2010.06.28 07:06:18.
