data_PCOD8131467
_publ_section_title
;
Structure prediction by ZEFSAII (Michael W. Deem and Ramdas Pophale) SiO2 
 PCOD8131467
Probable space group: C 2/C
;
_chemical_formula_sum "Si O2"
_cell_formula_units_Z 56
_cell_length_a 10.579533
_cell_length_b 21.199285
_cell_length_c 13.194103
_cell_angle_alpha 90.000000
_cell_angle_beta 96.350583
_cell_angle_gamma 90.000000
_cell_volume 2940.995809
_symmetry_space_group_name_H-M "C 2/C"
_symmetry_group_IT_number 15
_symmetry_cell_setting 'monoclinic'
loop_
_space_group_symop_operation_xyz
x,y,z
-x,y,1/2-z
-x,-y,-z
x,-y,1/2+z
1/2+x,1/2+y,z
1/2-x,1/2+y,1/2-z
1/2-x,1/2-y,-z
1/2+x,1/2-y,1/2+z
loop_
_atom_site_type_symbol
_atom_site_label
_atom_site_fract_x
_atom_site_fract_y
_atom_site_fract_z
Si Si1 0.992091 0.801603 0.904031
Si Si2 0.265335 0.760009 0.255693
Si Si3 0.589487 0.911866 0.047589
Si Si4 0.376115 0.175442 0.585508
Si Si5 0.693090 0.312653 0.446543
Si Si6 0.742348 0.645893 0.373466
Si Si7 0.927824 0.458882 0.848919
O O1 0.886521 0.774931 0.817829
O O2 0.080798 0.744259 0.948756
O O3 0.086946 0.852364 0.858287
O O4 0.932424 0.831352 0.001367
O O5 0.310934 0.817998 0.189437
O O6 0.169021 0.792294 0.327408
O O7 0.198184 0.705854 0.182439
O O8 0.496699 0.870192 0.108873
O O9 0.716483 0.872892 0.037495
O O10 0.621574 0.975054 0.111405
O O11 0.526638 0.925868 0.933538
O O12 0.280874 0.146760 0.494703
O O13 0.750000 0.250000 0.500000
O O14 0.800730 0.583818 0.325312
O O15 0.000000 0.468623 0.750000
#
# Coordination Sequence:
#
# PCOD8131467 Si02
#       7
#     8   8   8   8   8   8   8
#     4  10  19  32  52  83 112 144 178 226 279 335
#     4  10  19  30  55  85 108 146 182 227 285 335
#     4  10  21  39  55  86 111 144 189 237 277 329
#     4  10  18  33  54  79 113 140 180 231 282 329
#     4  10  20  32  57  84 114 138 184 231 282 331
#     4  10  21  35  51  80 117 146 188 222 281 333
#     4  10  24  37  59  79 112 151 190 234 275 328
#
# _framework density 19.041169
#
# number of rings (size 3 to 8) (size 9 to 14) (size 15 to 20)
#    0.000    2.000    2.857    3.429    6.000    0.000 
#    0.000    2.857    0.000    0.000    0.000    0.000 
#    0.000    0.000    0.000    0.000    0.000    0.000 
#
# Total GULP energy -346996.381833 kJ/mol
# GULP energy per Si atom -12392.727923 kJ/mol
# Density = 1.899783 g / cm^3
# Si number density = 19.041169 Si / 1000 Ang^3
#
#
#
# Elastic Constant Matrix: (Units=GPa)
#
#
# Indices 1 2 3 4 5 6 
#
# 1 49.1183 29.5286 24.4790 0.0000 -13.2624 0.0000
# 2 29.5286 90.1900 18.2652 0.0000 -15.0500 0.0000
# 3 24.4790 18.2652 89.5293 0.0000 -27.3594 0.0000
# 4 0.0000 0.0000 0.0000 20.5526 0.0000 2.0458
# 5 -13.2624 -15.0500 -27.3594 0.0000 26.4307 0.0000
# 6 0.0000 0.0000 0.0000 2.0458 0.0000 35.8821
#
#
#
# Elastic Compliance Matrix: (Units=1/GPa)
#
#
# Indices 1 2 3 4 5 6 
#
# 1 0.028652 -0.007560 -0.004701 0.000000 0.005207 0.000000
# 2 -0.007560 0.014264 0.000702 0.000000 0.005055 0.000000
# 3 -0.004701 0.000702 0.017132 0.000000 0.015775 0.000000
# 4 0.000000 0.000000 0.000000 0.048933 0.000000 -0.002790
# 5 0.005207 0.005055 0.015775 0.000000 0.059655 0.000000
# 6 0.000000 0.000000 0.000000 -0.002790 0.000000 0.028028
#
#
# Mechanical properties :
#
#
# Convention : Reuss Voigt Hill
#
# Bulk Modulus (GPa) = 27.07738 41.48702 34.28220
# Shear Modulus (GPa) = 21.54295 27.01074 24.27684
#
# Velocity S-wave (km/s) = 3.36726 3.77044 3.57454
# Velocity P-wave (km/s) = 5.41934 6.38673 5.92282
#
# Compressibility (1/GPa) = 0.03693120
#
# Stress axis : x y z
#
# Youngs Moduli (GPa) = 34.90099 70.10469 58.36898
#
# Poissons Ratio (x) = 0.53000 0.27437
# Poissons Ratio (y) = 0.26386 -0.04096
# Poissons Ratio (z) = 0.16406 -0.04920
#
# Static dielectric constant tensor:
#      x y z
#    x 3.548070 0.000000 -0.367180 
#    y 0.000000 3.434980 0.000000 
#    z -0.367180 0.000000 3.811690 
# 
# 
# High freq. dielectric constant tensor:
#      x y z
#    x 1.719040 0.000000 -0.019080 
#    y 0.000000 1.714820 0.000000 
#    z -0.019080 0.000000 1.751790 
# 
# From -- ./inp_files/90426.got.cif
#   From: 2010.06.25/outbox.cif.g09.slc.cpg/sg15_46_cif.got.tgz:90426.got - 2010.06.28 07:06:18.
