data_PCOD8131267
_publ_section_title
;
Structure prediction by ZEFSAII (Michael W. Deem and Ramdas Pophale) SiO2 
 PCOD8131267
Probable space group: C 2/C
;
_chemical_formula_sum "Si O2"
_cell_formula_units_Z 56
_cell_length_a 12.733880
_cell_length_b 12.968248
_cell_length_c 18.200971
_cell_angle_alpha 90.000000
_cell_angle_beta 100.183569
_cell_angle_gamma 90.000000
_cell_volume 2958.287859
_symmetry_space_group_name_H-M "C 2/C"
_symmetry_group_IT_number 15
_symmetry_cell_setting 'monoclinic'
loop_
_space_group_symop_operation_xyz
x,y,z
-x,y,1/2-z
-x,-y,-z
x,-y,1/2+z
1/2+x,1/2+y,z
1/2-x,1/2+y,1/2-z
1/2-x,1/2-y,-z
1/2+x,1/2-y,1/2+z
loop_
_atom_site_type_symbol
_atom_site_label
_atom_site_fract_x
_atom_site_fract_y
_atom_site_fract_z
Si Si1 0.697295 0.359724 0.416717
Si Si2 0.035143 0.745855 0.934965
Si Si3 0.114364 0.961785 0.989319
Si Si4 0.317666 0.732224 0.325304
Si Si5 0.598974 0.167400 0.459186
Si Si6 0.212507 0.467333 0.872249
Si Si7 0.388398 0.845691 0.200135
O O1 0.649773 0.475308 0.419526
O O2 0.751500 0.333048 0.345196
O O3 0.600542 0.279265 0.419865
O O4 0.787314 0.344252 0.488419
O O5 0.104644 0.684757 0.884466
O O6 0.926772 0.784813 0.883766
O O7 0.107821 0.840519 0.971247
O O8 0.003100 0.668254 0.998546
O O9 0.198521 0.983751 0.063891
O O10 0.000000 0.000000 0.000000
O O11 0.253664 0.628066 0.329152
O O12 0.337263 0.752802 0.241473
O O13 0.604153 0.071934 0.402026
O O14 0.182582 0.551929 0.807856
O O15 0.500000 0.875453 0.250000
#
# Coordination Sequence:
#
# PCOD8131267 Si02
#       7
#     8   8   8   8   8   8   8
#     4   8  14  26  50  77  99 134 166 205 250 312
#     4  10  18  32  54  82 107 131 168 218 270 312
#     4  11  17  29  56  89 107 122 167 232 276 302
#     4   9  18  36  55  71 103 148 181 196 251 333
#     4   8  14  28  49  75 102 131 166 202 262 310
#     4  10  20  35  56  76 105 139 174 218 262 310
#     4  10  23  38  52  72 106 147 178 209 249 313
#
# _framework density 18.929867999999999
#
# number of rings (size 3 to 8) (size 9 to 14) (size 15 to 20)
#    0.000    2.571    2.857    1.714    0.000    2.286 
#    0.000    1.429    0.000    0.000    0.000    0.000 
#    0.000    0.000    0.000    0.000    0.000    0.000 
#
# Total GULP energy -346882.657025 kJ/mol
# GULP energy per Si atom -12388.666322 kJ/mol
# Density = 1.888678 g / cm^3
# Si number density = 18.929868 Si / 1000 Ang^3
#
#
#
# Elastic Constant Matrix: (Units=GPa)
#
#
# Indices 1 2 3 4 5 6 
#
# 1 62.7979 49.9588 39.6880 0.0000 -16.1113 0.0000
# 2 49.9588 106.8168 45.5510 0.0000 -0.3660 0.0000
# 3 39.6880 45.5510 76.0924 0.0000 -14.9230 0.0000
# 4 0.0000 0.0000 0.0000 27.0120 0.0000 0.4103
# 5 -16.1113 -0.3660 -14.9230 0.0000 20.1610 0.0000
# 6 0.0000 0.0000 0.0000 0.4103 0.0000 31.6372
#
#
#
# Elastic Compliance Matrix: (Units=1/GPa)
#
#
# Indices 1 2 3 4 5 6 
#
# 1 0.038689 -0.015591 -0.005660 0.000000 0.026445 0.000000
# 2 -0.015591 0.019565 -0.006965 0.000000 -0.017259 0.000000
# 3 -0.005660 -0.006965 0.022638 0.000000 0.012107 0.000000
# 4 0.000000 0.000000 0.000000 0.037028 0.000000 -0.000480
# 5 0.026445 -0.017259 0.012107 0.000000 0.079382 0.000000
# 6 0.000000 0.000000 0.000000 -0.000480 0.000000 0.031615
#
#
# Mechanical properties :
#
#
# Convention : Reuss Voigt Hill
#
# Bulk Modulus (GPa) = 40.88286 57.34473 49.11379
# Shear Modulus (GPa) = 17.03571 23.12934 20.08252
#
# Velocity S-wave (km/s) = 3.00315 3.49928 3.26067
# Velocity P-wave (km/s) = 5.80251 6.83269 6.33856
#
# Compressibility (1/GPa) = 0.02446013
#
# Stress axis : x y z
#
# Youngs Moduli (GPa) = 25.84704 51.11214 44.17389
#
# Poissons Ratio (x) = 0.79689 0.25002
# Poissons Ratio (y) = 0.40298 0.30767
# Poissons Ratio (z) = 0.14629 0.35600
#
# Static dielectric constant tensor:
#      x y z
#    x 3.381380 0.000000 -0.316780 
#    y 0.000000 3.585850 0.000000 
#    z -0.316780 0.000000 3.373770 
# 
# 
# High freq. dielectric constant tensor:
#      x y z
#    x 1.719100 0.000000 -0.027240 
#    y 0.000000 1.733000 0.000000 
#    z -0.027240 0.000000 1.709050 
# 
# From -- ./inp_files/237040.got.cif
#   From: 2010.06.25/outbox.cif.g09.slc.cpg/sg15_119_cif.got.tgz:237040.got - 2010.06.28 07:06:18.
