data_PCOD8131780
_publ_section_title
;
Structure prediction by ZEFSAII (Michael W. Deem and Ramdas Pophale) SiO2 
 PCOD8131780
Probable space group: C 2/C
;
_chemical_formula_sum "Si O2"
_cell_formula_units_Z 60
_cell_length_a 17.044242
_cell_length_b 21.603213
_cell_length_c 12.741094
_cell_angle_alpha 90.000000
_cell_angle_beta 142.644873
_cell_angle_gamma 90.000000
_cell_volume 2846.525227
_symmetry_space_group_name_H-M "C 2/C"
_symmetry_group_IT_number 15
_symmetry_cell_setting 'monoclinic'
loop_
_space_group_symop_operation_xyz
x,y,z
-x,y,1/2-z
-x,-y,-z
x,-y,1/2+z
1/2+x,1/2+y,z
1/2-x,1/2+y,1/2-z
1/2-x,1/2-y,-z
1/2+x,1/2-y,1/2+z
loop_
_atom_site_type_symbol
_atom_site_label
_atom_site_fract_x
_atom_site_fract_y
_atom_site_fract_z
Si Si1 0.224490 0.045661 0.463551
Si Si2 0.011524 0.610213 0.987355
Si Si3 0.278057 0.417899 0.316735
Si Si4 0.856264 0.907946 0.068816
Si Si5 0.520328 0.214283 0.387085
Si Si6 0.692972 0.316373 0.314486
Si Si7 0.000000 0.588150 0.750000
Si Si8 0.779489 0.945200 0.770236
O O1 0.183321 0.089038 0.518475
O O2 0.379452 0.041522 0.628835
O O3 0.176966 0.075316 0.301651
O O4 0.175672 0.976307 0.424818
O O5 0.874747 0.580203 0.870045
O O6 0.009426 0.632015 0.862714
O O7 0.038639 0.668873 0.088851
O O8 0.124649 0.559677 0.122161
O O9 0.341049 0.362096 0.318808
O O10 0.329237 0.484491 0.333856
O O11 0.773791 0.856657 0.045192
O O12 0.000000 0.890519 0.250000
O O13 0.841478 0.902415 0.926859
O O14 0.500000 0.185970 0.250000
O O15 0.563249 0.276759 0.192356
O O16 0.676409 0.223915 0.569956
#
# Coordination Sequence:
#
# PCOD8131780 Si02
#       8
#     8   8   8   8   8   8   4   8
#     4   9  18  35  57  90 122 158 183 237 295 363
#     4   9  18  32  58  91 116 154 191 247 294 351
#     4   9  18  34  57  89 123 151 188 243 300 354
#     4  11  23  37  56  83 122 162 195 237 292 354
#     4  11  23  39  62  83 117 157 207 251 297 345
#     4  11  23  42  61  86 117 160 202 253 297 345
#     4   8  16  34  62  88 124 146 190 246 296 350
#     4  10  18  34  58  88 121 156 196 231 296 365
#
# _framework density 21.078330999999999
#
# number of rings (size 3 to 8) (size 9 to 14) (size 15 to 20)
#    0.000    2.133    1.333    2.000    0.000    2.667 
#    1.200    0.000    0.000   16.000    0.000    0.000 
#    0.000    0.000    0.000    0.000    0.000    0.000 
#
# Total GULP energy -371693.758401 kJ/mol
# GULP energy per Si atom -12389.791947 kJ/mol
# Density = 2.103036 g / cm^3
# Si number density = 21.078331 Si / 1000 Ang^3
#
#
#
# Elastic Constant Matrix: (Units=GPa)
#
#
# Indices 1 2 3 4 5 6 
#
# 1 95.1755 42.4086 60.5279 0.0000 -22.3180 0.0000
# 2 42.4086 79.7867 33.9368 0.0000 -11.3078 0.0000
# 3 60.5279 33.9368 96.7596 0.0000 -32.4240 0.0000
# 4 0.0000 0.0000 0.0000 27.7507 0.0000 -0.5967
# 5 -22.3180 -11.3078 -32.4240 0.0000 42.8243 0.0000
# 6 0.0000 0.0000 0.0000 -0.5967 0.0000 31.1023
#
#
#
# Elastic Compliance Matrix: (Units=1/GPa)
#
#
# Indices 1 2 3 4 5 6 
#
# 1 0.019774 -0.006171 -0.009779 0.000000 0.001272 0.000000
# 2 -0.006171 0.016657 -0.002125 0.000000 -0.000427 0.000000
# 3 -0.009779 -0.002125 0.020504 0.000000 0.009867 0.000000
# 4 0.000000 0.000000 0.000000 0.036050 0.000000 0.000692
# 5 0.001272 -0.000427 0.009867 0.000000 0.031372 0.000000
# 6 0.000000 0.000000 0.000000 0.000692 0.000000 0.032165
#
#
# Mechanical properties :
#
#
# Convention : Reuss Voigt Hill
#
# Bulk Modulus (GPa) = 48.11170 60.60763 54.35967
# Shear Modulus (GPa) = 25.05026 29.32537 27.18781
#
# Velocity S-wave (km/s) = 3.45111 3.73400 3.59534
# Velocity P-wave (km/s) = 6.22535 6.88522 6.56358
#
# Compressibility (1/GPa) = 0.02078496
#
# Stress axis : x y z
#
# Youngs Moduli (GPa) = 50.57224 60.03625 48.77132
#
# Poissons Ratio (x) = 0.37045 0.47694
# Poissons Ratio (y) = 0.31206 0.10364
# Poissons Ratio (z) = 0.49455 0.12758
#
# Static dielectric constant tensor:
#      x y z
#    x 4.180990 0.000000 -0.354760 
#    y 0.000000 3.372210 0.000000 
#    z -0.354760 0.000000 4.023150 
# 
# 
# High freq. dielectric constant tensor:
#      x y z
#    x 1.841910 0.000000 -0.012670 
#    y 0.000000 1.778240 0.000000 
#    z -0.012670 0.000000 1.829110 
# 
# From -- ./inp_files/107645.got.cif
#   From: 2010.06.25/outbox.cif.g09.slc.cpg/sg15_54_cif.got.tgz:107645.got - 2010.06.28 07:06:18.
