data_PCOD8131669
_publ_section_title
;
Structure prediction by ZEFSAII (Michael W. Deem and Ramdas Pophale) SiO2 
 PCOD8131669
Probable space group: C 2/C
;
_chemical_formula_sum "Si O2"
_cell_formula_units_Z 52
_cell_length_a 29.658608
_cell_length_b 17.872513
_cell_length_c 14.329552
_cell_angle_alpha 90.000000
_cell_angle_beta 159.966203
_cell_angle_gamma 90.000000
_cell_volume 2602.099372
_symmetry_space_group_name_H-M "C 2/C"
_symmetry_group_IT_number 15
_symmetry_cell_setting 'monoclinic'
loop_
_space_group_symop_operation_xyz
x,y,z
-x,y,1/2-z
-x,-y,-z
x,-y,1/2+z
1/2+x,1/2+y,z
1/2-x,1/2+y,1/2-z
1/2-x,1/2-y,-z
1/2+x,1/2-y,1/2+z
loop_
_atom_site_type_symbol
_atom_site_label
_atom_site_fract_x
_atom_site_fract_y
_atom_site_fract_z
Si Si1 0.716302 0.809892 0.304391
Si Si2 0.222480 0.343679 0.047319
Si Si3 0.367996 0.166969 0.663434
Si Si4 0.831408 0.679648 0.264655
Si Si5 0.847946 0.437187 0.958557
Si Si6 0.000000 0.327189 0.750000
Si Si7 0.852733 0.071181 0.944052
O O1 0.659198 0.854831 0.282381
O O2 0.779756 0.734433 0.459611
O O3 0.817485 0.864374 0.449646
O O4 0.597761 0.781424 0.006962
O O5 0.246572 0.255105 0.111651
O O6 0.344713 0.392343 0.324491
O O7 0.206067 0.360785 0.906016
O O8 0.096108 0.372089 0.864091
O O9 0.330881 0.095173 0.529418
O O10 0.514851 0.197886 0.937062
O O11 0.806272 0.625298 0.302257
O O12 0.750150 0.504295 0.747574
O O13 0.000000 0.463806 0.250000
O O14 0.000000 0.042095 0.250000
#
# Coordination Sequence:
#
# PCOD8131669 Si02
#       7
#     8   8   8   8   8   4   8
#     4  10  21  36  65  88 120 155 203 253 304 355
#     4  10  21  36  65  88 120 155 203 253 304 355
#     4  10  20  40  61  93 117 156 201 256 301 363
#     4  10  20  40  61  93 117 156 201 256 301 363
#     4  10  23  39  61  84 123 161 205 244 305 357
#     4  10  18  34  54  94 118 154 196 244 292 360
#     4  11  24  42  59  87 122 167 200 248 303 371
#
# _framework density 19.983864000000001
#
# number of rings (size 3 to 8) (size 9 to 14) (size 15 to 20)
#    0.000    1.846    1.538    2.769    4.308    2.462 
#    5.538    4.615    0.000    0.000    0.000    0.000 
#    0.000    0.000    0.000    0.000    0.000    0.000 
#
# Total GULP energy -322172.299522 kJ/mol
# GULP energy per Si atom -12391.242289 kJ/mol
# Density = 1.993838 g / cm^3
# Si number density = 19.983864 Si / 1000 Ang^3
#
#
#
# Elastic Constant Matrix: (Units=GPa)
#
#
# Indices 1 2 3 4 5 6 
#
# 1 91.4894 1.9312 46.2170 0.0000 -20.1386 0.0000
# 2 1.9312 33.7716 36.0610 0.0000 -2.6104 0.0000
# 3 46.2170 36.0610 117.6949 0.0000 -16.0405 0.0000
# 4 0.0000 0.0000 0.0000 20.8412 0.0000 2.5506
# 5 -20.1386 -2.6104 -16.0405 0.0000 32.9283 0.0000
# 6 0.0000 0.0000 0.0000 2.5506 0.0000 16.9387
#
#
#
# Elastic Compliance Matrix: (Units=1/GPa)
#
#
# Indices 1 2 3 4 5 6 
#
# 1 0.016246 0.008063 -0.007935 0.000000 0.006709 0.000000
# 2 0.008063 0.048348 -0.017979 0.000000 0.000006 0.000000
# 3 -0.007935 -0.017979 0.017422 0.000000 0.002208 0.000000
# 4 0.000000 0.000000 0.000000 0.048883 0.000000 -0.007361
# 5 0.006709 0.000006 0.002208 0.000000 0.035549 0.000000
# 6 0.000000 0.000000 0.000000 -0.007361 0.000000 0.060145
#
#
# Mechanical properties :
#
#
# Convention : Reuss Voigt Hill
#
# Bulk Modulus (GPa) = 21.59228 45.70828 33.65028
# Shear Modulus (GPa) = 18.00298 24.72474 21.36386
#
# Velocity S-wave (km/s) = 3.00472 3.52125 3.27319
# Velocity P-wave (km/s) = 4.78185 6.28128 5.58214
#
# Compressibility (1/GPa) = 0.04631285
#
# Stress axis : x y z
#
# Youngs Moduli (GPa) = 61.55540 20.68352 57.39778
#
# Poissons Ratio (x) = -0.16677 0.45548
# Poissons Ratio (y) = -0.49632 1.03195
# Poissons Ratio (z) = 0.48847 0.37187
#
# Static dielectric constant tensor:
#      x y z
#    x 4.178870 0.000000 -0.194600 
#    y 0.000000 3.303020 0.000000 
#    z -0.194600 0.000000 3.859870 
# 
# 
# High freq. dielectric constant tensor:
#      x y z
#    x 1.793690 0.000000 -0.016960 
#    y 0.000000 1.748350 0.000000 
#    z -0.016960 0.000000 1.792380 
# 
# From -- ./inp_files/182908.got.cif
#   From: 2010.06.25/outbox.cif.g09.slc.cpg/sg15_92_cif.got.tgz:182908.got - 2010.06.28 07:06:18.
