data_PCOD8131016
_publ_section_title
;
Structure prediction by ZEFSAII (Michael W. Deem and Ramdas Pophale) SiO2 
 PCOD8131016
Probable space group: C 2/C
;
_chemical_formula_sum "Si O2"
_cell_formula_units_Z 56
_cell_length_a 15.377010
_cell_length_b 23.631056
_cell_length_c 8.675512
_cell_angle_alpha 90.000000
_cell_angle_beta 64.833263
_cell_angle_gamma 90.000000
_cell_volume 2853.213507
_symmetry_space_group_name_H-M "C 2/C"
_symmetry_group_IT_number 15
_symmetry_cell_setting 'monoclinic'
loop_
_space_group_symop_operation_xyz
x,y,z
-x,y,1/2-z
-x,-y,-z
x,-y,1/2+z
1/2+x,1/2+y,z
1/2-x,1/2+y,1/2-z
1/2-x,1/2-y,-z
1/2+x,1/2-y,1/2+z
loop_
_atom_site_type_symbol
_atom_site_label
_atom_site_fract_x
_atom_site_fract_y
_atom_site_fract_z
Si Si1 0.212783 0.015858 0.306121
Si Si2 0.809072 0.244972 0.253319
Si Si3 0.837822 0.841658 0.152977
Si Si4 0.135509 0.312564 0.007060
Si Si5 0.997712 0.242411 0.933854
Si Si6 0.774966 0.419191 0.469999
Si Si7 0.888094 0.065912 0.832348
O O1 0.156354 0.054648 0.468073
O O2 0.284794 0.971082 0.339233
O O3 0.130787 0.985664 0.268757
O O4 0.270131 0.055949 0.145954
O O5 0.747575 0.298694 0.246961
O O6 0.863389 0.261002 0.370923
O O7 0.735653 0.192372 0.333507
O O8 0.888232 0.230671 0.065403
O O9 0.939117 0.810271 0.053508
O O10 0.816336 0.881124 0.018567
O O11 0.837748 0.878045 0.308100
O O12 0.041071 0.300933 0.974177
O O13 0.134131 0.375182 0.087895
O O14 0.000000 0.248650 0.750000
O O15 0.000000 0.076832 0.750000
#
# Coordination Sequence:
#
# PCOD8131016 Si02
#       7
#     8   8   8   8   8   8   8
#     4   9  19  32  50  73 101 136 173 218 264 309
#     4   9  19  37  54  76 108 141 180 219 255 313
#     4   9  20  35  52  77 108 142 177 212 260 312
#     4   9  19  35  56  78 104 142 181 213 261 318
#     4  11  22  34  52  82 113 141 175 219 262 310
#     4   9  18  35  54  77 102 133 175 216 261 315
#     4  10  18  31  47  71 104 137 174 215 260 311
#
# _framework density 19.626992000000001
#
# number of rings (size 3 to 8) (size 9 to 14) (size 15 to 20)
#    0.000    2.571    0.000    2.143    0.000    5.714 
#    0.000    8.571    0.000    0.000    0.000   47.000 
#    0.000    0.000    0.000    0.000    0.000    0.000 
#
# Total GULP energy -346944.035497 kJ/mol
# GULP energy per Si atom -12390.858411 kJ/mol
# Density = 1.958232 g / cm^3
# Si number density = 19.626992 Si / 1000 Ang^3
#
#
#
# Elastic Constant Matrix: (Units=GPa)
#
#
# Indices 1 2 3 4 5 6 
#
# 1 50.4870 20.0259 23.8435 0.0000 5.3279 0.0000
# 2 20.0259 71.1360 11.7543 0.0000 8.6076 0.0000
# 3 23.8435 11.7543 87.1574 0.0000 3.5311 0.0000
# 4 0.0000 0.0000 0.0000 11.6936 0.0000 5.8437
# 5 5.3279 8.6076 3.5311 0.0000 31.6022 0.0000
# 6 0.0000 0.0000 0.0000 5.8437 0.0000 24.1290
#
#
#
# Elastic Compliance Matrix: (Units=1/GPa)
#
#
# Indices 1 2 3 4 5 6 
#
# 1 0.025181 -0.005855 -0.006019 0.000000 -0.001978 0.000000
# 2 -0.005855 0.016187 -0.000445 0.000000 -0.003372 0.000000
# 3 -0.006019 -0.000445 0.013194 0.000000 -0.000338 0.000000
# 4 0.000000 0.000000 0.000000 0.097292 0.000000 -0.023563
# 5 -0.001978 -0.003372 -0.000338 0.000000 0.032933 0.000000
# 6 0.000000 0.000000 0.000000 -0.023563 0.000000 0.047150
#
#
# Mechanical properties :
#
#
# Convention : Reuss Voigt Hill
#
# Bulk Modulus (GPa) = 33.41712 35.55865 34.48789
# Shear Modulus (GPa) = 18.75822 23.69542 21.22682
#
# Velocity S-wave (km/s) = 3.09485 3.47837 3.29220
# Velocity P-wave (km/s) = 5.46204 5.85565 5.66227
#
# Compressibility (1/GPa) = 0.02992478
#
# Stress axis : x y z
#
# Youngs Moduli (GPa) = 39.71293 61.77667 75.79340
#
# Poissons Ratio (x) = 0.36169 0.45619
# Poissons Ratio (y) = 0.23251 0.03371
# Poissons Ratio (z) = 0.23903 0.02747
#
# Static dielectric constant tensor:
#      x y z
#    x 3.600910 0.000000 0.330300 
#    y 0.000000 3.823650 0.000000 
#    z 0.330300 0.000000 3.425640 
# 
# 
# High freq. dielectric constant tensor:
#      x y z
#    x 1.753750 0.000000 0.030570 
#    y 0.000000 1.766660 0.000000 
#    z 0.030570 0.000000 1.742150 
# 
# From -- ./inp_files/42548.got.cif
#   From: 2010.06.25/outbox.cif.g09.slc.cpg/sg15_22_cif.got.tgz:42548.got - 2010.06.28 07:06:18.
