data_PCOD8131515
_publ_section_title
;
Structure prediction by ZEFSAII (Michael W. Deem and Ramdas Pophale) SiO2 
 PCOD8131515
Probable space group: C 2/C
;
_chemical_formula_sum "Si O2"
_cell_formula_units_Z 52
_cell_length_a 7.465925
_cell_length_b 15.937593
_cell_length_c 28.240460
_cell_angle_alpha 90.000000
_cell_angle_beta 49.070454
_cell_angle_gamma 90.000000
_cell_volume 2538.759931
_symmetry_space_group_name_H-M "C 2/C"
_symmetry_group_IT_number 15
_symmetry_cell_setting 'monoclinic'
loop_
_space_group_symop_operation_xyz
x,y,z
-x,y,1/2-z
-x,-y,-z
x,-y,1/2+z
1/2+x,1/2+y,z
1/2-x,1/2+y,1/2-z
1/2-x,1/2-y,-z
1/2+x,1/2-y,1/2+z
loop_
_atom_site_type_symbol
_atom_site_label
_atom_site_fract_x
_atom_site_fract_y
_atom_site_fract_z
Si Si1 0.562537 0.821210 0.292017
Si Si2 0.000000 0.268067 0.750000
Si Si3 0.759377 0.274691 0.881853
Si Si4 0.021932 0.399124 0.391210
Si Si5 0.977862 0.548612 0.454582
Si Si6 0.491444 0.366975 0.497304
Si Si7 0.879592 0.273694 0.596767
O O1 0.500000 0.849349 0.250000
O O2 0.830644 0.789073 0.246522
O O3 0.538838 0.900890 0.331162
O O4 0.390261 0.750335 0.344380
O O5 0.153930 0.317046 0.683414
O O6 0.656345 0.181703 0.889385
O O7 0.564873 0.334265 0.939673
O O8 0.980643 0.270692 0.878546
O O9 0.118138 0.487880 0.393291
O O10 0.750513 0.405407 0.455656
O O11 0.702869 0.566474 0.487828
O O12 0.000000 0.500000 0.500000
O O13 0.120815 0.635812 0.428513
O O14 0.492054 0.288964 0.461360
#
# Coordination Sequence:
#
# PCOD8131515 Si02
#       7
#     8   4   8   8   8   8   8
#     4  10  20  39  63  85 116 153 207 244 285 348
#     4  10  20  32  60  90 106 154 196 244 286 340
#     4  10  18  33  56  84 115 145 204 234 288 349
#     4  10  21  34  58  88 117 152 194 242 306 353
#     4  11  21  35  56  87 127 152 188 244 314 355
#     4  10  20  35  57  86 115 154 195 243 287 355
#     4  10  20  36  62  86 114 155 197 245 294 345
#
# _framework density 20.482441000000001
#
# number of rings (size 3 to 8) (size 9 to 14) (size 15 to 20)
#    0.000    1.846    1.538    4.615    0.000    2.462 
#    0.000    0.000   13.538    0.000    0.000    0.000 
#    0.000    0.000    0.000    0.000    0.000    0.000 
#
# Total GULP energy -322128.548367 kJ/mol
# GULP energy per Si atom -12389.559553 kJ/mol
# Density = 2.043582 g / cm^3
# Si number density = 20.482441 Si / 1000 Ang^3
#
#
#
# Elastic Constant Matrix: (Units=GPa)
#
#
# Indices 1 2 3 4 5 6 
#
# 1 73.2115 20.1943 25.8790 -0.0011 16.1792 0.0052
# 2 20.1943 95.3950 32.1301 -0.0034 22.7653 0.0054
# 3 25.8790 32.1301 132.5511 -0.0002 32.4166 0.0025
# 4 -0.0011 -0.0034 -0.0002 19.4695 -0.0002 7.8978
# 5 16.1792 22.7653 32.4166 -0.0002 45.0299 -0.0026
# 6 0.0052 0.0054 0.0025 7.8978 -0.0026 25.3486
#
#
#
# Elastic Compliance Matrix: (Units=1/GPa)
#
#
# Indices 1 2 3 4 5 6 
#
# 1 0.015545 -0.001898 -0.001752 0.000002 -0.003365 -0.000004
# 2 -0.001898 0.012484 -0.001552 0.000004 -0.004512 -0.000004
# 3 -0.001752 -0.001552 0.009608 0.000000 -0.005503 -0.000001
# 4 0.000002 0.000004 0.000000 0.058793 -0.000003 -0.018318
# 5 -0.003365 -0.004512 -0.005503 -0.000003 0.029659 0.000006
# 6 -0.000004 -0.000004 -0.000001 -0.018318 0.000006 0.045157
#
#
# Mechanical properties :
#
#
# Convention : Reuss Voigt Hill
#
# Bulk Modulus (GPa) = 36.71910 50.84049 43.77980
# Shear Modulus (GPa) = 26.21516 32.83319 29.52418
#
# Velocity S-wave (km/s) = 3.58143 4.00808 3.80075
# Velocity P-wave (km/s) = 5.92184 6.80404 6.37821
#
# Compressibility (1/GPa) = 0.02723378
#
# Stress axis : x y z
#
# Youngs Moduli (GPa) = 64.32751 80.10227 104.07655
#
# Poissons Ratio (x) = 0.15201 0.18236
# Poissons Ratio (y) = 0.12208 0.16154
# Poissons Ratio (z) = 0.11271 0.12433
#
# Static dielectric constant tensor:
#      x y z
#    x 3.843320 -0.000010 0.050110 
#    y -0.000010 3.558570 0.000010 
#    z 0.050110 0.000010 4.011330 
# 
# 
# High freq. dielectric constant tensor:
#      x y z
#    x 1.814820 0.000000 0.006450 
#    y 0.000000 1.766930 0.000000 
#    z 0.006450 0.000000 1.811280 
# 
# From -- ./inp_files/307724.got.cif
#   From: 2010.06.25/outbox.cif.g09.slc.cpg/sg15_154_cif.got.tgz:307724.got - 2010.06.28 07:06:18.
