data_PCOD8131578
_publ_section_title
;
Structure prediction by ZEFSAII (Michael W. Deem and Ramdas Pophale) SiO2 
 PCOD8131578
Probable space group: C 2/C
;
_chemical_formula_sum "Si O2"
_cell_formula_units_Z 32
_cell_length_a 13.404650
_cell_length_b 17.651604
_cell_length_c 9.942202
_cell_angle_alpha 90.000000
_cell_angle_beta 136.831590
_cell_angle_gamma 90.000000
_cell_volume 1609.423909
_symmetry_space_group_name_H-M "C 2/C"
_symmetry_group_IT_number 15
_symmetry_cell_setting 'monoclinic'
loop_
_space_group_symop_operation_xyz
x,y,z
-x,y,1/2-z
-x,-y,-z
x,-y,1/2+z
1/2+x,1/2+y,z
1/2-x,1/2+y,1/2-z
1/2-x,1/2-y,-z
1/2+x,1/2-y,1/2+z
loop_
_atom_site_type_symbol
_atom_site_label
_atom_site_fract_x
_atom_site_fract_y
_atom_site_fract_z
Si Si1 0.988479 0.685505 0.896551
Si Si2 0.345112 0.959045 0.347223
Si Si3 0.704644 0.688511 0.343567
Si Si4 0.164997 0.978009 0.908894
O O1 0.877056 0.630088 0.862186
O O2 0.932320 0.771902 0.865722
O O3 0.000000 0.661360 0.750000
O O4 0.154520 0.677657 0.115812
O O5 0.500000 0.000000 0.500000
O O6 0.261018 0.972176 0.402612
O O7 0.239944 0.988971 0.126460
O O8 0.750000 0.750000 0.500000
O O9 0.655467 0.609544 0.356665
O O10 0.000000 0.010042 0.750000
#
# Coordination Sequence:
#
# PCOD8131578 Si02
#       4
#     8   8   8   8
#     4  10  18  34  57  92 116 155 197 258 299 347
#     4  12  22  40  61  90 129 162 204 245 312 373
#     4  10  18  33  59  87 121 145 208 253 297 338
#     4  12  24  39  60  95 123 162 202 258 306 359
#
# _framework density 19.88289
#
# number of rings (size 3 to 8) (size 9 to 14) (size 15 to 20)
#    0.000    1.000    7.500    3.750    0.000    0.000 
#    0.000    0.000    0.000    1.500    0.000    0.000 
#    0.000    0.000    0.000    0.000    0.000    0.000 
#
# Total GULP energy -198307.297282 kJ/mol
# GULP energy per Si atom -12394.206080 kJ/mol
# Density = 1.983764 g / cm^3
# Si number density = 19.882890 Si / 1000 Ang^3
#
#
#
# Elastic Constant Matrix: (Units=GPa)
#
#
# Indices 1 2 3 4 5 6 
#
# 1 101.1408 8.0709 16.0429 0.0000 25.9017 0.0000
# 2 8.0709 55.0205 -13.1144 0.0000 -3.4568 0.0000
# 3 16.0429 -13.1144 73.9928 0.0000 22.3888 0.0000
# 4 0.0000 0.0000 0.0000 22.6595 0.0000 14.0178
# 5 25.9017 -3.4568 22.3888 0.0000 36.7218 0.0000
# 6 0.0000 0.0000 0.0000 14.0178 0.0000 28.8857
#
#
#
# Elastic Compliance Matrix: (Units=1/GPa)
#
#
# Indices 1 2 3 4 5 6 
#
# 1 0.012383 -0.002481 -0.000504 0.000000 -0.008661 0.000000
# 2 -0.002481 0.019477 0.003563 0.000000 0.001411 0.000000
# 3 -0.000504 0.003563 0.017224 0.000000 -0.009810 0.000000
# 4 0.000000 0.000000 0.000000 0.063064 0.000000 -0.030604
# 5 -0.008661 0.001411 -0.009810 0.000000 0.039455 0.000000
# 6 0.000000 0.000000 0.000000 -0.030604 0.000000 0.049471
#
#
# Mechanical properties :
#
#
# Convention : Reuss Voigt Hill
#
# Bulk Modulus (GPa) = 19.90424 28.01698 23.96061
# Shear Modulus (GPa) = 23.07729 32.26374 27.67051
#
# Velocity S-wave (km/s) = 3.41054 4.03263 3.73456
# Velocity P-wave (km/s) = 5.05386 5.98368 5.53832
#
# Compressibility (1/GPa) = 0.05024056
#
# Stress axis : x y z
#
# Youngs Moduli (GPa) = 80.75548 51.34299 58.05846
#
# Poissons Ratio (x) = 0.12737 0.02926
# Poissons Ratio (y) = 0.20033 -0.20686
# Poissons Ratio (z) = 0.04070 -0.18294
#
# Static dielectric constant tensor:
#      x y z
#    x 4.136520 0.000000 0.882150 
#    y 0.000000 3.752030 0.000000 
#    z 0.882150 0.000000 4.043770 
# 
# 
# High freq. dielectric constant tensor:
#      x y z
#    x 1.772840 0.000000 0.051330 
#    y 0.000000 1.770860 0.000000 
#    z 0.051330 0.000000 1.750760 
# 
# From -- ./inp_files/29920.got.cif
#   From: 2010.06.25/outbox.cif.g09.slc.cpg/sg15_15_cif.got.tgz:29920.got - 2010.06.28 07:06:18.
