data_PCOD8131994
_publ_section_title
;
Structure prediction by ZEFSAII (Michael W. Deem and Ramdas Pophale) SiO2 
 PCOD8131994
Probable space group: C 2/C
;
_chemical_formula_sum "Si O2"
_cell_formula_units_Z 52
_cell_length_a 9.231067
_cell_length_b 20.799622
_cell_length_c 14.272302
_cell_angle_alpha 90.000000
_cell_angle_beta 92.281918
_cell_angle_gamma 90.000000
_cell_volume 2738.147535
_symmetry_space_group_name_H-M "C 2/C"
_symmetry_group_IT_number 15
_symmetry_cell_setting 'monoclinic'
loop_
_space_group_symop_operation_xyz
x,y,z
-x,y,1/2-z
-x,-y,-z
x,-y,1/2+z
1/2+x,1/2+y,z
1/2-x,1/2+y,1/2-z
1/2-x,1/2-y,-z
1/2+x,1/2-y,1/2+z
loop_
_atom_site_type_symbol
_atom_site_label
_atom_site_fract_x
_atom_site_fract_y
_atom_site_fract_z
Si Si1 0.906374 0.189283 0.937544
Si Si2 0.066668 0.306421 0.443432
Si Si3 0.500000 0.037973 0.250000
Si Si4 0.071236 0.561739 0.050437
Si Si5 0.373567 0.447869 0.487513
Si Si6 0.263824 0.938083 0.216566
Si Si7 0.000000 0.865619 0.250000
Si Si8 0.500000 0.835277 0.250000
O O1 0.735814 0.202540 0.926149
O O2 0.940940 0.123795 0.996072
O O3 0.968275 0.181415 0.835016
O O4 0.984960 0.249642 0.988303
O O5 0.033988 0.375842 0.487818
O O6 0.971575 0.295159 0.344931
O O7 0.501925 0.076724 0.152044
O O8 0.353788 0.996661 0.260666
O O9 0.244891 0.547594 0.061468
O O10 0.000000 0.500000 0.000000
O O11 0.500000 0.500000 0.500000
O O12 0.296633 0.457535 0.385836
O O13 0.132046 0.914434 0.278786
O O14 0.367094 0.877132 0.209133
#
# Coordination Sequence:
#
# PCOD8131994 Si02
#       8
#     8   8   4   8   8   8   4   4
#     4   9  20  38  60  89 114 161 195 241 308 351
#     4  10  20  38  64  83 121 155 200 248 296 357
#     4  11  22  33  58  90 122 154 200 252 308 342
#     4  11  20  37  58  89 120 156 201 247 297 357
#     4  10  20  38  61  84 119 160 196 248 300 352
#     4  10  20  35  56  90 115 156 202 240 293 355
#     4  10  18  35  58  86 118 155 206 234 288 377
#     4  11  16  38  64  88 108 155 210 240 288 361
#
# _framework density 18.990940999999999
#
# number of rings (size 3 to 8) (size 9 to 14) (size 15 to 20)
#    0.000    1.846    6.154    0.923    4.308    0.615 
#    0.000    0.769   10.154    0.000    0.000    0.000 
#    0.000    0.000    0.000    0.000    0.000    0.000 
#
# Total GULP energy -322099.588923 kJ/mol
# GULP energy per Si atom -12388.445728 kJ/mol
# Density = 1.894772 g / cm^3
# Si number density = 18.990941 Si / 1000 Ang^3
#
#
#
# Elastic Constant Matrix: (Units=GPa)
#
#
# Indices 1 2 3 4 5 6 
#
# 1 76.0716 40.4549 42.5376 0.0000 -9.2400 0.0000
# 2 40.4549 117.8671 57.1856 0.0000 -0.1345 0.0000
# 3 42.5376 57.1856 143.4068 0.0000 -13.4050 0.0000
# 4 0.0000 0.0000 0.0000 22.2783 0.0000 -5.3721
# 5 -9.2400 -0.1345 -13.4050 0.0000 37.3769 0.0000
# 6 0.0000 0.0000 0.0000 -5.3721 0.0000 16.9266
#
#
#
# Elastic Compliance Matrix: (Units=1/GPa)
#
#
# Indices 1 2 3 4 5 6 
#
# 1 0.017715 -0.004555 -0.003135 0.000000 0.003238 0.000000
# 2 -0.004555 0.011774 -0.003565 0.000000 -0.002362 0.000000
# 3 -0.003135 -0.003565 0.009572 0.000000 0.002645 0.000000
# 4 0.000000 0.000000 0.000000 0.048607 0.000000 0.015427
# 5 0.003238 -0.002362 0.002645 0.000000 0.028495 0.000000
# 6 0.000000 0.000000 0.000000 0.015427 0.000000 0.063975
#
#
# Mechanical properties :
#
#
# Convention : Reuss Voigt Hill
#
# Bulk Modulus (GPa) = 60.42257 68.63353 64.52805
# Shear Modulus (GPa) = 24.01940 28.46085 26.24013
#
# Velocity S-wave (km/s) = 3.56024 3.87545 3.72118
# Velocity P-wave (km/s) = 6.98470 7.49960 7.24672
#
# Compressibility (1/GPa) = 0.01655011
#
# Stress axis : x y z
#
# Youngs Moduli (GPa) = 56.45082 84.92952 104.47162
#
# Poissons Ratio (x) = 0.38687 0.32756
# Poissons Ratio (y) = 0.25714 0.37243
# Poissons Ratio (z) = 0.17699 0.30276
#
# Static dielectric constant tensor:
#      x y z
#    x 3.710410 0.000000 -0.130650 
#    y 0.000000 3.491020 0.000000 
#    z -0.130650 0.000000 3.550300 
# 
# 
# High freq. dielectric constant tensor:
#      x y z
#    x 1.727440 0.000000 -0.010500 
#    y 0.000000 1.719790 0.000000 
#    z -0.010500 0.000000 1.739490 
# 
# From -- ./inp_files/136930.got.cif
#   From: 2010.06.25/outbox.cif.g09.slc.cpg/sg15_69_cif.got.tgz:136930.got - 2010.06.28 07:06:18.
