data_PCOD8131885
_publ_section_title
;
Structure prediction by ZEFSAII (Michael W. Deem and Ramdas Pophale) SiO2 
 PCOD8131885
Probable space group: C 2/C
;
_chemical_formula_sum "Si O2"
_cell_formula_units_Z 60
_cell_length_a 22.424976
_cell_length_b 8.549760
_cell_length_c 27.724175
_cell_angle_alpha 90.000000
_cell_angle_beta 148.047848
_cell_angle_gamma 90.000000
_cell_volume 2813.023100
_symmetry_space_group_name_H-M "C 2/C"
_symmetry_group_IT_number 15
_symmetry_cell_setting 'monoclinic'
loop_
_space_group_symop_operation_xyz
x,y,z
-x,y,1/2-z
-x,-y,-z
x,-y,1/2+z
1/2+x,1/2+y,z
1/2-x,1/2+y,1/2-z
1/2-x,1/2-y,-z
1/2+x,1/2-y,1/2+z
loop_
_atom_site_type_symbol
_atom_site_label
_atom_site_fract_x
_atom_site_fract_y
_atom_site_fract_z
Si Si1 0.868395 0.680308 0.597973
Si Si2 0.345776 0.938793 0.775537
Si Si3 0.662553 0.422037 0.211843
Si Si4 0.295502 0.930955 0.143508
Si Si5 0.943168 0.406066 0.046627
Si Si6 0.000000 0.917062 0.750000
Si Si7 0.458281 0.555567 0.023187
Si Si8 0.786099 0.938088 0.654043
O O1 0.750000 0.750000 0.500000
O O2 0.850937 0.550175 0.628405
O O3 0.926888 0.605741 0.592436
O O4 0.952479 0.814815 0.673350
O O5 0.322866 0.757055 0.764806
O O6 0.234206 0.036165 0.713457
O O7 0.367675 0.980292 0.734123
O O8 0.446657 0.984853 0.881374
O O9 0.532742 0.467387 0.114405
O O10 0.712721 0.524973 0.289186
O O11 0.294524 0.746484 0.152434
O O12 0.169366 0.999596 0.056012
O O13 0.968454 0.242903 0.036888
O O14 0.834440 0.494315 0.949689
O O15 0.105842 0.016078 0.800138
O O16 0.500000 0.500000 0.000000
#
# Coordination Sequence:
#
# PCOD8131885 Si02
#       8
#     8   8   8   8   8   4   8   8
#     4  11  18  36  66 101 126 166 213 272 317 384
#     4  12  26  43  62  89 131 172 218 272 324 396
#     4  12  26  42  64  90 129 177 216 266 334 392
#     4  10  21  39  66  97 127 165 215 266 325 380
#     4  11  23  41  66  98 131 167 222 270 327 385
#     4  10  18  34  64  96 134 160 218 264 322 388
#     4  11  21  38  66  94 129 165 214 266 329 389
#     4  10  22  39  67  97 126 167 218 267 321 391
#
# _framework density 21.329364999999999
#
# number of rings (size 3 to 8) (size 9 to 14) (size 15 to 20)
#    0.000    1.067    5.333    4.800    1.867    1.600 
#    0.000    1.333    0.000    2.400    0.000    0.000 
#    0.000    0.000    0.000    0.000    0.000    0.000 
#
# Total GULP energy -371930.006335 kJ/mol
# GULP energy per Si atom -12397.666878 kJ/mol
# Density = 2.128082 g / cm^3
# Si number density = 21.329365 Si / 1000 Ang^3
#
#
#
# Elastic Constant Matrix: (Units=GPa)
#
#
# Indices 1 2 3 4 5 6 
#
# 1 110.5295 22.2274 26.7651 0.0000 -12.2665 0.0000
# 2 22.2274 41.8521 20.3737 -0.0001 -4.6309 -0.0001
# 3 26.7651 20.3737 149.0249 0.0000 2.7436 0.0001
# 4 0.0000 -0.0001 0.0000 18.2119 0.0000 0.7408
# 5 -12.2665 -4.6309 2.7436 0.0000 44.3909 0.0000
# 6 0.0000 -0.0001 0.0001 0.7408 0.0000 17.8868
#
#
#
# Elastic Compliance Matrix: (Units=1/GPa)
#
#
# Indices 1 2 3 4 5 6 
#
# 1 0.010590 -0.004711 -0.001304 0.000000 0.002515 0.000000
# 2 -0.004711 0.028069 -0.003025 0.000000 0.001813 0.000000
# 3 -0.001304 -0.003025 0.007379 0.000000 -0.001132 0.000000
# 4 0.000000 0.000000 0.000000 0.055002 0.000000 -0.002278
# 5 0.002515 0.001813 -0.001132 0.000000 0.023481 0.000000
# 6 0.000000 0.000000 0.000000 -0.002278 0.000000 0.056001
#
#
# Mechanical properties :
#
#
# Convention : Reuss Voigt Hill
#
# Bulk Modulus (GPa) = 35.76829 48.90430 42.33630
# Shear Modulus (GPa) = 24.04763 31.56727 27.80745
#
# Velocity S-wave (km/s) = 3.36138 3.85124 3.61462
# Velocity P-wave (km/s) = 5.64545 6.53865 6.10840
#
# Compressibility (1/GPa) = 0.02795772
#
# Stress axis : x y z
#
# Youngs Moduli (GPa) = 94.43147 35.62694 135.52202
#
# Poissons Ratio (x) = 0.16783 0.17675
# Poissons Ratio (y) = 0.44486 0.40991
# Poissons Ratio (z) = 0.12316 0.10776
#
# Static dielectric constant tensor:
#      x y z
#    x 4.533680 0.000000 0.247360 
#    y 0.000000 3.352050 0.000000 
#    z 0.247360 0.000000 4.292930 
# 
# 
# High freq. dielectric constant tensor:
#      x y z
#    x 1.846650 0.000000 0.003090 
#    y 0.000000 1.779510 0.000000 
#    z 0.003090 0.000000 1.870000 
# 
# From -- ./inp_files/302099.got.cif
#   From: 2010.06.25/outbox.cif.g09.slc.cpg/sg15_152_cif.got.tgz:302099.got - 2010.06.28 07:06:18.
