data_PCOD8131696
_publ_section_title
;
Structure prediction by ZEFSAII (Michael W. Deem and Ramdas Pophale) SiO2 
 PCOD8131696
Probable space group: C 2/C
;
_chemical_formula_sum "Si O2"
_cell_formula_units_Z 40
_cell_length_a 17.667965
_cell_length_b 20.836087
_cell_length_c 12.168576
_cell_angle_alpha 90.000000
_cell_angle_beta 30.670662
_cell_angle_gamma 90.000000
_cell_volume 2285.072382
_symmetry_space_group_name_H-M "C 2/C"
_symmetry_group_IT_number 15
_symmetry_cell_setting 'monoclinic'
loop_
_space_group_symop_operation_xyz
x,y,z
-x,y,1/2-z
-x,-y,-z
x,-y,1/2+z
1/2+x,1/2+y,z
1/2-x,1/2+y,1/2-z
1/2-x,1/2-y,-z
1/2+x,1/2-y,1/2+z
loop_
_atom_site_type_symbol
_atom_site_label
_atom_site_fract_x
_atom_site_fract_y
_atom_site_fract_z
Si Si1 0.706613 0.417111 0.349897
Si Si2 0.160852 0.048680 0.498769
Si Si3 0.665906 0.314310 0.576917
Si Si4 0.831665 0.459157 0.983208
Si Si5 0.632947 0.581070 0.292387
O O1 0.740156 0.479778 0.380240
O O2 0.732956 0.353702 0.389816
O O3 0.539731 0.430621 0.515751
O O4 0.818274 0.413169 0.106811
O O5 0.266498 0.080333 0.459865
O O6 0.156884 0.091387 0.393232
O O7 0.000000 0.038368 0.750000
O O8 0.500000 0.296541 0.750000
O O9 0.750000 0.250000 0.500000
O O10 0.680878 0.355197 0.669174
O O11 0.000000 0.479159 0.750000
O O12 0.730603 0.521805 0.129047
#
# Coordination Sequence:
#
# PCOD8131696 Si02
#       5
#     8   8   8   8   8
#     4  10  18  34  56  76 108 146 179 209 259 327
#     4  11  16  32  57  79 106 141 175 209 264 331
#     4  10  21  39  57  77 103 139 185 223 255 306
#     4  11  21  31  50  87 117 133 167 225 276 308
#     4  10  19  33  56  77 106 145 182 207 258 331
#
# _framework density 17.504916000000001
#
# number of rings (size 3 to 8) (size 9 to 14) (size 15 to 20)
#    0.000    1.600    6.000    1.800    0.000    4.000 
#    3.600    0.000    0.000    2.400    0.000    0.000 
#    0.000    0.000    0.000    0.000    0.000    0.000 
#
# Total GULP energy -247866.376777 kJ/mol
# GULP energy per Si atom -12393.318839 kJ/mol
# Density = 1.746507 g / cm^3
# Si number density = 17.504916 Si / 1000 Ang^3
#
#
#
# Elastic Constant Matrix: (Units=GPa)
#
#
# Indices 1 2 3 4 5 6 
#
# 1 121.4253 45.8295 56.8882 -0.0028 30.4564 0.0053
# 2 45.8295 87.6642 38.5887 -0.0017 13.2460 0.0016
# 3 56.8882 38.5887 103.1090 -0.0060 18.5543 0.0043
# 4 -0.0028 -0.0017 -0.0060 11.4865 0.0025 -5.6844
# 5 30.4564 13.2460 18.5543 0.0025 30.4530 -0.0042
# 6 0.0053 0.0016 0.0043 -5.6844 -0.0042 29.1558
#
#
#
# Elastic Compliance Matrix: (Units=1/GPa)
#
#
# Indices 1 2 3 4 5 6 
#
# 1 0.014394 -0.003980 -0.004687 0.000001 -0.009809 -0.000003
# 2 -0.003980 0.015036 -0.003337 0.000000 -0.000527 0.000000
# 3 -0.004687 -0.003337 0.013959 0.000006 -0.002366 0.000000
# 4 0.000001 0.000000 0.000006 0.096356 -0.000010 0.018786
# 5 -0.009809 -0.000527 -0.002366 -0.000010 0.044318 0.000007
# 6 -0.000003 0.000000 0.000000 0.018786 0.000007 0.037961
#
#
# Mechanical properties :
#
#
# Convention : Reuss Voigt Hill
#
# Bulk Modulus (GPa) = 51.59416 66.09015 58.84216
# Shear Modulus (GPa) = 19.80271 25.61188 22.70730
#
# Velocity S-wave (km/s) = 3.36708 3.82923 3.60557
# Velocity P-wave (km/s) = 6.68239 7.57548 7.14291
#
# Compressibility (1/GPa) = 0.01938204
#
# Stress axis : x y z
#
# Youngs Moduli (GPa) = 69.47542 66.50673 71.63858
#
# Poissons Ratio (x) = 0.26467 0.33577
# Poissons Ratio (y) = 0.27648 0.23904
# Poissons Ratio (z) = 0.32563 0.22192
#
# Static dielectric constant tensor:
#      x y z
#    x 3.719520 -0.000010 0.374720 
#    y -0.000010 2.825990 0.000000 
#    z 0.374720 0.000000 3.362020 
# 
# 
# High freq. dielectric constant tensor:
#      x y z
#    x 1.698660 0.000000 0.018620 
#    y 0.000000 1.618720 0.000000 
#    z 0.018620 0.000000 1.676710 
# 
# From -- ./inp_files/30156.got.cif
#   From: 2010.06.25/outbox.cif.g09.slc.cpg/sg15_16_cif.got.tgz:30156.got - 2010.06.28 07:06:18.
