data_PCOD8131722
_publ_section_title
;
Structure prediction by ZEFSAII (Michael W. Deem and Ramdas Pophale) SiO2 
 PCOD8131722
Probable space group: C 2/C
;
_chemical_formula_sum "Si O2"
_cell_formula_units_Z 56
_cell_length_a 15.297364
_cell_length_b 8.656155
_cell_length_c 22.724204
_cell_angle_alpha 90.000000
_cell_angle_beta 107.191085
_cell_angle_gamma 90.000000
_cell_volume 2874.624730
_symmetry_space_group_name_H-M "C 2/C"
_symmetry_group_IT_number 15
_symmetry_cell_setting 'monoclinic'
loop_
_space_group_symop_operation_xyz
x,y,z
-x,y,1/2-z
-x,-y,-z
x,-y,1/2+z
1/2+x,1/2+y,z
1/2-x,1/2+y,1/2-z
1/2-x,1/2-y,-z
1/2+x,1/2-y,1/2+z
loop_
_atom_site_type_symbol
_atom_site_label
_atom_site_fract_x
_atom_site_fract_y
_atom_site_fract_z
Si Si1 0.220776 0.152859 0.827679
Si Si2 0.559441 0.722280 0.210877
Si Si3 0.548617 0.542313 0.869069
Si Si4 0.094039 0.270620 0.602687
Si Si5 0.549615 0.639788 0.480629
Si Si6 0.413305 0.125988 0.902881
Si Si7 0.261017 0.156483 0.275272
O O1 0.131442 0.105433 0.846020
O O2 0.306198 0.177924 0.889516
O O3 0.200951 0.304675 0.783274
O O4 0.259485 0.025418 0.788887
O O5 0.500000 0.798220 0.250000
O O6 0.522777 0.551649 0.185498
O O7 0.554873 0.839456 0.156720
O O8 0.658126 0.712559 0.259547
O O9 0.494847 0.684744 0.887918
O O10 0.590350 0.422866 0.926693
O O11 0.122633 0.198196 0.544354
O O12 0.068482 0.446532 0.583735
O O13 0.178879 0.254255 0.663865
O O14 0.500000 0.500000 0.500000
O O15 0.475180 0.776135 0.459285
#
# Coordination Sequence:
#
# PCOD8131722 Si02
#       7
#     8   8   8   8   8   8   8
#     4  10  20  37  55  85 113 147 185 236 283 337
#     4  10  18  34  57  76 111 149 187 223 277 349
#     4  10  20  36  61  83 107 148 198 228 275 346
#     4  10  20  35  55  84 114 144 186 237 290 325
#     4   9  19  38  62  78 108 156 196 228 280 344
#     4   9  20  36  56  80 115 147 182 237 293 320
#     4  10  20  33  53  82 113 145 179 231 288 332
#
# _framework density 19.480803000000002
#
# number of rings (size 3 to 8) (size 9 to 14) (size 15 to 20)
#    0.000    2.286    1.429    1.286    0.000    1.143 
#    7.714    5.714    3.143    0.000    0.000    0.000 
#    0.000    0.000    0.000    0.000    0.000    0.000 
#
# Total GULP energy -346893.897390 kJ/mol
# GULP energy per Si atom -12389.067764 kJ/mol
# Density = 1.943646 g / cm^3
# Si number density = 19.480803 Si / 1000 Ang^3
#
#
#
# Elastic Constant Matrix: (Units=GPa)
#
#
# Indices 1 2 3 4 5 6 
#
# 1 99.5903 24.3404 39.7854 0.0000 -7.7325 0.0000
# 2 24.3404 66.0684 24.2378 0.0000 -6.4399 0.0000
# 3 39.7854 24.2378 90.7877 0.0000 1.4286 0.0000
# 4 0.0000 0.0000 0.0000 29.2100 0.0000 -1.6264
# 5 -7.7325 -6.4399 1.4286 0.0000 18.7625 0.0000
# 6 0.0000 0.0000 0.0000 -1.6264 0.0000 24.4928
#
#
#
# Elastic Compliance Matrix: (Units=1/GPa)
#
#
# Indices 1 2 3 4 5 6 
#
# 1 0.013084 -0.002446 -0.005158 0.000000 0.004945 0.000000
# 2 -0.002446 0.017966 -0.003810 0.000000 0.005449 0.000000
# 3 -0.005158 -0.003810 0.014364 0.000000 -0.004527 0.000000
# 4 0.000000 0.000000 0.000000 0.034362 0.000000 0.002282
# 5 0.004945 0.005449 -0.004527 0.000000 0.057551 0.000000
# 6 0.000000 0.000000 0.000000 0.002282 0.000000 0.040980
#
#
# Mechanical properties :
#
#
# Convention : Reuss Voigt Hill
#
# Bulk Modulus (GPa) = 44.27874 48.13040 46.20457
# Shear Modulus (GPa) = 23.96212 25.69859 24.83035
#
# Velocity S-wave (km/s) = 3.51099 3.63599 3.57404
# Velocity P-wave (km/s) = 6.26218 6.51056 6.38758
#
# Compressibility (1/GPa) = 0.02258420
#
# Stress axis : x y z
#
# Youngs Moduli (GPa) = 76.43156 55.66131 69.61963
#
# Poissons Ratio (x) = 0.13613 0.35913
# Poissons Ratio (y) = 0.18693 0.26527
# Poissons Ratio (z) = 0.39427 0.21209
#
# Static dielectric constant tensor:
#      x y z
#    x 3.382320 0.000000 -0.058870 
#    y 0.000000 3.731530 0.000000 
#    z -0.058870 0.000000 4.576480 
# 
# 
# High freq. dielectric constant tensor:
#      x y z
#    x 1.728970 0.000000 0.003340 
#    y 0.000000 1.760130 0.000000 
#    z 0.003340 0.000000 1.774770 
# 
# From -- ./inp_files/272844.got.cif
#   From: 2010.06.25/outbox.cif.g09.slc.cpg/sg15_137_cif.got.tgz:272844.got - 2010.06.28 07:06:18.
