data_PCOD8131038
_publ_section_title
;
Structure prediction by ZEFSAII (Michael W. Deem and Ramdas Pophale) SiO2 
 PCOD8131038
Probable space group: C 2/C
;
_chemical_formula_sum "Si O2"
_cell_formula_units_Z 60
_cell_length_a 23.735602
_cell_length_b 12.116638
_cell_length_c 13.687093
_cell_angle_alpha 90.000000
_cell_angle_beta 126.570094
_cell_angle_gamma 90.000000
_cell_volume 3161.394387
_symmetry_space_group_name_H-M "C 2/C"
_symmetry_group_IT_number 15
_symmetry_cell_setting 'monoclinic'
loop_
_space_group_symop_operation_xyz
x,y,z
-x,y,1/2-z
-x,-y,-z
x,-y,1/2+z
1/2+x,1/2+y,z
1/2-x,1/2+y,1/2-z
1/2-x,1/2-y,-z
1/2+x,1/2-y,1/2+z
loop_
_atom_site_type_symbol
_atom_site_label
_atom_site_fract_x
_atom_site_fract_y
_atom_site_fract_z
Si Si1 0.620908 0.969669 0.748153
Si Si2 0.259255 0.417627 0.997189
Si Si3 0.475037 0.220901 0.620821
Si Si4 0.726169 0.646622 0.413099
Si Si5 0.000000 0.510560 0.750000
Si Si6 0.880855 0.716830 0.813035
Si Si7 0.721303 0.763902 0.126062
Si Si8 0.340536 0.172861 0.385430
O O1 0.684478 0.917649 0.870114
O O2 0.617283 0.916061 0.636755
O O3 0.553834 0.935281 0.744551
O O4 0.629686 0.101830 0.755019
O O5 0.302543 0.338384 0.968242
O O6 0.293667 0.539454 0.041829
O O7 0.250585 0.366030 0.094846
O O8 0.500000 0.279016 0.750000
O O9 0.462951 0.090435 0.631250
O O10 0.535762 0.242701 0.602591
O O11 0.398843 0.254490 0.497307
O O12 0.750000 0.750000 0.500000
O O13 0.658498 0.682315 0.281266
O O14 0.792900 0.609995 0.416262
O O15 0.849913 0.704780 0.889836
O O16 0.785369 0.744478 0.266860
#
# Coordination Sequence:
#
# PCOD8131038 Si02
#       8
#     8   8   8   8   4   8   8   8
#     4  10  18  31  50  80 113 137 171 215 262 343
#     4  10  19  35  53  75 112 139 175 217 274 306
#     4   9  18  33  48  73 109 139 168 219 261 319
#     4  11  19  32  56  80 103 139 179 226 258 318
#     4   8  18  28  46  76 110 140 168 192 280 324
#     4  10  19  32  50  81 103 136 183 211 265 310
#     4   9  21  35  52  80 107 144 174 220 263 323
#     4  10  20  32  52  79 108 140 176 215 274 312
#
# _framework density 18.978967999999998
#
# number of rings (size 3 to 8) (size 9 to 14) (size 15 to 20)
#    0.400    1.867    1.333    2.400    0.000    3.200 
#    0.000    0.000    0.000    0.800    3.467    0.000 
#    0.000    0.000    0.000    0.000    0.000    0.000 
#
# Total GULP energy -371664.300866 kJ/mol
# GULP energy per Si atom -12388.810029 kJ/mol
# Density = 1.893577 g / cm^3
# Si number density = 18.978968 Si / 1000 Ang^3
#
#
#
# Elastic Constant Matrix: (Units=GPa)
#
#
# Indices 1 2 3 4 5 6 
#
# 1 129.9190 16.2140 25.5532 0.0000 -0.4600 0.0000
# 2 16.2140 66.3216 14.2169 0.0000 -3.2137 0.0000
# 3 25.5532 14.2169 72.4098 0.0000 -2.9945 0.0000
# 4 0.0000 0.0000 0.0000 13.6714 0.0000 -6.1028
# 5 -0.4600 -3.2137 -2.9945 0.0000 23.5544 0.0000
# 6 0.0000 0.0000 0.0000 -6.1028 0.0000 25.8727
#
#
#
# Elastic Compliance Matrix: (Units=1/GPa)
#
#
# Indices 1 2 3 4 5 6 
#
# 1 0.008412 -0.001498 -0.002690 0.000000 -0.000382 0.000000
# 2 -0.001498 0.016081 -0.002552 0.000000 0.001840 0.000000
# 3 -0.002690 -0.002552 0.015325 0.000000 0.001547 0.000000
# 4 0.000000 0.000000 0.000000 0.081753 0.000000 0.019284
# 5 -0.000382 0.001840 0.001547 0.000000 0.042895 0.000000
# 6 0.000000 0.000000 0.000000 0.019284 0.000000 0.043199
#
#
# Mechanical properties :
#
#
# Convention : Reuss Voigt Hill
#
# Bulk Modulus (GPa) = 37.97157 42.29098 40.13127
# Shear Modulus (GPa) = 21.74616 26.79747 24.27181
#
# Velocity S-wave (km/s) = 3.38864 3.76168 3.58002
# Velocity P-wave (km/s) = 5.94652 6.41860 6.18707
#
# Compressibility (1/GPa) = 0.02633550
#
# Stress axis : x y z
#
# Youngs Moduli (GPa) = 118.87985 62.18649 65.25388
#
# Poissons Ratio (x) = 0.09318 0.17554
# Poissons Ratio (y) = 0.17812 0.16655
# Poissons Ratio (z) = 0.31980 0.15873
#
# Static dielectric constant tensor:
#      x y z
#    x 3.844160 0.000000 -0.216040 
#    y 0.000000 3.204570 0.000000 
#    z -0.216040 0.000000 3.437360 
# 
# 
# High freq. dielectric constant tensor:
#      x y z
#    x 1.745670 0.000000 -0.015700 
#    y 0.000000 1.694910 0.000000 
#    z -0.015700 0.000000 1.730220 
# 
# From -- ./inp_files/173178.got.cif
#   From: 2010.06.25/outbox.cif.g09.slc.cpg/sg15_87_cif.got.tgz:173178.got - 2010.06.28 07:06:18.
