data_PCOD8131909
_publ_section_title
;
Structure prediction by ZEFSAII (Michael W. Deem and Ramdas Pophale) SiO2 
 PCOD8131909
Probable space group: C 2/C
;
_chemical_formula_sum "Si O2"
_cell_formula_units_Z 64
_cell_length_a 24.500177
_cell_length_b 13.415796
_cell_length_c 10.820785
_cell_angle_alpha 90.000000
_cell_angle_beta 100.964571
_cell_angle_gamma 90.000000
_cell_volume 3491.749876
_symmetry_space_group_name_H-M "C 2/C"
_symmetry_group_IT_number 15
_symmetry_cell_setting 'monoclinic'
loop_
_space_group_symop_operation_xyz
x,y,z
-x,y,1/2-z
-x,-y,-z
x,-y,1/2+z
1/2+x,1/2+y,z
1/2-x,1/2+y,1/2-z
1/2-x,1/2-y,-z
1/2+x,1/2-y,1/2+z
loop_
_atom_site_type_symbol
_atom_site_label
_atom_site_fract_x
_atom_site_fract_y
_atom_site_fract_z
Si Si1 0.721933 0.059856 0.170560
Si Si2 0.701506 0.709583 0.639388
Si Si3 0.894190 0.122046 0.759842
Si Si4 0.346858 0.578413 0.281406
Si Si5 0.537156 0.367256 0.972670
Si Si6 0.694392 0.926199 0.380599
Si Si7 0.374598 0.744715 0.118870
Si Si8 0.924919 0.912513 0.020679
O O1 0.711858 0.176486 0.176473
O O2 0.785055 0.037885 0.235098
O O3 0.686351 0.004801 0.264346
O O4 0.707963 0.024527 0.022387
O O5 0.667176 0.664933 0.738984
O O6 0.758770 0.653062 0.638897
O O7 0.665068 0.696405 0.501572
O O8 0.938982 0.153238 0.880487
O O9 0.917814 0.157252 0.638173
O O10 0.888729 0.002435 0.741138
O O11 0.357634 0.688548 0.235902
O O12 0.363627 0.581921 0.433110
O O13 0.554014 0.477080 0.933899
O O14 0.561681 0.281514 0.891842
O O15 0.470165 0.359294 0.950037
O O16 0.636727 0.863050 0.370061
#
# Coordination Sequence:
#
# PCOD8131909 Si02
#       8
#     8   8   8   8   8   8   8   8
#     4  11  22  35  53  78 109 142 181 219 257 319
#     4  10  19  34  54  74  99 144 178 207 261 332
#     4  10  19  31  50  72 105 142 175 208 262 315
#     4  11  19  28  50  74 109 138 171 207 262 314
#     4   9  19  32  50  69 105 144 178 207 259 318
#     4  11  21  36  56  76 105 146 186 216 268 317
#     4  10  18  35  52  71  99 145 183 206 253 332
#     4  10  20  30  45  78 109 137 169 222 261 308
#
# _framework density 18.32892
#
# number of rings (size 3 to 8) (size 9 to 14) (size 15 to 20)
#    0.000    1.750    5.000    1.125    1.750    0.500 
#    2.250    1.250    0.000    0.000    0.000    0.875 
#    7.500    0.125    0.000    0.000    0.000    0.000 
#
# Total GULP energy -396504.206591 kJ/mol
# GULP energy per Si atom -12390.756456 kJ/mol
# Density = 1.828720 g / cm^3
# Si number density = 18.328920 Si / 1000 Ang^3
#
#
#
# Elastic Constant Matrix: (Units=GPa)
#
#
# Indices 1 2 3 4 5 6 
#
# 1 61.2756 18.6123 27.6843 0.0000 -13.2281 0.0000
# 2 18.6123 53.3324 31.7423 0.0000 -7.4731 0.0000
# 3 27.6843 31.7423 79.0988 0.0000 -24.4976 0.0000
# 4 0.0000 0.0000 0.0000 25.6052 0.0000 -4.5449
# 5 -13.2281 -7.4731 -24.4976 0.0000 23.6220 0.0000
# 6 0.0000 0.0000 0.0000 -4.5449 0.0000 24.9400
#
#
#
# Elastic Compliance Matrix: (Units=1/GPa)
#
#
# Indices 1 2 3 4 5 6 
#
# 1 0.020589 -0.004188 -0.003484 0.000000 0.006592 0.000000
# 2 -0.004188 0.025698 -0.010394 0.000000 -0.004994 0.000000
# 3 -0.003484 -0.010394 0.024175 0.000000 0.019832 0.000000
# 4 0.000000 0.000000 0.000000 0.040360 0.000000 0.007355
# 5 0.006592 -0.004994 0.019832 0.000000 0.065011 0.000000
# 6 0.000000 0.000000 0.000000 0.007355 0.000000 0.041437
#
#
# Mechanical properties :
#
#
# Convention : Reuss Voigt Hill
#
# Bulk Modulus (GPa) = 29.12848 38.86497 33.99672
# Shear Modulus (GPa) = 18.87899 22.54463 20.71181
#
# Velocity S-wave (km/s) = 3.21286 3.51095 3.36520
# Velocity P-wave (km/s) = 5.44884 6.13888 5.80413
#
# Compressibility (1/GPa) = 0.03433067
#
# Stress axis : x y z
#
# Youngs Moduli (GPa) = 48.57002 38.91322 41.36533
#
# Poissons Ratio (x) = 0.16297 0.14411
# Poissons Ratio (y) = 0.20342 0.42994
# Poissons Ratio (z) = 0.16921 0.40445
#
# Static dielectric constant tensor:
#      x y z
#    x 3.439020 0.000000 -0.120780 
#    y 0.000000 3.135310 0.000000 
#    z -0.120780 0.000000 3.494370 
# 
# 
# High freq. dielectric constant tensor:
#      x y z
#    x 1.697520 0.000000 -0.010790 
#    y 0.000000 1.666610 0.000000 
#    z -0.010790 0.000000 1.713360 
# 
# From -- ./inp_files/122456.got.cif
#   From: 2010.06.25/outbox.cif.g09.slc.cpg/sg15_62_cif.got.tgz:122456.got - 2010.06.28 07:06:18.
