data_PCOD8131137
_publ_section_title
;
Structure prediction by ZEFSAII (Michael W. Deem and Ramdas Pophale) SiO2 
 PCOD8131137
Probable space group: C 2/C
;
_chemical_formula_sum "Si O2"
_cell_formula_units_Z 56
_cell_length_a 17.327254
_cell_length_b 14.216809
_cell_length_c 13.782551
_cell_angle_alpha 90.000000
_cell_angle_beta 57.717160
_cell_angle_gamma 90.000000
_cell_volume 2870.350541
_symmetry_space_group_name_H-M "C 2/C"
_symmetry_group_IT_number 15
_symmetry_cell_setting 'monoclinic'
loop_
_space_group_symop_operation_xyz
x,y,z
-x,y,1/2-z
-x,-y,-z
x,-y,1/2+z
1/2+x,1/2+y,z
1/2-x,1/2+y,1/2-z
1/2-x,1/2-y,-z
1/2+x,1/2-y,1/2+z
loop_
_atom_site_type_symbol
_atom_site_label
_atom_site_fract_x
_atom_site_fract_y
_atom_site_fract_z
Si Si1 0.406241 0.176693 0.264540
Si Si2 0.006358 0.716741 0.011297
Si Si3 0.008375 0.919171 0.075061
Si Si4 0.066389 0.422809 0.077937
Si Si5 0.634904 0.382001 0.163799
Si Si6 0.668494 0.923099 0.402208
Si Si7 0.373130 0.977005 0.268024
O O1 0.500000 0.146912 0.250000
O O2 0.424220 0.199783 0.140945
O O3 0.367180 0.268399 0.345518
O O4 0.340969 0.084157 0.316252
O O5 0.026124 0.827348 0.996840
O O6 0.100108 0.661920 0.974614
O O7 0.965391 0.680465 0.936282
O O8 0.092394 0.929445 0.095224
O O9 0.918278 0.913448 0.202852
O O10 0.000000 0.000000 0.000000
O O11 0.126057 0.412240 0.136192
O O12 0.975881 0.484950 0.156248
O O13 0.124680 0.476599 0.958031
O O14 0.739168 0.412346 0.100171
O O15 0.689833 0.928136 0.271791
#
# Coordination Sequence:
#
# PCOD8131137 Si02
#       7
#     8   8   8   8   8   8   8
#     4  11  15  34  57  78 103 155 182 222 278 328
#     4  10  18  35  58  82 110 145 183 228 279 340
#     4  10  22  44  60  75 106 161 198 221 275 328
#     4  10  18  31  56  87 115 144 173 219 295 344
#     4  10  23  37  59  81 112 141 196 243 264 322
#     4  11  20  34  53  93 118 132 181 239 289 328
#     4  10  18  31  56  83 122 148 170 219 292 345
#
# _framework density 19.509813000000001
#
# number of rings (size 3 to 8) (size 9 to 14) (size 15 to 20)
#    0.000    1.714    7.143    0.857    0.000    1.714 
#    2.571    5.714    0.000    2.571    0.000    0.000 
#    0.000    0.000    0.000    0.000    0.000    0.000 
#
# Total GULP energy -346947.315989 kJ/mol
# GULP energy per Si atom -12390.975571 kJ/mol
# Density = 1.946541 g / cm^3
# Si number density = 19.509813 Si / 1000 Ang^3
#
#
#
# Elastic Constant Matrix: (Units=GPa)
#
#
# Indices 1 2 3 4 5 6 
#
# 1 111.4210 51.9091 43.2503 0.0000 19.9758 0.0000
# 2 51.9091 110.2900 37.2574 0.0000 16.2910 0.0000
# 3 43.2503 37.2574 59.6042 0.0000 24.5519 0.0000
# 4 0.0000 0.0000 0.0000 27.5733 0.0000 14.0695
# 5 19.9758 16.2910 24.5519 0.0000 30.5046 0.0000
# 6 0.0000 0.0000 0.0000 14.0695 0.0000 8.8097
#
#
#
# Elastic Compliance Matrix: (Units=1/GPa)
#
#
# Indices 1 2 3 4 5 6 
#
# 1 0.013746 -0.003916 -0.007001 0.000000 -0.001275 0.000000
# 2 -0.003916 0.012616 -0.004974 0.000000 -0.000169 0.000000
# 3 -0.007001 -0.004974 0.032887 0.000000 -0.019229 0.000000
# 4 0.000000 0.000000 0.000000 0.195932 0.000000 -0.312912
# 5 -0.001275 -0.000169 -0.019229 0.000000 0.049183 0.000000
# 6 0.000000 0.000000 0.000000 -0.312912 0.000000 0.613244
#
#
# Mechanical properties :
#
#
# Convention : Reuss Voigt Hill
#
# Bulk Modulus (GPa) = 36.40948 60.68319 48.54633
# Shear Modulus (GPa) = 5.21623 23.30410 14.26017
#
# Velocity S-wave (km/s) = 1.63690 3.45988 2.70649
# Velocity P-wave (km/s) = 4.71967 6.86531 5.89100
#
# Compressibility (1/GPa) = 0.02746537
#
# Stress axis : x y z
#
# Youngs Moduli (GPa) = 72.75054 79.26701 30.40672
#
# Poissons Ratio (x) = 0.31042 0.21288
# Poissons Ratio (y) = 0.28490 0.15126
# Poissons Ratio (z) = 0.50933 0.39431
#
# Static dielectric constant tensor:
#      x y z
#    x 3.489880 0.000000 0.338970 
#    y 0.000000 3.428150 0.000000 
#    z 0.338970 0.000000 3.635890 
# 
# 
# High freq. dielectric constant tensor:
#      x y z
#    x 1.741510 0.000000 0.029350 
#    y 0.000000 1.739590 0.000000 
#    z 0.029350 0.000000 1.750040 
# 
# From -- ./inp_files/161878.got.cif
#   From: 2010.06.25/outbox.cif.g09.slc.cpg/sg15_81_cif.got.tgz:161878.got - 2010.06.28 07:06:18.
