data_PCOD8131919
_publ_section_title
;
Structure prediction by ZEFSAII (Michael W. Deem and Ramdas Pophale) SiO2 
 PCOD8131919
Probable space group: C 2/C
;
_chemical_formula_sum "Si O2"
_cell_formula_units_Z 52
_cell_length_a 16.010865
_cell_length_b 8.748786
_cell_length_c 29.213734
_cell_angle_alpha 90.000000
_cell_angle_beta 136.634588
_cell_angle_gamma 90.000000
_cell_volume 2809.857574
_symmetry_space_group_name_H-M "C 2/C"
_symmetry_group_IT_number 15
_symmetry_cell_setting 'monoclinic'
loop_
_space_group_symop_operation_xyz
x,y,z
-x,y,1/2-z
-x,-y,-z
x,-y,1/2+z
1/2+x,1/2+y,z
1/2-x,1/2+y,1/2-z
1/2-x,1/2-y,-z
1/2+x,1/2-y,1/2+z
loop_
_atom_site_type_symbol
_atom_site_label
_atom_site_fract_x
_atom_site_fract_y
_atom_site_fract_z
Si Si1 0.106563 0.974790 0.383767
Si Si2 0.942767 0.421108 0.273351
Si Si3 0.147727 0.366446 0.894319
Si Si4 0.540242 0.735601 0.131026
Si Si5 0.500000 0.392729 0.250000
Si Si6 0.282486 0.168831 0.174907
Si Si7 0.815516 0.595947 0.514320
O O1 0.103443 0.796616 0.396662
O O2 0.053563 0.999126 0.311676
O O3 0.248992 0.032797 0.441875
O O4 0.028540 0.073498 0.389434
O O5 0.922881 0.292827 0.303630
O O6 0.816138 0.504286 0.210212
O O7 0.000000 0.346954 0.250000
O O8 0.030744 0.551295 0.327334
O O9 0.241122 0.343138 0.889189
O O10 0.211932 0.466262 0.958682
O O11 0.659427 0.723788 0.148635
O O12 0.458543 0.861510 0.070633
O O13 0.391688 0.288699 0.227224
O O14 0.750000 0.750000 0.500000
#
# Coordination Sequence:
#
# PCOD8131919 Si02
#       7
#     8   8   8   8   4   8   8
#     4  10  19  35  56  80 110 144 188 224 281 334
#     4   9  17  33  50  74 108 143 178 221 286 333
#     4   9  17  35  59  74 103 152 182 215 282 338
#     4  10  22  31  55  83 112 139 191 236 274 325
#     4  10  20  36  54  80 110 150 182 230 282 340
#     4  10  18  35  54  78 113 144 187 228 282 335
#     4   9  19  37  56  83 110 147 188 234 274 333
#
# _framework density 18.506277000000001
#
# number of rings (size 3 to 8) (size 9 to 14) (size 15 to 20)
#    0.000    2.462    3.846    0.462    3.231    0.000 
#    0.000    6.154    0.000    1.846    0.000    0.000 
#    0.000    0.000    0.000    0.000    0.000    0.000 
#
# Total GULP energy -322101.478459 kJ/mol
# GULP energy per Si atom -12388.518402 kJ/mol
# Density = 1.846416 g / cm^3
# Si number density = 18.506277 Si / 1000 Ang^3
#
#
#
# Elastic Constant Matrix: (Units=GPa)
#
#
# Indices 1 2 3 4 5 6 
#
# 1 125.6122 45.1563 47.3117 0.0000 9.8779 0.0000
# 2 45.1563 93.9546 40.9000 0.0000 -5.6704 0.0000
# 3 47.3117 40.9000 120.3799 0.0000 -1.3880 0.0000
# 4 0.0000 0.0000 0.0000 31.4693 0.0000 -6.3528
# 5 9.8779 -5.6704 -1.3880 0.0000 16.2520 0.0000
# 6 0.0000 0.0000 0.0000 -6.3528 0.0000 21.4482
#
#
#
# Elastic Compliance Matrix: (Units=1/GPa)
#
#
# Indices 1 2 3 4 5 6 
#
# 1 0.011505 -0.004758 -0.003008 0.000000 -0.008910 0.000000
# 2 -0.004758 0.014724 -0.003043 0.000000 0.007769 0.000000
# 3 -0.003008 -0.003043 0.010542 0.000000 0.001667 0.000000
# 4 0.000000 0.000000 0.000000 0.033798 0.000000 0.010011
# 5 -0.008910 0.007769 0.001667 0.000000 0.069799 0.000000
# 6 0.000000 0.000000 0.000000 0.010011 0.000000 0.049589
#
#
# Mechanical properties :
#
#
# Convention : Reuss Voigt Hill
#
# Bulk Modulus (GPa) = 65.99128 67.40919 66.70024
# Shear Modulus (GPa) = 23.08133 27.60582 25.34357
#
# Velocity S-wave (km/s) = 3.53543 3.86644 3.70463
# Velocity P-wave (km/s) = 7.23892 7.51243 7.37694
#
# Compressibility (1/GPa) = 0.01515352
#
# Stress axis : x y z
#
# Youngs Moduli (GPa) = 86.91913 67.91773 94.85598
#
# Poissons Ratio (x) = 0.32314 0.28532
# Poissons Ratio (y) = 0.41355 0.28865
# Poissons Ratio (z) = 0.26144 0.20667
#
# Static dielectric constant tensor:
#      x y z
#    x 3.101320 0.000000 -0.074730 
#    y 0.000000 3.629010 0.000000 
#    z -0.074730 0.000000 4.196330 
# 
# 
# High freq. dielectric constant tensor:
#      x y z
#    x 1.670510 0.000000 0.000040 
#    y 0.000000 1.724850 0.000000 
#    z 0.000040 0.000000 1.731370 
# 
# From -- ./inp_files/242526.got.cif
#   From: 2010.06.25/outbox.cif.g09.slc.cpg/sg15_122_cif.got.tgz:242526.got - 2010.06.28 07:06:18.
