data_PCOD8131704
_publ_section_title
;
Structure prediction by ZEFSAII (Michael W. Deem and Ramdas Pophale) SiO2 
 PCOD8131704
Probable space group: C 2/C
;
_chemical_formula_sum "Si O2"
_cell_formula_units_Z 60
_cell_length_a 16.393953
_cell_length_b 8.710347
_cell_length_c 22.147009
_cell_angle_alpha 90.000000
_cell_angle_beta 95.436605
_cell_angle_gamma 90.000000
_cell_volume 3148.300681
_symmetry_space_group_name_H-M "C 2/C"
_symmetry_group_IT_number 15
_symmetry_cell_setting 'monoclinic'
loop_
_space_group_symop_operation_xyz
x,y,z
-x,y,1/2-z
-x,-y,-z
x,-y,1/2+z
1/2+x,1/2+y,z
1/2-x,1/2+y,1/2-z
1/2-x,1/2-y,-z
1/2+x,1/2-y,1/2+z
loop_
_atom_site_type_symbol
_atom_site_label
_atom_site_fract_x
_atom_site_fract_y
_atom_site_fract_z
Si Si1 0.428187 0.412609 0.567128
Si Si2 0.640301 0.337127 0.357423
Si Si3 0.891280 0.309246 0.170440
Si Si4 0.500000 0.966800 0.750000
Si Si5 0.452708 0.710485 0.821878
Si Si6 0.151695 0.964321 0.749811
Si Si7 0.245567 0.544391 0.357651
Si Si8 0.900510 0.926996 0.431694
O O1 0.370852 0.553843 0.585035
O O2 0.424136 0.271144 0.612496
O O3 0.395025 0.361588 0.499142
O O4 0.522979 0.458645 0.569865
O O5 0.550799 0.290072 0.328068
O O6 0.685797 0.430881 0.307064
O O7 0.692694 0.187842 0.378005
O O8 0.882703 0.193115 0.225609
O O9 0.805653 0.387489 0.147336
O O10 0.955896 0.436069 0.195479
O O11 0.431667 0.861503 0.780715
O O12 0.421243 0.552494 0.789975
O O13 0.413735 0.716933 0.886451
O O14 0.223830 0.924292 0.708334
O O15 0.319143 0.521731 0.409963
#
# Coordination Sequence:
#
# PCOD8131704 Si02
#       8
#     8   8   8   4   8   8   8   8
#     4   9  21  42  61  83 108 159 208 231 275 360
#     4  10  18  34  56  79 116 152 188 233 296 343
#     4  11  24  34  58  91 118 149 199 240 285 347
#     4  12  22  32  58  90 120 144 184 242 286 354
#     4  10  18  36  59  81 112 160 187 225 299 345
#     4  10  20  34  56  81 118 156 190 233 288 359
#     4  11  21  35  55  89 119 146 189 253 297 331
#     4   9  21  39  66  79 112 155 205 237 281 343
#
# _framework density 19.057898999999999
#
# number of rings (size 3 to 8) (size 9 to 14) (size 15 to 20)
#    0.000    1.867    2.667    0.800    7.467    2.133 
#    0.000    0.667    0.000    0.000    0.000    0.000 
#    0.000    0.000    0.000    0.000    0.000    0.000 
#
# Total GULP energy -371929.553686 kJ/mol
# GULP energy per Si atom -12397.651790 kJ/mol
# Density = 1.901452 g / cm^3
# Si number density = 19.057899 Si / 1000 Ang^3
#
#
#
# Elastic Constant Matrix: (Units=GPa)
#
#
# Indices 1 2 3 4 5 6 
#
# 1 84.6075 43.0528 44.1350 0.0000 2.5295 0.0000
# 2 43.0528 116.1008 59.5246 0.0000 -3.5900 0.0000
# 3 44.1350 59.5246 141.7292 0.0000 -11.7504 0.0000
# 4 0.0000 0.0000 0.0000 22.3076 0.0000 3.0445
# 5 2.5295 -3.5900 -11.7504 0.0000 25.1773 0.0000
# 6 0.0000 0.0000 0.0000 3.0445 0.0000 27.3062
#
#
#
# Elastic Compliance Matrix: (Units=1/GPa)
#
#
# Indices 1 2 3 4 5 6 
#
# 1 0.015908 -0.004224 -0.003497 0.000000 -0.003833 0.000000
# 2 -0.004224 0.012108 -0.003736 0.000000 0.000407 0.000000
# 3 -0.003497 -0.003736 0.010089 0.000000 0.004527 0.000000
# 4 0.000000 0.000000 0.000000 0.045521 0.000000 -0.005075
# 5 -0.003833 0.000407 0.004527 0.000000 0.042274 0.000000
# 6 0.000000 0.000000 0.000000 -0.005075 0.000000 0.037188
#
#
# Mechanical properties :
#
#
# Convention : Reuss Voigt Hill
#
# Bulk Modulus (GPa) = 65.83485 70.65136 68.24311
# Shear Modulus (GPa) = 26.16906 28.00655 27.08780
#
# Velocity S-wave (km/s) = 3.70960 3.83763 3.77416
# Velocity P-wave (km/s) = 7.27790 7.53585 7.40800
#
# Compressibility (1/GPa) = 0.01518952
#
# Stress axis : x y z
#
# Youngs Moduli (GPa) = 62.86206 82.59237 99.11672
#
# Poissons Ratio (x) = 0.34891 0.34664
# Poissons Ratio (y) = 0.26556 0.37028
# Poissons Ratio (z) = 0.21985 0.30855
#
# Static dielectric constant tensor:
#      x y z
#    x 3.399180 0.000000 -0.158560 
#    y 0.000000 3.474790 0.000000 
#    z -0.158560 0.000000 3.688560 
# 
# 
# High freq. dielectric constant tensor:
#      x y z
#    x 1.731350 0.000000 -0.005240 
#    y 0.000000 1.730470 0.000000 
#    z -0.005240 0.000000 1.743400 
# 
# From -- ./inp_files/272787.got.cif
#   From: 2010.06.25/outbox.cif.g09.slc.cpg/sg15_137_cif.got.tgz:272787.got - 2010.06.28 07:06:18.
