data_PCOD8131548
_publ_section_title
;
Structure prediction by ZEFSAII (Michael W. Deem and Ramdas Pophale) SiO2 
 PCOD8131548
Probable space group: C 2/C
;
_chemical_formula_sum "Si O2"
_cell_formula_units_Z 64
_cell_length_a 9.840757
_cell_length_b 13.479368
_cell_length_c 23.399898
_cell_angle_alpha 90.000000
_cell_angle_beta 102.947953
_cell_angle_gamma 90.000000
_cell_volume 3025.010079
_symmetry_space_group_name_H-M "C 2/C"
_symmetry_group_IT_number 15
_symmetry_cell_setting 'monoclinic'
loop_
_space_group_symop_operation_xyz
x,y,z
-x,y,1/2-z
-x,-y,-z
x,-y,1/2+z
1/2+x,1/2+y,z
1/2-x,1/2+y,1/2-z
1/2-x,1/2-y,-z
1/2+x,1/2-y,1/2+z
loop_
_atom_site_type_symbol
_atom_site_label
_atom_site_fract_x
_atom_site_fract_y
_atom_site_fract_z
Si Si1 0.194306 0.233620 0.582968
Si Si2 0.731573 0.778295 0.100090
Si Si3 0.361319 0.090346 0.810732
Si Si4 0.814966 0.967844 0.037417
Si Si5 0.444618 0.329682 0.540818
Si Si6 0.902640 0.556691 0.408529
Si Si7 0.201481 0.428677 0.910242
Si Si8 0.686984 0.913551 0.320670
O O1 0.339110 0.263337 0.567328
O O2 0.101769 0.168819 0.530123
O O3 0.106532 0.326168 0.596361
O O4 0.224351 0.173914 0.643266
O O5 0.696434 0.814781 0.160290
O O6 0.813742 0.863712 0.072262
O O7 0.591925 0.727361 0.059743
O O8 0.833657 0.684131 0.111464
O O9 0.278467 0.080089 0.743372
O O10 0.523982 0.105109 0.814562
O O11 0.330546 0.992844 0.845990
O O12 0.934356 0.053021 0.061067
O O13 0.667653 0.018494 0.039879
O O14 0.820447 0.940138 0.970528
O O15 0.063264 0.523414 0.424874
O O16 0.240452 0.485915 0.856015
#
# Coordination Sequence:
#
# PCOD8131548 Si02
#       8
#     8   8   8   8   8   8   8   8
#     4  10  18  33  58  84 107 144 190 243 276 343
#     4  11  22  37  56  85 124 156 184 239 305 359
#     4   9  20  37  57  78 107 148 192 245 282 343
#     4  10  20  36  56  81 120 154 185 243 286 351
#     4  10  20  34  56  88 114 146 197 229 296 357
#     4   9  20  34  57  80 108 149 193 234 286 342
#     4  11  21  35  54  87 114 151 189 232 295 355
#     4  10  19  36  58  80 107 143 199 240 281 339
#
# _framework density 21.156955
#
# number of rings (size 3 to 8) (size 9 to 14) (size 15 to 20)
#    0.000    2.000    2.500    1.500    0.000    1.500 
#    2.250    0.000    0.000    0.000    0.000    0.000 
#    0.000    0.000    0.000    0.000    0.000    0.000 
#
# Total GULP energy -396423.271606 kJ/mol
# GULP energy per Si atom -12388.227238 kJ/mol
# Density = 2.110880 g / cm^3
# Si number density = 21.156955 Si / 1000 Ang^3
#
#
#
# Elastic Constant Matrix: (Units=GPa)
#
#
# Indices 1 2 3 4 5 6 
#
# 1 22.2867 -7.9663 5.3525 0.0000 -12.8530 0.0000
# 2 -7.9663 127.9504 43.0581 0.0000 -14.3365 0.0000
# 3 5.3525 43.0581 143.8751 0.0000 -17.9337 0.0000
# 4 0.0000 0.0000 0.0000 27.9868 0.0000 -6.2109
# 5 -12.8530 -14.3365 -17.9337 0.0000 17.9205 0.0000
# 6 0.0000 0.0000 0.0000 -6.2109 0.0000 28.1407
#
#
#
# Elastic Compliance Matrix: (Units=1/GPa)
#
#
# Indices 1 2 3 4 5 6 
#
# 1 0.098688 0.014845 0.002501 0.000000 0.085159 0.000000
# 2 0.014845 0.011329 -0.001698 0.000000 0.018011 0.000000
# 3 0.002501 -0.001698 0.008477 0.000000 0.008919 0.000000
# 4 0.000000 0.000000 0.000000 0.037571 0.000000 0.008292
# 5 0.085159 0.018011 0.008919 0.000000 0.140215 0.000000
# 6 0.000000 0.000000 0.000000 0.008292 0.000000 0.037366
#
#
# Mechanical properties :
#
#
# Convention : Reuss Voigt Hill
#
# Bulk Modulus (GPa) = 6.67603 41.66674 24.17139
# Shear Modulus (GPa) = 14.19323 31.72079 22.95701
#
# Velocity S-wave (km/s) = 2.59290 3.87629 3.29763
# Velocity P-wave (km/s) = 3.48231 6.30643 5.09399
#
# Compressibility (1/GPa) = 0.14978965
#
# Stress axis : x y z
#
# Youngs Moduli (GPa) = 10.13299 88.26749 117.96276
#
# Poissons Ratio (x) = -1.31030 -0.29501
# Poissons Ratio (y) = -0.15042 0.20027
# Poissons Ratio (z) = -0.02534 0.14985
#
# Static dielectric constant tensor:
#      x y z
#    x 3.727750 0.000000 -0.180270 
#    y 0.000000 4.122410 0.000000 
#    z -0.180270 0.000000 3.751420 
# 
# 
# High freq. dielectric constant tensor:
#      x y z
#    x 1.822640 0.000000 -0.017640 
#    y 0.000000 1.844790 0.000000 
#    z -0.017640 0.000000 1.800970 
# 
# From -- ./inp_files/269291.got.cif
#   From: 2010.06.25/outbox.cif.g09.slc.cpg/sg15_135_cif.got.tgz:269291.got - 2010.06.28 07:06:18.
