data_PCOD8131535
_publ_section_title
;
Structure prediction by ZEFSAII (Michael W. Deem and Ramdas Pophale) SiO2 
 PCOD8131535
Probable space group: C 2/C
;
_chemical_formula_sum "Si O2"
_cell_formula_units_Z 64
_cell_length_a 22.663766
_cell_length_b 20.192676
_cell_length_c 8.928891
_cell_angle_alpha 90.000000
_cell_angle_beta 123.347405
_cell_angle_gamma 90.000000
_cell_volume 3413.449037
_symmetry_space_group_name_H-M "C 2/C"
_symmetry_group_IT_number 15
_symmetry_cell_setting 'monoclinic'
loop_
_space_group_symop_operation_xyz
x,y,z
-x,y,1/2-z
-x,-y,-z
x,-y,1/2+z
1/2+x,1/2+y,z
1/2-x,1/2+y,1/2-z
1/2-x,1/2-y,-z
1/2+x,1/2-y,1/2+z
loop_
_atom_site_type_symbol
_atom_site_label
_atom_site_fract_x
_atom_site_fract_y
_atom_site_fract_z
Si Si1 0.242718 0.057823 0.586306
Si Si2 0.722732 0.814883 0.543855
Si Si3 0.291340 0.698801 0.455244
Si Si4 0.435630 0.165172 0.764174
Si Si5 0.430510 0.222970 0.086452
Si Si6 0.396011 0.084032 0.152226
Si Si7 0.093866 0.532153 0.643443
Si Si8 0.228978 0.071385 0.900793
O O1 0.238638 0.123795 0.482289
O O2 0.322575 0.038461 0.728480
O O3 0.204819 0.069642 0.693372
O O4 0.205797 0.997517 0.445940
O O5 0.750000 0.750000 0.500000
O O6 0.742659 0.816894 0.745234
O O7 0.638159 0.818151 0.419006
O O8 0.250000 0.750000 0.500000
O O9 0.364991 0.728407 0.504016
O O10 0.309726 0.632056 0.571174
O O11 0.500000 0.189373 0.750000
O O12 0.441632 0.086440 0.798340
O O13 0.439020 0.202873 0.926525
O O14 0.500000 0.259259 0.250000
O O15 0.421677 0.159322 0.184186
O O16 0.426237 0.043436 0.338024
O O17 0.428845 0.043866 0.058232
O O18 0.311970 0.084848 0.029931
#
# Coordination Sequence:
#
# PCOD8131535 Si02
#       8
#     8   8   8   8   8   8   8   8
#     4   9  18  33  54  88 118 147 186 240 290 341
#     4  11  21  38  60  84 120 154 194 246 285 345
#     4  12  23  37  60  86 112 158 202 241 296 342
#     4  10  22  38  55  81 113 154 194 237 293 344
#     4  11  24  40  53  80 117 152 196 248 292 350
#     4   9  17  33  50  75 109 149 190 233 270 328
#     4   8  17  30  51  73 110 147 189 225 269 330
#     4  10  18  33  57  86 117 147 193 237 289 346
#
# _framework density 18.749365000000001
#
# number of rings (size 3 to 8) (size 9 to 14) (size 15 to 20)
#    0.000    2.000    2.500    2.250    1.750    4.500 
#    0.000    2.500    0.000    0.000    0.000    4.375 
#    0.000    0.000    0.000    0.000    0.000    0.000 
#
# Total GULP energy -396745.253935 kJ/mol
# GULP energy per Si atom -12398.289185 kJ/mol
# Density = 1.870669 g / cm^3
# Si number density = 18.749365 Si / 1000 Ang^3
#
#
#
# Elastic Constant Matrix: (Units=GPa)
#
#
# Indices 1 2 3 4 5 6 
#
# 1 87.2137 44.3740 38.4278 0.0000 -9.8889 0.0000
# 2 44.3740 118.0395 37.1303 0.0000 -17.1869 0.0000
# 3 38.4278 37.1303 100.9217 0.0000 -15.1896 0.0000
# 4 0.0000 0.0000 0.0000 28.5981 0.0000 -7.7669
# 5 -9.8889 -17.1869 -15.1896 0.0000 31.6275 0.0000
# 6 0.0000 0.0000 0.0000 -7.7669 0.0000 22.5488
#
#
#
# Elastic Compliance Matrix: (Units=1/GPa)
#
#
# Indices 1 2 3 4 5 6 
#
# 1 0.015673 -0.004494 -0.004252 0.000000 0.000416 0.000000
# 2 -0.004494 0.011309 -0.001871 0.000000 0.003842 0.000000
# 3 -0.004252 -0.001871 0.012787 0.000000 0.003795 0.000000
# 4 0.000000 0.000000 0.000000 0.038576 0.000000 0.013287
# 5 0.000416 0.003842 0.003795 0.000000 0.035658 0.000000
# 6 0.000000 0.000000 0.000000 0.013287 0.000000 0.048925
#
#
# Mechanical properties :
#
#
# Convention : Reuss Voigt Hill
#
# Bulk Modulus (GPa) = 53.95078 60.67099 57.31089
# Shear Modulus (GPa) = 26.26851 28.97107 27.61979
#
# Velocity S-wave (km/s) = 3.74710 3.93514 3.84227
# Velocity P-wave (km/s) = 6.89625 7.28535 7.09346
#
# Compressibility (1/GPa) = 0.01853541
#
# Stress axis : x y z
#
# Youngs Moduli (GPa) = 63.80320 88.42411 78.20240
#
# Poissons Ratio (x) = 0.39737 0.33250
# Poissons Ratio (y) = 0.28672 0.14635
# Poissons Ratio (z) = 0.27128 0.16548
#
# Static dielectric constant tensor:
#      x y z
#    x 3.353880 0.000000 -0.275330 
#    y 0.000000 3.561870 0.000000 
#    z -0.275330 0.000000 3.550580 
# 
# 
# High freq. dielectric constant tensor:
#      x y z
#    x 1.708600 0.000000 -0.026910 
#    y 0.000000 1.721180 0.000000 
#    z -0.026910 0.000000 1.726270 
# 
# From -- ./inp_files/67454.got.cif
#   From: 2010.06.25/outbox.cif.g09.slc.cpg/sg15_34_cif.got.tgz:67454.got - 2010.06.28 07:06:18.
