data_PCOD8131721
_publ_section_title
;
Structure prediction by ZEFSAII (Michael W. Deem and Ramdas Pophale) SiO2 
 PCOD8131721
Probable space group: C 2/C
;
_chemical_formula_sum "Si O2"
_cell_formula_units_Z 52
_cell_length_a 12.962930
_cell_length_b 13.938066
_cell_length_c 16.804424
_cell_angle_alpha 90.000000
_cell_angle_beta 56.437971
_cell_angle_gamma 90.000000
_cell_volume 2530.022289
_symmetry_space_group_name_H-M "C 2/C"
_symmetry_group_IT_number 15
_symmetry_cell_setting 'monoclinic'
loop_
_space_group_symop_operation_xyz
x,y,z
-x,y,1/2-z
-x,-y,-z
x,-y,1/2+z
1/2+x,1/2+y,z
1/2-x,1/2+y,1/2-z
1/2-x,1/2-y,-z
1/2+x,1/2-y,1/2+z
loop_
_atom_site_type_symbol
_atom_site_label
_atom_site_fract_x
_atom_site_fract_y
_atom_site_fract_z
Si Si1 0.500000 0.949596 0.250000
Si Si2 0.379816 0.738223 0.835712
Si Si3 0.630750 0.449554 0.940337
Si Si4 0.383261 0.230842 0.511205
Si Si5 0.674396 0.093201 0.259688
Si Si6 0.148237 0.307799 0.936350
Si Si7 0.775206 0.623478 0.929261
O O1 0.588655 0.877225 0.165385
O O2 0.573546 0.010610 0.285724
O O3 0.500000 0.677112 0.750000
O O4 0.246436 0.683299 0.901514
O O5 0.366549 0.817719 0.774962
O O6 0.407847 0.791264 0.907771
O O7 0.626035 0.345869 0.982145
O O8 0.687749 0.441339 0.826641
O O9 0.723100 0.515798 0.951408
O O10 0.500000 0.500000 0.000000
O O11 0.498892 0.190636 0.511816
O O12 0.684680 0.125609 0.346583
O O13 0.191588 0.196480 0.911681
O O14 0.220141 0.348849 0.980788
#
# Coordination Sequence:
#
# PCOD8131721 Si02
#       7
#     4   8   8   8   8   8   8
#     4  10  20  40  58  86 110 162 196 252 294 360
#     4  10  18  34  56  92 113 150 203 260 299 365
#     4  10  20  40  59  84 117 165 197 254 311 367
#     4  10  20  33  63  85 118 155 204 253 310 358
#     4  10  20  36  65  80 117 154 205 250 308 357
#     4  11  21  41  58  91 118 163 199 253 303 380
#     4  10  24  39  59  84 129 155 202 243 311 374
#
# _framework density 20.553177999999999
#
# number of rings (size 3 to 8) (size 9 to 14) (size 15 to 20)
#    0.000    1.846    3.846    0.000    0.000    3.077 
#    0.000    4.615    0.000    0.000    0.000    0.000 
#    0.000    0.000    0.000    0.000    0.000    0.000 
#
# Total GULP energy -322121.139403 kJ/mol
# GULP energy per Si atom -12389.274592 kJ/mol
# Density = 2.050640 g / cm^3
# Si number density = 20.553178 Si / 1000 Ang^3
#
#
#
# Elastic Constant Matrix: (Units=GPa)
#
#
# Indices 1 2 3 4 5 6 
#
# 1 96.2716 16.9727 64.0125 0.0000 -15.1820 0.0000
# 2 16.9727 47.5825 31.2508 0.0000 4.9174 0.0000
# 3 64.0125 31.2508 143.6937 0.0000 -23.0531 0.0000
# 4 0.0000 0.0000 0.0000 26.5202 0.0000 -3.9032
# 5 -15.1820 4.9174 -23.0531 0.0000 43.6463 0.0000
# 6 0.0000 0.0000 0.0000 -3.9032 0.0000 17.4286
#
#
#
# Elastic Compliance Matrix: (Units=1/GPa)
#
#
# Indices 1 2 3 4 5 6 
#
# 1 0.014998 -0.001672 -0.005955 0.000000 0.002260 0.000000
# 2 -0.001672 0.026284 -0.006053 0.000000 -0.006740 0.000000
# 3 -0.005955 -0.006053 0.011697 0.000000 0.004788 0.000000
# 4 0.000000 0.000000 0.000000 0.038992 0.000000 0.008733
# 5 0.002260 -0.006740 0.004788 0.000000 0.026986 0.000000
# 6 0.000000 0.000000 0.000000 0.008733 0.000000 0.059333
#
#
# Mechanical properties :
#
#
# Convention : Reuss Voigt Hill
#
# Bulk Modulus (GPa) = 39.03342 56.89109 47.96225
# Shear Modulus (GPa) = 23.34372 29.20645 26.27509
#
# Velocity S-wave (km/s) = 3.37378 3.77373 3.57934
# Velocity P-wave (km/s) = 5.84886 6.83579 6.36150
#
# Compressibility (1/GPa) = 0.02561907
#
# Stress axis : x y z
#
# Youngs Moduli (GPa) = 66.67496 38.04533 85.49425
#
# Poissons Ratio (x) = 0.06362 0.50912
# Poissons Ratio (y) = 0.11150 0.51747
# Poissons Ratio (z) = 0.39705 0.23028
#
# Static dielectric constant tensor:
#      x y z
#    x 3.965750 0.000000 -0.498690 
#    y 0.000000 3.600820 0.000000 
#    z -0.498690 0.000000 4.115080 
# 
# 
# High freq. dielectric constant tensor:
#      x y z
#    x 1.805680 0.000000 -0.022010 
#    y 0.000000 1.773050 0.000000 
#    z -0.022010 0.000000 1.812590 
# 
# From -- ./inp_files/144327.got.cif
#   From: 2010.06.25/outbox.cif.g09.slc.cpg/sg15_73_cif.got.tgz:144327.got - 2010.06.28 07:06:18.
