data_PCOD8131339
_publ_section_title
;
Structure prediction by ZEFSAII (Michael W. Deem and Ramdas Pophale) SiO2 
 PCOD8131339
Probable space group: C 2/C
;
_chemical_formula_sum "Si O2"
_cell_formula_units_Z 52
_cell_length_a 19.982584
_cell_length_b 16.196625
_cell_length_c 9.053748
_cell_angle_alpha 90.000000
_cell_angle_beta 62.180293
_cell_angle_gamma 90.000000
_cell_volume 2591.572610
_symmetry_space_group_name_H-M "C 2/C"
_symmetry_group_IT_number 15
_symmetry_cell_setting 'monoclinic'
loop_
_space_group_symop_operation_xyz
x,y,z
-x,y,1/2-z
-x,-y,-z
x,-y,1/2+z
1/2+x,1/2+y,z
1/2-x,1/2+y,1/2-z
1/2-x,1/2-y,-z
1/2+x,1/2-y,1/2+z
loop_
_atom_site_type_symbol
_atom_site_label
_atom_site_fract_x
_atom_site_fract_y
_atom_site_fract_z
Si Si1 0.428629 0.550606 0.637428
Si Si2 0.838339 0.737981 0.894464
Si Si3 0.000000 0.807342 0.250000
Si Si4 0.425368 0.826641 0.038383
Si Si5 0.590203 0.408248 0.649466
Si Si6 0.412991 0.047293 0.327210
Si Si7 0.084141 0.389370 0.990596
O O1 0.500000 0.500000 0.500000
O O2 0.446555 0.632725 0.710861
O O3 0.381080 0.487183 0.786749
O O4 0.379541 0.579188 0.548424
O O5 0.860775 0.690795 0.723605
O O6 0.874902 0.825943 0.825307
O O7 0.750000 0.750000 0.000000
O O8 0.870420 0.693050 0.009519
O O9 0.952168 0.751958 0.413792
O O10 0.378367 0.889944 0.982686
O O11 0.496210 0.867298 0.054852
O O12 0.500000 0.400320 0.750000
O O13 0.500000 0.073972 0.250000
O O14 0.382922 0.067165 0.192668
O O15 0.403391 0.952412 0.385438
#
# Coordination Sequence:
#
# PCOD8131339 Si02
#       7
#     8   8   4   8   8   8   8
#     4  10  18  32  57  93 121 145 188 253 304 358
#     4  12  26  41  58  85 128 169 210 248 304 364
#     4  12  18  32  64  98 124 144 200 248 308 350
#     4  11  21  37  65  97 124 157 198 259 305 368
#     4  10  20  37  61  87 115 154 198 254 305 350
#     4  10  19  34  65  99 124 147 201 257 318 358
#     4  11  20  40  64  96 120 160 201 260 306 364
#
# _framework density 20.065037
#
# number of rings (size 3 to 8) (size 9 to 14) (size 15 to 20)
#    0.000    1.231    4.615    7.846    0.000    0.000 
#    0.000    3.846    0.000    0.000    0.000    0.000 
#    0.000    0.000    0.000    0.000    0.000    0.000 
#
# Total GULP energy -322168.030402 kJ/mol
# GULP energy per Si atom -12391.078092 kJ/mol
# Density = 2.001937 g / cm^3
# Si number density = 20.065037 Si / 1000 Ang^3
#
#
#
# Elastic Constant Matrix: (Units=GPa)
#
#
# Indices 1 2 3 4 5 6 
#
# 1 43.2793 20.8810 44.4447 0.0000 0.2215 0.0000
# 2 20.8810 125.8040 49.9453 0.0000 5.4452 0.0000
# 3 44.4447 49.9453 124.3686 0.0000 17.4481 0.0000
# 4 0.0000 0.0000 0.0000 45.3415 0.0000 22.3224
# 5 0.2215 5.4452 17.4481 0.0000 22.2103 0.0000
# 6 0.0000 0.0000 0.0000 22.3224 0.0000 10.1774
#
#
#
# Elastic Compliance Matrix: (Units=1/GPa)
#
#
# Indices 1 2 3 4 5 6 
#
# 1 0.039209 -0.000949 -0.015294 0.000000 0.011856 0.000000
# 2 -0.000949 0.009491 -0.003537 0.000000 0.000461 0.000000
# 3 -0.015294 -0.003537 0.016615 0.000000 -0.012033 0.000000
# 4 0.000000 0.000000 0.000000 -0.276357 0.000000 0.606138
# 5 0.011856 0.000461 -0.012033 0.000000 0.054246 0.000000
# 6 0.000000 0.000000 0.000000 0.606138 0.000000 -1.231195
#
#
# Mechanical properties :
#
#
# Convention : Reuss Voigt Hill
#
# Bulk Modulus (GPa) = 38.82901 58.22155 48.52528
# Shear Modulus (GPa) = -3.73177 27.42456 11.84640
#
# Velocity S-wave (km/s) = -1.36524 3.70101 2.43245
# Velocity P-wave (km/s) = 4.11199 6.88061 5.66794
#
# Compressibility (1/GPa) = 0.02575394
#
# Stress axis : x y z
#
# Youngs Moduli (GPa) = 25.50451 105.36719 60.18835
#
# Poissons Ratio (x) = 0.10002 0.92051
# Poissons Ratio (y) = 0.02421 0.21288
# Poissons Ratio (z) = 0.39006 0.37266
#
# Static dielectric constant tensor:
#      x y z
#    x 3.090510 0.000000 0.604380 
#    y 0.000000 3.489170 0.000000 
#    z 0.604380 0.000000 4.117750 
# 
# 
# High freq. dielectric constant tensor:
#      x y z
#    x 1.711630 0.000000 0.044580 
#    y 0.000000 1.811430 0.000000 
#    z 0.044580 0.000000 1.795790 
# 
# From -- ./inp_files/61429.got.cif
#   From: 2010.06.25/outbox.cif.g09.slc.cpg/sg15_31_cif.got.tgz:61429.got - 2010.06.28 07:06:18.
