data_PCOD8131923
_publ_section_title
;
Structure prediction by ZEFSAII (Michael W. Deem and Ramdas Pophale) SiO2 
 PCOD8131923
Probable space group: C 2/C
;
_chemical_formula_sum "Si O2"
_cell_formula_units_Z 60
_cell_length_a 13.581966
_cell_length_b 20.468992
_cell_length_c 21.617168
_cell_angle_alpha 90.000000
_cell_angle_beta 33.655944
_cell_angle_gamma 90.000000
_cell_volume 3330.642230
_symmetry_space_group_name_H-M "C 2/C"
_symmetry_group_IT_number 15
_symmetry_cell_setting 'monoclinic'
loop_
_space_group_symop_operation_xyz
x,y,z
-x,y,1/2-z
-x,-y,-z
x,-y,1/2+z
1/2+x,1/2+y,z
1/2-x,1/2+y,1/2-z
1/2-x,1/2-y,-z
1/2+x,1/2-y,1/2+z
loop_
_atom_site_type_symbol
_atom_site_label
_atom_site_fract_x
_atom_site_fract_y
_atom_site_fract_z
Si Si1 0.513202 0.769227 0.354336
Si Si2 0.462348 0.535620 0.083515
Si Si3 0.365675 0.292336 0.115155
Si Si4 0.480329 0.594716 0.893494
Si Si5 0.705009 0.117894 0.146313
Si Si6 0.000000 0.858328 0.250000
Si Si7 0.318677 0.762628 0.102956
Si Si8 0.687061 0.654451 0.991035
O O1 0.676539 0.757871 0.221915
O O2 0.585790 0.784043 0.384070
O O3 0.404824 0.701194 0.409497
O O4 0.397251 0.831704 0.390634
O O5 0.427325 0.476280 0.148738
O O6 0.290303 0.580098 0.160603
O O7 0.500000 0.500000 0.000000
O O8 0.626296 0.578764 0.026987
O O9 0.385353 0.347391 0.157481
O O10 0.382516 0.326480 0.040172
O O11 0.529046 0.240394 0.030849
O O12 0.452074 0.598857 0.834978
O O13 0.302972 0.601576 0.029413
O O14 0.500000 0.096663 0.250000
O O15 0.718392 0.193443 0.157892
O O16 0.824303 0.816229 0.336509
#
# Coordination Sequence:
#
# PCOD8131923 Si02
#       8
#     8   8   8   8   8   4   8   8
#     4  10  19  33  55  86 114 140 179 234 300 346
#     4  10  18  39  57  80 114 146 194 244 284 334
#     4  10  18  35  54  88 110 141 186 243 291 334
#     4  10  22  36  57  79 118 157 191 232 284 348
#     4  10  19  36  60  91 111 141 193 250 302 324
#     4  12  22  38  56  82 118 166 192 226 292 360
#     4  10  20  33  57  84 116 144 185 237 287 341
#     4  10  19  34  59  82 112 147 182 240 291 343
#
# _framework density 18.014544000000001
#
# number of rings (size 3 to 8) (size 9 to 14) (size 15 to 20)
#    0.000    1.867    7.333    0.400    0.000    3.200 
#    4.800    0.000    8.800    1.600    0.000    0.000 
#    0.000    0.000    0.000    0.000    0.000    0.000 
#
# Total GULP energy -371672.933768 kJ/mol
# GULP energy per Si atom -12389.097792 kJ/mol
# Density = 1.797354 g / cm^3
# Si number density = 18.014544 Si / 1000 Ang^3
#
#
#
# Elastic Constant Matrix: (Units=GPa)
#
#
# Indices 1 2 3 4 5 6 
#
# 1 83.3908 38.9319 26.4146 0.0066 -4.1633 -0.0044
# 2 38.9319 78.1175 29.1580 0.0131 -2.3966 -0.0011
# 3 26.4146 29.1580 99.4691 0.0215 -15.8194 -0.0003
# 4 0.0066 0.0131 0.0215 6.4274 -0.0124 -0.5024
# 5 -4.1633 -2.3966 -15.8194 -0.0124 30.7782 0.0074
# 6 -0.0044 -0.0011 -0.0003 -0.5024 0.0074 30.2153
#
#
#
# Elastic Compliance Matrix: (Units=1/GPa)
#
#
# Indices 1 2 3 4 5 6 
#
# 1 0.016036 -0.007207 -0.002058 0.000006 0.000550 0.000002
# 2 -0.007207 0.017649 -0.003481 -0.000020 -0.001390 0.000000
# 3 -0.002058 -0.003481 0.012560 -0.000022 0.005906 -0.000002
# 4 0.000006 -0.000020 -0.000022 0.155788 0.000050 0.002590
# 5 0.000550 -0.001390 0.005906 0.000050 0.035492 -0.000008
# 6 0.000002 0.000000 -0.000002 0.002590 -0.000008 0.033139
#
#
# Mechanical properties :
#
#
# Convention : Reuss Voigt Hill
#
# Bulk Modulus (GPa) = 48.18597 49.99848 49.09223
# Shear Modulus (GPa) = 16.49767 24.58237 20.54002
#
# Velocity S-wave (km/s) = 3.02950 3.69804 3.38033
# Velocity P-wave (km/s) = 6.24849 6.78592 6.52274
#
# Compressibility (1/GPa) = 0.02075293
#
# Stress axis : x y z
#
# Youngs Moduli (GPa) = 62.36097 56.65886 79.62000
#
# Poissons Ratio (x) = 0.40832 0.16389
# Poissons Ratio (y) = 0.44941 0.27715
# Poissons Ratio (z) = 0.12836 0.19723
#
# Static dielectric constant tensor:
#      x y z
#    x 3.447290 0.000010 -0.114850 
#    y 0.000010 3.542800 0.000060 
#    z -0.114850 0.000060 3.430070 
# 
# 
# High freq. dielectric constant tensor:
#      x y z
#    x 1.693280 0.000000 -0.012070 
#    y 0.000000 1.679910 0.000010 
#    z -0.012070 0.000010 1.689440 
# 
# From -- ./inp_files/274725.got.cif
#   From: 2010.06.25/outbox.cif.g09.slc.cpg/sg15_138_cif.got.tgz:274725.got - 2010.06.28 07:06:18.
