data_PCOD8131899
_publ_section_title
;
Structure prediction by ZEFSAII (Michael W. Deem and Ramdas Pophale) SiO2 
 PCOD8131899
Probable space group: C 2/C
;
_chemical_formula_sum "Si O2"
_cell_formula_units_Z 36
_cell_length_a 26.892200
_cell_length_b 14.508582
_cell_length_c 14.223658
_cell_angle_alpha 90.000000
_cell_angle_beta 165.002284
_cell_angle_gamma 90.000000
_cell_volume 1436.131530
_symmetry_space_group_name_H-M "C 2/C"
_symmetry_group_IT_number 15
_symmetry_cell_setting 'monoclinic'
loop_
_space_group_symop_operation_xyz
x,y,z
-x,y,1/2-z
-x,-y,-z
x,-y,1/2+z
1/2+x,1/2+y,z
1/2-x,1/2+y,1/2-z
1/2-x,1/2-y,-z
1/2+x,1/2-y,1/2+z
loop_
_atom_site_type_symbol
_atom_site_label
_atom_site_fract_x
_atom_site_fract_y
_atom_site_fract_z
Si Si1 0.250998 0.153119 0.952540
Si Si2 0.740155 0.520765 0.091713
Si Si3 0.816609 0.899343 0.828248
Si Si4 0.191476 0.855366 0.886968
Si Si5 0.500000 0.226922 0.250000
O O1 0.338278 0.079728 0.186763
O O2 0.036387 0.128825 0.529267
O O3 0.250000 0.250000 0.000000
O O4 0.385632 0.156886 0.107828
O O5 0.516534 0.547417 0.684199
O O6 0.770549 0.412935 0.121221
O O7 0.816402 0.548774 0.335768
O O8 0.718957 0.897280 0.546729
O O9 0.853076 0.792725 0.924574
O O10 0.250000 0.750000 0.000000
#
# Coordination Sequence:
#
# PCOD8131899 Si02
#       5
#     8   8   8   8   4
#     4  11  18  38  69  89 127 174 215 262 317 390
#     4   9  19  38  65  90 126 174 214 252 317 401
#     4   9  17  37  64  91 119 172 219 240 329 382
#     4  11  23  41  63 100 134 164 213 275 324 377
#     4  10  18  34  68  94 114 178 220 250 310 394
#
# _framework density 25.067342
#
# number of rings (size 3 to 8) (size 9 to 14) (size 15 to 20)
#    0.000    2.222    6.667    2.667    0.000    0.000 
#   12.000    1.111   14.667    0.000    0.000    0.000 
#    0.000    0.000    0.000    0.000    0.000    0.000 
#
# Total GULP energy -223038.844217 kJ/mol
# GULP energy per Si atom -12391.046901 kJ/mol
# Density = 2.501029 g / cm^3
# Si number density = 25.067342 Si / 1000 Ang^3
#
#
#
# Elastic Constant Matrix: (Units=GPa)
#
#
# Indices 1 2 3 4 5 6 
#
# 1 237.1856 83.3160 31.9077 0.0000 13.2417 0.0000
# 2 83.3160 149.0181 0.2113 0.0000 9.6050 0.0000
# 3 31.9077 0.2113 21.7823 0.0001 9.0864 0.0000
# 4 0.0000 0.0000 0.0001 10.7844 0.0000 -7.9073
# 5 13.2417 9.6050 9.0864 0.0000 26.5591 0.0000
# 6 0.0000 0.0000 0.0000 -7.9073 0.0000 43.8479
#
#
#
# Elastic Compliance Matrix: (Units=1/GPa)
#
#
# Indices 1 2 3 4 5 6 
#
# 1 0.006998 -0.004006 -0.010919 0.000000 0.001696 0.000000
# 2 -0.004006 0.009188 0.007386 0.000000 -0.003853 0.000000
# 3 -0.010919 0.007386 0.070776 0.000000 -0.021441 0.000000
# 4 0.000000 0.000000 0.000000 0.106856 0.000000 0.019270
# 5 0.001696 -0.003853 -0.021441 0.000000 0.045535 0.000000
# 6 0.000000 0.000000 0.000000 0.019270 0.000000 0.026281
#
#
# Mechanical properties :
#
#
# Convention : Reuss Voigt Hill
#
# Bulk Modulus (GPa) = 13.91126 70.98399 42.44762
# Shear Modulus (GPa) = 16.41111 35.74167 26.07639
#
# Velocity S-wave (km/s) = 2.56145 3.78011 3.22880
# Velocity P-wave (km/s) = 3.78281 6.88702 5.55611
#
# Compressibility (1/GPa) = 0.07188423
#
# Stress axis : x y z
#
# Youngs Moduli (GPa) = 142.90756 108.83448 14.12918
#
# Poissons Ratio (x) = 0.43600 0.15427
# Poissons Ratio (y) = 0.57251 -0.10436
# Poissons Ratio (z) = 1.56037 -0.80388
#
# Static dielectric constant tensor:
#      x y z
#    x 5.831590 0.000000 -0.040480 
#    y 0.000000 9.746650 0.000000 
#    z -0.040480 0.000000 3.675870 
# 
# 
# High freq. dielectric constant tensor:
#      x y z
#    x 2.023090 0.000000 0.005130 
#    y 0.000000 1.994710 0.000000 
#    z 0.005130 0.000000 1.951420 
# 
# From -- ./inp_files/141974.got.cif
#   From: 2010.06.25/outbox.cif.g09.slc.cpg/sg15_71_cif.got.tgz:141974.got - 2010.06.28 07:06:18.
