data_PCOD8131800
_publ_section_title
;
Structure prediction by ZEFSAII (Michael W. Deem and Ramdas Pophale) SiO2 
 PCOD8131800
Probable space group: C 2/C
;
_chemical_formula_sum "Si O2"
_cell_formula_units_Z 48
_cell_length_a 13.848646
_cell_length_b 11.603774
_cell_length_c 15.789936
_cell_angle_alpha 90.000000
_cell_angle_beta 102.540622
_cell_angle_gamma 90.000000
_cell_volume 2476.852144
_symmetry_space_group_name_H-M "C 2/C"
_symmetry_group_IT_number 15
_symmetry_cell_setting 'monoclinic'
loop_
_space_group_symop_operation_xyz
x,y,z
-x,y,1/2-z
-x,-y,-z
x,-y,1/2+z
1/2+x,1/2+y,z
1/2-x,1/2+y,1/2-z
1/2-x,1/2-y,-z
1/2+x,1/2-y,1/2+z
loop_
_atom_site_type_symbol
_atom_site_label
_atom_site_fract_x
_atom_site_fract_y
_atom_site_fract_z
Si Si1 0.326798 0.337286 0.552666
Si Si2 0.384918 0.365463 0.748145
Si Si3 0.285004 0.598114 0.505122
Si Si4 0.004420 0.867984 0.024873
Si Si5 0.744490 0.250525 0.645678
Si Si6 0.099764 0.876259 0.218006
O O1 0.250000 0.250000 0.500000
O O2 0.322863 0.332752 0.652920
O O3 0.296549 0.462228 0.510619
O O4 0.438793 0.305826 0.542521
O O5 0.500000 0.352550 0.750000
O O6 0.353963 0.280246 0.818786
O O7 0.354116 0.495366 0.768465
O O8 0.391154 0.668097 0.520908
O O9 0.227772 0.638672 0.408778
O O10 0.229025 0.641524 0.579492
O O11 0.075458 0.842825 0.117732
O O12 0.000000 0.000000 0.000000
O O13 0.830259 0.221438 0.729014
O O14 0.000000 0.880674 0.250000
#
# Coordination Sequence:
#
# PCOD8131800 Si02
#       6
#     8   8   8   8   8   8
#     4  11  21  36  58  89 119 149 191 243 293 354
#     4  11  21  36  57  86 115 152 198 242 289 340
#     4  10  20  38  59  88 114 156 194 239 307 339
#     4  10  18  34  59  87 115 145 193 249 291 338
#     4  11  21  35  62  86 120 153 193 247 292 357
#     4  11  19  36  58  89 115 147 201 248 290 342
#
# _framework density 19.379435000000001
#
# number of rings (size 3 to 8) (size 9 to 14) (size 15 to 20)
#    0.000    1.333    3.333    7.000    0.000    0.000 
#    0.000    0.000    0.000   17.000    0.000    0.000 
#    0.000    0.000    0.000    0.000    0.000    0.000 
#
# Total GULP energy -297384.791057 kJ/mol
# GULP energy per Si atom -12391.032961 kJ/mol
# Density = 1.933533 g / cm^3
# Si number density = 19.379435 Si / 1000 Ang^3
#
#
#
# Elastic Constant Matrix: (Units=GPa)
#
#
# Indices 1 2 3 4 5 6 
#
# 1 74.5727 46.3480 23.9038 0.0000 -10.4262 0.0000
# 2 46.3480 78.3630 34.9138 0.0000 0.8606 0.0000
# 3 23.9038 34.9138 107.1247 0.0000 -2.2137 0.0000
# 4 0.0000 0.0000 0.0000 41.3290 0.0000 8.1433
# 5 -10.4262 0.8606 -2.2137 0.0000 37.5556 0.0000
# 6 0.0000 0.0000 0.0000 8.1433 0.0000 30.2981
#
#
#
# Elastic Compliance Matrix: (Units=1/GPa)
#
#
# Indices 1 2 3 4 5 6 
#
# 1 0.022775 -0.013266 -0.000622 0.000000 0.006590 0.000000
# 2 -0.013266 0.022670 -0.004521 0.000000 -0.004469 0.000000
# 3 -0.000622 -0.004521 0.010959 0.000000 0.000577 0.000000
# 4 0.000000 0.000000 0.000000 0.025549 0.000000 -0.006867
# 5 0.006590 -0.004469 0.000577 0.000000 0.028593 0.000000
# 6 0.000000 0.000000 0.000000 -0.006867 0.000000 0.034851
#
#
# Mechanical properties :
#
#
# Convention : Reuss Voigt Hill
#
# Bulk Modulus (GPa) = 51.05419 52.26574 51.65996
# Shear Modulus (GPa) = 26.49073 32.16285 29.32679
#
# Velocity S-wave (km/s) = 3.70124 4.07829 3.89433
# Velocity P-wave (km/s) = 6.68336 7.01461 6.85099
#
# Compressibility (1/GPa) = 0.01958703
#
# Stress axis : x y z
#
# Youngs Moduli (GPa) = 43.90707 44.11033 91.24771
#
# Poissons Ratio (x) = 0.58515 0.05680
# Poissons Ratio (y) = 0.58245 0.41253
# Poissons Ratio (z) = 0.02733 0.19942
#
# Static dielectric constant tensor:
#      x y z
#    x 3.612240 0.000000 -0.353150 
#    y 0.000000 3.417550 0.000000 
#    z -0.353150 0.000000 3.679870 
# 
# 
# High freq. dielectric constant tensor:
#      x y z
#    x 1.738700 0.000000 -0.013770 
#    y 0.000000 1.717730 0.000000 
#    z -0.013770 0.000000 1.784630 
# 
# From -- ./inp_files/152101.got.cif
#   From: 2010.06.25/outbox.cif.g09.slc.cpg/sg15_77_cif.got.tgz:152101.got - 2010.06.28 07:06:18.
