data_PCOD8131964
_publ_section_title
;
Structure prediction by ZEFSAII (Michael W. Deem and Ramdas Pophale) SiO2 
 PCOD8131964
Probable space group: C 2/C
;
_chemical_formula_sum "Si O2"
_cell_formula_units_Z 48
_cell_length_a 8.998461
_cell_length_b 15.883560
_cell_length_c 24.375335
_cell_angle_alpha 90.000000
_cell_angle_beta 44.217358
_cell_angle_gamma 90.000000
_cell_volume 2429.615651
_symmetry_space_group_name_H-M "C 2/C"
_symmetry_group_IT_number 15
_symmetry_cell_setting 'monoclinic'
loop_
_space_group_symop_operation_xyz
x,y,z
-x,y,1/2-z
-x,-y,-z
x,-y,1/2+z
1/2+x,1/2+y,z
1/2-x,1/2+y,1/2-z
1/2-x,1/2-y,-z
1/2+x,1/2-y,1/2+z
loop_
_atom_site_type_symbol
_atom_site_label
_atom_site_fract_x
_atom_site_fract_y
_atom_site_fract_z
Si Si1 0.108159 0.730003 0.857038
Si Si2 0.993550 0.585472 0.072676
Si Si3 0.774403 0.424118 0.101799
Si Si4 0.095480 0.820297 0.320134
Si Si5 0.241281 0.183197 0.420110
Si Si6 0.178200 0.763604 0.407768
O O1 0.108955 0.653795 0.899913
O O2 0.275117 0.717178 0.764428
O O3 0.179088 0.815218 0.871541
O O4 0.869985 0.735126 0.899389
O O5 0.831472 0.507023 0.122295
O O6 0.849433 0.666787 0.101256
O O7 0.139249 0.598648 0.089364
O O8 0.147851 0.566390 0.981012
O O9 0.516084 0.408769 0.168036
O O10 0.237509 0.820740 0.338073
O O11 0.898433 0.760935 0.390099
O O12 0.028224 0.195691 0.510875
#
# Coordination Sequence:
#
# PCOD8131964 Si02
#       6
#     8   8   8   8   8   8
#     4  11  22  33  57  84 116 149 188 231 292 342
#     4  10  19  34  58  82 107 143 193 237 277 327
#     4  10  19  35  55  81 109 148 187 229 287 342
#     4  10  19  37  56  79 113 158 185 229 288 346
#     4  10  18  35  57  82 111 147 189 240 275 326
#     4  11  19  36  58  88 109 145 193 243 272 335
#
# _framework density 19.756211
#
# number of rings (size 3 to 8) (size 9 to 14) (size 15 to 20)
#    0.000    1.667    5.000    4.000    0.000    0.000 
#    0.000    9.167    0.000    4.000    0.000    0.000 
#    0.000    0.000    0.000    0.000    0.000    0.000 
#
# Total GULP energy -297355.890851 kJ/mol
# GULP energy per Si atom -12389.828785 kJ/mol
# Density = 1.971125 g / cm^3
# Si number density = 19.756211 Si / 1000 Ang^3
#
#
#
# Elastic Constant Matrix: (Units=GPa)
#
#
# Indices 1 2 3 4 5 6 
#
# 1 112.6761 40.6433 18.8908 -0.0009 13.0570 -0.0004
# 2 40.6433 74.2376 16.0067 0.0008 -0.3312 -0.0010
# 3 18.8908 16.0067 86.6556 -0.0001 13.6729 0.0006
# 4 -0.0009 0.0008 -0.0001 13.3471 -0.0007 0.2469
# 5 13.0570 -0.3312 13.6729 -0.0007 28.3364 0.0009
# 6 -0.0004 -0.0010 0.0006 0.2469 0.0009 37.5958
#
#
#
# Elastic Compliance Matrix: (Units=1/GPa)
#
#
# Indices 1 2 3 4 5 6 
#
# 1 0.011896 -0.006412 -0.000576 0.000001 -0.005279 0.000000
# 2 -0.006412 0.017547 -0.002535 -0.000001 0.004383 0.000000
# 3 -0.000576 -0.002535 0.013093 0.000000 -0.006082 0.000000
# 4 0.000001 -0.000001 0.000000 0.074932 0.000002 -0.000492
# 5 -0.005279 0.004383 -0.006082 0.000002 0.040708 -0.000001
# 6 0.000000 0.000000 0.000000 -0.000492 -0.000001 0.026602
#
#
# Mechanical properties :
#
#
# Convention : Reuss Voigt Hill
#
# Bulk Modulus (GPa) = 42.57094 47.18341 44.87718
# Shear Modulus (GPa) = 23.62337 29.05779 26.34058
#
# Velocity S-wave (km/s) = 3.46170 3.83929 3.65537
# Velocity P-wave (km/s) = 6.12966 6.60213 6.37028
#
# Compressibility (1/GPa) = 0.02349020
#
# Stress axis : x y z
#
# Youngs Moduli (GPa) = 84.06035 56.99011 76.37446
#
# Poissons Ratio (x) = 0.36543 0.04399
# Poissons Ratio (y) = 0.53901 0.19360
# Poissons Ratio (z) = 0.04842 0.14446
#
# Static dielectric constant tensor:
#      x y z
#    x 4.297650 0.000000 0.232500 
#    y 0.000000 3.549300 0.000000 
#    z 0.232500 0.000000 3.470500 
# 
# 
# High freq. dielectric constant tensor:
#      x y z
#    x 1.788630 0.000000 0.009230 
#    y 0.000000 1.724770 0.000000 
#    z 0.009230 0.000000 1.766230 
# 
# From -- ./inp_files/190227.got.cif
#   From: 2010.06.25/outbox.cif.g09.slc.cpg/sg15_96_cif.got.tgz:190227.got - 2010.06.28 07:06:18.
