data_PCOD8131043
_publ_section_title
;
Structure prediction by ZEFSAII (Michael W. Deem and Ramdas Pophale) SiO2 
 PCOD8131043
Probable space group: C 2/C
;
_chemical_formula_sum "Si O2"
_cell_formula_units_Z 56
_cell_length_a 21.212416
_cell_length_b 16.304527
_cell_length_c 9.721979
_cell_angle_alpha 90.000000
_cell_angle_beta 115.319890
_cell_angle_gamma 90.000000
_cell_volume 3039.413636
_symmetry_space_group_name_H-M "C 2/C"
_symmetry_group_IT_number 15
_symmetry_cell_setting 'monoclinic'
loop_
_space_group_symop_operation_xyz
x,y,z
-x,y,1/2-z
-x,-y,-z
x,-y,1/2+z
1/2+x,1/2+y,z
1/2-x,1/2+y,1/2-z
1/2-x,1/2-y,-z
1/2+x,1/2-y,1/2+z
loop_
_atom_site_type_symbol
_atom_site_label
_atom_site_fract_x
_atom_site_fract_y
_atom_site_fract_z
Si Si1 0.170552 0.552216 0.808018
Si Si2 0.170873 0.734071 0.892835
Si Si3 0.042914 0.452299 0.657656
Si Si4 0.804506 0.862141 0.793174
Si Si5 0.254145 0.481387 0.132548
Si Si6 0.858116 0.692660 0.344280
Si Si7 0.810764 0.186763 0.590984
O O1 0.164717 0.649235 0.807010
O O2 0.096044 0.515838 0.777153
O O3 0.187327 0.524483 0.668950
O O4 0.230069 0.516258 0.963464
O O5 0.150021 0.806728 0.769276
O O6 0.250000 0.750000 0.000000
O O7 0.125415 0.732442 0.990570
O O8 0.084704 0.376509 0.630348
O O9 0.000000 0.420081 0.750000
O O10 0.000000 0.500000 0.500000
O O11 0.720970 0.842902 0.723382
O O12 0.811391 0.956377 0.750571
O O13 0.840960 0.847725 0.975278
O O14 0.285485 0.390763 0.155072
O O15 0.866192 0.763166 0.235232
O O16 0.750000 0.250000 0.500000
#
# Coordination Sequence:
#
# PCOD8131043 Si02
#       7
#     8   8   8   8   8   8   8
#     4  12  20  34  51  71 110 146 178 226 269 313
#     4  10  18  31  51  74 102 146 172 205 272 339
#     4  12  25  38  54  76 103 147 202 235 263 304
#     4  10  19  31  49  80 108 140 180 210 265 345
#     4  12  19  31  52  77 111 144 177 212 271 338
#     4  10  19  37  49  69 106 140 183 227 267 314
#     4  10  20  31  48  75 105 143 178 211 272 333
#
# _framework density 18.424607000000002
#
# number of rings (size 3 to 8) (size 9 to 14) (size 15 to 20)
#    0.000    1.143    5.714    5.143    0.000    1.143 
#    0.000    0.000    0.000    0.000    0.000    0.000 
#    0.000   11.429    0.000    0.000    0.000    0.143 
#
# Total GULP energy -347007.096502 kJ/mol
# GULP energy per Si atom -12393.110589 kJ/mol
# Density = 1.838267 g / cm^3
# Si number density = 18.424607 Si / 1000 Ang^3
#
#
#
# Elastic Constant Matrix: (Units=GPa)
#
#
# Indices 1 2 3 4 5 6 
#
# 1 63.5406 40.8720 36.8711 0.0000 -20.6951 0.0000
# 2 40.8720 149.0552 52.0125 0.0000 -8.5128 0.0000
# 3 36.8711 52.0125 92.4807 0.0000 -27.3216 0.0000
# 4 0.0000 0.0000 0.0000 34.6566 0.0000 -5.2047
# 5 -20.6951 -8.5128 -27.3216 0.0000 26.2514 0.0000
# 6 0.0000 0.0000 0.0000 -5.2047 0.0000 28.6406
#
#
#
# Elastic Compliance Matrix: (Units=1/GPa)
#
#
# Indices 1 2 3 4 5 6 
#
# 1 0.025833 -0.005252 -0.002646 0.000000 0.015908 0.000000
# 2 -0.005252 0.009599 -0.005210 0.000000 -0.006450 0.000000
# 3 -0.002646 -0.005210 0.019758 0.000000 0.016788 0.000000
# 4 0.000000 0.000000 0.000000 0.029664 0.000000 0.005391
# 5 0.015908 -0.006450 0.016788 0.000000 0.066015 0.000000
# 6 0.000000 0.000000 0.000000 0.005391 0.000000 0.035895
#
#
# Mechanical properties :
#
#
# Convention : Reuss Voigt Hill
#
# Bulk Modulus (GPa) = 34.51375 62.73198 48.62286
# Shear Modulus (GPa) = 22.45805 29.59776 26.02791
#
# Velocity S-wave (km/s) = 3.49509 4.01237 3.76263
# Velocity P-wave (km/s) = 5.92120 7.45569 6.73231
#
# Compressibility (1/GPa) = 0.02897396
#
# Stress axis : x y z
#
# Youngs Moduli (GPa) = 38.71058 104.18082 50.61260
#
# Poissons Ratio (x) = 0.54713 0.13391
# Poissons Ratio (y) = 0.20330 0.26370
# Poissons Ratio (z) = 0.10242 0.54280
#
# Static dielectric constant tensor:
#      x y z
#    x 3.050400 0.000000 -0.495310 
#    y 0.000000 3.748430 0.000000 
#    z -0.495310 0.000000 3.917750 
# 
# 
# High freq. dielectric constant tensor:
#      x y z
#    x 1.651240 0.000000 -0.047050 
#    y 0.000000 1.729160 0.000000 
#    z -0.047050 0.000000 1.722290 
# 
# From -- ./inp_files/49173.got.cif
#   From: 2010.06.25/outbox.cif.g09.slc.cpg/sg15_25_cif.got.tgz:49173.got - 2010.06.28 07:06:18.
