data_PCOD8131691
_publ_section_title
;
Structure prediction by ZEFSAII (Michael W. Deem and Ramdas Pophale) SiO2 
 PCOD8131691
Probable space group: C 2/C
;
_chemical_formula_sum "Si O2"
_cell_formula_units_Z 60
_cell_length_a 15.428650
_cell_length_b 23.053436
_cell_length_c 13.036438
_cell_angle_alpha 90.000000
_cell_angle_beta 48.437667
_cell_angle_gamma 90.000000
_cell_volume 3469.446598
_symmetry_space_group_name_H-M "C 2/C"
_symmetry_group_IT_number 15
_symmetry_cell_setting 'monoclinic'
loop_
_space_group_symop_operation_xyz
x,y,z
-x,y,1/2-z
-x,-y,-z
x,-y,1/2+z
1/2+x,1/2+y,z
1/2-x,1/2+y,1/2-z
1/2-x,1/2-y,-z
1/2+x,1/2-y,1/2+z
loop_
_atom_site_type_symbol
_atom_site_label
_atom_site_fract_x
_atom_site_fract_y
_atom_site_fract_z
Si Si1 0.877359 0.476737 0.798730
Si Si2 0.162700 0.583195 0.793435
Si Si3 0.751752 0.317102 0.624603
Si Si4 0.986568 0.141963 0.148634
Si Si5 0.601952 0.919110 0.931058
Si Si6 0.717030 0.684179 0.910682
Si Si7 0.755192 0.021026 0.905018
Si Si8 0.500000 0.530642 0.250000
O O1 0.814762 0.536114 0.812639
O O2 0.888847 0.431273 0.697170
O O3 0.000000 0.492750 0.750000
O O4 0.797268 0.450470 0.950955
O O5 0.193510 0.646586 0.726770
O O6 0.246062 0.569247 0.823771
O O7 0.030062 0.574307 0.931053
O O8 0.645069 0.341934 0.777525
O O9 0.862979 0.352802 0.574952
O O10 0.740808 0.327245 0.511571
O O11 0.766497 0.249769 0.637865
O O12 0.000000 0.172903 0.250000
O O13 0.007020 0.072485 0.143806
O O14 0.082643 0.166639 0.994509
O O15 0.684714 0.962689 0.929572
O O16 0.888738 0.009216 0.824047
#
# Coordination Sequence:
#
# PCOD8131691 Si02
#       8
#     8   8   8   8   8   8   8   4
#     4  11  19  34  55  80 111 141 172 225 281 311
#     4  11  22  32  56  84 111 135 182 227 265 326
#     4  10  20  34  55  76 109 142 182 216 269 322
#     4   8  16  33  48  69 108 136 171 213 250 322
#     4  11  20  35  55  82 108 142 183 227 266 325
#     4  10  21  34  52  81 108 148 174 220 274 313
#     4  11  20  37  52  81 110 143 181 219 273 322
#     4  10  18  34  56  68 114 144 168 220 260 328
#
# _framework density 17.293824000000001
#
# number of rings (size 3 to 8) (size 9 to 14) (size 15 to 20)
#    0.400    1.333    4.000    2.400    1.867    0.000 
#    2.400    2.000    0.000    0.800    1.733    0.000 
#    0.000    0.000    0.000    0.000    0.000    0.000 
#
# Total GULP energy -371854.719924 kJ/mol
# GULP energy per Si atom -12395.157331 kJ/mol
# Density = 1.725446 g / cm^3
# Si number density = 17.293824 Si / 1000 Ang^3
#
#
#
# Elastic Constant Matrix: (Units=GPa)
#
#
# Indices 1 2 3 4 5 6 
#
# 1 67.6080 24.1249 42.9625 0.0000 -10.4644 0.0000
# 2 24.1249 87.0710 31.6261 0.0000 5.6028 0.0000
# 3 42.9625 31.6261 80.9993 0.0000 -2.0014 0.0000
# 4 0.0000 0.0000 0.0000 20.0417 0.0000 -4.8966
# 5 -10.4644 5.6028 -2.0014 0.0000 29.4649 0.0000
# 6 0.0000 0.0000 0.0000 -4.8966 0.0000 11.2747
#
#
#
# Elastic Compliance Matrix: (Units=1/GPa)
#
#
# Indices 1 2 3 4 5 6 
#
# 1 0.024623 -0.003153 -0.011618 0.000000 0.008555 0.000000
# 2 -0.003153 0.014039 -0.003909 0.000000 -0.004055 0.000000
# 3 -0.011618 -0.003909 0.019984 0.000000 -0.002025 0.000000
# 4 0.000000 0.000000 0.000000 0.055819 0.000000 0.024242
# 5 0.008555 -0.004055 -0.002025 0.000000 0.037611 0.000000
# 6 0.000000 0.000000 0.000000 0.024242 0.000000 0.099222
#
#
# Mechanical properties :
#
#
# Convention : Reuss Voigt Hill
#
# Bulk Modulus (GPa) = 46.97855 48.12281 47.55068
# Shear Modulus (GPa) = 16.90590 21.28724 19.09657
#
# Velocity S-wave (km/s) = 3.13000 3.51225 3.32662
# Velocity P-wave (km/s) = 6.34716 6.65844 6.50466
#
# Compressibility (1/GPa) = 0.02128631
#
# Stress axis : x y z
#
# Youngs Moduli (GPa) = 40.61219 71.22787 50.03918
#
# Poissons Ratio (x) = 0.22459 0.58134
# Poissons Ratio (y) = 0.12805 0.19563
# Poissons Ratio (z) = 0.47182 0.27846
#
# Static dielectric constant tensor:
#      x y z
#    x 3.155920 0.000000 -0.101810 
#    y 0.000000 2.973570 0.000000 
#    z -0.101810 0.000000 3.249840 
# 
# 
# High freq. dielectric constant tensor:
#      x y z
#    x 1.651260 0.000000 -0.022100 
#    y 0.000000 1.641950 0.000000 
#    z -0.022100 0.000000 1.664040 
# 
# From -- ./inp_files/100662.got.cif
#   From: 2010.06.25/outbox.cif.g09.slc.cpg/sg15_51_cif.got.tgz:100662.got - 2010.06.28 07:06:18.
