data_PCOD8131297
_publ_section_title
;
Structure prediction by ZEFSAII (Michael W. Deem and Ramdas Pophale) SiO2 
 PCOD8131297
Probable space group: C 2/C
;
_chemical_formula_sum "Si O2"
_cell_formula_units_Z 48
_cell_length_a 11.461174
_cell_length_b 11.291088
_cell_length_c 23.738796
_cell_angle_alpha 90.000000
_cell_angle_beta 51.198984
_cell_angle_gamma 90.000000
_cell_volume 2394.105187
_symmetry_space_group_name_H-M "C 2/C"
_symmetry_group_IT_number 15
_symmetry_cell_setting 'monoclinic'
loop_
_space_group_symop_operation_xyz
x,y,z
-x,y,1/2-z
-x,-y,-z
x,-y,1/2+z
1/2+x,1/2+y,z
1/2-x,1/2+y,1/2-z
1/2-x,1/2-y,-z
1/2+x,1/2-y,1/2+z
loop_
_atom_site_type_symbol
_atom_site_label
_atom_site_fract_x
_atom_site_fract_y
_atom_site_fract_z
Si Si1 0.123100 0.726322 0.583176
Si Si2 0.304292 0.684849 0.698410
Si Si3 0.849474 0.110767 0.322792
Si Si4 0.916418 0.723244 0.334210
Si Si5 0.148333 0.536041 0.667963
Si Si6 0.814461 0.623695 0.643431
O O1 0.250000 0.750000 0.500000
O O2 0.109402 0.845141 0.626183
O O3 0.168410 0.619896 0.609260
O O4 0.980034 0.678436 0.591371
O O5 0.192940 0.778004 0.703145
O O6 0.471635 0.738837 0.649233
O O7 0.290622 0.562662 0.666210
O O8 0.249333 0.656062 0.776765
O O9 0.000000 0.052370 0.250000
O O10 0.711314 0.016399 0.361710
O O11 0.850681 0.592306 0.360451
O O12 0.777562 0.812065 0.378147
O O13 0.000000 0.731522 0.250000
O O14 0.000000 0.559740 0.750000
#
# Coordination Sequence:
#
# PCOD8131297 Si02
#       6
#     8   8   8   8   8   8
#     4  11  23  40  59  85 122 162 202 245 301 369
#     4  10  18  32  55  86 118 143 192 254 296 352
#     4  11  21  37  63  90 117 154 206 255 303 354
#     4   9  20  31  52  89 114 149 189 249 312 344
#     4  10  18  36  60  82 112 153 197 244 298 346
#     4  11  21  35  57  87 122 151 200 250 301 359
#
# _framework density 20.049244999999999
#
# number of rings (size 3 to 8) (size 9 to 14) (size 15 to 20)
#    0.000    1.667    3.333    3.500    4.667    2.000 
#    0.000    0.833    0.000    5.000    0.000    0.000 
#    0.000    0.000    0.000    0.000    0.000    0.000 
#
# Total GULP energy -297333.415329 kJ/mol
# GULP energy per Si atom -12388.892305 kJ/mol
# Density = 2.000361 g / cm^3
# Si number density = 20.049245 Si / 1000 Ang^3
#
#
#
# Elastic Constant Matrix: (Units=GPa)
#
#
# Indices 1 2 3 4 5 6 
#
# 1 135.5109 49.0098 19.6565 0.0000 -7.2946 0.0000
# 2 49.0098 101.9648 26.2809 0.0000 -3.3172 0.0000
# 3 19.6565 26.2809 67.6393 0.0000 -2.2989 0.0000
# 4 0.0000 0.0000 0.0000 3.7748 0.0000 -3.8861
# 5 -7.2946 -3.3172 -2.2989 0.0000 14.8062 0.0000
# 6 0.0000 0.0000 0.0000 -3.8861 0.0000 42.9643
#
#
#
# Elastic Compliance Matrix: (Units=1/GPa)
#
#
# Indices 1 2 3 4 5 6 
#
# 1 0.009170 -0.004043 -0.000976 0.000000 0.003460 0.000000
# 2 -0.004043 0.012729 -0.003761 0.000000 0.000276 0.000000
# 3 -0.000976 -0.003761 0.016572 0.000000 0.001249 0.000000
# 4 0.000000 0.000000 0.000000 0.292113 0.000000 0.026422
# 5 0.003460 0.000276 0.001249 0.000000 0.069500 0.000000
# 6 0.000000 0.000000 0.000000 0.026422 0.000000 0.025665
#
#
# Mechanical properties :
#
#
# Convention : Reuss Voigt Hill
#
# Bulk Modulus (GPa) = 47.82640 55.00107 51.41373
# Shear Modulus (GPa) = 11.10418 26.32025 18.71221
#
# Velocity S-wave (km/s) = 2.35595 3.62716 3.05833
# Velocity P-wave (km/s) = 5.59526 6.71076 6.17823
#
# Compressibility (1/GPa) = 0.02090895
#
# Stress axis : x y z
#
# Youngs Moduli (GPa) = 109.05531 78.55960 60.34287
#
# Poissons Ratio (x) = 0.31764 0.05891
# Poissons Ratio (y) = 0.44094 0.22698
# Poissons Ratio (z) = 0.10646 0.29550
#
# Static dielectric constant tensor:
#      x y z
#    x 2.757450 0.000000 -0.376210 
#    y 0.000000 3.978500 0.000000 
#    z -0.376210 0.000000 2.937110 
# 
# 
# High freq. dielectric constant tensor:
#      x y z
#    x 1.801140 0.000000 0.010200 
#    y 0.000000 1.793410 0.000000 
#    z 0.010200 0.000000 1.716690 
# 
# From -- ./inp_files/196043.got.cif
#   From: 2010.06.25/outbox.cif.g09.slc.cpg/sg15_99_cif.got.tgz:196043.got - 2010.06.28 07:06:18.
