data_PCOD8131747
_publ_section_title
;
Structure prediction by ZEFSAII (Michael W. Deem and Ramdas Pophale) SiO2 
 PCOD8131747
Probable space group: C 2/C
;
_chemical_formula_sum "Si O2"
_cell_formula_units_Z 60
_cell_length_a 15.663272
_cell_length_b 9.874101
_cell_length_c 23.628526
_cell_angle_alpha 90.000000
_cell_angle_beta 123.213439
_cell_angle_gamma 90.000000
_cell_volume 3057.406320
_symmetry_space_group_name_H-M "C 2/C"
_symmetry_group_IT_number 15
_symmetry_cell_setting 'monoclinic'
loop_
_space_group_symop_operation_xyz
x,y,z
-x,y,1/2-z
-x,-y,-z
x,-y,1/2+z
1/2+x,1/2+y,z
1/2-x,1/2+y,1/2-z
1/2-x,1/2-y,-z
1/2+x,1/2-y,1/2+z
loop_
_atom_site_type_symbol
_atom_site_label
_atom_site_fract_x
_atom_site_fract_y
_atom_site_fract_z
Si Si1 0.145834 0.221194 0.568326
Si Si2 0.202773 0.946003 0.288130
Si Si3 0.579018 0.720564 0.994295
Si Si4 0.690436 0.017728 0.554948
Si Si5 0.945662 0.311250 0.636707
Si Si6 0.000000 0.878875 0.250000
Si Si7 0.822153 0.305086 0.794911
Si Si8 0.252800 0.021062 0.050205
O O1 0.143582 0.368792 0.539665
O O2 0.181599 0.229782 0.646155
O O3 0.029349 0.166906 0.521252
O O4 0.225086 0.127675 0.562985
O O5 0.240251 0.952502 0.365904
O O6 0.079713 0.970165 0.243674
O O7 0.222536 0.798941 0.267523
O O8 0.251298 0.062820 0.267484
O O9 0.578385 0.719896 0.926228
O O10 0.598558 0.873923 0.022414
O O11 0.670670 0.623885 0.047815
O O12 0.755622 0.029052 0.520877
O O13 0.929477 0.216202 0.684932
O O14 0.867366 0.438276 0.611894
O O15 0.063749 0.359267 0.677356
#
# Coordination Sequence:
#
# PCOD8131747 Si02
#       8
#     8   8   8   8   8   4   8   8
#     4  10  21  35  53  81 111 138 171 224 271 307
#     4  10  20  37  56  80 103 140 177 219 263 313
#     4  10  19  34  54  78 107 142 181 215 257 319
#     4  10  20  36  55  76 110 145 175 210 269 326
#     4   9  19  34  53  77 104 144 177 213 262 319
#     4  10  18  34  58  78 106 138 178 220 266 314
#     4   9  21  38  56  75 107 139 179 216 262 317
#     4  11  20  34  56  82 108 137 180 222 258 310
#
# _framework density 19.624476000000001
#
# number of rings (size 3 to 8) (size 9 to 14) (size 15 to 20)
#    0.000    2.133    0.000    4.400    0.000    4.267 
#    0.000    5.333    0.000    0.000    0.000    0.000 
#    0.000    0.000    0.000    0.000    0.000    0.000 
#
# Total GULP energy -371896.639788 kJ/mol
# GULP energy per Si atom -12396.554660 kJ/mol
# Density = 1.957981 g / cm^3
# Si number density = 19.624476 Si / 1000 Ang^3
#
#
#
# Elastic Constant Matrix: (Units=GPa)
#
#
# Indices 1 2 3 4 5 6 
#
# 1 112.0482 59.9453 36.3096 0.0000 14.2512 0.0000
# 2 59.9453 109.0453 50.4034 0.0000 13.0541 0.0000
# 3 36.3096 50.4034 68.6254 0.0000 5.9856 0.0000
# 4 0.0000 0.0000 0.0000 23.9885 0.0000 1.6307
# 5 14.2512 13.0541 5.9856 0.0000 16.1884 0.0000
# 6 0.0000 0.0000 0.0000 1.6307 0.0000 39.5863
#
#
#
# Elastic Compliance Matrix: (Units=1/GPa)
#
#
# Indices 1 2 3 4 5 6 
#
# 1 0.013508 -0.005454 -0.002570 0.000000 -0.006543 0.000000
# 2 -0.005454 0.017074 -0.009168 0.000000 -0.005577 0.000000
# 3 -0.002570 -0.009168 0.022551 0.000000 0.001318 0.000000
# 4 0.000000 0.000000 0.000000 0.041804 0.000000 -0.001722
# 5 -0.006543 -0.005577 0.001318 0.000000 0.071542 0.000000
# 6 0.000000 0.000000 0.000000 -0.001722 0.000000 0.025332
#
#
# Mechanical properties :
#
#
# Convention : Reuss Voigt Hill
#
# Bulk Modulus (GPa) = 53.34166 64.78171 59.06168
# Shear Modulus (GPa) = 21.51036 25.49000 23.50018
#
# Velocity S-wave (km/s) = 3.31433 3.60792 3.46424
# Velocity P-wave (km/s) = 6.47198 7.10200 6.79430
#
# Compressibility (1/GPa) = 0.01874707
#
# Stress axis : x y z
#
# Youngs Moduli (GPa) = 74.03106 58.56735 44.34454
#
# Poissons Ratio (x) = 0.31945 0.11398
# Poissons Ratio (y) = 0.40379 0.40656
# Poissons Ratio (z) = 0.19028 0.53696
#
# Static dielectric constant tensor:
#      x y z
#    x 3.725230 0.000000 0.011160 
#    y 0.000000 3.398360 0.000000 
#    z 0.011160 0.000000 3.536740 
# 
# 
# High freq. dielectric constant tensor:
#      x y z
#    x 1.774390 0.000000 -0.000380 
#    y 0.000000 1.747440 0.000000 
#    z -0.000380 0.000000 1.757790 
# 
# From -- ./inp_files/298408.got.cif
#   From: 2010.06.25/outbox.cif.g09.slc.cpg/sg15_150_cif.got.tgz:298408.got - 2010.06.28 07:06:18.
