data_PCOD8131895
_publ_section_title
;
Structure prediction by ZEFSAII (Michael W. Deem and Ramdas Pophale) SiO2 
 PCOD8131895
Probable space group: C 2/C
;
_chemical_formula_sum "Si O2"
_cell_formula_units_Z 52
_cell_length_a 18.159319
_cell_length_b 18.260637
_cell_length_c 8.513638
_cell_angle_alpha 90.000000
_cell_angle_beta 119.312412
_cell_angle_gamma 90.000000
_cell_volume 2461.664349
_symmetry_space_group_name_H-M "C 2/C"
_symmetry_group_IT_number 15
_symmetry_cell_setting 'monoclinic'
loop_
_space_group_symop_operation_xyz
x,y,z
-x,y,1/2-z
-x,-y,-z
x,-y,1/2+z
1/2+x,1/2+y,z
1/2-x,1/2+y,1/2-z
1/2-x,1/2-y,-z
1/2+x,1/2-y,1/2+z
loop_
_atom_site_type_symbol
_atom_site_label
_atom_site_fract_x
_atom_site_fract_y
_atom_site_fract_z
Si Si1 0.346651 0.185768 0.179128
Si Si2 0.500000 0.739438 0.750000
Si Si3 0.204818 0.743116 0.712820
Si Si4 0.428286 0.596317 0.564246
Si Si5 0.768133 0.094523 0.880377
Si Si6 0.249415 0.450004 0.007474
Si Si7 0.414166 0.645601 0.230085
O O1 0.445437 0.207096 0.309115
O O2 0.294610 0.217369 0.272508
O O3 0.328305 0.222971 0.992787
O O4 0.327551 0.099417 0.139312
O O5 0.436423 0.685357 0.589087
O O6 0.218071 0.670747 0.832958
O O7 0.144893 0.793170 0.754442
O O8 0.500000 0.557867 0.750000
O O9 0.334665 0.571961 0.507262
O O10 0.439315 0.583959 0.388284
O O11 0.768447 0.060790 0.708569
O O12 0.864676 0.105816 0.036875
O O13 0.724796 0.034519 0.949745
O O14 0.500000 0.680185 0.250000
#
# Coordination Sequence:
#
# PCOD8131895 Si02
#       7
#     8   4   8   8   8   8   8
#     4  10  19  36  71  89 119 162 208 265 298 375
#     4  10  18  34  66  98 112 152 210 256 308 354
#     4  10  20  40  63  93 120 161 213 250 313 359
#     4  10  20  37  61  88 125 154 201 253 306 366
#     4  11  25  38  62  89 124 172 204 255 305 382
#     4  11  22  42  61  88 128 168 210 246 321 370
#     4  12  23  38  60  97 128 158 203 261 311 363
#
# _framework density 21.123920999999999
#
# number of rings (size 3 to 8) (size 9 to 14) (size 15 to 20)
#    0.462    0.923    3.077    4.154    2.154    0.615 
#    0.000    3.077    1.692    1.846    0.000    0.000 
#    0.000    0.000    0.000    0.000    0.000    0.000 
#
# Total GULP energy -322093.478760 kJ/mol
# GULP energy per Si atom -12388.210722 kJ/mol
# Density = 2.107584 g / cm^3
# Si number density = 21.123921 Si / 1000 Ang^3
#
#
#
# Elastic Constant Matrix: (Units=GPa)
#
#
# Indices 1 2 3 4 5 6 
#
# 1 74.1566 22.6990 -4.5189 0.0000 -14.7804 0.0000
# 2 22.6990 97.9781 29.5879 0.0000 -2.2470 0.0000
# 3 -4.5189 29.5879 74.3612 0.0000 -15.1765 0.0000
# 4 0.0000 0.0000 0.0000 27.7459 0.0000 -6.6965
# 5 -14.7804 -2.2470 -15.1765 0.0000 22.6010 0.0000
# 6 0.0000 0.0000 0.0000 -6.6965 0.0000 17.9242
#
#
#
# Elastic Compliance Matrix: (Units=1/GPa)
#
#
# Indices 1 2 3 4 5 6 
#
# 1 0.019099 -0.006156 0.006993 0.000000 0.016574 0.000000
# 2 -0.006156 0.013685 -0.007374 0.000000 -0.007617 0.000000
# 3 0.006993 -0.007374 0.020384 0.000000 0.017528 0.000000
# 4 0.000000 0.000000 0.000000 0.039613 0.000000 0.014799
# 5 0.016574 -0.007617 0.017528 0.000000 0.066097 0.000000
# 6 0.000000 0.000000 0.000000 0.014799 0.000000 0.061320
#
#
# Mechanical properties :
#
#
# Convention : Reuss Voigt Hill
#
# Bulk Modulus (GPa) = 24.94201 38.00354 31.47277
# Shear Modulus (GPa) = 20.27273 26.90274 23.58774
#
# Velocity S-wave (km/s) = 3.10127 3.57258 3.34524
# Velocity P-wave (km/s) = 4.96558 5.92010 5.46372
#
# Compressibility (1/GPa) = 0.04009300
#
# Stress axis : x y z
#
# Youngs Moduli (GPa) = 52.35904 73.07431 49.05795
#
# Poissons Ratio (x) = 0.44987 -0.34305
# Poissons Ratio (y) = 0.32234 0.36174
# Poissons Ratio (z) = -0.36613 0.53883
#
# Static dielectric constant tensor:
#      x y z
#    x 3.763030 0.000000 -0.034820 
#    y 0.000000 3.941280 0.000000 
#    z -0.034820 0.000000 4.056880 
# 
# 
# High freq. dielectric constant tensor:
#      x y z
#    x 1.806080 0.000000 -0.008150 
#    y 0.000000 1.817970 0.000000 
#    z -0.008150 0.000000 1.830310 
# 
# From -- ./inp_files/48664.got.cif
#   From: 2010.06.25/outbox.cif.g09.slc.cpg/sg15_25_cif.got.tgz:48664.got - 2010.06.28 07:06:18.
