data_PCOD8131629
_publ_section_title
;
Structure prediction by ZEFSAII (Michael W. Deem and Ramdas Pophale) SiO2 
 PCOD8131629
Probable space group: C 2/C
;
_chemical_formula_sum "Si O2"
_cell_formula_units_Z 60
_cell_length_a 27.108751
_cell_length_b 24.486443
_cell_length_c 16.566771
_cell_angle_alpha 90.000000
_cell_angle_beta 163.235740
_cell_angle_gamma 90.000000
_cell_volume 3171.906750
_symmetry_space_group_name_H-M "C 2/C"
_symmetry_group_IT_number 15
_symmetry_cell_setting 'monoclinic'
loop_
_space_group_symop_operation_xyz
x,y,z
-x,y,1/2-z
-x,-y,-z
x,-y,1/2+z
1/2+x,1/2+y,z
1/2-x,1/2+y,1/2-z
1/2-x,1/2-y,-z
1/2+x,1/2-y,1/2+z
loop_
_atom_site_type_symbol
_atom_site_label
_atom_site_fract_x
_atom_site_fract_y
_atom_site_fract_z
Si Si1 0.153831 0.855908 0.800179
Si Si2 0.500000 0.535198 0.250000
Si Si3 0.668815 0.813334 0.568038
Si Si4 0.166944 0.404814 0.182797
Si Si5 0.907530 0.980845 0.775795
Si Si6 0.609087 0.308665 0.000205
Si Si7 0.022700 0.497424 0.193165
Si Si8 0.502627 0.884239 0.425687
O O1 0.175269 0.838069 0.740195
O O2 0.078925 0.915910 0.694321
O O3 0.022992 0.811865 0.632507
O O4 0.333952 0.854708 0.127731
O O5 0.674447 0.570332 0.517729
O O6 0.500439 0.501730 0.165335
O O7 0.698282 0.750181 0.635489
O O8 0.657612 0.847077 0.634781
O O9 0.500000 0.821111 0.250000
O O10 0.237939 0.352262 0.246494
O O11 0.015311 0.386058 0.005728
O O12 0.089419 0.448997 0.999941
O O13 0.720198 0.007240 0.481469
O O14 0.000000 0.000000 0.000000
O O15 0.500000 0.322570 0.750000
O O16 0.000000 0.480731 0.250000
O O17 0.959572 0.445995 0.042841
#
# Coordination Sequence:
#
# PCOD8131629 Si02
#       8
#     8   4   8   8   8   8   8   8
#     4  10  18  34  50  76 112 142 182 224 284 337
#     4  12  20  36  54  78 116 154 186 224 282 334
#     4   9  21  29  50  79 110 147 179 226 282 336
#     4  12  20  35  55  80 112 150 184 223 280 336
#     4  11  22  38  58  83 113 150 187 237 286 338
#     4  11  19  32  51  77 110 148 183 223 275 340
#     4  11  23  36  56  80 114 143 189 232 281 340
#     4  10  18  34  52  77 110 142 175 227 283 333
#
# _framework density 18.916067999999999
#
# number of rings (size 3 to 8) (size 9 to 14) (size 15 to 20)
#    0.000    1.333    6.000    3.200    1.867    1.600 
#    0.000    0.000    0.000    0.000    0.000    3.733 
#    0.000    0.000    0.000    0.000    0.000    0.000 
#
# Total GULP energy -371826.937489 kJ/mol
# GULP energy per Si atom -12394.231250 kJ/mol
# Density = 1.887301 g / cm^3
# Si number density = 18.916068 Si / 1000 Ang^3
#
#
#
# Elastic Constant Matrix: (Units=GPa)
#
#
# Indices 1 2 3 4 5 6 
#
# 1 138.5699 31.6713 23.2883 0.0000 27.2376 0.0000
# 2 31.6713 82.3926 32.8103 0.0000 9.1370 0.0000
# 3 23.2883 32.8103 34.2600 0.0000 3.7334 0.0000
# 4 0.0000 0.0000 0.0000 17.9291 0.0000 1.9460
# 5 27.2376 9.1370 3.7334 0.0000 22.9825 0.0000
# 6 0.0000 0.0000 0.0000 1.9460 0.0000 27.4757
#
#
#
# Elastic Compliance Matrix: (Units=1/GPa)
#
#
# Indices 1 2 3 4 5 6 
#
# 1 0.010471 -0.000693 -0.005224 0.000000 -0.011286 0.000000
# 2 -0.000693 0.020207 -0.018421 0.000000 -0.004220 0.000000
# 3 -0.005224 -0.018421 0.049790 0.000000 0.005427 0.000000
# 4 0.000000 0.000000 0.000000 0.056207 0.000000 -0.003981
# 5 -0.011286 -0.004220 0.005427 0.000000 0.057683 0.000000
# 6 0.000000 0.000000 0.000000 -0.003981 0.000000 0.036678
#
#
# Mechanical properties :
#
#
# Convention : Reuss Voigt Hill
#
# Bulk Modulus (GPa) = 31.45500 47.86250 39.65875
# Shear Modulus (GPa) = 17.22296 24.84095 21.03196
#
# Velocity S-wave (km/s) = 3.02071 3.62777 3.33807
# Velocity P-wave (km/s) = 5.36946 6.55020 5.98900
#
# Compressibility (1/GPa) = 0.03179145
#
# Stress axis : x y z
#
# Youngs Moduli (GPa) = 95.49840 49.48786 20.08445
#
# Poissons Ratio (x) = 0.03430 0.10493
# Poissons Ratio (y) = 0.06620 0.36997
# Poissons Ratio (z) = 0.49891 0.91161
#
# Static dielectric constant tensor:
#      x y z
#    x 3.788780 0.000000 0.353140 
#    y 0.000000 3.264990 0.000000 
#    z 0.353140 0.000000 3.067550 
# 
# 
# High freq. dielectric constant tensor:
#      x y z
#    x 1.753710 0.000000 0.035660 
#    y 0.000000 1.723540 0.000000 
#    z 0.035660 0.000000 1.674700 
# 
# From -- ./inp_files/174938.got.cif
#   From: 2010.06.25/outbox.cif.g09.slc.cpg/sg15_88_cif.got.tgz:174938.got - 2010.06.28 07:06:18.
