data_PCOD8131162
_publ_section_title
;
Structure prediction by ZEFSAII (Michael W. Deem and Ramdas Pophale) SiO2 
 PCOD8131162
Probable space group: C 2/C
;
_chemical_formula_sum "Si O2"
_cell_formula_units_Z 48
_cell_length_a 28.903396
_cell_length_b 21.143404
_cell_length_c 18.801990
_cell_angle_alpha 90.000000
_cell_angle_beta 15.334765
_cell_angle_gamma 90.000000
_cell_volume 3038.678370
_symmetry_space_group_name_H-M "C 2/C"
_symmetry_group_IT_number 15
_symmetry_cell_setting 'monoclinic'
loop_
_space_group_symop_operation_xyz
x,y,z
-x,y,1/2-z
-x,-y,-z
x,-y,1/2+z
1/2+x,1/2+y,z
1/2-x,1/2+y,1/2-z
1/2-x,1/2-y,-z
1/2+x,1/2-y,1/2+z
loop_
_atom_site_type_symbol
_atom_site_label
_atom_site_fract_x
_atom_site_fract_y
_atom_site_fract_z
Si Si1 0.529527 0.998803 0.128752
Si Si2 0.278511 0.473322 0.012810
Si Si3 0.643299 0.835491 0.203408
Si Si4 0.298061 0.216944 0.034416
Si Si5 0.343169 0.509757 0.073398
Si Si6 0.304505 0.125714 0.145953
O O1 0.500000 0.030504 0.250000
O O2 0.357777 0.009508 0.335684
O O3 0.562390 0.923446 0.090927
O O4 0.700302 0.027199 0.834673
O O5 0.227547 0.401206 0.103413
O O6 0.281429 0.508777 0.083556
O O7 0.469035 0.477754 0.693328
O O8 0.727675 0.818514 0.002073
O O9 0.431037 0.837801 0.514285
O O10 0.692982 0.782900 0.188443
O O11 0.500000 0.231846 0.750000
O O12 0.220377 0.173349 0.213155
O O13 0.346139 0.584723 0.091078
#
# Coordination Sequence:
#
# PCOD8131162 Si02
#       6
#     8   8   8   8   8   8
#     4   9  17  30  47  66  97 133 158 201 241 288
#     4  10  18  32  46  73 100 128 168 198 244 291
#     4   9  17  26  47  66  98 129 151 205 244 291
#     4   9  16  28  42  68  95 129 159 189 251 297
#     4   9  20  29  48  70  99 138 163 201 239 297
#     4   8  16  30  44  65  95 131 159 185 241 295
#
# _framework density 15.796341
#
# number of rings (size 3 to 8) (size 9 to 14) (size 15 to 20)
#    1.000    2.000    0.000    3.000    2.333    0.667 
#    0.000    0.000    0.000    0.000    0.000    4.667 
#    5.000    0.000    0.000    0.000    0.000    0.000 
#
# Total GULP energy -297342.849653 kJ/mol
# GULP energy per Si atom -12389.285402 kJ/mol
# Density = 1.576039 g / cm^3
# Si number density = 15.796341 Si / 1000 Ang^3
#
#
#
# Elastic Constant Matrix: (Units=GPa)
#
#
# Indices 1 2 3 4 5 6 
#
# 1 82.1648 28.8503 36.8018 0.0211 1.7163 -0.0205
# 2 28.8503 62.4765 8.8140 -0.0004 -1.0608 0.0041
# 3 36.8018 8.8140 75.0819 0.0326 4.6581 -0.0399
# 4 0.0211 -0.0004 0.0326 15.1019 -0.0046 -0.7037
# 5 1.7163 -1.0608 4.6581 -0.0046 18.2758 0.0126
# 6 -0.0205 0.0041 -0.0399 -0.7037 0.0126 31.1856
#
#
#
# Elastic Compliance Matrix: (Units=1/GPa)
#
#
# Indices 1 2 3 4 5 6 
#
# 1 0.018405 -0.007350 -0.008154 -0.000008 -0.000077 0.000002
# 2 -0.007350 0.019249 0.001251 0.000008 0.001489 -0.000006
# 3 -0.008154 0.001251 0.017392 -0.000026 -0.003594 0.000018
# 4 -0.000008 0.000008 -0.000026 0.066287 0.000024 0.001496
# 5 -0.000077 0.001489 -0.003594 0.000024 0.055727 -0.000027
# 6 0.000002 -0.000006 0.000018 0.001496 -0.000027 0.032100
#
#
# Mechanical properties :
#
#
# Convention : Reuss Voigt Hill
#
# Bulk Modulus (GPa) = 37.67997 40.96171 39.32084
# Shear Modulus (GPa) = 20.28294 22.59644 21.43969
#
# Velocity S-wave (km/s) = 3.58722 3.78628 3.68809
# Velocity P-wave (km/s) = 6.40804 6.71580 6.56372
#
# Compressibility (1/GPa) = 0.02653930
#
# Stress axis : x y z
#
# Youngs Moduli (GPa) = 54.33244 51.95074 57.49893
#
# Poissons Ratio (x) = 0.38184 0.46884
# Poissons Ratio (y) = 0.39935 -0.07191
# Poissons Ratio (z) = 0.44302 -0.06497
#
# Static dielectric constant tensor:
#      x y z
#    x 2.993960 -0.000040 -0.116690 
#    y -0.000040 2.801410 0.000090 
#    z -0.116690 0.000090 2.801660 
# 
# 
# High freq. dielectric constant tensor:
#      x y z
#    x 1.610420 0.000000 -0.014640 
#    y 0.000000 1.575460 0.000010 
#    z -0.014640 0.000010 1.578760 
# 
# From -- ./inp_files/223052.got.cif
#   From: 2010.06.25/outbox.cif.g09.slc.cpg/sg15_112_cif.got.tgz:223052.got - 2010.06.28 07:06:18.
