data_PCOD8131415
_publ_section_title
;
Structure prediction by ZEFSAII (Michael W. Deem and Ramdas Pophale) SiO2 
 PCOD8131415
Probable space group: C 2/C
;
_chemical_formula_sum "Si O2"
_cell_formula_units_Z 60
_cell_length_a 29.048469
_cell_length_b 13.612774
_cell_length_c 25.850643
_cell_angle_alpha 90.000000
_cell_angle_beta 159.228832
_cell_angle_gamma 90.000000
_cell_volume 3625.139015
_symmetry_space_group_name_H-M "C 2/C"
_symmetry_group_IT_number 15
_symmetry_cell_setting 'monoclinic'
loop_
_space_group_symop_operation_xyz
x,y,z
-x,y,1/2-z
-x,-y,-z
x,-y,1/2+z
1/2+x,1/2+y,z
1/2-x,1/2+y,1/2-z
1/2-x,1/2-y,-z
1/2+x,1/2-y,1/2+z
loop_
_atom_site_type_symbol
_atom_site_label
_atom_site_fract_x
_atom_site_fract_y
_atom_site_fract_z
Si Si1 0.611761 0.648375 0.227040
Si Si2 0.416881 0.913995 0.470305
Si Si3 0.866181 0.523031 0.510785
Si Si4 0.828107 0.089069 0.923629
Si Si5 0.000000 0.443614 0.250000
Si Si6 0.189297 0.567822 0.218852
Si Si7 0.201525 0.750930 0.721368
Si Si8 0.891251 0.356504 0.231087
O O1 0.727298 0.575061 0.363145
O O2 0.616693 0.685643 0.172712
O O3 0.615645 0.740193 0.269522
O O4 0.478171 0.590864 0.096844
O O5 0.570963 0.926578 0.634460
O O6 0.387741 0.812620 0.410706
O O7 0.365330 0.923282 0.475343
O O8 0.349924 0.006028 0.372349
O O9 0.909542 0.493568 0.615204
O O10 0.976026 0.599203 0.603495
O O11 0.798102 0.180932 0.854527
O O12 0.735991 0.094010 0.877268
O O13 0.807036 0.986017 0.871942
O O14 0.100614 0.377446 0.322003
O O15 0.221940 0.677016 0.235696
#
# Coordination Sequence:
#
# PCOD8131415 Si02
#       8
#     8   8   8   8   4   8   8   8
#     4  11  20  31  49  75 114 134 164 215 260 304
#     4  10  19  32  53  71 100 144 179 203 258 308
#     4  10  19  37  51  72 101 138 173 219 251 306
#     4  10  20  32  50  75 105 141 169 207 263 306
#     4   8  20  34  56  72  94 136 190 210 250 316
#     4  10  18  33  50  71 105 139 176 210 244 315
#     4  10  20  31  49  76 104 144 176 205 252 308
#     4   9  18  35  52  71  98 138 174 208 254 311
#
# _framework density 16.551089999999999
#
# number of rings (size 3 to 8) (size 9 to 14) (size 15 to 20)
#    0.800    1.333    2.667    2.400    1.867    1.067 
#    2.400    0.000    0.000    0.000    0.000    3.733 
#    0.000    0.000    0.000    0.000    0.000    0.000 
#
# Total GULP energy -371745.468075 kJ/mol
# GULP energy per Si atom -12391.515603 kJ/mol
# Density = 1.651342 g / cm^3
# Si number density = 16.551090 Si / 1000 Ang^3
#
#
#
# Elastic Constant Matrix: (Units=GPa)
#
#
# Indices 1 2 3 4 5 6 
#
# 1 104.9886 29.3779 46.3163 0.0039 -6.6950 0.0014
# 2 29.3779 44.3700 20.4799 0.0044 -6.2543 0.0021
# 3 46.3163 20.4799 102.5894 0.0069 9.0566 0.0034
# 4 0.0039 0.0044 0.0069 14.1556 0.0046 1.1531
# 5 -6.6950 -6.2543 9.0566 0.0046 19.6921 0.0018
# 6 0.0014 0.0021 0.0034 1.1531 0.0018 24.1660
#
#
#
# Elastic Compliance Matrix: (Units=1/GPa)
#
#
# Indices 1 2 3 4 5 6 
#
# 1 0.014010 -0.005906 -0.005630 -0.000001 0.005477 0.000000
# 2 -0.005906 0.029633 -0.004068 -0.000008 0.009275 -0.000002
# 3 -0.005630 -0.004068 0.013951 -0.000001 -0.009622 -0.000001
# 4 -0.000001 -0.000008 -0.000001 0.070919 -0.000019 -0.003384
# 5 0.005477 0.009275 -0.009622 -0.000019 0.060015 -0.000003
# 6 0.000000 -0.000002 -0.000001 -0.003384 -0.000003 0.041542
#
#
# Mechanical properties :
#
#
# Convention : Reuss Voigt Hill
#
# Bulk Modulus (GPa) = 37.89769 49.36627 43.63198
# Shear Modulus (GPa) = 18.51353 21.98768 20.25060
#
# Velocity S-wave (km/s) = 3.34813 3.64878 3.50168
# Velocity P-wave (km/s) = 6.15579 6.90237 6.53974
#
# Compressibility (1/GPa) = 0.02638684
#
# Stress axis : x y z
#
# Youngs Moduli (GPa) = 71.37629 33.74599 71.68034
#
# Poissons Ratio (x) = 0.19930 0.40354
# Poissons Ratio (y) = 0.42154 0.29160
# Poissons Ratio (z) = 0.40183 0.13728
#
# Static dielectric constant tensor:
#      x y z
#    x 3.050650 0.000000 0.079620 
#    y 0.000000 2.877160 0.000000 
#    z 0.079620 0.000000 2.991250 
# 
# 
# High freq. dielectric constant tensor:
#      x y z
#    x 1.629040 0.000000 0.012720 
#    y 0.000000 1.606220 0.000000 
#    z 0.012720 0.000000 1.629790 
# 
# From -- ./inp_files/304361.got.cif
#   From: 2010.06.25/outbox.cif.g09.slc.cpg/sg15_153_cif.got.tgz:304361.got - 2010.06.28 07:06:18.
