data_PCOD8131644
_publ_section_title
;
Structure prediction by ZEFSAII (Michael W. Deem and Ramdas Pophale) SiO2 
 PCOD8131644
Probable space group: C 2/C
;
_chemical_formula_sum "Si O2"
_cell_formula_units_Z 64
_cell_length_a 16.908769
_cell_length_b 20.638438
_cell_length_c 19.744443
_cell_angle_alpha 90.000000
_cell_angle_beta 149.038480
_cell_angle_gamma 90.000000
_cell_volume 3544.763321
_symmetry_space_group_name_H-M "C 2/C"
_symmetry_group_IT_number 15
_symmetry_cell_setting 'monoclinic'
loop_
_space_group_symop_operation_xyz
x,y,z
-x,y,1/2-z
-x,-y,-z
x,-y,1/2+z
1/2+x,1/2+y,z
1/2-x,1/2+y,1/2-z
1/2-x,1/2-y,-z
1/2+x,1/2-y,1/2+z
loop_
_atom_site_type_symbol
_atom_site_label
_atom_site_fract_x
_atom_site_fract_y
_atom_site_fract_z
Si Si1 0.583019 0.661435 0.508678
Si Si2 0.543751 0.085819 0.492030
Si Si3 0.761778 0.477649 0.837697
Si Si4 0.572382 0.032801 0.232134
Si Si5 0.433482 0.880177 0.274724
Si Si6 0.619457 0.556123 0.091253
Si Si7 0.422289 0.812708 0.990622
Si Si8 0.411068 0.634156 0.249569
O O1 0.757158 0.641424 0.651101
O O2 0.468164 0.624741 0.476433
O O3 0.550902 0.736674 0.492027
O O4 0.537294 0.637072 0.400810
O O5 0.432672 0.052989 0.467787
O O6 0.502102 0.075787 0.382712
O O7 0.529029 0.160273 0.506453
O O8 0.715586 0.054446 0.630178
O O9 0.713522 0.457558 0.727860
O O10 0.644834 0.441065 0.803062
O O11 0.500000 0.053297 0.250000
O O12 0.752958 0.050841 0.373867
O O13 0.549184 0.956835 0.199285
O O14 0.500000 0.861444 0.250000
O O15 0.529971 0.840985 0.401335
O O16 0.500000 0.500000 0.000000
O O17 0.240016 0.823776 0.844262
O O18 0.500000 0.660862 0.250000
#
# Coordination Sequence:
#
# PCOD8131644 Si02
#       8
#     8   8   8   8   8   8   8   8
#     4  11  23  34  52  81 108 146 187 221 268 323
#     4   9  17  33  55  73  99 133 186 225 263 316
#     4   8  16  30  51  73  94 136 178 215 256 305
#     4  10  20  35  58  83 103 134 182 233 283 323
#     4  11  22  34  52  82 115 147 184 224 261 319
#     4  10  18  34  53  75 106 135 173 229 276 308
#     4  11  22  36  53  75 110 153 189 212 260 339
#     4  10  20  34  50  75 114 150 179 216 265 318
#
# _framework density 18.054801999999999
#
# number of rings (size 3 to 8) (size 9 to 14) (size 15 to 20)
#    0.000    2.000    1.250    5.250    0.000    4.000 
#    0.000    0.000    0.000    0.750    0.000    0.875 
#    0.000    0.000    0.000    0.000    0.000    0.000 
#
# Total GULP energy -396446.975897 kJ/mol
# GULP energy per Si atom -12388.967997 kJ/mol
# Density = 1.801371 g / cm^3
# Si number density = 18.054802 Si / 1000 Ang^3
#
#
#
# Elastic Constant Matrix: (Units=GPa)
#
#
# Indices 1 2 3 4 5 6 
#
# 1 94.3792 50.3883 21.8716 0.0003 3.4198 0.0068
# 2 50.3883 92.3555 15.2048 0.0115 1.8274 0.0063
# 3 21.8716 15.2048 60.3907 -0.0233 4.2971 -0.0005
# 4 0.0003 0.0115 -0.0233 17.7125 -0.0032 2.3595
# 5 3.4198 1.8274 4.2971 -0.0032 24.9244 0.0064
# 6 0.0068 0.0063 -0.0005 2.3595 0.0064 12.9246
#
#
#
# Elastic Compliance Matrix: (Units=1/GPa)
#
#
# Indices 1 2 3 4 5 6 
#
# 1 0.015720 -0.007962 -0.003621 0.000000 -0.000949 -0.000004
# 2 -0.007962 0.015331 -0.000986 -0.000011 0.000138 -0.000001
# 3 -0.003621 -0.000986 0.018303 0.000024 -0.002586 0.000000
# 4 0.000000 -0.000011 0.000024 0.057865 0.000007 -0.010564
# 5 -0.000949 0.000138 -0.002586 0.000007 0.040687 -0.000021
# 6 -0.000004 -0.000001 0.000000 -0.010564 -0.000021 0.079300
#
#
# Mechanical properties :
#
#
# Convention : Reuss Voigt Hill
#
# Bulk Modulus (GPa) = 41.29624 46.89498 44.09561
# Shear Modulus (GPa) = 19.20006 21.75634 20.47820
#
# Velocity S-wave (km/s) = 3.26457 3.47510 3.37148
# Velocity P-wave (km/s) = 6.09362 6.49090 6.29540
#
# Compressibility (1/GPa) = 0.02421528
#
# Stress axis : x y z
#
# Youngs Moduli (GPa) = 63.61426 65.22662 54.63681
#
# Poissons Ratio (x) = 0.51931 0.19785
# Poissons Ratio (y) = 0.50647 0.05389
# Poissons Ratio (z) = 0.23036 0.06434
#
# Static dielectric constant tensor:
#      x y z
#    x 3.333980 0.000000 0.170770 
#    y 0.000000 3.467360 0.000000 
#    z 0.170770 0.000000 3.386230 
# 
# 
# High freq. dielectric constant tensor:
#      x y z
#    x 1.673530 0.000000 0.001970 
#    y 0.000000 1.682040 0.000000 
#    z 0.001970 0.000000 1.711890 
# 
# From -- ./inp_files/249646.got.cif
#   From: 2010.06.25/outbox.cif.g09.slc.cpg/sg15_125_cif.got.tgz:249646.got - 2010.06.28 07:06:18.
