data_PCOD8131037
_publ_section_title
;
Structure prediction by ZEFSAII (Michael W. Deem and Ramdas Pophale) SiO2 
 PCOD8131037
Probable space group: C 2/C
;
_chemical_formula_sum "Si O2"
_cell_formula_units_Z 60
_cell_length_a 21.642712
_cell_length_b 26.819547
_cell_length_c 13.324516
_cell_angle_alpha 90.000000
_cell_angle_beta 157.527884
_cell_angle_gamma 90.000000
_cell_volume 2956.266684
_symmetry_space_group_name_H-M "C 2/C"
_symmetry_group_IT_number 15
_symmetry_cell_setting 'monoclinic'
loop_
_space_group_symop_operation_xyz
x,y,z
-x,y,1/2-z
-x,-y,-z
x,-y,1/2+z
1/2+x,1/2+y,z
1/2-x,1/2+y,1/2-z
1/2-x,1/2-y,-z
1/2+x,1/2-y,1/2+z
loop_
_atom_site_type_symbol
_atom_site_label
_atom_site_fract_x
_atom_site_fract_y
_atom_site_fract_z
Si Si1 0.691798 0.092257 0.202538
Si Si2 0.676155 0.014732 0.000404
Si Si3 0.343378 0.930032 0.228007
Si Si4 0.124733 0.234487 0.229325
Si Si5 0.106940 0.961038 0.043344
Si Si6 0.500000 0.544403 0.750000
Si Si7 0.584210 0.362346 0.776432
Si Si8 0.618527 0.797480 0.524708
O O1 0.696023 0.062023 0.104856
O O2 0.843615 0.080171 0.502747
O O3 0.684348 0.150129 0.162896
O O4 0.533767 0.076962 0.029783
O O5 0.816762 0.974601 0.234622
O O6 0.500000 0.990337 0.750000
O O7 0.698355 0.030668 0.920435
O O8 0.261369 0.952715 0.203138
O O9 0.267899 0.876194 0.083194
O O10 0.250000 0.250000 0.500000
O O11 0.073431 0.177290 0.171889
O O12 0.221259 0.235162 0.267869
O O13 0.968315 0.270047 0.010283
O O14 0.000455 0.912057 0.891656
O O15 0.995391 0.006751 0.838252
O O16 0.500000 0.340589 0.750000
O O17 0.500000 0.803962 0.250000
#
# Coordination Sequence:
#
# PCOD8131037 Si02
#       8
#     8   8   8   8   8   4   8   8
#     4  10  20  33  56  76 110 143 190 227 282 335
#     4   9  19  32  50  76 102 143 186 230 270 334
#     4  10  18  33  55  74 106 150 183 230 287 341
#     4  10  19  31  53  80 116 139 180 233 296 349
#     4  10  20  36  49  77 116 142 191 234 280 341
#     4  10  20  38  48  78 112 148 190 236 270 338
#     4  10  18  31  50  79 112 142 176 231 296 341
#     4  10  19  34  54  86 112 140 183 239 291 357
#
# _framework density 20.295867999999999
#
# number of rings (size 3 to 8) (size 9 to 14) (size 15 to 20)
#    0.000    2.133    2.000    4.800    0.000    6.400 
#    2.400    0.000    0.000    0.800    1.733    0.000 
#    0.000    0.000    0.000    0.000    0.000    0.000 
#
# Total GULP energy -371729.089171 kJ/mol
# GULP energy per Si atom -12390.969639 kJ/mol
# Density = 2.024967 g / cm^3
# Si number density = 20.295868 Si / 1000 Ang^3
#
#
#
# Elastic Constant Matrix: (Units=GPa)
#
#
# Indices 1 2 3 4 5 6 
#
# 1 49.4688 24.0998 31.5314 0.0000 23.6503 0.0000
# 2 24.0998 100.0487 48.6040 0.0000 9.8030 0.0000
# 3 31.5314 48.6040 126.6215 0.0000 13.2292 0.0000
# 4 0.0000 0.0000 0.0000 19.2190 0.0000 7.3234
# 5 23.6503 9.8030 13.2292 0.0000 30.7778 0.0000
# 6 0.0000 0.0000 0.0000 7.3234 0.0000 5.9760
#
#
#
# Elastic Compliance Matrix: (Units=1/GPa)
#
#
# Indices 1 2 3 4 5 6 
#
# 1 0.037627 -0.004071 -0.005153 0.000000 -0.025402 0.000000
# 2 -0.004071 0.012842 -0.003995 0.000000 0.000755 0.000000
# 3 -0.005153 -0.003995 0.010646 0.000000 0.000656 0.000000
# 4 0.000000 0.000000 0.000000 0.097614 0.000000 -0.119622
# 5 -0.025402 0.000755 0.000656 0.000000 0.051488 0.000000
# 6 0.000000 0.000000 0.000000 -0.119622 0.000000 0.313928
#
#
# Mechanical properties :
#
#
# Convention : Reuss Voigt Hill
#
# Bulk Modulus (GPa) = 28.83774 53.84549 41.34162
# Shear Modulus (GPa) = 8.89456 22.65481 15.77469
#
# Velocity S-wave (km/s) = 2.09570 3.34462 2.79092
# Velocity P-wave (km/s) = 4.48280 6.44230 5.54972
#
# Compressibility (1/GPa) = 0.03467678
#
# Stress axis : x y z
#
# Youngs Moduli (GPa) = 26.57665 77.86670 93.93559
#
# Poissons Ratio (x) = 0.31702 0.48407
# Poissons Ratio (y) = 0.10820 0.37524
# Poissons Ratio (z) = 0.13696 0.31105
#
# Static dielectric constant tensor:
#      x y z
#    x 0.000000 0.000000 0.000000 
#    y 0.000000 0.000000 0.000000 
#    z 0.000000 0.000000 0.000000 
# 
# 
# High freq. dielectric constant tensor:
#      x y z
#    x 1.782120 0.000000 0.043530 
#    y 0.000000 1.781990 0.000000 
#    z 0.043530 0.000000 1.776700 
# 
# From -- ./inp_files/174935.got.cif
#   From: 2010.06.25/outbox.cif.g09.slc.cpg/sg15_88_cif.got.tgz:174935.got - 2010.06.28 07:06:18.
