data_PCOD8131150
_publ_section_title
;
Structure prediction by ZEFSAII (Michael W. Deem and Ramdas Pophale) SiO2 
 PCOD8131150
Probable space group: C 2/C
;
_chemical_formula_sum "Si O2"
_cell_formula_units_Z 60
_cell_length_a 11.037813
_cell_length_b 17.081723
_cell_length_c 18.303695
_cell_angle_alpha 90.000000
_cell_angle_beta 101.593564
_cell_angle_gamma 90.000000
_cell_volume 3380.658420
_symmetry_space_group_name_H-M "C 2/C"
_symmetry_group_IT_number 15
_symmetry_cell_setting 'monoclinic'
loop_
_space_group_symop_operation_xyz
x,y,z
-x,y,1/2-z
-x,-y,-z
x,-y,1/2+z
1/2+x,1/2+y,z
1/2-x,1/2+y,1/2-z
1/2-x,1/2-y,-z
1/2+x,1/2-y,1/2+z
loop_
_atom_site_type_symbol
_atom_site_label
_atom_site_fract_x
_atom_site_fract_y
_atom_site_fract_z
Si Si1 0.325899 0.254876 0.110472
Si Si2 0.503211 0.689241 0.510915
Si Si3 0.936399 0.664606 0.932283
Si Si4 0.093729 0.955228 0.559892
Si Si5 0.500000 0.676670 0.750000
Si Si6 0.934026 0.558785 0.666415
Si Si7 0.153652 0.096781 0.647351
Si Si8 0.145394 0.417602 0.937989
O O1 0.380362 0.296073 0.044842
O O2 0.189573 0.290260 0.104699
O O3 0.413933 0.270081 0.189699
O O4 0.327530 0.161424 0.103936
O O5 0.536406 0.772029 0.476695
O O6 0.461672 0.632065 0.439041
O O7 0.611479 0.652698 0.574238
O O8 0.988734 0.624589 0.866796
O O9 0.919414 0.598562 0.992502
O O10 0.222592 0.957323 0.531382
O O11 0.108821 0.005830 0.635450
O O12 0.000000 0.000000 0.500000
O O13 0.594259 0.624013 0.715297
O O14 0.801236 0.597149 0.667377
O O15 0.933935 0.478392 0.619997
O O16 0.000000 0.538731 0.750000
#
# Coordination Sequence:
#
# PCOD8131150 Si02
#       8
#     8   8   8   8   4   8   8   8
#     4  10  18  31  58  84 103 139 191 230 267 317
#     4   9  16  32  56  84 101 132 186 235 264 313
#     4  11  19  34  60  82 109 141 187 233 277 325
#     4   9  15  29  53  79 105 126 169 229 277 305
#     4  10  20  34  54  80 106 144 186 226 264 332
#     4  11  24  37  51  78 120 155 174 215 290 349
#     4   9  20  34  53  78 109 141 178 225 275 326
#     4  10  19  35  55  84 106 139 191 228 273 323
#
# _framework density 17.748023
#
# number of rings (size 3 to 8) (size 9 to 14) (size 15 to 20)
#    0.000    2.133    2.667    2.000    0.933    0.533 
#    0.000    0.000    1.467    0.000    0.000    0.000 
#    0.000    0.000    0.000    0.000    0.000    0.000 
#
# Total GULP energy -371715.805921 kJ/mol
# GULP energy per Si atom -12390.526864 kJ/mol
# Density = 1.770763 g / cm^3
# Si number density = 17.748023 Si / 1000 Ang^3
#
#
#
# Elastic Constant Matrix: (Units=GPa)
#
#
# Indices 1 2 3 4 5 6 
#
# 1 83.5645 42.3441 40.5043 0.0000 7.2044 0.0000
# 2 42.3441 93.8807 45.6087 0.0000 2.5948 0.0000
# 3 40.5043 45.6087 87.7941 0.0000 3.0704 0.0000
# 4 0.0000 0.0000 0.0000 22.5258 0.0000 0.4590
# 5 7.2044 2.5948 3.0704 0.0000 25.1683 0.0000
# 6 0.0000 0.0000 0.0000 0.4590 0.0000 26.1474
#
#
#
# Elastic Compliance Matrix: (Units=1/GPa)
#
#
# Indices 1 2 3 4 5 6 
#
# 1 0.017479 -0.005251 -0.005203 0.000000 -0.003827 0.000000
# 2 -0.005251 0.015833 -0.005823 0.000000 0.000581 0.000000
# 3 -0.005203 -0.005823 0.016814 0.000000 0.000038 0.000000
# 4 0.000000 0.000000 0.000000 0.044409 0.000000 -0.000780
# 5 -0.003827 0.000581 0.000038 0.000000 0.040764 0.000000
# 6 0.000000 0.000000 0.000000 -0.000780 0.000000 0.038258
#
#
# Mechanical properties :
#
#
# Convention : Reuss Voigt Hill
#
# Bulk Modulus (GPa) = 56.90274 58.01704 57.45989
# Shear Modulus (GPa) = 23.58847 23.88711 23.73779
#
# Velocity S-wave (km/s) = 3.64960 3.67263 3.66114
# Velocity P-wave (km/s) = 7.06332 7.12352 7.09349
#
# Compressibility (1/GPa) = 0.01757384
#
# Stress axis : x y z
#
# Youngs Moduli (GPa) = 57.21125 63.15953 59.47330
#
# Poissons Ratio (x) = 0.33162 0.30942
# Poissons Ratio (y) = 0.30039 0.34632
# Poissons Ratio (z) = 0.29765 0.36778
#
# Static dielectric constant tensor:
#      x y z
#    x 3.199190 0.000000 0.155450 
#    y 0.000000 3.713130 0.000000 
#    z 0.155450 0.000000 3.190910 
# 
# 
# High freq. dielectric constant tensor:
#      x y z
#    x 1.675750 0.000000 0.020060 
#    y 0.000000 1.698520 0.000000 
#    z 0.020060 0.000000 1.673290 
# 
# From -- ./inp_files/198399.got.cif
#   From: 2010.06.25/outbox.cif.g09.slc.cpg/sg15_100_cif.got.tgz:198399.got - 2010.06.28 07:06:18.
