data_PCOD8131238
_publ_section_title
;
Structure prediction by ZEFSAII (Michael W. Deem and Ramdas Pophale) SiO2 
 PCOD8131238
Probable space group: C 2/C
;
_chemical_formula_sum "Si O2"
_cell_formula_units_Z 60
_cell_length_a 20.098942
_cell_length_b 16.684845
_cell_length_c 11.772012
_cell_angle_alpha 90.000000
_cell_angle_beta 123.763545
_cell_angle_gamma 90.000000
_cell_volume 3281.888577
_symmetry_space_group_name_H-M "C 2/C"
_symmetry_group_IT_number 15
_symmetry_cell_setting 'monoclinic'
loop_
_space_group_symop_operation_xyz
x,y,z
-x,y,1/2-z
-x,-y,-z
x,-y,1/2+z
1/2+x,1/2+y,z
1/2-x,1/2+y,1/2-z
1/2-x,1/2-y,-z
1/2+x,1/2-y,1/2+z
loop_
_atom_site_type_symbol
_atom_site_label
_atom_site_fract_x
_atom_site_fract_y
_atom_site_fract_z
Si Si1 0.982137 0.740503 0.353754
Si Si2 0.751300 0.311375 0.762020
Si Si3 0.652850 0.113210 0.331618
Si Si4 0.351758 0.834054 0.424432
Si Si5 0.000000 0.329141 0.250000
Si Si6 0.644797 0.928861 0.293200
Si Si7 0.785881 0.839304 0.538572
Si Si8 0.095785 0.771380 0.006398
O O1 0.923920 0.665779 0.273924
O O2 0.940313 0.801092 0.405360
O O3 0.000000 0.785001 0.250000
O O4 0.062747 0.707377 0.484683
O O5 0.768881 0.368711 0.671636
O O6 0.711487 0.229960 0.681672
O O7 0.698370 0.355447 0.811075
O O8 0.835591 0.292820 0.901601
O O9 0.678824 0.130618 0.485429
O O10 0.627679 0.022053 0.290903
O O11 0.354808 0.907532 0.339458
O O12 0.924951 0.382648 0.209566
O O13 0.022452 0.273139 0.376709
O O14 0.728514 0.905901 0.431117
O O15 0.750000 0.750000 0.500000
O O16 0.868108 0.840881 0.541543
#
# Coordination Sequence:
#
# PCOD8131238 Si02
#       8
#     8   8   8   8   4   8   8   8
#     4   9  20  35  48  80 112 143 184 219 271 329
#     4  10  19  38  53  74 108 151 190 232 256 325
#     4  10  25  35  52  82 119 148 179 223 279 335
#     4  11  20  37  56  74 110 154 190 216 272 333
#     4  12  20  30  54  84 112 150 178 222 280 322
#     4  12  23  34  55  83 117 149 180 223 280 331
#     4  10  18  35  52  76 107 147 191 229 256 318
#     4  10  18  32  53  77 108 143 189 228 261 309
#
# _framework density 18.282157000000002
#
# number of rings (size 3 to 8) (size 9 to 14) (size 15 to 20)
#    0.000    1.600    6.667    0.400    4.667    0.533 
#    0.000    0.000    0.000    0.000    0.000    0.933 
#   14.000    0.133    0.000    0.000    0.000    0.000 
#
# Total GULP energy -371767.632543 kJ/mol
# GULP energy per Si atom -12392.254418 kJ/mol
# Density = 1.824055 g / cm^3
# Si number density = 18.282157 Si / 1000 Ang^3
#
#
#
# Elastic Constant Matrix: (Units=GPa)
#
#
# Indices 1 2 3 4 5 6 
#
# 1 130.7019 21.5272 49.3241 0.0000 -45.4884 0.0000
# 2 21.5272 13.6702 14.8108 0.0000 2.2666 0.0000
# 3 49.3241 14.8108 98.3411 0.0000 -25.9861 0.0000
# 4 0.0000 0.0000 0.0000 9.8323 0.0000 -0.6084
# 5 -45.4884 2.2666 -25.9861 0.0000 40.2459 0.0000
# 6 0.0000 0.0000 0.0000 -0.6084 0.0000 13.8812
#
#
#
# Elastic Compliance Matrix: (Units=1/GPa)
#
#
# Indices 1 2 3 4 5 6 
#
# 1 0.028462 -0.055589 0.004129 0.000000 0.037966 0.000000
# 2 -0.055589 0.205702 -0.027445 0.000000 -0.092135 0.000000
# 3 0.004129 -0.027445 0.016727 0.000000 0.017013 0.000000
# 4 0.000000 0.000000 0.000000 0.101982 0.000000 0.004470
# 5 0.037966 -0.092135 0.017013 0.000000 0.083932 0.000000
# 6 0.000000 0.000000 0.000000 0.004470 0.000000 0.072236
#
#
# Mechanical properties :
#
#
# Convention : Reuss Voigt Hill
#
# Bulk Modulus (GPa) = 10.74341 46.00416 28.37378
# Shear Modulus (GPa) = 7.16458 23.26196 15.21327
#
# Velocity S-wave (km/s) = 1.98177 3.57092 2.88781
# Velocity P-wave (km/s) = 3.33553 6.49769 5.16458
#
# Compressibility (1/GPa) = 0.09308034
#
# Stress axis : x y z
#
# Youngs Moduli (GPa) = 35.13470 4.86140 59.78465
#
# Poissons Ratio (x) = 0.27024 -0.24685
# Poissons Ratio (y) = 1.95310 1.64081
# Poissons Ratio (z) = -0.14507 0.13342
#
# Static dielectric constant tensor:
#      x y z
#    x 4.122480 0.000000 -0.558800 
#    y 0.000000 2.851540 0.000000 
#    z -0.558800 0.000000 3.800970 
# 
# 
# High freq. dielectric constant tensor:
#      x y z
#    x 1.725610 0.000000 -0.025770 
#    y 0.000000 1.640180 0.000000 
#    z -0.025770 0.000000 1.724020 
# 
# From -- ./inp_files/112762.got.cif
#   From: 2010.06.25/outbox.cif.g09.slc.cpg/sg15_57_cif.got.tgz:112762.got - 2010.06.28 07:06:18.
