data_PCOD8131749
_publ_section_title
;
Structure prediction by ZEFSAII (Michael W. Deem and Ramdas Pophale) SiO2 
 PCOD8131749
Probable space group: C 2/C
;
_chemical_formula_sum "Si O2"
_cell_formula_units_Z 32
_cell_length_a 23.596729
_cell_length_b 6.822920
_cell_length_c 16.870638
_cell_angle_alpha 90.000000
_cell_angle_beta 141.016827
_cell_angle_gamma 90.000000
_cell_volume 1708.707952
_symmetry_space_group_name_H-M "C 2/C"
_symmetry_group_IT_number 15
_symmetry_cell_setting 'monoclinic'
loop_
_space_group_symop_operation_xyz
x,y,z
-x,y,1/2-z
-x,-y,-z
x,-y,1/2+z
1/2+x,1/2+y,z
1/2-x,1/2+y,1/2-z
1/2-x,1/2-y,-z
1/2+x,1/2-y,1/2+z
loop_
_atom_site_type_symbol
_atom_site_label
_atom_site_fract_x
_atom_site_fract_y
_atom_site_fract_z
Si Si1 0.009206 0.411324 0.596327
Si Si2 0.844993 0.383802 0.527140
Si Si3 0.912377 0.719830 0.699290
Si Si4 0.357667 0.368706 0.191484
O O1 0.060092 0.570141 0.703270
O O2 0.071615 0.214624 0.666415
O O3 0.000000 0.500000 0.500000
O O4 0.910243 0.362552 0.522645
O O5 0.848518 0.604382 0.567371
O O6 0.744349 0.326569 0.390536
O O7 0.878909 0.230686 0.630109
O O8 0.000000 0.802402 0.750000
O O9 0.862992 0.898424 0.687708
#
# Coordination Sequence:
#
# PCOD8131749 Si02
#       4
#     8   8   8   8
#     4  10  21  36  49  76 117 139 165 217 268 320
#     4   9  19  34  55  80 104 132 181 228 251 304
#     4   9  17  32  56  79 100 135 178 218 260 307
#     4  10  18  34  58  79  98 140 182 217 262 301
#
# _framework density 18.727601
#
# number of rings (size 3 to 8) (size 9 to 14) (size 15 to 20)
#    0.000    2.500    0.000    4.500    0.000    1.000 
#    4.500    0.000    0.000    0.000    0.000    0.000 
#    0.000    0.000    0.000    0.000    0.000    0.000 
#
# Total GULP energy -198366.064031 kJ/mol
# GULP energy per Si atom -12397.879002 kJ/mol
# Density = 1.868498 g / cm^3
# Si number density = 18.727601 Si / 1000 Ang^3
#
#
#
# Elastic Constant Matrix: (Units=GPa)
#
#
# Indices 1 2 3 4 5 6 
#
# 1 111.7619 20.9714 58.0210 0.0000 10.5659 0.0000
# 2 20.9714 77.1757 21.2988 0.0000 14.0629 0.0000
# 3 58.0210 21.2988 81.2321 0.0000 10.3932 0.0000
# 4 0.0000 0.0000 0.0000 17.1594 0.0000 3.9548
# 5 10.5659 14.0629 10.3932 0.0000 18.6560 0.0000
# 6 0.0000 0.0000 0.0000 3.9548 0.0000 22.8588
#
#
#
# Elastic Compliance Matrix: (Units=1/GPa)
#
#
# Indices 1 2 3 4 5 6 
#
# 1 0.014381 -0.000830 -0.009790 0.000000 -0.002065 0.000000
# 2 -0.000830 0.015631 -0.002216 0.000000 -0.010078 0.000000
# 3 -0.009790 -0.002216 0.020416 0.000000 -0.004158 0.000000
# 4 0.000000 0.000000 0.000000 0.060697 0.000000 -0.010501
# 5 -0.002065 -0.010078 -0.004158 0.000000 0.064685 0.000000
# 6 0.000000 0.000000 0.000000 -0.010501 0.000000 0.045564
#
#
# Mechanical properties :
#
#
# Convention : Reuss Voigt Hill
#
# Bulk Modulus (GPa) = 40.39407 52.30579 46.34993
# Shear Modulus (GPa) = 19.58489 23.06005 21.32247
#
# Velocity S-wave (km/s) = 3.23736 3.51285 3.37791
# Velocity P-wave (km/s) = 5.96574 6.66663 6.32590
#
# Compressibility (1/GPa) = 0.02475611
#
# Stress axis : x y z
#
# Youngs Moduli (GPa) = 69.53615 63.97550 48.98065
#
# Poissons Ratio (x) = 0.05308 0.47952
# Poissons Ratio (y) = 0.05769 0.10856
# Poissons Ratio (z) = 0.68076 0.14179
#
# Static dielectric constant tensor:
#      x y z
#    x 3.285660 0.000000 0.199330 
#    y 0.000000 3.470100 0.000000 
#    z 0.199330 0.000000 3.399400 
# 
# 
# High freq. dielectric constant tensor:
#      x y z
#    x 1.710600 0.000000 0.025660 
#    y 0.000000 1.730280 0.000000 
#    z 0.025660 0.000000 1.713760 
# 
# From -- ./inp_files/164962.got.cif
#   From: 2010.06.25/outbox.cif.g09.slc.cpg/sg15_83_cif.got.tgz:164962.got - 2010.06.28 07:06:18.
