data_PCOD8131098
_publ_section_title
;
Structure prediction by ZEFSAII (Michael W. Deem and Ramdas Pophale) SiO2 
 PCOD8131098
Probable space group: C 2/C
;
_chemical_formula_sum "Si O2"
_cell_formula_units_Z 48
_cell_length_a 15.243531
_cell_length_b 29.639531
_cell_length_c 8.818394
_cell_angle_alpha 90.000000
_cell_angle_beta 33.359246
_cell_angle_gamma 90.000000
_cell_volume 2190.885514
_symmetry_space_group_name_H-M "C 2/C"
_symmetry_group_IT_number 15
_symmetry_cell_setting 'monoclinic'
loop_
_space_group_symop_operation_xyz
x,y,z
-x,y,1/2-z
-x,-y,-z
x,-y,1/2+z
1/2+x,1/2+y,z
1/2-x,1/2+y,1/2-z
1/2-x,1/2-y,-z
1/2+x,1/2-y,1/2+z
loop_
_atom_site_type_symbol
_atom_site_label
_atom_site_fract_x
_atom_site_fract_y
_atom_site_fract_z
Si Si1 0.829773 0.359205 0.065217
Si Si2 0.668859 0.124480 0.587236
Si Si3 0.322978 0.963469 0.573523
Si Si4 0.283003 0.716660 0.319225
Si Si5 0.639425 0.269909 0.284830
Si Si6 0.674734 0.948081 0.569288
O O1 0.855837 0.378146 0.197260
O O2 0.709621 0.317185 0.244206
O O3 0.747048 0.399354 0.083468
O O4 0.000000 0.343685 0.750000
O O5 0.500000 0.129893 0.750000
O O6 0.756582 0.079499 0.395424
O O7 0.779914 0.165624 0.379127
O O8 0.324655 0.957461 0.751965
O O9 0.236681 0.010211 0.645802
O O10 0.500000 0.967779 0.250000
O O11 0.250000 0.750000 0.500000
O O12 0.144709 0.729888 0.401404
O O13 0.457807 0.724497 0.993934
O O14 0.750000 0.250000 0.000000
O O15 0.500000 0.942103 0.750000
#
# Coordination Sequence:
#
# PCOD8131098 Si02
#       6
#     8   8   8   8   8   8
#     4  11  22  37  59  89 126 163 210 259 313 369
#     4  11  22  36  61  89 124 164 210 259 312 372
#     4  10  18  31  53  84 121 161 207 256 311 365
#     4  12  25  44  66  91 126 164 213 255 315 370
#     4  12  27  44  64  93 124 168 207 263 310 377
#     4  10  18  31  53  83 123 160 207 257 309 367
#
# _framework density 21.908947999999999
#
# number of rings (size 3 to 8) (size 9 to 14) (size 15 to 20)
#    0.000    1.000    1.667   10.000    4.667    0.000 
#    0.000    0.000    0.000    1.000    0.000    0.000 
#    0.000    0.000    0.000    0.000    0.000    0.000 
#
# Total GULP energy -297404.719057 kJ/mol
# GULP energy per Si atom -12391.863294 kJ/mol
# Density = 2.185908 g / cm^3
# Si number density = 21.908948 Si / 1000 Ang^3
#
#
#
# Elastic Constant Matrix: (Units=GPa)
#
#
# Indices 1 2 3 4 5 6 
#
# 1 69.4536 16.9229 25.1533 0.0000 31.5707 0.0000
# 2 16.9229 144.5637 28.4261 0.0000 8.6035 0.0000
# 3 25.1533 28.4261 68.2019 0.0000 16.8667 0.0000
# 4 0.0000 0.0000 0.0000 32.0078 0.0000 13.8124
# 5 31.5707 8.6035 16.8667 0.0000 48.9533 0.0000
# 6 0.0000 0.0000 0.0000 13.8124 0.0000 31.2660
#
#
#
# Elastic Compliance Matrix: (Units=1/GPa)
#
#
# Indices 1 2 3 4 5 6 
#
# 1 0.021932 -0.000917 -0.004644 0.000000 -0.012383 0.000000
# 2 -0.000917 0.007576 -0.002882 0.000000 0.000253 0.000000
# 3 -0.004644 -0.002882 0.018267 0.000000 -0.002792 0.000000
# 4 0.000000 0.000000 0.000000 0.038601 0.000000 -0.017053
# 5 -0.012383 0.000253 -0.002792 0.000000 0.029331 0.000000
# 6 0.000000 0.000000 0.000000 -0.017053 0.000000 0.039517
#
#
# Mechanical properties :
#
#
# Convention : Reuss Voigt Hill
#
# Bulk Modulus (GPa) = 32.37414 47.02486 39.69950
# Shear Modulus (GPa) = 27.41097 36.55987 31.98542
#
# Velocity S-wave (km/s) = 3.54097 4.08943 3.82504
# Velocity P-wave (km/s) = 5.61487 6.61878 6.13738
#
# Compressibility (1/GPa) = 0.03088885
#
# Stress axis : x y z
#
# Youngs Moduli (GPa) = 45.59463 131.98885 54.74390
#
# Poissons Ratio (x) = 0.12107 0.25423
# Poissons Ratio (y) = 0.04182 0.15778
# Poissons Ratio (z) = 0.21174 0.38040
#
# Static dielectric constant tensor:
#      x y z
#    x 4.963620 0.000000 -0.193170 
#    y 0.000000 4.844740 0.000000 
#    z -0.193170 0.000000 3.719180 
# 
# 
# High freq. dielectric constant tensor:
#      x y z
#    x 1.843290 0.000000 0.040930 
#    y 0.000000 1.896820 0.000000 
#    z 0.040930 0.000000 1.834250 
# 
# From -- ./inp_files/52716.got.cif
#   From: 2010.06.25/outbox.cif.g09.slc.cpg/sg15_27_cif.got.tgz:52716.got - 2010.06.28 07:06:18.
