data_PCOD8131789
_publ_section_title
;
Structure prediction by ZEFSAII (Michael W. Deem and Ramdas Pophale) SiO2 
 PCOD8131789
Probable space group: C 2/C
;
_chemical_formula_sum "Si O2"
_cell_formula_units_Z 40
_cell_length_a 26.696644
_cell_length_b 9.206529
_cell_length_c 8.972106
_cell_angle_alpha 90.000000
_cell_angle_beta 79.224556
_cell_angle_gamma 90.000000
_cell_volume 2166.311793
_symmetry_space_group_name_H-M "C 2/C"
_symmetry_group_IT_number 15
_symmetry_cell_setting 'monoclinic'
loop_
_space_group_symop_operation_xyz
x,y,z
-x,y,1/2-z
-x,-y,-z
x,-y,1/2+z
1/2+x,1/2+y,z
1/2-x,1/2+y,1/2-z
1/2-x,1/2-y,-z
1/2+x,1/2-y,1/2+z
loop_
_atom_site_type_symbol
_atom_site_label
_atom_site_fract_x
_atom_site_fract_y
_atom_site_fract_z
Si Si1 0.137366 0.167514 0.884603
Si Si2 0.630925 0.387075 0.728423
Si Si3 0.463314 0.555100 0.645764
Si Si4 0.793492 0.617632 0.313910
Si Si5 0.698001 0.824326 0.352369
O O1 0.075885 0.177052 0.893930
O O2 0.162274 0.315090 0.813874
O O3 0.159582 0.031649 0.775950
O O4 0.149805 0.140972 0.050624
O O5 0.569937 0.417656 0.772133
O O6 0.645752 0.249303 0.822465
O O7 0.500000 0.624130 0.750000
O O8 0.500000 0.500000 0.500000
O O9 0.741494 0.703500 0.319764
O O10 0.785497 0.453204 0.266610
O O11 0.811093 0.618797 0.475761
#
# Coordination Sequence:
#
# PCOD8131789 Si02
#       5
#     8   8   8   8   8
#     4  10  20  34  58  88 118 151 196 238 292 343
#     4  10  20  34  58  88 118 151 196 239 290 345
#     4  10  18  34  58  92 118 154 194 247 289 344
#     4  11  24  40  59  84 118 156 196 243 295 353
#     4  11  24  40  59  84 118 156 196 242 297 352
#
# _framework density 18.464562999999998
#
# number of rings (size 3 to 8) (size 9 to 14) (size 15 to 20)
#    1.200    0.400    2.000    3.600    2.800    6.400 
#    0.000    0.000    0.000    2.400    0.000    0.000 
#    0.000    0.000    0.000    0.000    0.000    0.000 
#
# Total GULP energy -247900.330944 kJ/mol
# GULP energy per Si atom -12395.016547 kJ/mol
# Density = 1.842254 g / cm^3
# Si number density = 18.464563 Si / 1000 Ang^3
#
#
#
# Elastic Constant Matrix: (Units=GPa)
#
#
# Indices 1 2 3 4 5 6 
#
# 1 66.0412 17.6492 29.0386 0.0000 7.0965 0.0000
# 2 17.6492 67.8693 18.5195 0.0000 12.4683 0.0000
# 3 29.0386 18.5195 101.2414 0.0000 20.2417 0.0000
# 4 0.0000 0.0000 0.0000 34.2599 0.0000 -1.4651
# 5 7.0965 12.4683 20.2417 0.0000 35.2759 0.0000
# 6 0.0000 0.0000 0.0000 -1.4651 0.0000 26.7575
#
#
#
# Elastic Compliance Matrix: (Units=1/GPa)
#
#
# Indices 1 2 3 4 5 6 
#
# 1 0.018068 -0.003489 -0.004591 0.000000 0.000232 0.000000
# 2 -0.003489 0.016797 -0.001158 0.000000 -0.004571 0.000000
# 3 -0.004591 -0.001158 0.012583 0.000000 -0.005887 0.000000
# 4 0.000000 0.000000 0.000000 0.029257 0.000000 0.001602
# 5 0.000232 -0.004571 -0.005887 0.000000 0.033295 0.000000
# 6 0.000000 0.000000 0.000000 0.001602 0.000000 0.037460
#
#
# Mechanical properties :
#
#
# Convention : Reuss Voigt Hill
#
# Bulk Modulus (GPa) = 34.51458 40.61851 37.56654
# Shear Modulus (GPa) = 28.47490 30.58829 29.53160
#
# Velocity S-wave (km/s) = 3.93127 4.07454 4.00355
# Velocity P-wave (km/s) = 6.27211 6.64693 6.46224
#
# Compressibility (1/GPa) = 0.02897327
#
# Stress axis : x y z
#
# Youngs Moduli (GPa) = 55.34675 59.53414 79.47188
#
# Poissons Ratio (x) = 0.20769 0.36483
# Poissons Ratio (y) = 0.19308 0.09204
# Poissons Ratio (z) = 0.25408 0.06895
#
# Static dielectric constant tensor:
#      x y z
#    x 3.242350 0.000000 0.059240 
#    y 0.000000 3.134850 0.000000 
#    z 0.059240 0.000000 3.392590 
# 
# 
# High freq. dielectric constant tensor:
#      x y z
#    x 1.711740 0.000000 0.011110 
#    y 0.000000 1.685420 0.000000 
#    z 0.011110 0.000000 1.734350 
# 
# From -- ./inp_files/64537.got.cif
#   From: 2010.06.25/outbox.cif.g09.slc.cpg/sg15_33_cif.got.tgz:64537.got - 2010.06.28 07:06:18.
