data_PCOD8131373
_publ_section_title
;
Structure prediction by ZEFSAII (Michael W. Deem and Ramdas Pophale) SiO2 
 PCOD8131373
Probable space group: C 2/C
;
_chemical_formula_sum "Si O2"
_cell_formula_units_Z 56
_cell_length_a 9.601685
_cell_length_b 23.907803
_cell_length_c 13.951399
_cell_angle_alpha 90.000000
_cell_angle_beta 125.489075
_cell_angle_gamma 90.000000
_cell_volume 2607.654031
_symmetry_space_group_name_H-M "C 2/C"
_symmetry_group_IT_number 15
_symmetry_cell_setting 'monoclinic'
loop_
_space_group_symop_operation_xyz
x,y,z
-x,y,1/2-z
-x,-y,-z
x,-y,1/2+z
1/2+x,1/2+y,z
1/2-x,1/2+y,1/2-z
1/2-x,1/2-y,-z
1/2+x,1/2-y,1/2+z
loop_
_atom_site_type_symbol
_atom_site_label
_atom_site_fract_x
_atom_site_fract_y
_atom_site_fract_z
Si Si1 0.738292 0.017093 0.162602
Si Si2 0.975320 0.200165 0.028275
Si Si3 0.369724 0.180933 0.506863
Si Si4 0.327958 0.363705 0.736442
Si Si5 0.048822 0.981063 0.413395
Si Si6 0.082093 0.414986 0.180046
Si Si7 0.544084 0.635450 0.661482
O O1 0.713849 0.079513 0.195900
O O2 0.790330 0.015125 0.069261
O O3 0.581602 0.974762 0.122713
O O4 0.888056 0.988528 0.281682
O O5 0.780777 0.184331 0.975752
O O6 0.118900 0.163918 0.141796
O O7 0.998335 0.265961 0.061682
O O8 0.994903 0.187665 0.923719
O O9 0.282315 0.181020 0.366912
O O10 0.470828 0.124462 0.567132
O O11 0.500000 0.381636 0.750000
O O12 0.084062 0.914456 0.424037
O O13 0.000000 0.000000 0.500000
O O14 0.261778 0.384922 0.268841
O O15 0.000000 0.425744 0.250000
O O16 0.500000 0.656192 0.750000
#
# Coordination Sequence:
#
# PCOD8131373 Si02
#       7
#     8   8   8   8   8   8   8
#     4  10  20  36  57  93 126 162 213 257 309 384
#     4  10  22  39  66  92 124 169 222 267 308 381
#     4  10  23  38  62  98 125 167 211 274 327 371
#     4  10  20  37  62  92 127 163 217 262 315 385
#     4  10  18  32  59  89 121 160 214 260 295 369
#     4  11  22  39  65  94 140 168 205 266 335 384
#     4  11  21  39  64  95 123 167 221 259 310 389
#
# _framework density 21.475242999999999
#
# number of rings (size 3 to 8) (size 9 to 14) (size 15 to 20)
#    0.000    1.714    5.714    0.857    4.000    1.143 
#    0.000    0.714    0.000    0.000    0.000    0.000 
#    0.000    0.000    0.000    0.000    0.000    0.000 
#
# Total GULP energy -347003.411130 kJ/mol
# GULP energy per Si atom -12392.978969 kJ/mol
# Density = 2.142636 g / cm^3
# Si number density = 21.475243 Si / 1000 Ang^3
#
#
#
# Elastic Constant Matrix: (Units=GPa)
#
#
# Indices 1 2 3 4 5 6 
#
# 1 92.2322 39.2712 47.0945 0.0000 -33.7206 0.0000
# 2 39.2712 138.8939 49.4373 0.0000 -11.9001 0.0000
# 3 47.0945 49.4373 90.0259 0.0000 -37.5391 0.0000
# 4 0.0000 0.0000 0.0000 32.8620 0.0000 1.5747
# 5 -33.7206 -11.9001 -37.5391 0.0000 37.4830 0.0000
# 6 0.0000 0.0000 0.0000 1.5747 0.0000 24.6404
#
#
#
# Elastic Compliance Matrix: (Units=1/GPa)
#
#
# Indices 1 2 3 4 5 6 
#
# 1 0.018127 -0.003186 -0.002326 0.000000 0.012966 0.000000
# 2 -0.003186 0.009797 -0.006201 0.000000 -0.005966 0.000000
# 3 -0.002326 -0.006201 0.024101 0.000000 0.020076 0.000000
# 4 0.000000 0.000000 0.000000 0.030524 0.000000 -0.001951
# 5 0.012966 -0.005966 0.020076 0.000000 0.056555 0.000000
# 6 0.000000 0.000000 0.000000 -0.001951 0.000000 0.040708
#
#
# Mechanical properties :
#
#
# Convention : Reuss Voigt Hill
#
# Bulk Modulus (GPa) = 34.96705 65.86201 50.41453
# Shear Modulus (GPa) = 23.49930 31.35368 27.42649
#
# Velocity S-wave (km/s) = 3.31154 3.82513 3.57756
# Velocity P-wave (km/s) = 5.56233 7.08831 6.37117
#
# Compressibility (1/GPa) = 0.02859835
#
# Stress axis : x y z
#
# Youngs Moduli (GPa) = 55.16534 102.07678 41.49171
#
# Poissons Ratio (x) = 0.32526 0.09652
# Poissons Ratio (y) = 0.17578 0.25728
# Poissons Ratio (z) = 0.12833 0.63295
#
# Static dielectric constant tensor:
#      x y z
#    x 3.857900 0.000000 -0.047720 
#    y 0.000000 4.069080 0.000000 
#    z -0.047720 0.000000 3.696050 
# 
# 
# High freq. dielectric constant tensor:
#      x y z
#    x 1.808210 0.000000 -0.010810 
#    y 0.000000 1.846620 0.000000 
#    z -0.010810 0.000000 1.840880 
# 
# From -- ./inp_files/137933.got.cif
#   From: 2010.06.25/outbox.cif.g09.slc.cpg/sg15_69_cif.got.tgz:137933.got - 2010.06.28 07:06:18.
