data_PCOD8131730
_publ_section_title
;
Structure prediction by ZEFSAII (Michael W. Deem and Ramdas Pophale) SiO2 
 PCOD8131730
Probable space group: C 2/C
;
_chemical_formula_sum "Si O2"
_cell_formula_units_Z 56
_cell_length_a 20.999295
_cell_length_b 29.894482
_cell_length_c 8.985437
_cell_angle_alpha 90.000000
_cell_angle_beta 30.527297
_cell_angle_gamma 90.000000
_cell_volume 2865.199677
_symmetry_space_group_name_H-M "C 2/C"
_symmetry_group_IT_number 15
_symmetry_cell_setting 'monoclinic'
loop_
_space_group_symop_operation_xyz
x,y,z
-x,y,1/2-z
-x,-y,-z
x,-y,1/2+z
1/2+x,1/2+y,z
1/2-x,1/2+y,1/2-z
1/2-x,1/2-y,-z
1/2+x,1/2-y,1/2+z
loop_
_atom_site_type_symbol
_atom_site_label
_atom_site_fract_x
_atom_site_fract_y
_atom_site_fract_z
Si Si1 0.758716 0.871449 0.812303
Si Si2 0.000000 0.653370 0.750000
Si Si3 0.000000 0.995320 0.750000
Si Si4 0.949473 0.727557 0.087597
Si Si5 0.276733 0.299346 0.279287
Si Si6 0.900547 0.867282 0.224541
Si Si7 0.368326 0.301000 0.765646
Si Si8 0.412425 0.559604 0.174448
O O1 0.850241 0.876596 0.489771
O O2 0.767645 0.819170 0.848436
O O3 0.800239 0.905643 0.860770
O O4 0.615357 0.879626 0.054760
O O5 0.031347 0.682556 0.542412
O O6 0.102641 0.966432 0.638551
O O7 0.081523 0.024979 0.473598
O O8 0.865790 0.716998 0.402293
O O9 0.875993 0.762436 0.131830
O O10 0.084809 0.749945 0.858411
O O11 0.295352 0.346963 0.326692
O O12 0.300689 0.307025 0.058938
O O13 0.012294 0.832045 0.999388
O O14 0.955162 0.914847 0.064435
#
# Coordination Sequence:
#
# PCOD8131730 Si02
#       8
#     8   4   4   8   8   8   8   8
#     4  11  23  38  57  81 116 154 197 230 289 344
#     4  12  22  40  55  74 110 168 196 244 279 332
#     4  10  20  34  63  94 124 136 166 226 295 342
#     4  10  19  34  53  75 112 148 201 243 287 328
#     4  10  19  33  54  80 112 152 191 239 294 335
#     4  10  18  34  57  83 118 150 181 226 291 351
#     4  10  20  34  56  80 107 148 198 245 292 330
#     4  10  20  36  57  97 117 143 176 225 284 356
#
# _framework density 19.544885000000001
#
# number of rings (size 3 to 8) (size 9 to 14) (size 15 to 20)
#    0.000    1.714    4.286    2.571    4.000    0.571 
#    0.000    2.143    0.000    0.857    0.000    0.000 
#    0.000    0.000    0.000    0.000    0.000    0.000 
#
# Total GULP energy -346994.810564 kJ/mol
# GULP energy per Si atom -12392.671806 kJ/mol
# Density = 1.950040 g / cm^3
# Si number density = 19.544885 Si / 1000 Ang^3
#
#
#
# Elastic Constant Matrix: (Units=GPa)
#
#
# Indices 1 2 3 4 5 6 
#
# 1 70.4211 37.0652 35.1178 0.0001 -9.8187 0.0000
# 2 37.0652 79.8310 20.7182 0.0000 -7.5950 0.0000
# 3 35.1178 20.7182 65.4951 0.0003 2.5992 0.0000
# 4 0.0001 0.0000 0.0003 -11.9281 -0.0002 0.2845
# 5 -9.8187 -7.5950 2.5992 -0.0002 10.0122 0.0000
# 6 0.0000 0.0000 0.0000 0.2845 0.0000 31.4849
#
#
#
# Elastic Compliance Matrix: (Units=1/GPa)
#
#
# Indices 1 2 3 4 5 6 
#
# 1 0.028718 -0.007136 -0.014190 -0.000001 0.026434 0.000000
# 2 -0.007136 0.016896 -0.001767 0.000000 0.006277 0.000000
# 3 -0.014190 -0.001767 0.024292 0.000001 -0.021563 0.000000
# 4 -0.000001 0.000000 0.000001 -0.083818 -0.000003 0.000757
# 5 0.026434 0.006277 -0.021563 -0.000003 0.136161 0.000000
# 6 0.000000 0.000000 0.000000 0.000757 0.000000 0.031754
#
#
# Mechanical properties :
#
#
# Convention : Reuss Voigt Hill
#
# Bulk Modulus (GPa) = 42.16154 44.61662 43.38908
# Shear Modulus (GPa) = 24.02726 14.10353 19.06540
#
# Velocity S-wave (km/s) = 3.50999 2.68917 3.12664
# Velocity P-wave (km/s) = 6.16808 5.70259 5.93990
#
# Compressibility (1/GPa) = 0.02371830
#
# Stress axis : x y z
#
# Youngs Moduli (GPa) = 34.82091 59.18671 41.16631
#
# Poissons Ratio (x) = 0.42237 0.58415
# Poissons Ratio (y) = 0.24849 0.07276
# Poissons Ratio (z) = 0.49411 0.10460
#
# Static dielectric constant tensor:
#      x y z
#    x 3.708060 0.000000 -0.060200 
#    y 0.000000 3.772310 0.000000 
#    z -0.060200 0.000000 3.558760 
# 
# 
# High freq. dielectric constant tensor:
#      x y z
#    x 1.755740 0.000000 0.015370 
#    y 0.000000 1.743180 0.000000 
#    z 0.015370 0.000000 1.747560 
# 
# From -- ./inp_files/59371.got.cif
#   From: 2010.06.25/outbox.cif.g09.slc.cpg/sg15_30_cif.got.tgz:59371.got - 2010.06.28 07:06:18.
