data_PCOD8131100
_publ_section_title
;
Structure prediction by ZEFSAII (Michael W. Deem and Ramdas Pophale) SiO2 
 PCOD8131100
Probable space group: C 2/C
;
_chemical_formula_sum "Si O2"
_cell_formula_units_Z 52
_cell_length_a 19.112454
_cell_length_b 16.583484
_cell_length_c 17.810106
_cell_angle_alpha 90.000000
_cell_angle_beta 149.666509
_cell_angle_gamma 90.000000
_cell_volume 2850.872644
_symmetry_space_group_name_H-M "C 2/C"
_symmetry_group_IT_number 15
_symmetry_cell_setting 'monoclinic'
loop_
_space_group_symop_operation_xyz
x,y,z
-x,y,1/2-z
-x,-y,-z
x,-y,1/2+z
1/2+x,1/2+y,z
1/2-x,1/2+y,1/2-z
1/2-x,1/2-y,-z
1/2+x,1/2-y,1/2+z
loop_
_atom_site_type_symbol
_atom_site_label
_atom_site_fract_x
_atom_site_fract_y
_atom_site_fract_z
Si Si1 0.361315 0.269532 0.164583
Si Si2 0.000000 0.940511 0.750000
Si Si3 0.288347 0.439731 0.106297
Si Si4 0.173109 0.804736 0.989350
Si Si5 0.535135 0.171360 0.695736
Si Si6 0.369375 0.096120 0.183145
Si Si7 0.481602 0.009923 0.570464
O O1 0.500000 0.289177 0.250000
O O2 0.325027 0.351588 0.176191
O O3 0.364168 0.186408 0.215973
O O4 0.250000 0.250000 0.000000
O O5 0.888521 0.886534 0.602136
O O6 0.085169 0.996923 0.770621
O O7 0.259348 0.428280 0.989535
O O8 0.161377 0.470278 0.037293
O O9 0.297707 0.823517 0.163266
O O10 0.250000 0.750000 0.000000
O O11 0.042919 0.753963 0.901455
O O12 0.500000 0.149498 0.750000
O O13 0.475784 0.103281 0.586646
O O14 0.500000 0.093824 0.250000
O O15 0.387724 0.032216 0.267033
O O16 0.500000 0.000000 0.500000
#
# Coordination Sequence:
#
# PCOD8131100 Si02
#       7
#     8   4   8   8   8   8   8
#     4   9  16  30  53  85 111 134 173 228 281 317
#     4  12  18  28  56  90 114 132 174 236 286 318
#     4  10  19  31  55  87 108 139 180 233 274 323
#     4  10  18  31  53  86 113 136 171 232 283 327
#     4  10  19  35  57  81 110 139 187 230 276 323
#     4   8  16  33  55  77 105 139 184 228 269 317
#     4  11  22  36  54  77 111 154 189 220 267 332
#
# _framework density 18.240029
#
# number of rings (size 3 to 8) (size 9 to 14) (size 15 to 20)
#    0.000    2.154    3.077    5.077    0.000    0.000 
#    0.000    1.538    0.000    3.692    0.000    0.000 
#    0.000    0.000    0.000    0.000    0.000    0.000 
#
# Total GULP energy -322103.197794 kJ/mol
# GULP energy per Si atom -12388.584531 kJ/mol
# Density = 1.819851 g / cm^3
# Si number density = 18.240029 Si / 1000 Ang^3
#
#
#
# Elastic Constant Matrix: (Units=GPa)
#
#
# Indices 1 2 3 4 5 6 
#
# 1 59.8652 34.3175 33.2682 0.0015 0.1211 0.0002
# 2 34.3175 128.9013 28.0691 0.0014 4.3625 0.0007
# 3 33.2682 28.0691 71.3423 0.0027 19.0057 0.0013
# 4 0.0015 0.0014 0.0027 33.4912 0.0015 14.2074
# 5 0.1211 4.3625 19.0057 0.0015 29.8686 0.0006
# 6 0.0002 0.0007 0.0013 14.2074 0.0006 9.9547
#
#
#
# Elastic Compliance Matrix: (Units=1/GPa)
#
#
# Indices 1 2 3 4 5 6 
#
# 1 0.026440 -0.004531 -0.012877 -0.000002 0.008749 0.000004
# 2 -0.004531 0.009290 -0.001427 0.000000 -0.000430 -0.000001
# 3 -0.012877 -0.001427 0.024701 0.000000 -0.015457 -0.000003
# 4 -0.000002 0.000000 0.000000 0.075676 -0.000002 -0.108005
# 5 0.008749 -0.000430 -0.015457 -0.000002 0.043343 0.000002
# 6 0.000004 -0.000001 -0.000003 -0.108005 0.000002 0.254601
#
#
# Mechanical properties :
#
#
# Convention : Reuss Voigt Hill
#
# Bulk Modulus (GPa) = 43.93839 50.15759 47.04799
# Shear Modulus (GPa) = 10.43169 25.62649 18.02909
#
# Velocity S-wave (km/s) = 2.39406 3.75234 3.14735
# Velocity P-wave (km/s) = 5.63767 6.80675 6.24960
#
# Compressibility (1/GPa) = 0.02275914
#
# Stress axis : x y z
#
# Youngs Moduli (GPa) = 37.82126 107.64751 40.48378
#
# Poissons Ratio (x) = 0.48776 0.52133
# Poissons Ratio (y) = 0.17137 0.05779
# Poissons Ratio (z) = 0.48704 0.15365
#
# Static dielectric constant tensor:
#      x y z
#    x 2.869150 -0.000010 0.500420 
#    y -0.000010 4.437690 0.000000 
#    z 0.500420 0.000000 3.917950 
# 
# 
# High freq. dielectric constant tensor:
#      x y z
#    x 1.634130 0.000000 0.043880 
#    y 0.000000 1.738610 0.000000 
#    z 0.043880 0.000000 1.704440 
# 
# From -- ./inp_files/215605.got.cif
#   From: 2010.06.25/outbox.cif.g09.slc.cpg/sg15_108_cif.got.tgz:215605.got - 2010.06.28 07:06:18.
