data_PCOD8131022
_publ_section_title
;
Structure prediction by ZEFSAII (Michael W. Deem and Ramdas Pophale) SiO2 
 PCOD8131022
Probable space group: C 2/C
;
_chemical_formula_sum "Si O2"
_cell_formula_units_Z 64
_cell_length_a 18.543018
_cell_length_b 11.998903
_cell_length_c 25.473360
_cell_angle_alpha 90.000000
_cell_angle_beta 133.177129
_cell_angle_gamma 90.000000
_cell_volume 4133.136645
_symmetry_space_group_name_H-M "C 2/C"
_symmetry_group_IT_number 15
_symmetry_cell_setting 'monoclinic'
loop_
_space_group_symop_operation_xyz
x,y,z
-x,y,1/2-z
-x,-y,-z
x,-y,1/2+z
1/2+x,1/2+y,z
1/2-x,1/2+y,1/2-z
1/2-x,1/2-y,-z
1/2+x,1/2-y,1/2+z
loop_
_atom_site_type_symbol
_atom_site_label
_atom_site_fract_x
_atom_site_fract_y
_atom_site_fract_z
Si Si1 0.612208 0.271168 0.745518
Si Si2 0.258190 0.475975 0.685619
Si Si3 0.888661 0.227782 0.132089
Si Si4 0.617514 0.030206 0.908674
Si Si5 0.882440 0.142385 0.691363
Si Si6 0.382983 0.101734 0.192819
Si Si7 0.385448 0.031342 0.794625
Si Si8 0.261620 0.520227 0.071376
O O1 0.684110 0.369399 0.762705
O O2 0.623402 0.247291 0.812570
O O3 0.501031 0.307415 0.676089
O O4 0.640290 0.159300 0.729101
O O5 0.335761 0.579824 0.719177
O O6 0.167019 0.500249 0.677572
O O7 0.215380 0.450521 0.605756
O O8 0.859834 0.339301 0.086854
O O9 0.819939 0.127429 0.078223
O O10 0.501624 0.009399 0.859738
O O11 0.658494 0.961686 0.879039
O O12 0.675458 0.986089 0.988549
O O13 0.848555 0.270422 0.675023
O O14 0.000000 0.128920 0.750000
O O15 0.838509 0.083116 0.616992
O O16 0.500000 0.090472 0.250000
O O17 0.342943 0.043447 0.225749
#
# Coordination Sequence:
#
# PCOD8131022 Si02
#       8
#     8   8   8   8   8   8   8   8
#     4   9  16  29  50  70  92 118 156 199 235 264
#     4   9  20  29  46  72  94 122 154 185 240 277
#     4   9  15  29  50  72  92 114 156 202 232 267
#     4  10  18  31  48  71  96 124 156 191 232 275
#     4   9  18  33  48  68  94 121 161 196 228 272
#     4   9  18  31  49  68  90 124 160 193 225 264
#     4  10  19  31  48  70  97 124 154 195 230 276
#     4   9  19  29  47  74  95 122 153 189 238 279
#
# _framework density 15.484608
#
# number of rings (size 3 to 8) (size 9 to 14) (size 15 to 20)
#    0.750    2.000    1.250    1.125    1.750    1.000 
#    0.000    0.000    0.000    0.000    0.000    3.500 
#    0.000    0.000    0.000    0.000    0.000    0.000 
#
# Total GULP energy -396604.278051 kJ/mol
# GULP energy per Si atom -12393.883689 kJ/mol
# Density = 1.544936 g / cm^3
# Si number density = 15.484608 Si / 1000 Ang^3
#
#
#
# Elastic Constant Matrix: (Units=GPa)
#
#
# Indices 1 2 3 4 5 6 
#
# 1 77.0849 48.7227 31.1657 0.0000 -4.2572 0.0000
# 2 48.7227 99.1253 51.5794 0.0000 0.0493 0.0000
# 3 31.1657 51.5794 93.7243 0.0000 -4.5279 0.0000
# 4 0.0000 0.0000 0.0000 12.1937 0.0000 0.2108
# 5 -4.2572 0.0493 -4.5279 0.0000 12.5226 0.0000
# 6 0.0000 0.0000 0.0000 0.2108 0.0000 19.4458
#
#
#
# Elastic Compliance Matrix: (Units=1/GPa)
#
#
# Indices 1 2 3 4 5 6 
#
# 1 0.019457 -0.008906 -0.001270 0.000000 0.006191 0.000000
# 2 -0.008906 0.018319 -0.007399 0.000000 -0.005775 0.000000
# 3 -0.001270 -0.007399 0.015413 0.000000 0.005171 0.000000
# 4 0.000000 0.000000 0.000000 0.082025 0.000000 -0.000889
# 5 0.006191 -0.005775 0.005171 0.000000 0.083853 0.000000
# 6 0.000000 0.000000 0.000000 -0.000889 0.000000 0.051435
#
#
# Mechanical properties :
#
#
# Convention : Reuss Voigt Hill
#
# Bulk Modulus (GPa) = 55.43215 59.20781 57.31998
# Shear Modulus (GPa) = 16.04292 18.06353 17.05323
#
# Velocity S-wave (km/s) = 3.22227 3.41918 3.32219
# Velocity P-wave (km/s) = 7.05124 7.34216 7.19817
#
# Compressibility (1/GPa) = 0.01804007
#
# Stress axis : x y z
#
# Youngs Moduli (GPa) = 51.39488 54.58916 64.87888
#
# Poissons Ratio (x) = 0.48618 0.08237
# Poissons Ratio (y) = 0.45773 0.48003
# Poissons Ratio (z) = 0.06525 0.40389
#
# Static dielectric constant tensor:
#      x y z
#    x 2.694050 0.000000 -0.026560 
#    y 0.000000 3.066790 0.000000 
#    z -0.026560 0.000000 2.746950 
# 
# 
# High freq. dielectric constant tensor:
#      x y z
#    x 1.570900 0.000000 -0.001630 
#    y 0.000000 1.603940 0.000000 
#    z -0.001630 0.000000 1.575350 
# 
# From -- ./inp_files/298693.got.cif
#   From: 2010.06.25/outbox.cif.g09.slc.cpg/sg15_150_cif.got.tgz:298693.got - 2010.06.28 07:06:18.
