data_PCOD8131813
_publ_section_title
;
Structure prediction by ZEFSAII (Michael W. Deem and Ramdas Pophale) SiO2 
 PCOD8131813
Probable space group: C 2/C
;
_chemical_formula_sum "Si O2"
_cell_formula_units_Z 40
_cell_length_a 19.308107
_cell_length_b 7.755600
_cell_length_c 15.369152
_cell_angle_alpha 90.000000
_cell_angle_beta 120.504472
_cell_angle_gamma 90.000000
_cell_volume 1982.921056
_symmetry_space_group_name_H-M "C 2/C"
_symmetry_group_IT_number 15
_symmetry_cell_setting 'monoclinic'
loop_
_space_group_symop_operation_xyz
x,y,z
-x,y,1/2-z
-x,-y,-z
x,-y,1/2+z
1/2+x,1/2+y,z
1/2-x,1/2+y,1/2-z
1/2-x,1/2-y,-z
1/2+x,1/2-y,1/2+z
loop_
_atom_site_type_symbol
_atom_site_label
_atom_site_fract_x
_atom_site_fract_y
_atom_site_fract_z
Si Si1 0.271287 0.493488 0.656202
Si Si2 0.877486 0.000967 0.056484
Si Si3 0.825651 0.172690 0.859616
Si Si4 0.469412 0.204171 0.544057
Si Si5 0.897425 0.646172 0.997266
O O1 0.329896 0.462890 0.613323
O O2 0.246412 0.307250 0.675374
O O3 0.321063 0.585981 0.763318
O O4 0.195854 0.608160 0.578557
O O5 0.820067 0.034387 0.935560
O O6 0.953121 0.136948 0.100465
O O7 0.906765 0.803214 0.071350
O O8 0.911513 0.270657 0.922020
O O9 0.560844 0.200747 0.568305
O O10 0.443176 0.019469 0.568212
#
# Coordination Sequence:
#
# PCOD8131813 Si02
#       5
#     8   8   8   8   8
#     4  11  20  36  58  89 112 154 194 243 282 345
#     4  10  20  36  60  83 111 155 194 234 288 346
#     4   9  21  35  55  83 119 143 193 240 285 336
#     4   8  20  36  56  84 114 153 186 240 289 347
#     4  10  18  34  60  83 112 151 192 231 300 339
#
# _framework density 20.172260999999999
#
# number of rings (size 3 to 8) (size 9 to 14) (size 15 to 20)
#    1.200    1.200    0.000    3.000    0.000    0.000 
#    0.000    1.000    0.000    2.400    0.000    0.000 
#    0.000    0.000    0.000    0.000    0.000    0.000 
#
# Total GULP energy -247829.296281 kJ/mol
# GULP energy per Si atom -12391.464814 kJ/mol
# Density = 2.012635 g / cm^3
# Si number density = 20.172261 Si / 1000 Ang^3
#
#
#
# Elastic Constant Matrix: (Units=GPa)
#
#
# Indices 1 2 3 4 5 6 
#
# 1 84.3071 19.7723 11.5104 0.0000 -23.0343 0.0000
# 2 19.7723 105.4288 12.8427 0.0000 -8.9506 0.0000
# 3 11.5104 12.8427 38.3964 0.0000 -18.9262 0.0000
# 4 0.0000 0.0000 0.0000 13.1912 0.0000 -2.5849
# 5 -23.0343 -8.9506 -18.9262 0.0000 19.0527 0.0000
# 6 0.0000 0.0000 0.0000 -2.5849 0.0000 29.5443
#
#
#
# Elastic Compliance Matrix: (Units=1/GPa)
#
#
# Indices 1 2 3 4 5 6 
#
# 1 0.020575 -0.002304 0.012404 0.000000 0.036115 0.000000
# 2 -0.002304 0.010215 -0.003397 0.000000 -0.001360 0.000000
# 3 0.012404 -0.003397 0.058914 0.000000 0.071924 0.000000
# 4 0.000000 0.000000 0.000000 0.077131 0.000000 0.006748
# 5 0.036115 -0.001360 0.071924 0.000000 0.166957 0.000000
# 6 0.000000 0.000000 0.000000 0.006748 0.000000 0.034438
#
#
# Mechanical properties :
#
#
# Convention : Reuss Voigt Hill
#
# Bulk Modulus (GPa) = 9.69812 35.15366 22.42589
# Shear Modulus (GPa) = 12.84707 24.62476 18.73591
#
# Velocity S-wave (km/s) = 2.52636 3.49768 3.05092
# Velocity P-wave (km/s) = 3.65077 5.81173 4.85306
#
# Compressibility (1/GPa) = 0.10311273
#
# Stress axis : x y z
#
# Youngs Moduli (GPa) = 48.60153 97.89149 16.97380
#
# Poissons Ratio (x) = 0.22551 -0.21055
# Poissons Ratio (y) = 0.11196 0.05766
# Poissons Ratio (z) = -0.60286 0.33251
#
# Static dielectric constant tensor:
#      x y z
#    x 3.520790 0.000000 0.011260 
#    y 0.000000 3.948830 0.000000 
#    z 0.011260 0.000000 3.082480 
# 
# 
# High freq. dielectric constant tensor:
#      x y z
#    x 1.785030 0.000000 -0.005570 
#    y 0.000000 1.810380 0.000000 
#    z -0.005570 0.000000 1.730790 
# 
# From -- ./inp_files/159113.got.cif
#   From: 2010.06.25/outbox.cif.g09.slc.cpg/sg15_80_cif.got.tgz:159113.got - 2010.06.28 07:06:18.
