data_PCOD8131981
_publ_section_title
;
Structure prediction by ZEFSAII (Michael W. Deem and Ramdas Pophale) SiO2 
 PCOD8131981
Probable space group: C 2/C
;
_chemical_formula_sum "Si O2"
_cell_formula_units_Z 48
_cell_length_a 15.801923
_cell_length_b 9.164955
_cell_length_c 22.256272
_cell_angle_alpha 90.000000
_cell_angle_beta 47.986996
_cell_angle_gamma 90.000000
_cell_volume 2394.844860
_symmetry_space_group_name_H-M "C 2/C"
_symmetry_group_IT_number 15
_symmetry_cell_setting 'monoclinic'
loop_
_space_group_symop_operation_xyz
x,y,z
-x,y,1/2-z
-x,-y,-z
x,-y,1/2+z
1/2+x,1/2+y,z
1/2-x,1/2+y,1/2-z
1/2-x,1/2-y,-z
1/2+x,1/2-y,1/2+z
loop_
_atom_site_type_symbol
_atom_site_label
_atom_site_fract_x
_atom_site_fract_y
_atom_site_fract_z
Si Si1 0.551946 0.771800 0.583764
Si Si2 0.130724 0.286951 0.086394
Si Si3 0.073791 0.975022 0.156506
Si Si4 0.377673 0.061773 0.338545
Si Si5 0.543791 0.041237 0.914022
Si Si6 0.780807 0.701728 0.602957
O O1 0.516447 0.615224 0.628212
O O2 0.633166 0.849400 0.593995
O O3 0.619712 0.749432 0.489853
O O4 0.444916 0.884410 0.625648
O O5 0.152351 0.393788 0.133399
O O6 0.046941 0.358901 0.077868
O O7 0.071679 0.143404 0.140264
O O8 0.250000 0.250000 0.000000
O O9 0.201520 0.919793 0.108947
O O10 0.000000 0.944267 0.250000
O O11 0.500000 0.075537 0.250000
O O12 0.284629 0.150836 0.343097
O O13 0.662977 0.127048 0.864324
O O14 0.500000 0.000000 0.000000
#
# Coordination Sequence:
#
# PCOD8131981 Si02
#       6
#     8   8   8   8   8   8
#     4   9  17  33  56  78 104 145 181 212 266 331
#     4  11  21  37  57  79 107 144 187 232 275 327
#     4  11  21  35  55  83 112 142 183 230 272 326
#     4  10  19  33  55  80 107 146 185 222 273 332
#     4   9  19  35  56  82 109 140 183 230 274 325
#     4  10  18  35  58  80 106 143 186 224 267 329
#
# _framework density 20.043050000000001
#
# number of rings (size 3 to 8) (size 9 to 14) (size 15 to 20)
#    0.000    2.000    0.000    8.500    0.000    0.000 
#    0.000   14.167    0.000    8.000    0.000    0.000 
#    0.000    0.000    0.000    0.000    0.000    0.000 
#
# Total GULP energy -297352.904543 kJ/mol
# GULP energy per Si atom -12389.704356 kJ/mol
# Density = 1.999743 g / cm^3
# Si number density = 20.043050 Si / 1000 Ang^3
#
#
#
# Elastic Constant Matrix: (Units=GPa)
#
#
# Indices 1 2 3 4 5 6 
#
# 1 90.3875 59.3072 23.8715 0.0000 -17.8506 0.0000
# 2 59.3072 181.5096 45.0361 0.0000 -13.7654 0.0001
# 3 23.8715 45.0361 93.7386 0.0000 -6.5696 0.0000
# 4 0.0000 0.0000 0.0000 26.4940 0.0000 2.2580
# 5 -17.8506 -13.7654 -6.5696 0.0000 15.9181 0.0000
# 6 0.0000 0.0001 0.0000 2.2580 0.0000 36.5546
#
#
#
# Elastic Compliance Matrix: (Units=1/GPa)
#
#
# Indices 1 2 3 4 5 6 
#
# 1 0.017084 -0.004113 -0.001319 0.000000 0.015057 0.000000
# 2 -0.004113 0.007544 -0.002516 0.000000 0.000873 0.000000
# 3 -0.001319 -0.002516 0.012313 0.000000 0.001426 0.000000
# 4 0.000000 0.000000 0.000000 0.037944 0.000000 -0.002344
# 5 0.015057 0.000873 0.001426 0.000000 0.081050 0.000000
# 6 0.000000 0.000000 0.000000 -0.002344 0.000000 0.027501
#
#
# Mechanical properties :
#
#
# Convention : Reuss Voigt Hill
#
# Bulk Modulus (GPa) = 47.51854 69.11836 58.31845
# Shear Modulus (GPa) = 24.23109 31.62141 27.92625
#
# Velocity S-wave (km/s) = 3.48077 3.97630 3.73676
# Velocity P-wave (km/s) = 6.31776 7.45930 6.91213
#
# Compressibility (1/GPa) = 0.02104442
#
# Stress axis : x y z
#
# Youngs Moduli (GPa) = 58.53362 132.56247 81.21767
#
# Poissons Ratio (x) = 0.54521 0.10716
# Poissons Ratio (y) = 0.24074 0.20432
# Poissons Ratio (z) = 0.07723 0.33349
#
# Static dielectric constant tensor:
#      x y z
#    x 4.094690 0.000000 0.007130 
#    y 0.000000 4.272770 0.000000 
#    z 0.007130 0.000000 3.404990 
# 
# 
# High freq. dielectric constant tensor:
#      x y z
#    x 1.757910 0.000000 0.008130 
#    y 0.000000 1.799400 0.000000 
#    z 0.008130 0.000000 1.764680 
# 
# From -- ./inp_files/295415.got.cif
#   From: 2010.06.25/outbox.cif.g09.slc.cpg/sg15_148_cif.got.tgz:295415.got - 2010.06.28 07:06:18.
