data_PCOD8131292
_publ_section_title
;
Structure prediction by ZEFSAII (Michael W. Deem and Ramdas Pophale) SiO2 
 PCOD8131292
Probable space group: C 2/C
;
_chemical_formula_sum "Si O2"
_cell_formula_units_Z 48
_cell_length_a 14.242503
_cell_length_b 22.142325
_cell_length_c 11.808745
_cell_angle_alpha 90.000000
_cell_angle_beta 41.292223
_cell_angle_gamma 90.000000
_cell_volume 2457.486887
_symmetry_space_group_name_H-M "C 2/C"
_symmetry_group_IT_number 15
_symmetry_cell_setting 'monoclinic'
loop_
_space_group_symop_operation_xyz
x,y,z
-x,y,1/2-z
-x,-y,-z
x,-y,1/2+z
1/2+x,1/2+y,z
1/2-x,1/2+y,1/2-z
1/2-x,1/2-y,-z
1/2+x,1/2-y,1/2+z
loop_
_atom_site_type_symbol
_atom_site_label
_atom_site_fract_x
_atom_site_fract_y
_atom_site_fract_z
Si Si1 0.811309 0.969031 0.175934
Si Si2 0.709023 0.067999 0.126847
Si Si3 0.512740 0.224386 0.372924
Si Si4 0.076871 0.405684 0.513826
Si Si5 0.560305 0.422067 0.821589
Si Si6 0.181082 0.824445 0.859827
O O1 0.666280 0.931775 0.328386
O O2 0.793080 0.006998 0.076440
O O3 0.850895 0.015153 0.242989
O O4 0.936553 0.922693 0.030392
O O5 0.587496 0.074036 0.335820
O O6 0.809662 0.126661 0.046747
O O7 0.648152 0.064778 0.058421
O O8 0.500000 0.235465 0.250000
O O9 0.414878 0.166620 0.491021
O O10 0.673187 0.214463 0.272525
O O11 0.451625 0.281042 0.496385
O O12 0.500000 0.415864 0.750000
O O13 0.654609 0.362401 0.766792
#
# Coordination Sequence:
#
# PCOD8131292 Si02
#       6
#     8   8   8   8   8   8
#     4  10  20  33  60  83 111 152 197 228 294 351
#     4   9  18  34  50  86 118 146 181 236 288 343
#     4  11  21  37  59  88 118 152 191 246 295 341
#     4  10  18  32  55  83 119 148 181 234 294 346
#     4  10  22  40  55  83 118 153 195 246 283 340
#     4  10  22  36  58  81 116 152 194 240 290 339
#
# _framework density 19.532149
#
# number of rings (size 3 to 8) (size 9 to 14) (size 15 to 20)
#    0.000    2.000    3.333    2.000    2.333    0.000 
#    0.000    2.500    0.000    0.000    0.000    0.000 
#    0.000    0.000    0.000    0.000    0.000    0.000 
#
# Total GULP energy -297412.980281 kJ/mol
# GULP energy per Si atom -12392.207512 kJ/mol
# Density = 1.948769 g / cm^3
# Si number density = 19.532149 Si / 1000 Ang^3
#
#
#
# Elastic Constant Matrix: (Units=GPa)
#
#
# Indices 1 2 3 4 5 6 
#
# 1 109.7970 36.2763 15.5089 0.0003 3.4842 -0.0002
# 2 36.2763 77.1602 46.0017 0.0002 -5.0403 -0.0002
# 3 15.5089 46.0017 58.4200 0.0005 -9.4527 -0.0005
# 4 0.0003 0.0002 0.0005 28.4323 -0.0004 -11.6364
# 5 3.4842 -5.0403 -9.4527 -0.0004 21.5785 0.0004
# 6 -0.0002 -0.0002 -0.0005 -11.6364 0.0004 24.0341
#
#
#
# Elastic Compliance Matrix: (Units=1/GPa)
#
#
# Indices 1 2 3 4 5 6 
#
# 1 0.011052 -0.006348 0.001653 0.000000 -0.002543 0.000000
# 2 -0.006348 0.028246 -0.020798 0.000000 -0.001488 0.000000
# 3 0.001653 -0.020798 0.034685 0.000000 0.010069 0.000000
# 4 0.000000 0.000000 0.000000 0.043863 0.000001 0.021237
# 5 -0.002543 -0.001488 0.010069 0.000001 0.050817 0.000000
# 6 0.000000 0.000000 0.000000 0.021237 0.000000 0.051890
#
#
# Mechanical properties :
#
#
# Convention : Reuss Voigt Hill
#
# Bulk Modulus (GPa) = 43.48184 48.99455 46.23820
# Shear Modulus (GPa) = 17.90810 24.64833 21.27822
#
# Velocity S-wave (km/s) = 3.03124 3.55623 3.30418
# Velocity P-wave (km/s) = 5.87888 6.48081 6.18717
#
# Compressibility (1/GPa) = 0.02299811
#
# Stress axis : x y z
#
# Youngs Moduli (GPa) = 90.48005 35.40283 28.83117
#
# Poissons Ratio (x) = 0.22472 -0.04765
# Poissons Ratio (y) = 0.57432 0.59962
# Poissons Ratio (z) = -0.14953 0.73630
#
# Static dielectric constant tensor:
#      x y z
#    x 3.534750 0.000000 -0.368030 
#    y 0.000000 3.565410 0.000000 
#    z -0.368030 0.000000 3.386460 
# 
# 
# High freq. dielectric constant tensor:
#      x y z
#    x 1.756780 0.000000 -0.028550 
#    y 0.000000 1.760680 0.000000 
#    z -0.028550 0.000000 1.734460 
# 
# From -- ./inp_files/99979.got.cif
#   From: 2010.06.25/outbox.cif.g09.slc.cpg/sg15_50_cif.got.tgz:99979.got - 2010.06.28 07:06:18.
