data_PCOD8131991
_publ_section_title
;
Structure prediction by ZEFSAII (Michael W. Deem and Ramdas Pophale) SiO2 
 PCOD8131991
Probable space group: C 2/C
;
_chemical_formula_sum "Si O2"
_cell_formula_units_Z 56
_cell_length_a 15.069722
_cell_length_b 18.355629
_cell_length_c 11.476122
_cell_angle_alpha 90.000000
_cell_angle_beta 68.586214
_cell_angle_gamma 90.000000
_cell_volume 2955.319366
_symmetry_space_group_name_H-M "C 2/C"
_symmetry_group_IT_number 15
_symmetry_cell_setting 'monoclinic'
loop_
_space_group_symop_operation_xyz
x,y,z
-x,y,1/2-z
-x,-y,-z
x,-y,1/2+z
1/2+x,1/2+y,z
1/2-x,1/2+y,1/2-z
1/2-x,1/2-y,-z
1/2+x,1/2-y,1/2+z
loop_
_atom_site_type_symbol
_atom_site_label
_atom_site_fract_x
_atom_site_fract_y
_atom_site_fract_z
Si Si1 0.115150 0.793440 0.093127
Si Si2 0.763971 0.677760 0.919632
Si Si3 0.809824 0.639348 0.457633
Si Si4 0.599721 0.963307 0.760412
Si Si5 0.588779 0.702623 0.871696
Si Si6 0.385392 0.122470 0.668369
Si Si7 0.407516 0.860756 0.527275
O O1 0.115722 0.705589 0.091706
O O2 0.114864 0.817440 0.227089
O O3 0.022592 0.817899 0.062202
O O4 0.204207 0.829720 0.987059
O O5 0.657754 0.654939 0.924330
O O6 0.832360 0.684811 0.771623
O O7 0.750000 0.750000 0.000000
O O8 0.818415 0.624193 0.982655
O O9 0.821150 0.577382 0.354905
O O10 0.827193 0.607908 0.577809
O O11 0.500000 0.947205 0.750000
O O12 0.592006 0.931906 0.893879
O O13 0.622659 0.048295 0.754000
O O14 0.607137 0.788039 0.889058
O O15 0.494882 0.145000 0.594099
#
# Coordination Sequence:
#
# PCOD8131991 Si02
#       7
#     8   8   8   8   8   8   8
#     4  10  19  35  61  85 113 145 197 248 284 329
#     4  10  23  37  55  83 121 155 188 235 299 345
#     4  11  22  36  59  88 116 149 198 240 290 339
#     4  12  23  36  58  86 121 160 194 232 284 353
#     4  10  18  35  58  86 112 148 191 245 288 331
#     4  12  23  37  56  87 122 156 188 230 293 356
#     4  11  21  37  56  85 124 157 186 232 288 357
#
# _framework density 18.948882000000001
#
# number of rings (size 3 to 8) (size 9 to 14) (size 15 to 20)
#    0.000    1.143    5.714    1.714    2.000    0.000 
#    0.000    0.000    0.000    0.857    3.714    0.000 
#    0.000    0.000    0.000    0.000    0.000    0.000 
#
# Total GULP energy -346997.672295 kJ/mol
# GULP energy per Si atom -12392.774011 kJ/mol
# Density = 1.890575 g / cm^3
# Si number density = 18.948882 Si / 1000 Ang^3
#
#
#
# Elastic Constant Matrix: (Units=GPa)
#
#
# Indices 1 2 3 4 5 6 
#
# 1 163.0437 24.8694 45.5325 0.0000 15.4349 0.0000
# 2 24.8694 49.4514 30.7325 0.0000 -5.0845 0.0000
# 3 45.5325 30.7325 96.1483 0.0000 -1.7026 0.0000
# 4 0.0000 0.0000 0.0000 26.7229 0.0000 -0.2705
# 5 15.4349 -5.0845 -1.7026 0.0000 31.1523 0.0000
# 6 0.0000 0.0000 0.0000 -0.2705 0.0000 16.3238
#
#
#
# Elastic Compliance Matrix: (Units=1/GPa)
#
#
# Indices 1 2 3 4 5 6 
#
# 1 0.007759 -0.002526 -0.002945 0.000000 -0.004418 0.000000
# 2 -0.002526 0.026486 -0.007178 0.000000 0.005182 0.000000
# 3 -0.002945 -0.007178 0.014108 0.000000 0.001059 0.000000
# 4 0.000000 0.000000 0.000000 0.037427 0.000000 0.000620
# 5 -0.004418 0.005182 0.001059 0.000000 0.035193 0.000000
# 6 0.000000 0.000000 0.000000 0.000620 0.000000 0.061271
#
#
# Mechanical properties :
#
#
# Convention : Reuss Voigt Hill
#
# Bulk Modulus (GPa) = 43.37412 56.76801 50.07106
# Shear Modulus (GPa) = 23.23115 28.67372 25.95244
#
# Velocity S-wave (km/s) = 3.50521 3.89423 3.70483
# Velocity P-wave (km/s) = 6.27071 7.08827 6.69198
#
# Compressibility (1/GPa) = 0.02305522
#
# Stress axis : x y z
#
# Youngs Moduli (GPa) = 128.87604 37.75604 70.87932
#
# Poissons Ratio (x) = 0.09537 0.20877
# Poissons Ratio (y) = 0.32554 0.50876
# Poissons Ratio (z) = 0.37959 0.27101
#
# Static dielectric constant tensor:
#      x y z
#    x 3.838630 0.000000 0.063450 
#    y 0.000000 3.140940 0.000000 
#    z 0.063450 0.000000 3.559250 
# 
# 
# High freq. dielectric constant tensor:
#      x y z
#    x 1.748760 0.000000 0.011830 
#    y 0.000000 1.691150 0.000000 
#    z 0.011830 0.000000 1.744590 
# 
# From -- ./inp_files/98237.got.cif
#   From: 2010.06.25/outbox.cif.g09.slc.cpg/sg15_50_cif.got.tgz:98237.got - 2010.06.28 07:06:18.
