data_PCOD8131228
_publ_section_title
;
Structure prediction by ZEFSAII (Michael W. Deem and Ramdas Pophale) SiO2 
 PCOD8131228
Probable space group: C 2/C
;
_chemical_formula_sum "Si O2"
_cell_formula_units_Z 52
_cell_length_a 9.384846
_cell_length_b 16.050322
_cell_length_c 24.188895
_cell_angle_alpha 90.000000
_cell_angle_beta 42.547384
_cell_angle_gamma 90.000000
_cell_volume 2463.779910
_symmetry_space_group_name_H-M "C 2/C"
_symmetry_group_IT_number 15
_symmetry_cell_setting 'monoclinic'
loop_
_space_group_symop_operation_xyz
x,y,z
-x,y,1/2-z
-x,-y,-z
x,-y,1/2+z
1/2+x,1/2+y,z
1/2-x,1/2+y,1/2-z
1/2-x,1/2-y,-z
1/2+x,1/2-y,1/2+z
loop_
_atom_site_type_symbol
_atom_site_label
_atom_site_fract_x
_atom_site_fract_y
_atom_site_fract_z
Si Si1 0.901144 0.749961 0.587238
Si Si2 0.178951 0.569809 0.886021
Si Si3 0.279771 0.570721 0.138263
Si Si4 0.789010 0.054488 0.441349
Si Si5 0.785252 0.234228 0.404784
Si Si6 0.000000 0.668907 0.750000
Si Si7 0.892969 0.482099 0.210780
O O1 0.049405 0.732338 0.597559
O O2 0.048124 0.759684 0.490704
O O3 0.757153 0.666909 0.626508
O O4 0.750035 0.830495 0.634958
O O5 0.312614 0.525255 0.895256
O O6 0.225759 0.526785 0.813535
O O7 0.929900 0.556781 0.964302
O O8 0.529851 0.551028 0.063189
O O9 0.217856 0.552196 0.219857
O O10 0.139315 0.513907 0.136934
O O11 0.808012 0.134590 0.396063
O O12 0.835234 0.273294 0.330588
O O13 0.875218 0.609007 0.743523
#
# Coordination Sequence:
#
# PCOD8131228 Si02
#       7
#     8   8   8   8   8   4   8
#     4   9  17  34  59  78 108 151 189 221 273 349
#     4  10  19  37  59  83 115 145 184 233 285 329
#     4   9  20  37  54  82 110 146 192 223 279 335
#     4   9  20  35  60  85 108 147 191 229 274 345
#     4   9  17  31  56  85 106 146 192 223 273 332
#     4  10  18  32  52  82 114 138 184 242 260 328
#     4  10  22  37  53  81 119 145 184 240 287 324
#
# _framework density 21.105781
#
# number of rings (size 3 to 8) (size 9 to 14) (size 15 to 20)
#    0.000    2.769    1.538    0.923    0.000    3.692 
#    2.769    3.077    3.385    2.769    0.000    0.000 
#    0.000    0.000    0.000    0.000    0.000    0.000 
#
# Total GULP energy -322221.458287 kJ/mol
# GULP energy per Si atom -12393.133011 kJ/mol
# Density = 2.105774 g / cm^3
# Si number density = 21.105781 Si / 1000 Ang^3
#
#
#
# Elastic Constant Matrix: (Units=GPa)
#
#
# Indices 1 2 3 4 5 6 
#
# 1 26.7073 10.2902 -6.4992 0.0051 4.5700 -0.0033
# 2 10.2902 135.9927 35.9888 -0.0021 12.1434 -0.0015
# 3 -6.4992 35.9888 69.2343 -0.0067 12.8625 0.0115
# 4 0.0051 -0.0021 -0.0067 38.8172 -0.0039 1.5457
# 5 4.5700 12.1434 12.8625 -0.0039 22.9514 -0.0014
# 6 -0.0033 -0.0015 0.0115 1.5457 -0.0014 15.7544
#
#
#
# Elastic Compliance Matrix: (Units=1/GPa)
#
#
# Indices 1 2 3 4 5 6 
#
# 1 0.043099 -0.004515 0.008420 -0.000006 -0.010911 0.000002
# 2 -0.004515 0.009106 -0.004944 0.000000 -0.001148 0.000003
# 3 0.008420 -0.004944 0.019678 0.000002 -0.010089 -0.000014
# 4 -0.000006 0.000000 0.000002 0.025863 0.000005 -0.002537
# 5 -0.010911 -0.001148 -0.010089 0.000005 0.052005 0.000009
# 6 0.000002 0.000003 -0.000014 -0.002537 0.000009 0.063723
#
#
# Mechanical properties :
#
#
# Convention : Reuss Voigt Hill
#
# Bulk Modulus (GPa) = 14.32564 34.61042 24.46803
# Shear Modulus (GPa) = 20.93629 28.31490 24.62560
#
# Velocity S-wave (km/s) = 3.15297 3.66672 3.41951
# Velocity P-wave (km/s) = 4.47853 5.86179 5.21622
#
# Compressibility (1/GPa) = 0.06980491
#
# Stress axis : x y z
#
# Youngs Moduli (GPa) = 23.20255 109.81970 50.81726
#
# Poissons Ratio (x) = 0.49584 -0.42788
# Poissons Ratio (y) = 0.10476 0.25123
# Poissons Ratio (z) = -0.19536 0.54293
#
# Static dielectric constant tensor:
#      x y z
#    x 3.481230 0.000000 -0.088170 
#    y 0.000000 3.970820 0.000000 
#    z -0.088170 0.000000 3.790240 
# 
# 
# High freq. dielectric constant tensor:
#      x y z
#    x 1.786840 0.000000 0.000370 
#    y 0.000000 1.837990 0.000000 
#    z 0.000370 0.000000 1.816190 
# 
# From -- ./inp_files/292659.got.cif
#   From: 2010.06.25/outbox.cif.g09.slc.cpg/sg15_147_cif.got.tgz:292659.got - 2010.06.28 07:06:18.
