data_PCOD8131635
_publ_section_title
;
Structure prediction by ZEFSAII (Michael W. Deem and Ramdas Pophale) SiO2 
 PCOD8131635
Probable space group: C 2/C
;
_chemical_formula_sum "Si O2"
_cell_formula_units_Z 48
_cell_length_a 10.978366
_cell_length_b 16.242121
_cell_length_c 16.799679
_cell_angle_alpha 90.000000
_cell_angle_beta 119.776578
_cell_angle_gamma 90.000000
_cell_volume 2600.072239
_symmetry_space_group_name_H-M "C 2/C"
_symmetry_group_IT_number 15
_symmetry_cell_setting 'monoclinic'
loop_
_space_group_symop_operation_xyz
x,y,z
-x,y,1/2-z
-x,-y,-z
x,-y,1/2+z
1/2+x,1/2+y,z
1/2-x,1/2+y,1/2-z
1/2-x,1/2-y,-z
1/2+x,1/2-y,1/2+z
loop_
_atom_site_type_symbol
_atom_site_label
_atom_site_fract_x
_atom_site_fract_y
_atom_site_fract_z
Si Si1 0.830022 0.241124 0.370189
Si Si2 0.803654 0.417862 0.941566
Si Si3 0.326621 0.767390 0.835418
Si Si4 0.641665 0.684587 0.498325
Si Si5 0.076924 0.358201 0.850387
Si Si6 0.617600 0.908434 0.035609
O O1 0.790250 0.259301 0.265886
O O2 0.729504 0.172776 0.374774
O O3 0.809010 0.324033 0.414867
O O4 0.985634 0.205445 0.420493
O O5 0.777044 0.352548 0.862014
O O6 0.692845 0.402556 0.978017
O O7 0.789076 0.512753 0.906799
O O8 0.963429 0.408556 0.025923
O O9 0.476772 0.781403 0.841940
O O10 0.346878 0.690678 0.902340
O O11 0.750000 0.750000 0.500000
O O12 0.000000 0.403547 0.750000
O O13 0.097317 0.416748 0.933149
#
# Coordination Sequence:
#
# PCOD8131635 Si02
#       6
#     8   8   8   8   8   8
#     4  11  19  32  61  78 102 149 189 217 275 326
#     4   9  19  35  52  75 116 136 173 233 281 310
#     4   9  19  34  55  80 105 138 187 224 265 336
#     4  10  18  34  51  79 107 138 179 226 266 324
#     4   9  18  33  55  80 103 139 188 227 258 334
#     4  10  18  34  56  78 102 150 177 220 279 328
#
# _framework density 18.461026
#
# number of rings (size 3 to 8) (size 9 to 14) (size 15 to 20)
#    0.000    2.333    5.000    0.500    0.000    2.667 
#    0.000    7.500   11.000    0.000    0.000    0.000 
#    0.000    0.000    0.000    0.000    0.000    0.000 
#
# Total GULP energy -297388.879869 kJ/mol
# GULP energy per Si atom -12391.203328 kJ/mol
# Density = 1.841901 g / cm^3
# Si number density = 18.461026 Si / 1000 Ang^3
#
#
#
# Elastic Constant Matrix: (Units=GPa)
#
#
# Indices 1 2 3 4 5 6 
#
# 1 100.3189 19.7365 42.3577 0.0000 9.5170 0.0000
# 2 19.7365 72.4879 26.8066 0.0000 5.1638 0.0000
# 3 42.3577 26.8066 116.0987 0.0000 -2.9626 0.0000
# 4 0.0000 0.0000 0.0000 14.6236 0.0000 -2.3968
# 5 9.5170 5.1638 -2.9626 0.0000 26.3021 0.0000
# 6 0.0000 0.0000 0.0000 -2.3968 0.0000 22.5592
#
#
#
# Elastic Compliance Matrix: (Units=1/GPa)
#
#
# Indices 1 2 3 4 5 6 
#
# 1 0.012548 -0.001466 -0.004361 0.000000 -0.004744 0.000000
# 2 -0.001466 0.015557 -0.003131 0.000000 -0.002876 0.000000
# 3 -0.004361 -0.003131 0.011015 0.000000 0.003433 0.000000
# 4 0.000000 0.000000 0.000000 0.069594 0.000000 0.007394
# 5 -0.004744 -0.002876 0.003433 0.000000 0.040688 0.000000
# 6 0.000000 0.000000 0.000000 0.007394 0.000000 0.045113
#
#
# Mechanical properties :
#
#
# Convention : Reuss Voigt Hill
#
# Bulk Modulus (GPa) = 47.15763 51.85634 49.50699
# Shear Modulus (GPa) = 22.77927 26.03062 24.40495
#
# Velocity S-wave (km/s) = 3.51652 3.75911 3.63984
# Velocity P-wave (km/s) = 6.48751 6.85506 6.67381
#
# Compressibility (1/GPa) = 0.02120547
#
# Stress axis : x y z
#
# Youngs Moduli (GPa) = 79.69535 64.27893 90.78760
#
# Poissons Ratio (x) = 0.09423 0.39588
# Poissons Ratio (y) = 0.11683 0.28422
# Poissons Ratio (z) = 0.34751 0.20123
#
# Static dielectric constant tensor:
#      x y z
#    x 3.832910 0.000000 -0.261610 
#    y 0.000000 3.331150 0.000000 
#    z -0.261610 0.000000 3.489130 
# 
# 
# High freq. dielectric constant tensor:
#      x y z
#    x 1.723520 0.000000 -0.007360 
#    y 0.000000 1.679830 0.000000 
#    z -0.007360 0.000000 1.706960 
# 
# From -- ./inp_files/199328.got.cif
#   From: 2010.06.25/outbox.cif.g09.slc.cpg/sg15_100_cif.got.tgz:199328.got - 2010.06.28 07:06:18.
