data_PCOD8131703
_publ_section_title
;
Structure prediction by ZEFSAII (Michael W. Deem and Ramdas Pophale) SiO2 
 PCOD8131703
Probable space group: C 2/C
;
_chemical_formula_sum "Si O2"
_cell_formula_units_Z 48
_cell_length_a 9.072892
_cell_length_b 10.113817
_cell_length_c 26.372512
_cell_angle_alpha 90.000000
_cell_angle_beta 91.377364
_cell_angle_gamma 90.000000
_cell_volume 2419.283869
_symmetry_space_group_name_H-M "C 2/C"
_symmetry_group_IT_number 15
_symmetry_cell_setting 'monoclinic'
loop_
_space_group_symop_operation_xyz
x,y,z
-x,y,1/2-z
-x,-y,-z
x,-y,1/2+z
1/2+x,1/2+y,z
1/2-x,1/2+y,1/2-z
1/2-x,1/2-y,-z
1/2+x,1/2-y,1/2+z
loop_
_atom_site_type_symbol
_atom_site_label
_atom_site_fract_x
_atom_site_fract_y
_atom_site_fract_z
Si Si1 0.407354 0.366052 0.141615
Si Si2 0.658823 0.339263 0.847250
Si Si3 0.146815 0.207880 0.565351
Si Si4 0.075113 0.382763 0.472118
Si Si5 0.053391 0.630690 0.196426
Si Si6 0.065877 0.629313 0.633295
O O1 0.425722 0.521081 0.152827
O O2 0.500359 0.343484 0.091266
O O3 0.470139 0.268332 0.184925
O O4 0.235768 0.331411 0.138017
O O5 0.759097 0.311866 0.898938
O O6 0.771613 0.338472 0.800673
O O7 0.535337 0.229715 0.835523
O O8 0.089357 0.265245 0.512119
O O9 0.261903 0.089971 0.551170
O O10 0.000000 0.500000 0.500000
O O11 0.966679 0.347722 0.425767
O O12 0.027997 0.518210 0.153035
O O13 0.000000 0.575389 0.250000
#
# Coordination Sequence:
#
# PCOD8131703 Si02
#       6
#     8   8   8   8   8   8
#     4  10  20  37  58  81 109 145 187 230 277 327
#     4   9  20  38  56  82 116 145 182 227 270 326
#     4   9  20  35  53  80 115 150 184 222 266 321
#     4  10  18  34  56  79 113 153 184 219 269 321
#     4  10  22  40  59  80 109 143 181 230 285 336
#     4  10  22  38  58  85 115 145 184 230 274 326
#
# _framework density 19.840579999999999
#
# number of rings (size 3 to 8) (size 9 to 14) (size 15 to 20)
#    0.000    2.333    0.000    3.000    0.000    8.667 
#    0.000   14.167    0.000    0.000    0.000    0.000 
#    0.000    0.000    0.000    0.000    0.000    0.000 
#
# Total GULP energy -297315.092280 kJ/mol
# GULP energy per Si atom -12388.128845 kJ/mol
# Density = 1.979542 g / cm^3
# Si number density = 19.840580 Si / 1000 Ang^3
#
#
#
# Elastic Constant Matrix: (Units=GPa)
#
#
# Indices 1 2 3 4 5 6 
#
# 1 140.0731 71.7211 38.7651 0.0000 -27.7587 0.0000
# 2 71.7211 118.6107 22.9719 0.0000 -2.4218 0.0000
# 3 38.7651 22.9719 69.1261 0.0000 -25.1436 0.0000
# 4 0.0000 0.0000 0.0000 14.5263 0.0000 -3.8877
# 5 -27.7587 -2.4218 -25.1436 0.0000 28.2875 0.0000
# 6 0.0000 0.0000 0.0000 -3.8877 0.0000 43.7584
#
#
#
# Elastic Compliance Matrix: (Units=1/GPa)
#
#
# Indices 1 2 3 4 5 6 
#
# 1 0.013862 -0.008011 -0.000610 0.000000 0.012375 0.000000
# 2 -0.008011 0.013793 -0.003725 0.000000 -0.009992 0.000000
# 3 -0.000610 -0.003725 0.023220 0.000000 0.019721 0.000000
# 4 0.000000 0.000000 0.000000 0.070518 0.000000 0.006265
# 5 0.012375 -0.009992 0.019721 0.000000 0.064169 0.000000
# 6 0.000000 0.000000 0.000000 0.006265 0.000000 0.023409
#
#
# Mechanical properties :
#
#
# Convention : Reuss Voigt Hill
#
# Bulk Modulus (GPa) = 38.19584 66.08069 52.13827
# Shear Modulus (GPa) = 20.62770 30.27122 25.44946
#
# Velocity S-wave (km/s) = 3.22789 3.91029 3.58536
# Velocity P-wave (km/s) = 5.76069 7.33248 6.59359
#
# Compressibility (1/GPa) = 0.02618086
#
# Stress axis : x y z
#
# Youngs Moduli (GPa) = 72.13717 72.50177 43.06632
#
# Poissons Ratio (x) = 0.58084 0.02629
# Poissons Ratio (y) = 0.57792 0.16044
# Poissons Ratio (z) = 0.04403 0.27010
#
# Static dielectric constant tensor:
#      x y z
#    x 3.988120 0.000000 -0.352320 
#    y 0.000000 3.720400 0.000000 
#    z -0.352320 0.000000 3.390930 
# 
# 
# High freq. dielectric constant tensor:
#      x y z
#    x 1.793460 0.000000 -0.020090 
#    y 0.000000 1.762160 0.000000 
#    z -0.020090 0.000000 1.759580 
# 
# From -- ./inp_files/287387.got.cif
#   From: 2010.06.25/outbox.cif.g09.slc.cpg/sg15_144_cif.got.tgz:287387.got - 2010.06.28 07:06:18.
