data_PCOD8131790
_publ_section_title
;
Structure prediction by ZEFSAII (Michael W. Deem and Ramdas Pophale) SiO2 
 PCOD8131790
Probable space group: C 2/C
;
_chemical_formula_sum "Si O2"
_cell_formula_units_Z 60
_cell_length_a 27.425200
_cell_length_b 18.197263
_cell_length_c 16.183375
_cell_angle_alpha 90.000000
_cell_angle_beta 158.473729
_cell_angle_gamma 90.000000
_cell_volume 2963.504484
_symmetry_space_group_name_H-M "C 2/C"
_symmetry_group_IT_number 15
_symmetry_cell_setting 'monoclinic'
loop_
_space_group_symop_operation_xyz
x,y,z
-x,y,1/2-z
-x,-y,-z
x,-y,1/2+z
1/2+x,1/2+y,z
1/2-x,1/2+y,1/2-z
1/2-x,1/2-y,-z
1/2+x,1/2-y,1/2+z
loop_
_atom_site_type_symbol
_atom_site_label
_atom_site_fract_x
_atom_site_fract_y
_atom_site_fract_z
Si Si1 0.506313 0.365313 0.166376
Si Si2 0.500000 0.904285 0.750000
Si Si3 0.036710 0.300617 0.946129
Si Si4 0.367621 0.982683 0.150278
Si Si5 0.116593 0.743962 0.738631
Si Si6 0.199755 0.613436 0.357116
Si Si7 0.409849 0.141280 0.487391
Si Si8 0.809448 0.884043 0.728757
O O1 0.500000 0.393084 0.250000
O O2 0.458462 0.281125 0.082508
O O3 0.657247 0.374883 0.376201
O O4 0.407843 0.415879 0.954679
O O5 0.584203 0.855070 0.948256
O O6 0.609918 0.955489 0.882844
O O7 0.888668 0.325913 0.736070
O O8 0.125244 0.308709 0.170134
O O9 0.490730 0.927739 0.353614
O O10 0.344448 0.028085 0.198358
O O11 0.234657 0.941071 0.910896
O O12 0.096628 0.824883 0.669913
O O13 0.996446 0.715606 0.607823
O O14 0.250000 0.750000 0.000000
O O15 0.196038 0.628818 0.253043
O O16 0.326372 0.147912 0.441183
#
# Coordination Sequence:
#
# PCOD8131790 Si02
#       8
#     8   4   8   8   8   8   8   8
#     4  11  20  37  58  81 117 153 197 246 299 364
#     4  10  18  34  58  92 120 150 198 260 290 354
#     4   9  20  35  57  87 118 150 196 248 306 346
#     4  11  21  36  59  88 121 152 204 249 305 361
#     4  10  21  36  58  90 122 156 199 249 300 358
#     4  10  22  36  59  86 115 157 196 254 303 358
#     4  11  20  39  62  89 120 160 208 248 303 363
#     4  11  22  38  62  89 120 166 199 248 308 363
#
# _framework density 20.246300000000002
#
# number of rings (size 3 to 8) (size 9 to 14) (size 15 to 20)
#    0.000    1.600    4.667    0.800    0.000    0.533 
#    0.000    0.000    0.000    1.600    0.000    0.000 
#    0.000    0.000    0.000    0.000    0.000    0.000 
#
# Total GULP energy -371684.704401 kJ/mol
# GULP energy per Si atom -12389.490147 kJ/mol
# Density = 2.020022 g / cm^3
# Si number density = 20.246300 Si / 1000 Ang^3
#
#
#
# Elastic Constant Matrix: (Units=GPa)
#
#
# Indices 1 2 3 4 5 6 
#
# 1 52.5380 10.4608 9.1030 0.0000 -5.6736 0.0000
# 2 10.4608 60.2885 11.7447 0.0000 3.5677 0.0000
# 3 9.1030 11.7447 111.2350 0.0000 -13.6235 0.0000
# 4 0.0000 0.0000 0.0000 24.3759 0.0000 -1.3538
# 5 -5.6736 3.5677 -13.6235 0.0000 29.4532 0.0000
# 6 0.0000 0.0000 0.0000 -1.3538 0.0000 23.8556
#
#
#
# Elastic Compliance Matrix: (Units=1/GPa)
#
#
# Indices 1 2 3 4 5 6 
#
# 1 0.020320 -0.003607 -0.000794 0.000000 0.003984 0.000000
# 2 -0.003607 0.017838 -0.002054 0.000000 -0.003806 0.000000
# 3 -0.000794 -0.002054 0.009841 0.000000 0.004648 0.000000
# 4 0.000000 0.000000 0.000000 0.041154 0.000000 0.002336
# 5 0.003984 -0.003806 0.004648 0.000000 0.037330 0.000000
# 6 0.000000 0.000000 0.000000 0.002336 0.000000 0.042051
#
#
# Mechanical properties :
#
#
# Convention : Reuss Voigt Hill
#
# Bulk Modulus (GPa) = 28.49941 31.85318 30.17630
# Shear Modulus (GPa) = 25.88775 28.38714 27.13744
#
# Velocity S-wave (km/s) = 3.57969 3.74851 3.66507
# Velocity P-wave (km/s) = 5.58502 5.87385 5.73126
#
# Compressibility (1/GPa) = 0.03508845
#
# Stress axis : x y z
#
# Youngs Moduli (GPa) = 49.21308 56.05963 101.61441
#
# Poissons Ratio (x) = 0.20219 0.08070
# Poissons Ratio (y) = 0.17750 0.20876
# Poissons Ratio (z) = 0.03908 0.11517
#
# Static dielectric constant tensor:
#      x y z
#    x 4.085860 0.000000 -0.368470 
#    y 0.000000 3.705700 0.000000 
#    z -0.368470 0.000000 3.833810 
# 
# 
# High freq. dielectric constant tensor:
#      x y z
#    x 1.792180 0.000000 -0.023770 
#    y 0.000000 1.768240 0.000000 
#    z -0.023770 0.000000 1.787770 
# 
# From -- ./inp_files/225789.got.cif
#   From: 2010.06.25/outbox.cif.g09.slc.cpg/sg15_113_cif.got.tgz:225789.got - 2010.06.28 07:06:18.
