data_PCOD8131586
_publ_section_title
;
Structure prediction by ZEFSAII (Michael W. Deem and Ramdas Pophale) SiO2 
 PCOD8131586
Probable space group: C 2/C
;
_chemical_formula_sum "Si O2"
_cell_formula_units_Z 56
_cell_length_a 8.407036
_cell_length_b 33.344083
_cell_length_c 19.709170
_cell_angle_alpha 90.000000
_cell_angle_beta 31.145272
_cell_angle_gamma 90.000000
_cell_volume 2857.568951
_symmetry_space_group_name_H-M "C 2/C"
_symmetry_group_IT_number 15
_symmetry_cell_setting 'monoclinic'
loop_
_space_group_symop_operation_xyz
x,y,z
-x,y,1/2-z
-x,-y,-z
x,-y,1/2+z
1/2+x,1/2+y,z
1/2-x,1/2+y,1/2-z
1/2-x,1/2-y,-z
1/2+x,1/2-y,1/2+z
loop_
_atom_site_type_symbol
_atom_site_label
_atom_site_fract_x
_atom_site_fract_y
_atom_site_fract_z
Si Si1 0.363960 0.450210 0.869953
Si Si2 0.140351 0.958936 0.128428
Si Si3 0.738791 0.846406 0.290170
Si Si4 0.646564 0.296913 0.862875
Si Si5 0.152511 0.900935 0.367753
Si Si6 0.408138 0.617044 0.459600
Si Si7 0.069437 0.270489 0.147198
O O1 0.500000 0.433216 0.750000
O O2 0.478640 0.495641 0.839671
O O3 0.488856 0.421107 0.883506
O O4 0.000062 0.452554 0.000787
O O5 0.000000 0.941800 0.250000
O O6 0.028370 0.935749 0.103540
O O7 0.862035 0.860230 0.171473
O O8 0.454286 0.874446 0.415563
O O9 0.631857 0.800585 0.325220
O O10 0.000000 0.851242 0.250000
O O11 0.604715 0.344279 0.865055
O O12 0.532047 0.274241 0.836562
O O13 0.000000 0.287115 0.750000
O O14 0.430657 0.280013 0.002646
O O15 0.500000 0.915854 0.250000
O O16 0.999475 0.892503 0.496478
O O17 0.000000 0.278150 0.250000
#
# Coordination Sequence:
#
# PCOD8131586 Si02
#       7
#     8   8   8   8   8   8   8
#     4  10  22  38  56  80 115 153 188 230 282 343
#     4  10  20  38  61  83 109 147 194 238 282 334
#     4  10  18  33  60  86 109 142 188 238 282 328
#     4  10  22  39  56  80 116 150 182 227 284 342
#     4  10  19  33  58  87 112 142 188 243 283 322
#     4  10  21  36  53  81 119 150 184 230 280 342
#     4  10  21  39  60  84 111 143 190 239 280 328
#
# _framework density 19.597076000000001
#
# number of rings (size 3 to 8) (size 9 to 14) (size 15 to 20)
#    0.000    2.000    0.000    5.571    0.000    2.857 
#    0.000    6.429    0.000    0.000    0.000    0.000 
#    0.000    0.000    0.000    0.000    0.000    0.000 
#
# Total GULP energy -347206.069809 kJ/mol
# GULP energy per Si atom -12400.216779 kJ/mol
# Density = 1.955247 g / cm^3
# Si number density = 19.597076 Si / 1000 Ang^3
#
#
#
# Elastic Constant Matrix: (Units=GPa)
#
#
# Indices 1 2 3 4 5 6 
#
# 1 100.7589 41.0334 44.3325 0.0000 5.9154 0.0000
# 2 41.0334 104.6934 27.9893 0.0000 9.0593 0.0000
# 3 44.3325 27.9893 95.0637 -0.0003 6.8075 0.0002
# 4 0.0000 0.0000 -0.0003 24.4426 0.0001 4.9965
# 5 5.9154 9.0593 6.8075 0.0001 31.5446 0.0000
# 6 0.0000 0.0000 0.0002 4.9965 0.0000 23.8979
#
#
#
# Elastic Compliance Matrix: (Units=1/GPa)
#
#
# Indices 1 2 3 4 5 6 
#
# 1 0.013898 -0.004009 -0.005278 0.000000 -0.000316 0.000000
# 2 -0.004009 0.011699 -0.001410 0.000000 -0.002304 0.000000
# 3 -0.005278 -0.001410 0.013505 0.000000 -0.001520 0.000000
# 4 0.000000 0.000000 0.000000 0.042739 0.000000 -0.008936
# 5 -0.000316 -0.002304 -0.001520 0.000000 0.032750 0.000000
# 6 0.000000 0.000000 0.000000 -0.008936 0.000000 0.043713
#
#
# Mechanical properties :
#
#
# Convention : Reuss Voigt Hill
#
# Bulk Modulus (GPa) = 56.47287 58.58071 57.52679
# Shear Modulus (GPa) = 26.93947 28.45439 27.69693
#
# Velocity S-wave (km/s) = 3.71167 3.81461 3.76349
# Velocity P-wave (km/s) = 6.87374 7.02560 6.95008
#
# Compressibility (1/GPa) = 0.01770762
#
# Stress axis : x y z
#
# Youngs Moduli (GPa) = 71.95170 85.47569 74.04749
#
# Poissons Ratio (x) = 0.34265 0.39086
# Poissons Ratio (y) = 0.28844 0.10442
# Poissons Ratio (z) = 0.37979 0.12053
#
# Static dielectric constant tensor:
#      x y z
#    x 3.372420 0.000000 0.069440 
#    y 0.000000 3.721910 0.000000 
#    z 0.069440 0.000000 3.567260 
# 
# 
# High freq. dielectric constant tensor:
#      x y z
#    x 1.753520 0.000000 0.003420 
#    y 0.000000 1.771910 0.000000 
#    z 0.003420 0.000000 1.758670 
# 
# From -- ./inp_files/139453.got.cif
#   From: 2010.06.25/outbox.cif.g09.slc.cpg/sg15_70_cif.got.tgz:139453.got - 2010.06.28 07:06:18.
