data_PCOD8131840
_publ_section_title
;
Structure prediction by ZEFSAII (Michael W. Deem and Ramdas Pophale) SiO2 
 PCOD8131840
Probable space group: C 2/C
;
_chemical_formula_sum "Si O2"
_cell_formula_units_Z 44
_cell_length_a 25.954469
_cell_length_b 11.851949
_cell_length_c 14.468602
_cell_angle_alpha 90.000000
_cell_angle_beta 28.915153
_cell_angle_gamma 90.000000
_cell_volume 2151.976162
_symmetry_space_group_name_H-M "C 2/C"
_symmetry_group_IT_number 15
_symmetry_cell_setting 'monoclinic'
loop_
_space_group_symop_operation_xyz
x,y,z
-x,y,1/2-z
-x,-y,-z
x,-y,1/2+z
1/2+x,1/2+y,z
1/2-x,1/2+y,1/2-z
1/2-x,1/2-y,-z
1/2+x,1/2-y,1/2+z
loop_
_atom_site_type_symbol
_atom_site_label
_atom_site_fract_x
_atom_site_fract_y
_atom_site_fract_z
Si Si1 0.478078 0.540567 0.390493
Si Si2 0.144842 0.169965 0.470441
Si Si3 0.082262 0.564752 0.306407
Si Si4 0.185951 0.936672 0.093886
Si Si5 0.850727 0.225533 0.693077
Si Si6 0.500000 0.860819 0.750000
O O1 0.500000 0.565744 0.250000
O O2 0.398123 0.431992 0.527328
O O3 0.590843 0.524329 0.268752
O O4 0.427971 0.654521 0.507580
O O5 0.129997 0.135371 0.600781
O O6 0.269006 0.201851 0.257348
O O7 0.079058 0.284780 0.563761
O O8 0.083083 0.691682 0.344661
O O9 0.000000 0.500000 0.500000
O O10 0.051698 0.558940 0.246394
O O11 0.202953 0.511262 0.119690
O O12 0.214717 0.858613 0.136399
#
# Coordination Sequence:
#
# PCOD8131840 Si02
#       6
#     8   8   8   8   8   4
#     4  10  21  36  59  92 127 163 205 254 311 380
#     4  10  18  34  61  89 113 154 211 248 295 377
#     4  11  24  40  61  92 123 163 208 264 310 370
#     4  10  18  38  60  84 121 159 211 253 305 374
#     4  11  20  38  63  89 124 161 205 264 308 358
#     4  12  18  38  64  86 116 160 216 250 306 370
#
# _framework density 20.446324000000001
#
# number of rings (size 3 to 8) (size 9 to 14) (size 15 to 20)
#    0.000    1.455    6.364    1.636    0.000    4.364 
#    1.636    0.909    0.000    0.000    0.000    0.000 
#    0.000    0.000    0.000    0.000    0.000    0.000 
#
# Total GULP energy -272599.764259 kJ/mol
# GULP energy per Si atom -12390.898375 kJ/mol
# Density = 2.039979 g / cm^3
# Si number density = 20.446324 Si / 1000 Ang^3
#
#
#
# Elastic Constant Matrix: (Units=GPa)
#
#
# Indices 1 2 3 4 5 6 
#
# 1 85.3274 33.2906 42.4114 0.0000 -15.1414 0.0000
# 2 33.2906 67.3666 66.1339 0.0000 -5.7646 0.0000
# 3 42.4114 66.1339 131.6642 0.0000 -21.3359 0.0000
# 4 0.0000 0.0000 0.0000 47.7233 0.0000 2.3252
# 5 -15.1414 -5.7646 -21.3359 0.0000 23.7758 0.0000
# 6 0.0000 0.0000 0.0000 2.3252 0.0000 13.4332
#
#
#
# Elastic Compliance Matrix: (Units=1/GPa)
#
#
# Indices 1 2 3 4 5 6 
#
# 1 0.016039 -0.006818 -0.000415 0.000000 0.008189 0.000000
# 2 -0.006818 0.033256 -0.016271 0.000000 -0.010880 0.000000
# 3 -0.000415 -0.016271 0.017809 0.000000 0.011772 0.000000
# 4 0.000000 0.000000 0.000000 0.021132 0.000000 -0.003658
# 5 0.008189 -0.010880 0.011772 0.000000 0.055201 0.000000
# 6 0.000000 0.000000 0.000000 -0.003658 0.000000 0.075076
#
#
# Mechanical properties :
#
#
# Convention : Reuss Voigt Hill
#
# Bulk Modulus (GPa) = 49.76066 63.11445 56.43755
# Shear Modulus (GPa) = 18.36759 26.48795 22.42777
#
# Velocity S-wave (km/s) = 3.00047 3.60319 3.31556
# Velocity P-wave (km/s) = 6.03273 6.94594 6.50538
#
# Compressibility (1/GPa) = 0.02009619
#
# Stress axis : x y z
#
# Youngs Moduli (GPa) = 62.34830 30.07019 56.15101
#
# Poissons Ratio (x) = 0.20502 0.02329
# Poissons Ratio (y) = 0.42509 0.91363
# Poissons Ratio (z) = 0.02586 0.48927
#
# Static dielectric constant tensor:
#      x y z
#    x 3.752350 0.000000 -0.314270 
#    y 0.000000 3.499930 0.000000 
#    z -0.314270 0.000000 3.656920 
# 
# 
# High freq. dielectric constant tensor:
#      x y z
#    x 1.800420 0.000000 -0.021340 
#    y 0.000000 1.760720 0.000000 
#    z -0.021340 0.000000 1.793330 
# 
# From -- ./inp_files/152248.got.cif
#   From: 2010.06.25/outbox.cif.g09.slc.cpg/sg15_77_cif.got.tgz:152248.got - 2010.06.28 07:06:18.
