data_PCOD8131307
_publ_section_title
;
Structure prediction by ZEFSAII (Michael W. Deem and Ramdas Pophale) SiO2 
 PCOD8131307
Probable space group: C 2/C
;
_chemical_formula_sum "Si O2"
_cell_formula_units_Z 64
_cell_length_a 29.149311
_cell_length_b 11.068286
_cell_length_c 25.025243
_cell_angle_alpha 90.000000
_cell_angle_beta 153.320716
_cell_angle_gamma 90.000000
_cell_volume 3625.178559
_symmetry_space_group_name_H-M "C 2/C"
_symmetry_group_IT_number 15
_symmetry_cell_setting 'monoclinic'
loop_
_space_group_symop_operation_xyz
x,y,z
-x,y,1/2-z
-x,-y,-z
x,-y,1/2+z
1/2+x,1/2+y,z
1/2-x,1/2+y,1/2-z
1/2-x,1/2-y,-z
1/2+x,1/2-y,1/2+z
loop_
_atom_site_type_symbol
_atom_site_label
_atom_site_fract_x
_atom_site_fract_y
_atom_site_fract_z
Si Si1 0.903485 0.999513 0.619974
Si Si2 0.539633 0.895870 0.848086
Si Si3 0.163361 0.180443 0.292776
Si Si4 0.352075 0.322013 0.474653
Si Si5 0.490932 0.832459 0.302898
Si Si6 0.024946 0.165511 0.670412
Si Si7 0.004128 0.968373 0.942791
Si Si8 0.724213 0.446060 0.414064
O O1 0.812136 0.044675 0.562462
O O2 0.000000 0.930891 0.750000
O O3 0.959974 0.112161 0.651686
O O4 0.848950 0.915919 0.520069
O O5 0.500000 0.846622 0.750000
O O6 0.501705 0.807667 0.856616
O O7 0.486687 0.023500 0.805571
O O8 0.662158 0.896679 0.972902
O O9 0.242242 0.268074 0.343984
O O10 0.108822 0.265530 0.279160
O O11 0.091095 0.113871 0.174927
O O12 0.222744 0.079592 0.387999
O O13 0.417213 0.210027 0.563875
O O14 0.396217 0.388678 0.468030
O O15 0.500000 0.800161 0.250000
O O16 0.146525 0.144599 0.803375
O O17 0.991350 0.098335 0.581349
O O18 0.000000 0.000000 0.000000
#
# Coordination Sequence:
#
# PCOD8131307 Si02
#       8
#     8   8   8   8   8   8   8   8
#     4   9  17  29  50  77 107 147 183 203 245 317
#     4  11  22  32  47  80 116 149 181 207 244 313
#     4  10  20  34  56  78 110 137 174 228 273 310
#     4  10  18  32  56  81 106 135 176 227 265 309
#     4  10  20  31  48  83 119 147 175 208 252 314
#     4   9  20  37  52  73 104 144 183 222 258 313
#     4   9  20  41  63  76  95 135 184 228 281 328
#     4  10  19  34  52  73 110 156 175 207 260 310
#
# _framework density 17.654302999999999
#
# number of rings (size 3 to 8) (size 9 to 14) (size 15 to 20)
#    0.000    2.250    1.250    4.500    3.500    3.000 
#    2.250    2.500    0.000    1.500    0.000    0.000 
#    0.000    0.000    0.000    0.000    0.000    0.000 
#
# Total GULP energy -396572.749354 kJ/mol
# GULP energy per Si atom -12392.898417 kJ/mol
# Density = 1.761412 g / cm^3
# Si number density = 17.654303 Si / 1000 Ang^3
#
#
#
# Elastic Constant Matrix: (Units=GPa)
#
#
# Indices 1 2 3 4 5 6 
#
# 1 114.3066 56.6640 54.6648 0.0000 -5.2769 0.0000
# 2 56.6640 109.6845 45.1998 0.0000 4.1706 0.0000
# 3 54.6648 45.1998 77.9838 0.0000 16.5288 0.0000
# 4 0.0000 0.0000 0.0000 20.4551 0.0000 5.1594
# 5 -5.2769 4.1706 16.5288 0.0000 27.5838 0.0000
# 6 0.0000 0.0000 0.0000 5.1594 0.0000 21.9841
#
#
#
# Elastic Compliance Matrix: (Units=1/GPa)
#
#
# Indices 1 2 3 4 5 6 
#
# 1 0.017030 -0.004387 -0.011714 0.000000 0.010940 0.000000
# 2 -0.004387 0.013285 -0.004606 0.000000 -0.000088 0.000000
# 3 -0.011714 -0.004606 0.027528 0.000000 -0.018040 0.000000
# 4 0.000000 0.000000 0.000000 0.051964 0.000000 -0.012195
# 5 0.010940 -0.000088 -0.018040 0.000000 0.049169 0.000000
# 6 0.000000 0.000000 0.000000 -0.012195 0.000000 0.048350
#
#
# Mechanical properties :
#
#
# Convention : Reuss Voigt Hill
#
# Bulk Modulus (GPa) = 60.86956 68.33691 64.60324
# Shear Modulus (GPa) = 19.66837 23.70100 21.68469
#
# Velocity S-wave (km/s) = 3.34141 3.66800 3.50851
# Velocity P-wave (km/s) = 7.03137 7.53202 7.28600
#
# Compressibility (1/GPa) = 0.01642857
#
# Stress axis : x y z
#
# Youngs Moduli (GPa) = 58.72007 75.27376 36.32685
#
# Poissons Ratio (x) = 0.33020 0.42553
# Poissons Ratio (y) = 0.25758 0.16734
# Poissons Ratio (z) = 0.68784 0.34675
#
# Static dielectric constant tensor:
#      x y z
#    x 3.024100 0.000000 0.197390 
#    y 0.000000 3.332290 0.000000 
#    z 0.197390 0.000000 3.078950 
# 
# 
# High freq. dielectric constant tensor:
#      x y z
#    x 1.651710 0.000000 0.021790 
#    y 0.000000 1.691230 0.000000 
#    z 0.021790 0.000000 1.669690 
# 
# From -- ./inp_files/283506.got.cif
#   From: 2010.06.25/outbox.cif.g09.slc.cpg/sg15_142_cif.got.tgz:283506.got - 2010.06.28 07:06:18.
