data_PCOD8131310
_publ_section_title
;
Structure prediction by ZEFSAII (Michael W. Deem and Ramdas Pophale) SiO2 
 PCOD8131310
Probable space group: C 2/C
;
_chemical_formula_sum "Si O2"
_cell_formula_units_Z 60
_cell_length_a 20.960691
_cell_length_b 8.398166
_cell_length_c 16.371383
_cell_angle_alpha 90.000000
_cell_angle_beta 83.108923
_cell_angle_gamma 90.000000
_cell_volume 2861.058291
_symmetry_space_group_name_H-M "C 2/C"
_symmetry_group_IT_number 15
_symmetry_cell_setting 'monoclinic'
loop_
_space_group_symop_operation_xyz
x,y,z
-x,y,1/2-z
-x,-y,-z
x,-y,1/2+z
1/2+x,1/2+y,z
1/2-x,1/2+y,1/2-z
1/2-x,1/2-y,-z
1/2+x,1/2-y,1/2+z
loop_
_atom_site_type_symbol
_atom_site_label
_atom_site_fract_x
_atom_site_fract_y
_atom_site_fract_z
Si Si1 0.548219 0.651636 0.356403
Si Si2 0.198180 0.303886 0.884428
Si Si3 0.396866 0.980800 0.181745
Si Si4 0.293877 0.452749 0.416298
Si Si5 0.431263 0.499418 0.323129
Si Si6 0.164213 0.043952 0.419443
Si Si7 0.500000 0.205753 0.250000
Si Si8 0.721657 0.228729 0.787300
O O1 0.557638 0.842007 0.359590
O O2 0.472810 0.614040 0.376674
O O3 0.570730 0.571896 0.267430
O O4 0.587679 0.574136 0.425555
O O5 0.134025 0.410979 0.884566
O O6 0.249160 0.391643 0.934550
O O7 0.229957 0.273538 0.791089
O O8 0.177550 0.141350 0.928962
O O9 0.335008 0.892113 0.234854
O O10 0.441510 0.094720 0.228898
O O11 0.360782 0.505596 0.368320
O O12 0.306345 0.373158 0.503524
O O13 0.260379 0.335923 0.358691
O O14 0.464260 0.322776 0.320194
O O15 0.191564 0.109916 0.329342
#
# Coordination Sequence:
#
# PCOD8131310 Si02
#       8
#     8   8   8   8   8   8   4   8
#     4   9  19  36  56  76 107 147 187 229 273 330
#     4  11  21  36  57  83 109 144 187 227 272 334
#     4  10  19  32  55  80 105 136 179 230 273 312
#     4  11  22  35  55  83 113 143 180 230 288 333
#     4  10  20  35  56  81 107 144 190 228 274 332
#     4  11  21  36  56  81 113 144 179 231 286 332
#     4  10  18  32  56  82 104 134 186 240 266 314
#     4  10  21  37  57  80 111 148 184 221 276 342
#
# _framework density 20.971260999999998
#
# number of rings (size 3 to 8) (size 9 to 14) (size 15 to 20)
#    0.000    1.867    0.000    8.000    0.000    0.533 
#    0.000    0.000    0.000    4.000    0.000    0.000 
#    0.000    0.000    0.000    0.000    0.000    0.000 
#
# Total GULP energy -371672.063817 kJ/mol
# GULP energy per Si atom -12389.068794 kJ/mol
# Density = 2.092353 g / cm^3
# Si number density = 20.971261 Si / 1000 Ang^3
#
#
#
# Elastic Constant Matrix: (Units=GPa)
#
#
# Indices 1 2 3 4 5 6 
#
# 1 145.8904 57.3101 14.8039 0.0000 28.5820 0.0000
# 2 57.3101 92.6911 7.6453 0.0000 16.8328 0.0000
# 3 14.8039 7.6453 37.9917 0.0000 23.6015 0.0000
# 4 0.0000 0.0000 0.0000 16.8746 0.0000 2.3524
# 5 28.5820 16.8328 23.6015 0.0000 31.4200 0.0000
# 6 0.0000 0.0000 0.0000 2.3524 0.0000 34.7093
#
#
#
# Elastic Compliance Matrix: (Units=1/GPa)
#
#
# Indices 1 2 3 4 5 6 
#
# 1 0.010210 -0.004998 0.002126 0.000000 -0.008207 0.000000
# 2 -0.004998 0.014576 0.001952 0.000000 -0.004729 0.000000
# 3 0.002126 0.001952 0.050531 0.000000 -0.040937 0.000000
# 4 0.000000 0.000000 0.000000 0.059826 0.000000 -0.004055
# 5 -0.008207 -0.004729 -0.040937 0.000000 0.072576 0.000000
# 6 0.000000 0.000000 0.000000 -0.004055 0.000000 0.029086
#
#
# Mechanical properties :
#
#
# Convention : Reuss Voigt Hill
#
# Bulk Modulus (GPa) = 13.60960 48.45464 31.03212
# Shear Modulus (GPa) = 19.00148 29.72170 24.36159
#
# Velocity S-wave (km/s) = 3.01337 3.76873 3.41202
# Velocity P-wave (km/s) = 4.31404 6.48793 5.50927
#
# Compressibility (1/GPa) = 0.07347757
#
# Stress axis : x y z
#
# Youngs Moduli (GPa) = 97.94494 68.60461 19.78970
#
# Poissons Ratio (x) = 0.34286 -0.04207
# Poissons Ratio (y) = 0.48949 -0.03863
# Poissons Ratio (z) = -0.20821 -0.13391
#
# Static dielectric constant tensor:
#      x y z
#    x 4.238970 0.000000 0.250470 
#    y 0.000000 4.026170 0.000000 
#    z 0.250470 0.000000 3.303640 
# 
# 
# High freq. dielectric constant tensor:
#      x y z
#    x 1.847560 0.000000 0.023530 
#    y 0.000000 1.831750 0.000000 
#    z 0.023530 0.000000 1.770840 
# 
# From -- ./inp_files/213891.got.cif
#   From: 2010.06.25/outbox.cif.g09.slc.cpg/sg15_107_cif.got.tgz:213891.got - 2010.06.28 07:06:18.
