data_PCOD8131445
_publ_section_title
;
Structure prediction by ZEFSAII (Michael W. Deem and Ramdas Pophale) SiO2 
 PCOD8131445
Probable space group: C 2/C
;
_chemical_formula_sum "Si O2"
_cell_formula_units_Z 52
_cell_length_a 12.625470
_cell_length_b 18.935455
_cell_length_c 15.191703
_cell_angle_alpha 90.000000
_cell_angle_beta 128.761122
_cell_angle_gamma 90.000000
_cell_volume 2831.994244
_symmetry_space_group_name_H-M "C 2/C"
_symmetry_group_IT_number 15
_symmetry_cell_setting 'monoclinic'
loop_
_space_group_symop_operation_xyz
x,y,z
-x,y,1/2-z
-x,-y,-z
x,-y,1/2+z
1/2+x,1/2+y,z
1/2-x,1/2+y,1/2-z
1/2-x,1/2-y,-z
1/2+x,1/2-y,1/2+z
loop_
_atom_site_type_symbol
_atom_site_label
_atom_site_fract_x
_atom_site_fract_y
_atom_site_fract_z
Si Si1 0.986301 0.101710 0.550581
Si Si2 0.288180 0.550316 0.170875
Si Si3 0.000000 0.932582 0.250000
Si Si4 0.226438 0.007767 0.145243
Si Si5 0.105175 0.792517 0.984616
Si Si6 0.358572 0.858572 0.035877
Si Si7 0.500000 0.334112 0.750000
Si Si8 0.000000 0.431529 0.250000
O O1 0.838846 0.070431 0.447504
O O2 0.993609 0.116204 0.659453
O O3 0.007479 0.174217 0.507552
O O4 0.108565 0.050030 0.589257
O O5 0.366989 0.481787 0.176408
O O6 0.227364 0.535165 0.235039
O O7 0.385594 0.616933 0.232235
O O8 0.174621 0.573053 0.041418
O O9 0.363634 0.978383 0.173469
O O10 0.124342 0.709937 0.018836
O O11 0.046081 0.786227 0.854898
O O12 0.241335 0.839877 0.047181
O O13 0.493509 0.881159 0.160171
#
# Coordination Sequence:
#
# PCOD8131445 Si02
#       8
#     8   8   4   8   8   8   4   4
#     4  10  18  35  53  82 103 148 184 228 260 327
#     4   9  17  32  48  79 102 144 170 222 269 326
#     4   9  18  28  57  79 110 130 189 230 260 303
#     4  10  20  32  55  75 112 141 183 224 281 317
#     4  10  18  33  53  78 110 144 177 219 264 332
#     4  10  21  31  49  78 115 140 174 213 280 329
#     4   9  15  28  52  78 104 127 181 218 260 311
#     4  12  21  34  49  85 114 145 172 234 276 334
#
# _framework density 18.361619000000001
#
# number of rings (size 3 to 8) (size 9 to 14) (size 15 to 20)
#    0.000    2.154    3.077    1.385    4.308    0.615 
#    0.000    0.000    0.000    0.923    0.000    6.462 
#    0.000    0.000    0.000    0.000    0.000    0.000 
#
# Total GULP energy -322185.202125 kJ/mol
# GULP energy per Si atom -12391.738543 kJ/mol
# Density = 1.831983 g / cm^3
# Si number density = 18.361619 Si / 1000 Ang^3
#
#
#
# Elastic Constant Matrix: (Units=GPa)
#
#
# Indices 1 2 3 4 5 6 
#
# 1 62.0493 30.9475 37.3585 0.0000 -6.6405 0.0000
# 2 30.9475 64.7212 46.4012 0.0000 -11.5070 0.0000
# 3 37.3585 46.4012 110.0362 0.0000 -3.8812 0.0000
# 4 0.0000 0.0000 0.0000 12.9915 0.0000 -3.9132
# 5 -6.6405 -11.5070 -3.8812 0.0000 30.9697 0.0000
# 6 0.0000 0.0000 0.0000 -3.9132 0.0000 23.4547
#
#
#
# Elastic Compliance Matrix: (Units=1/GPa)
#
#
# Indices 1 2 3 4 5 6 
#
# 1 0.022669 -0.007282 -0.004570 0.000000 0.001582 0.000000
# 2 -0.007282 0.026152 -0.008305 0.000000 0.007115 0.000000
# 3 -0.004570 -0.008305 0.014060 0.000000 -0.002303 0.000000
# 4 0.000000 0.000000 0.000000 0.081046 0.000000 0.013522
# 5 0.001582 0.007115 -0.002303 0.000000 0.034984 0.000000
# 6 0.000000 0.000000 0.000000 0.013522 0.000000 0.044891
#
#
# Mechanical properties :
#
#
# Convention : Reuss Voigt Hill
#
# Bulk Modulus (GPa) = 44.31061 51.80236 48.05648
# Shear Modulus (GPa) = 18.40687 21.62315 20.01501
#
# Velocity S-wave (km/s) = 3.16961 3.43538 3.30517
# Velocity P-wave (km/s) = 6.13024 6.63395 6.38706
#
# Compressibility (1/GPa) = 0.02256796
#
# Stress axis : x y z
#
# Youngs Moduli (GPa) = 44.11344 38.23835 71.12280
#
# Poissons Ratio (x) = 0.27845 0.32502
# Poissons Ratio (y) = 0.32123 0.59065
# Poissons Ratio (z) = 0.20159 0.31756
#
# Static dielectric constant tensor:
#      x y z
#    x 3.114060 0.000000 -0.054740 
#    y 0.000000 3.228950 0.000000 
#    z -0.054740 0.000000 3.834540 
# 
# 
# High freq. dielectric constant tensor:
#      x y z
#    x 1.669520 0.000000 -0.002480 
#    y 0.000000 1.687420 0.000000 
#    z -0.002480 0.000000 1.726110 
# 
# From -- ./inp_files/97843.got.cif
#   From: 2010.06.25/outbox.cif.g09.slc.cpg/sg15_49_cif.got.tgz:97843.got - 2010.06.28 07:06:18.
