data_PCOD8131826
_publ_section_title
;
Structure prediction by ZEFSAII (Michael W. Deem and Ramdas Pophale) SiO2 
 PCOD8131826
Probable space group: C 2/C
;
_chemical_formula_sum "Si O2"
_cell_formula_units_Z 36
_cell_length_a 19.797206
_cell_length_b 6.405143
_cell_length_c 21.209243
_cell_angle_alpha 90.000000
_cell_angle_beta 140.882506
_cell_angle_gamma 90.000000
_cell_volume 1696.786454
_symmetry_space_group_name_H-M "C 2/C"
_symmetry_group_IT_number 15
_symmetry_cell_setting 'monoclinic'
loop_
_space_group_symop_operation_xyz
x,y,z
-x,y,1/2-z
-x,-y,-z
x,-y,1/2+z
1/2+x,1/2+y,z
1/2-x,1/2+y,1/2-z
1/2-x,1/2-y,-z
1/2+x,1/2-y,1/2+z
loop_
_atom_site_type_symbol
_atom_site_label
_atom_site_fract_x
_atom_site_fract_y
_atom_site_fract_z
Si Si1 0.988454 0.487386 0.917694
Si Si2 0.128088 0.276153 0.261629
Si Si3 0.477020 0.600084 0.628581
Si Si4 0.000000 0.406434 0.750000
Si Si5 0.681788 0.741788 0.514869
O O1 0.972670 0.243483 0.890306
O O2 0.885651 0.622404 0.818407
O O3 0.091186 0.578488 0.953377
O O4 0.000000 0.500000 0.000000
O O5 0.249437 0.233800 0.371067
O O6 0.087906 0.446841 0.282424
O O7 0.065069 0.058577 0.219931
O O8 0.439974 0.756154 0.656989
O O9 0.375267 0.482593 0.526172
O O10 0.750000 0.750000 0.500000
#
# Coordination Sequence:
#
# PCOD8131826 Si02
#       5
#     8   8   8   4   8
#     4  10  24  44  59  88 127 167 211 260 324 382
#     4  10  21  37  58  92 121 161 211 254 311 385
#     4  10  21  38  63  85 132 166 195 270 313 357
#     4  10  18  34  60  90 126 160 202 252 320 364
#     4  11  22  38  63  97 125 161 218 262 313 389
#
# _framework density 21.216577999999998
#
# number of rings (size 3 to 8) (size 9 to 14) (size 15 to 20)
#    0.000    1.778    0.000    6.000    0.000   10.667 
#    8.000    0.000    0.000    0.000    0.000    0.000 
#    0.000    0.000    0.000    0.000    0.000    0.000 
#
# Total GULP energy -223080.164554 kJ/mol
# GULP energy per Si atom -12393.342475 kJ/mol
# Density = 2.116829 g / cm^3
# Si number density = 21.216578 Si / 1000 Ang^3
#
#
#
# Elastic Constant Matrix: (Units=GPa)
#
#
# Indices 1 2 3 4 5 6 
#
# 1 47.0608 27.1584 20.4463 0.0001 -18.1283 0.0002
# 2 27.1584 149.4351 54.8260 0.0011 -7.8289 0.0028
# 3 20.4463 54.8260 156.8697 0.0001 -9.3289 -0.0001
# 4 0.0001 0.0011 0.0001 25.7104 0.0001 -1.8853
# 5 -18.1283 -7.8289 -9.3289 0.0001 39.3897 0.0001
# 6 0.0002 0.0028 -0.0001 -1.8853 0.0001 12.3419
#
#
#
# Elastic Compliance Matrix: (Units=1/GPa)
#
#
# Indices 1 2 3 4 5 6 
#
# 1 0.028963 -0.004024 -0.001647 0.000000 0.012140 0.000000
# 2 -0.004024 0.008267 -0.002411 0.000000 -0.000780 -0.000002
# 3 -0.001647 -0.002411 0.007464 0.000000 0.000530 0.000001
# 4 0.000000 0.000000 0.000000 0.039335 0.000000 0.006009
# 5 0.012140 -0.000780 0.000530 0.000000 0.030945 0.000000
# 6 0.000000 -0.000002 0.000001 0.006009 0.000000 0.081943
#
#
# Mechanical properties :
#
#
# Convention : Reuss Voigt Hill
#
# Bulk Modulus (GPa) = 35.05043 62.02522 48.53783
# Shear Modulus (GPa) = 22.46281 32.21739 27.34010
#
# Velocity S-wave (km/s) = 3.25736 3.90102 3.59363
# Velocity P-wave (km/s) = 5.54106 7.04190 6.33608
#
# Compressibility (1/GPa) = 0.02853032
#
# Stress axis : x y z
#
# Youngs Moduli (GPa) = 34.52682 120.96423 133.98289
#
# Poissons Ratio (x) = 0.48670 0.22065
# Poissons Ratio (y) = 0.13892 0.32306
# Poissons Ratio (z) = 0.05686 0.29167
#
# Static dielectric constant tensor:
#      x y z
#    x 3.389670 0.000000 -0.114430 
#    y 0.000000 4.346740 0.000000 
#    z -0.114430 0.000000 4.355190 
# 
# 
# High freq. dielectric constant tensor:
#      x y z
#    x 1.782540 0.000000 -0.019430 
#    y 0.000000 1.853900 0.000000 
#    z -0.019430 0.000000 1.848920 
# 
# From -- ./inp_files/165062.got.cif
#   From: 2010.06.25/outbox.cif.g09.slc.cpg/sg15_83_cif.got.tgz:165062.got - 2010.06.28 07:06:18.
