data_PCOD8131625
_publ_section_title
;
Structure prediction by ZEFSAII (Michael W. Deem and Ramdas Pophale) SiO2 
 PCOD8131625
Probable space group: C 2/C
;
_chemical_formula_sum "Si O2"
_cell_formula_units_Z 60
_cell_length_a 28.654677
_cell_length_b 12.639105
_cell_length_c 9.283165
_cell_angle_alpha 90.000000
_cell_angle_beta 107.105095
_cell_angle_gamma 90.000000
_cell_volume 3213.363663
_symmetry_space_group_name_H-M "C 2/C"
_symmetry_group_IT_number 15
_symmetry_cell_setting 'monoclinic'
loop_
_space_group_symop_operation_xyz
x,y,z
-x,y,1/2-z
-x,-y,-z
x,-y,1/2+z
1/2+x,1/2+y,z
1/2-x,1/2+y,1/2-z
1/2-x,1/2-y,-z
1/2+x,1/2-y,1/2+z
loop_
_atom_site_type_symbol
_atom_site_label
_atom_site_fract_x
_atom_site_fract_y
_atom_site_fract_z
Si Si1 0.500000 0.512806 0.750000
Si Si2 0.221358 0.217153 0.765400
Si Si3 0.196740 0.924984 0.502697
Si Si4 0.829390 0.368982 0.392255
Si Si5 0.434131 0.537404 0.936157
Si Si6 0.802770 0.444382 0.666013
Si Si7 0.372159 0.667419 0.341483
Si Si8 0.649946 0.629185 0.483161
O O1 0.459458 0.576002 0.808797
O O2 0.471459 0.445051 0.603216
O O3 0.196985 0.168676 0.887044
O O4 0.278904 0.196152 0.825767
O O5 0.207884 0.340330 0.748357
O O6 0.199527 0.170471 0.599063
O O7 0.249129 0.982017 0.566985
O O8 0.177151 0.885203 0.639527
O O9 0.159252 0.015063 0.415560
O O10 0.835246 0.417716 0.556186
O O11 0.830845 0.466069 0.281035
O O12 0.874633 0.286314 0.412231
O O13 0.417845 0.412130 0.912317
O O14 0.389828 0.617602 0.925540
O O15 0.367780 0.697342 0.167987
#
# Coordination Sequence:
#
# PCOD8131625 Si02
#       8
#     4   8   8   8   8   8   8   8
#     4  10  20  38  60  86 118 142 168 220 290 356
#     4  11  21  35  50  74 108 152 201 237 265 322
#     4  10  18  34  49  70 106 146 196 231 272 308
#     4  11  23  36  52  71 108 150 200 243 273 305
#     4  10  21  37  58  87 117 145 173 221 282 353
#     4  11  22  35  49  72 101 150 200 244 271 302
#     4  11  21  35  51  78 111 149 183 224 277 326
#     4  11  22  31  54  82 109 152 188 220 268 336
#
# _framework density 18.672022999999999
#
# number of rings (size 3 to 8) (size 9 to 14) (size 15 to 20)
#    0.000    1.333    5.333    2.400    5.600    0.533 
#    0.000    0.000    0.000    0.000    0.000    0.000 
#    0.000   18.133    0.000    0.000    0.000    0.000 
#
# Total GULP energy -371642.071651 kJ/mol
# GULP energy per Si atom -12388.069055 kJ/mol
# Density = 1.862953 g / cm^3
# Si number density = 18.672023 Si / 1000 Ang^3
#
#
#
# Elastic Constant Matrix: (Units=GPa)
#
#
# Indices 1 2 3 4 5 6 
#
# 1 56.8852 24.1156 19.8271 0.0000 -16.7254 0.0000
# 2 24.1156 83.6792 25.4046 0.0000 -11.1343 0.0000
# 3 19.8271 25.4046 87.5563 0.0000 -15.1628 0.0000
# 4 0.0000 0.0000 0.0000 23.2450 0.0000 -4.3601
# 5 -16.7254 -11.1343 -15.1628 0.0000 29.9269 0.0000
# 6 0.0000 0.0000 0.0000 -4.3601 0.0000 7.4479
#
#
#
# Elastic Compliance Matrix: (Units=1/GPa)
#
#
# Indices 1 2 3 4 5 6 
#
# 1 0.023323 -0.004713 -0.002149 0.000000 0.010192 0.000000
# 2 -0.004713 0.014349 -0.002880 0.000000 0.001245 0.000000
# 3 -0.002149 -0.002880 0.013538 0.000000 0.004586 0.000000
# 4 0.000000 0.000000 0.000000 0.048327 0.000000 0.028291
# 5 0.010192 0.001245 0.004586 0.000000 0.041898 0.000000
# 6 0.000000 0.000000 0.000000 0.028291 0.000000 0.150829
#
#
# Mechanical properties :
#
#
# Convention : Reuss Voigt Hill
#
# Bulk Modulus (GPa) = 31.52074 40.75724 36.13899
# Shear Modulus (GPa) = 15.51239 22.70885 19.11062
#
# Velocity S-wave (km/s) = 2.88546 3.49118 3.20267
# Velocity P-wave (km/s) = 5.29330 6.17467 5.75089
#
# Compressibility (1/GPa) = 0.03172514
#
# Stress axis : x y z
#
# Youngs Moduli (GPa) = 42.87611 69.69232 73.86674
#
# Poissons Ratio (x) = 0.32845 0.15874
# Poissons Ratio (y) = 0.20207 0.21277
# Poissons Ratio (z) = 0.09214 0.20075
#
# Static dielectric constant tensor:
#      x y z
#    x 3.410510 0.000000 -0.233650 
#    y 0.000000 3.386460 0.000000 
#    z -0.233650 0.000000 3.435960 
# 
# 
# High freq. dielectric constant tensor:
#      x y z
#    x 1.692780 0.000000 -0.027850 
#    y 0.000000 1.696590 0.000000 
#    z -0.027850 0.000000 1.731290 
# 
# From -- ./inp_files/69089.got.cif
#   From: 2010.06.25/outbox.cif.g09.slc.cpg/sg15_35_cif.got.tgz:69089.got - 2010.06.28 07:06:18.
