data_PCOD8131007
_publ_section_title
;
Structure prediction by ZEFSAII (Michael W. Deem and Ramdas Pophale) SiO2 
 PCOD8131007
Probable space group: C 2/C
;
_chemical_formula_sum "Si O2"
_cell_formula_units_Z 40
_cell_length_a 12.421982
_cell_length_b 29.834259
_cell_length_c 13.384650
_cell_angle_alpha 90.000000
_cell_angle_beta 22.036522
_cell_angle_gamma 90.000000
_cell_volume 1861.114713
_symmetry_space_group_name_H-M "C 2/C"
_symmetry_group_IT_number 15
_symmetry_cell_setting 'monoclinic'
loop_
_space_group_symop_operation_xyz
x,y,z
-x,y,1/2-z
-x,-y,-z
x,-y,1/2+z
1/2+x,1/2+y,z
1/2-x,1/2+y,1/2-z
1/2-x,1/2-y,-z
1/2+x,1/2-y,1/2+z
loop_
_atom_site_type_symbol
_atom_site_label
_atom_site_fract_x
_atom_site_fract_y
_atom_site_fract_z
Si Si1 0.670651 0.491614 0.006438
Si Si2 0.063937 0.928390 0.912528
Si Si3 0.000000 0.147793 0.750000
Si Si4 0.122125 0.375035 0.400405
Si Si5 0.000000 0.704034 0.250000
Si Si6 0.558263 0.774755 0.919035
O O1 0.613208 0.454823 0.972265
O O2 0.000000 0.495608 0.750000
O O3 0.500000 0.475626 0.250000
O O4 0.558978 0.540007 0.067656
O O5 0.364673 0.909926 0.615117
O O6 0.842406 0.887475 0.122395
O O7 0.215847 0.119112 0.632782
O O8 0.204630 0.175064 0.496301
O O9 0.998138 0.324908 0.494784
O O10 0.959068 0.732005 0.387933
O O11 0.890226 0.760127 0.635283
#
# Coordination Sequence:
#
# PCOD8131007 Si02
#       6
#     8   8   4   8   4   8
#     4  11  24  43  65  88 118 154 188 238 300 356
#     4  11  24  40  61  90 119 151 195 243 288 345
#     4  10  20  31  48  76 106 154 200 234 286 318
#     4  11  22  36  54  82 118 153 201 244 278 342
#     4  10  18  31  44  64 102 152 206 242 268 324
#     4  11  20  32  48  71 109 155 198 237 283 327
#
# _framework density 21.492494000000001
#
# number of rings (size 3 to 8) (size 9 to 14) (size 15 to 20)
#    0.000    1.200    0.000    9.000    4.200    4.000 
#    0.000    0.000    0.000    0.000    0.000    0.000 
#    0.000   56.000    0.000    0.000    0.000    0.000 
#
# Total GULP energy -247964.768322 kJ/mol
# GULP energy per Si atom -12398.238416 kJ/mol
# Density = 2.144358 g / cm^3
# Si number density = 21.492494 Si / 1000 Ang^3
#
#
#
# Elastic Constant Matrix: (Units=GPa)
#
#
# Indices 1 2 3 4 5 6 
#
# 1 39.6344 9.7608 23.1875 0.0007 -6.5685 0.0039
# 2 9.7608 81.5106 24.2151 0.0002 -8.5329 -0.0001
# 3 23.1875 24.2151 134.9582 0.0088 -30.2572 0.0092
# 4 0.0007 0.0002 0.0088 45.1486 0.0028 1.4912
# 5 -6.5685 -8.5329 -30.2572 0.0028 14.9477 -0.0105
# 6 0.0039 -0.0001 0.0092 1.4912 -0.0105 18.4552
#
#
#
# Elastic Compliance Matrix: (Units=1/GPa)
#
#
# Indices 1 2 3 4 5 6 
#
# 1 0.028505 -0.001906 -0.003646 0.000000 0.004059 -0.000002
# 2 -0.001906 0.013288 -0.000996 0.000000 0.004732 0.000004
# 3 -0.003646 -0.000996 0.014149 -0.000005 0.026471 0.000009
# 4 0.000000 0.000000 -0.000005 0.022208 -0.000015 -0.001794
# 5 0.004059 0.004732 0.026471 -0.000015 0.124968 0.000058
# 6 -0.000002 0.000004 0.000009 -0.001794 0.000058 0.054330
#
#
# Mechanical properties :
#
#
# Convention : Reuss Voigt Hill
#
# Bulk Modulus (GPa) = 23.33803 41.15889 32.24846
# Shear Modulus (GPa) = 17.55456 28.97295 23.26376
#
# Velocity S-wave (km/s) = 2.86103 3.67556 3.29357
# Velocity P-wave (km/s) = 4.66865 6.09959 5.43145
#
# Compressibility (1/GPa) = 0.04284852
#
# Stress axis : x y z
#
# Youngs Moduli (GPa) = 35.08107 75.25719 70.67405
#
# Poissons Ratio (x) = 0.14341 0.25766
# Poissons Ratio (y) = 0.06685 0.07038
# Poissons Ratio (z) = 0.12789 0.07494
#
# Static dielectric constant tensor:
#      x y z
#    x 3.344610 0.000000 -0.100350 
#    y 0.000000 3.897220 0.000000 
#    z -0.100350 0.000000 4.321080 
# 
# 
# High freq. dielectric constant tensor:
#      x y z
#    x 1.774500 0.000000 -0.012040 
#    y 0.000000 1.848660 0.000000 
#    z -0.012040 0.000000 1.878340 
# 
# From -- ./inp_files/5570.got.cif
#   From: 2010.06.25/outbox.cif.g09.slc.cpg/sg15_3_cif.got.tgz:5570.got - 2010.06.28 07:06:18.
