data_PCOD8131668
_publ_section_title
;
Structure prediction by ZEFSAII (Michael W. Deem and Ramdas Pophale) SiO2 
 PCOD8131668
Probable space group: C 2/C
;
_chemical_formula_sum "Si O2"
_cell_formula_units_Z 52
_cell_length_a 18.672188
_cell_length_b 8.457373
_cell_length_c 25.355297
_cell_angle_alpha 90.000000
_cell_angle_beta 39.306777
_cell_angle_gamma 90.000000
_cell_volume 2536.454611
_symmetry_space_group_name_H-M "C 2/C"
_symmetry_group_IT_number 15
_symmetry_cell_setting 'monoclinic'
loop_
_space_group_symop_operation_xyz
x,y,z
-x,y,1/2-z
-x,-y,-z
x,-y,1/2+z
1/2+x,1/2+y,z
1/2-x,1/2+y,1/2-z
1/2-x,1/2-y,-z
1/2+x,1/2-y,1/2+z
loop_
_atom_site_type_symbol
_atom_site_label
_atom_site_fract_x
_atom_site_fract_y
_atom_site_fract_z
Si Si1 0.500000 0.622424 0.750000
Si Si2 0.131088 0.583754 0.679030
Si Si3 0.185601 0.584457 0.044811
Si Si4 0.631807 0.865210 0.415225
Si Si5 0.023133 0.613605 0.406918
Si Si6 0.657186 0.820006 0.738010
Si Si7 0.208318 0.922100 0.605862
O O1 0.563535 0.728173 0.756985
O O2 0.588630 0.508859 0.671336
O O3 0.174783 0.451558 0.612664
O O4 0.156112 0.505368 0.721651
O O5 0.201207 0.742565 0.629229
O O6 0.000000 0.626360 0.750000
O O7 0.059302 0.589827 0.095237
O O8 0.250000 0.750000 0.000000
O O9 0.247360 0.440089 0.979278
O O10 0.541649 0.790179 0.509099
O O11 0.714503 0.736180 0.343619
O O12 0.561919 0.945025 0.407977
O O13 0.704117 0.997334 0.404230
O O14 0.129042 0.698872 0.316973
#
# Coordination Sequence:
#
# PCOD8131668 Si02
#       7
#     4   8   8   8   8   8   8
#     4  10  18  34  54  88 114 148 200 242 292 362
#     4  12  21  35  56  89 119 149 188 253 304 342
#     4  11  21  38  63  86 114 160 199 243 298 362
#     4   9  22  38  59  83 112 163 200 238 295 361
#     4  10  19  38  59  83 115 150 201 246 286 346
#     4  11  20  35  61  84 116 156 202 245 296 360
#     4  10  21  35  56  84 122 151 193 247 302 351
#
# _framework density 20.501056999999999
#
# number of rings (size 3 to 8) (size 9 to 14) (size 15 to 20)
#    0.000    1.538    3.077    4.154    0.000    1.231 
#    0.000    0.000    0.000   17.538    0.000    0.000 
#    0.000    0.000    0.000    0.000    0.000    0.000 
#
# Total GULP energy -322214.649558 kJ/mol
# GULP energy per Si atom -12392.871137 kJ/mol
# Density = 2.045440 g / cm^3
# Si number density = 20.501057 Si / 1000 Ang^3
#
#
#
# Elastic Constant Matrix: (Units=GPa)
#
#
# Indices 1 2 3 4 5 6 
#
# 1 46.6139 12.6723 21.4490 0.0010 -1.2094 -0.0154
# 2 12.6723 84.4027 41.6538 0.0032 -2.6876 -0.0232
# 3 21.4490 41.6538 170.9183 -0.0005 6.7859 -0.0071
# 4 0.0010 0.0032 -0.0005 36.7405 0.0017 -1.1452
# 5 -1.2094 -2.6876 6.7859 0.0017 24.5712 0.0020
# 6 -0.0154 -0.0232 -0.0071 -1.1452 0.0020 10.1838
#
#
#
# Elastic Compliance Matrix: (Units=1/GPa)
#
#
# Indices 1 2 3 4 5 6 
#
# 1 0.023220 -0.002236 -0.002431 0.000000 0.001570 0.000028
# 2 -0.002236 0.013825 -0.003179 0.000000 0.002280 0.000025
# 3 -0.002431 -0.003179 0.007026 0.000000 -0.002408 -0.000005
# 4 0.000000 0.000000 0.000000 0.027314 -0.000002 0.003071
# 5 0.001570 0.002280 -0.002408 -0.000002 0.041690 -0.000003
# 6 0.000028 0.000025 -0.000005 0.003071 -0.000003 0.098540
#
#
# Mechanical properties :
#
#
# Convention : Reuss Voigt Hill
#
# Bulk Modulus (GPa) = 35.23854 50.38724 42.81289
# Shear Modulus (GPa) = 21.11765 29.37643 25.24704
#
# Velocity S-wave (km/s) = 3.21296 3.78950 3.51308
# Velocity P-wave (km/s) = 5.56688 6.61652 6.11426
#
# Compressibility (1/GPa) = 0.02837802
#
# Stress axis : x y z
#
# Youngs Moduli (GPa) = 43.06581 72.33107 142.32369
#
# Poissons Ratio (x) = 0.16177 0.34603
# Poissons Ratio (y) = 0.09632 0.45247
# Poissons Ratio (z) = 0.10470 0.22995
#
# Static dielectric constant tensor:
#      x y z
#    x 3.536110 0.000000 -0.096040 
#    y 0.000000 3.448160 0.000000 
#    z -0.096040 0.000000 4.324780 
# 
# 
# High freq. dielectric constant tensor:
#      x y z
#    x 1.780480 0.000000 -0.006780 
#    y 0.000000 1.769180 0.000000 
#    z -0.006780 0.000000 1.838480 
# 
# From -- ./inp_files/279513.got.cif
#   From: 2010.06.25/outbox.cif.g09.slc.cpg/sg15_140_cif.got.tgz:279513.got - 2010.06.28 07:06:18.
