data_PCOD8131426
_publ_section_title
;
Structure prediction by ZEFSAII (Michael W. Deem and Ramdas Pophale) SiO2 
 PCOD8131426
Probable space group: C 2/C
;
_chemical_formula_sum "Si O2"
_cell_formula_units_Z 48
_cell_length_a 23.520760
_cell_length_b 4.905019
_cell_length_c 20.987055
_cell_angle_alpha 90.000000
_cell_angle_beta 99.788596
_cell_angle_gamma 90.000000
_cell_volume 2386.022344
_symmetry_space_group_name_H-M "C 2/C"
_symmetry_group_IT_number 15
_symmetry_cell_setting 'monoclinic'
loop_
_space_group_symop_operation_xyz
x,y,z
-x,y,1/2-z
-x,-y,-z
x,-y,1/2+z
1/2+x,1/2+y,z
1/2-x,1/2+y,1/2-z
1/2-x,1/2-y,-z
1/2+x,1/2-y,1/2+z
loop_
_atom_site_type_symbol
_atom_site_label
_atom_site_fract_x
_atom_site_fract_y
_atom_site_fract_z
Si Si1 0.429546 0.518865 0.850587
Si Si2 0.898667 0.343113 0.630830
Si Si3 0.952992 0.831170 0.582507
Si Si4 0.866868 0.883443 0.459770
Si Si5 0.312134 0.114544 0.008541
Si Si6 0.939005 0.523573 0.767080
O O1 0.480305 0.412935 0.906790
O O2 0.376878 0.620157 0.885490
O O3 0.453070 0.771239 0.815244
O O4 0.409930 0.274484 0.799676
O O5 0.949382 0.530512 0.611527
O O6 0.837571 0.413783 0.585032
O O7 0.894221 0.413697 0.704966
O O8 0.915414 0.029543 0.621406
O O9 0.926686 0.810949 0.506761
O O10 0.815276 0.678207 0.472652
O O11 0.852379 0.191585 0.474611
O O12 0.250000 0.250000 0.000000
O O13 0.000000 0.626468 0.750000
#
# Coordination Sequence:
#
# PCOD8131426 Si02
#       6
#     8   8   8   8   8   8
#     4  12  21  33  53  79 120 156 173 222 272 334
#     4  10  20  33  53  82 106 144 192 225 262 328
#     4  10  18  33  51  77 115 147 180 220 265 331
#     4  10  22  35  55  85 109 139 188 229 288 333
#     4  10  21  40  62  79 103 138 188 249 289 320
#     4  12  21  33  52  78 119 156 190 209 260 339
#
# _framework density 20.117162
#
# number of rings (size 3 to 8) (size 9 to 14) (size 15 to 20)
#    0.000    1.333    3.333    3.500    0.000    0.000 
#    0.000    6.667    0.000    4.000    0.000    0.000 
#    0.000    0.000    0.000    0.000    0.000    0.000 
#
# Total GULP energy -297569.251759 kJ/mol
# GULP energy per Si atom -12398.718823 kJ/mol
# Density = 2.007137 g / cm^3
# Si number density = 20.117162 Si / 1000 Ang^3
#
#
#
# Elastic Constant Matrix: (Units=GPa)
#
#
# Indices 1 2 3 4 5 6 
#
# 1 62.6397 11.7447 41.9490 0.0000 3.6701 0.0000
# 2 11.7447 95.0597 34.8315 0.0000 -2.5583 0.0000
# 3 41.9490 34.8315 114.0801 0.0000 -8.0095 0.0000
# 4 0.0000 0.0000 0.0000 26.9313 0.0000 0.4512
# 5 3.6701 -2.5583 -8.0095 0.0000 18.5692 0.0000
# 6 0.0000 0.0000 0.0000 0.4512 0.0000 25.5862
#
#
#
# Elastic Compliance Matrix: (Units=1/GPa)
#
#
# Indices 1 2 3 4 5 6 
#
# 1 0.022336 0.000270 -0.008872 0.000000 -0.008204 0.000000
# 2 0.000270 0.011848 -0.003719 0.000000 -0.000025 0.000000
# 3 -0.008872 -0.003719 0.013664 0.000000 0.007135 0.000000
# 4 0.000000 0.000000 0.000000 0.037142 0.000000 -0.000655
# 5 -0.008204 -0.000025 0.007135 0.000000 0.058548 0.000000
# 6 0.000000 0.000000 0.000000 -0.000655 0.000000 0.039095
#
#
# Mechanical properties :
#
#
# Convention : Reuss Voigt Hill
#
# Bulk Modulus (GPa) = 43.08846 49.87000 46.47923
# Shear Modulus (GPa) = 23.25473 26.43429 24.84451
#
# Velocity S-wave (km/s) = 3.40364 3.62887 3.51806
# Velocity P-wave (km/s) = 6.07549 6.51167 6.29736
#
# Compressibility (1/GPa) = 0.02320807
#
# Stress axis : x y z
#
# Youngs Moduli (GPa) = 44.77173 84.40075 73.18301
#
# Poissons Ratio (x) = -0.02282 0.64925
# Poissons Ratio (y) = -0.01210 0.27215
# Poissons Ratio (z) = 0.39720 0.31386
#
# Static dielectric constant tensor:
#      x y z
#    x 3.084080 0.000000 0.166580 
#    y 0.000000 3.906650 0.000000 
#    z 0.166580 0.000000 3.854650 
# 
# 
# High freq. dielectric constant tensor:
#      x y z
#    x 1.724920 0.000000 0.004860 
#    y 0.000000 1.810260 0.000000 
#    z 0.004860 0.000000 1.784860 
# 
# From -- ./inp_files/217558.got.cif
#   From: 2010.06.25/outbox.cif.g09.slc.cpg/sg15_109_cif.got.tgz:217558.got - 2010.06.28 07:06:18.
