data_PCOD8131531
_publ_section_title
;
Structure prediction by ZEFSAII (Michael W. Deem and Ramdas Pophale) SiO2 
 PCOD8131531
Probable space group: C 2/C
;
_chemical_formula_sum "Si O2"
_cell_formula_units_Z 60
_cell_length_a 8.408376
_cell_length_b 15.707352
_cell_length_c 23.986700
_cell_angle_alpha 90.000000
_cell_angle_beta 90.041417
_cell_angle_gamma 90.000000
_cell_volume 3168.002315
_symmetry_space_group_name_H-M "C 2/C"
_symmetry_group_IT_number 15
_symmetry_cell_setting 'monoclinic'
loop_
_space_group_symop_operation_xyz
x,y,z
-x,y,1/2-z
-x,-y,-z
x,-y,1/2+z
1/2+x,1/2+y,z
1/2-x,1/2+y,1/2-z
1/2-x,1/2-y,-z
1/2+x,1/2-y,1/2+z
loop_
_atom_site_type_symbol
_atom_site_label
_atom_site_fract_x
_atom_site_fract_y
_atom_site_fract_z
Si Si1 0.342312 0.004548 0.788325
Si Si2 0.638874 0.634444 0.531014
Si Si3 0.082864 0.755714 0.934386
Si Si4 0.498840 0.318299 0.142900
Si Si5 0.668391 0.130706 0.615203
Si Si6 0.500000 0.423881 0.250000
Si Si7 0.658434 0.016447 0.033618
Si Si8 0.173481 0.645348 0.130079
O O1 0.500000 0.000018 0.750000
O O2 0.397938 0.073216 0.834402
O O3 0.165769 0.024308 0.762064
O O4 0.314271 0.912003 0.815139
O O5 0.797330 0.688926 0.538985
O O6 0.526590 0.682680 0.485334
O O7 0.555794 0.624600 0.590439
O O8 0.696284 0.543121 0.507161
O O9 0.157027 0.813141 0.885033
O O10 0.945618 0.703611 0.905787
O O11 0.310922 0.315334 0.140268
O O12 0.554416 0.365490 0.198577
O O13 0.551455 0.221119 0.141700
O O14 0.717141 0.068765 0.564428
O O15 0.615425 0.091255 0.076998
O O16 0.500000 0.000000 0.000000
#
# Coordination Sequence:
#
# PCOD8131531 Si02
#       8
#     8   8   8   8   8   4   8   8
#     4  10  23  42  63  86 113 159 201 251 304 358
#     4   9  18  32  56  82 115 158 189 232 298 343
#     4   9  17  34  56  83 118 154 189 235 292 358
#     4  10  22  38  59  85 119 151 195 254 295 348
#     4  10  21  36  58  88 120 152 200 241 298 361
#     4  10  24  44  62  86 120 148 200 260 298 350
#     4  10  18  33  57  83 116 158 194 233 285 359
#     4   9  21  38  57  82 117 150 195 243 294 352
#
# _framework density 18.939381000000001
#
# number of rings (size 3 to 8) (size 9 to 14) (size 15 to 20)
#    0.000    2.400    1.333    0.800    4.667    1.067 
#    2.400    0.000    0.000    0.000    0.000    0.000 
#    0.000    0.000    0.000    0.000    0.000    0.000 
#
# Total GULP energy -371699.311403 kJ/mol
# GULP energy per Si atom -12389.977047 kJ/mol
# Density = 1.889627 g / cm^3
# Si number density = 18.939381 Si / 1000 Ang^3
#
#
#
# Elastic Constant Matrix: (Units=GPa)
#
#
# Indices 1 2 3 4 5 6 
#
# 1 73.8661 54.3108 50.0403 0.0000 4.9303 0.0000
# 2 54.3108 114.0078 66.1215 0.0000 -0.0592 0.0000
# 3 50.0403 66.1215 124.6807 0.0000 -6.6702 0.0000
# 4 0.0000 0.0000 0.0000 23.8811 0.0000 1.3064
# 5 4.9303 -0.0592 -6.6702 0.0000 30.9108 0.0000
# 6 0.0000 0.0000 0.0000 1.3064 0.0000 30.0037
#
#
#
# Elastic Compliance Matrix: (Units=1/GPa)
#
#
# Indices 1 2 3 4 5 6 
#
# 1 0.023435 -0.008028 -0.005411 0.000000 -0.004921 0.000000
# 2 -0.008028 0.015482 -0.004976 0.000000 0.000236 0.000000
# 3 -0.005411 -0.004976 0.013027 0.000000 0.003665 0.000000
# 4 0.000000 0.000000 0.000000 0.041974 0.000000 -0.001828
# 5 -0.004921 0.000236 0.003665 0.000000 0.033927 0.000000
# 6 0.000000 0.000000 0.000000 -0.001828 0.000000 0.033409
#
#
# Mechanical properties :
#
#
# Convention : Reuss Voigt Hill
#
# Bulk Modulus (GPa) = 66.16534 72.61110 69.38822
# Shear Modulus (GPa) = 24.61577 26.43126 25.52352
#
# Velocity S-wave (km/s) = 3.60906 3.73979 3.67501
# Velocity P-wave (km/s) = 7.23729 7.55446 7.39757
#
# Compressibility (1/GPa) = 0.01511365
#
# Stress axis : x y z
#
# Youngs Moduli (GPa) = 42.67101 64.59297 76.76325
#
# Poissons Ratio (x) = 0.51856 0.41540
# Poissons Ratio (y) = 0.34257 0.38194
# Poissons Ratio (z) = 0.23091 0.32139
#
# Static dielectric constant tensor:
#      x y z
#    x 3.329460 0.000000 0.003520 
#    y 0.000000 3.673520 0.000000 
#    z 0.003520 0.000000 3.721430 
# 
# 
# High freq. dielectric constant tensor:
#      x y z
#    x 1.719580 0.000000 0.000990 
#    y 0.000000 1.740050 0.000000 
#    z 0.000990 0.000000 1.744770 
# 
# From -- ./inp_files/264322.got.cif
#   From: 2010.06.25/outbox.cif.g09.slc.cpg/sg15_133_cif.got.tgz:264322.got - 2010.06.28 07:06:18.
