data_PCOD8131108
_publ_section_title
;
Structure prediction by ZEFSAII (Michael W. Deem and Ramdas Pophale) SiO2 
 PCOD8131108
Probable space group: C 2/C
;
_chemical_formula_sum "Si O2"
_cell_formula_units_Z 56
_cell_length_a 28.932099
_cell_length_b 13.983435
_cell_length_c 12.011649
_cell_angle_alpha 90.000000
_cell_angle_beta 39.761472
_cell_angle_gamma 90.000000
_cell_volume 3108.136603
_symmetry_space_group_name_H-M "C 2/C"
_symmetry_group_IT_number 15
_symmetry_cell_setting 'monoclinic'
loop_
_space_group_symop_operation_xyz
x,y,z
-x,y,1/2-z
-x,-y,-z
x,-y,1/2+z
1/2+x,1/2+y,z
1/2-x,1/2+y,1/2-z
1/2-x,1/2-y,-z
1/2+x,1/2-y,1/2+z
loop_
_atom_site_type_symbol
_atom_site_label
_atom_site_fract_x
_atom_site_fract_y
_atom_site_fract_z
Si Si1 0.938750 0.193127 0.210375
Si Si2 0.309414 0.826494 0.431008
Si Si3 0.617267 0.545176 0.344916
Si Si4 0.246916 0.191588 0.616373
Si Si5 0.271684 0.638238 0.202909
Si Si6 0.089569 0.150293 0.991937
Si Si7 0.254169 0.982292 0.967446
O O1 0.890563 0.286097 0.269829
O O2 0.936987 0.119999 0.110369
O O3 0.906414 0.145503 0.382010
O O4 0.023293 0.218474 0.073845
O O5 0.250000 0.750000 0.500000
O O6 0.293176 0.855601 0.588212
O O7 0.305037 0.924020 0.366126
O O8 0.657121 0.594840 0.375000
O O9 0.573291 0.455832 0.475114
O O10 0.672881 0.515140 0.144913
O O11 0.250000 0.250000 0.500000
O O12 0.290886 0.252905 0.626842
O O13 0.164055 0.189346 0.807958
O O14 0.277762 0.086167 0.529356
O O15 0.243454 0.572078 0.154264
#
# Coordination Sequence:
#
# PCOD8131108 Si02
#       7
#     8   8   8   8   8   8   8
#     4  11  20  34  50  81 111 150 180 221 275 333
#     4  11  20  32  51  80 112 140 187 230 264 325
#     4  10  19  32  50  79 113 143 180 223 275 332
#     4   9  18  34  54  78 103 140 185 231 276 328
#     4  10  18  31  54  77 108 141 181 233 278 314
#     4  10  21  33  54  75 114 148 181 220 276 344
#     4   9  19  31  50  79 108 142 180 231 276 321
#
# _framework density 18.017226000000001
#
# number of rings (size 3 to 8) (size 9 to 14) (size 15 to 20)
#    0.000    2.000    4.286    1.286    0.000    1.143 
#    0.000    0.000    0.000    3.429    0.000    0.000 
#    0.000    0.000    0.000    0.000    0.000    0.000 
#
# Total GULP energy -346952.166600 kJ/mol
# GULP energy per Si atom -12391.148807 kJ/mol
# Density = 1.797622 g / cm^3
# Si number density = 18.017226 Si / 1000 Ang^3
#
#
#
# Elastic Constant Matrix: (Units=GPa)
#
#
# Indices 1 2 3 4 5 6 
#
# 1 87.0337 49.4177 30.0974 0.0000 5.6530 0.0000
# 2 49.4177 106.7859 27.2203 0.0000 -0.6347 0.0000
# 3 30.0974 27.2203 57.3549 0.0000 5.7242 0.0000
# 4 0.0000 0.0000 0.0000 25.5445 0.0000 2.8681
# 5 5.6530 -0.6347 5.7242 0.0000 25.7886 0.0000
# 6 0.0000 0.0000 0.0000 2.8681 0.0000 34.9799
#
#
#
# Elastic Compliance Matrix: (Units=1/GPa)
#
#
# Indices 1 2 3 4 5 6 
#
# 1 0.017397 -0.006608 -0.005723 0.000000 -0.002706 0.000000
# 2 -0.006608 0.013214 -0.003048 0.000000 0.002450 0.000000
# 3 -0.005723 -0.003048 0.022261 0.000000 -0.003762 0.000000
# 4 0.000000 0.000000 0.000000 0.039511 0.000000 -0.003240
# 5 -0.002706 0.002450 -0.003762 0.000000 0.040265 0.000000
# 6 0.000000 0.000000 0.000000 -0.003240 0.000000 0.028853
#
#
# Mechanical properties :
#
#
# Convention : Reuss Voigt Hill
#
# Bulk Modulus (GPa) = 45.22225 51.62726 48.42476
# Shear Modulus (GPa) = 25.04630 26.89188 25.96909
#
# Velocity S-wave (km/s) = 3.73249 3.86756 3.80063
# Velocity P-wave (km/s) = 6.61281 6.97572 6.79669
#
# Compressibility (1/GPa) = 0.02211301
#
# Stress axis : x y z
#
# Youngs Moduli (GPa) = 57.48250 75.67656 44.92254
#
# Poissons Ratio (x) = 0.50007 0.25708
# Poissons Ratio (y) = 0.37984 0.13694
# Poissons Ratio (z) = 0.32896 0.23069
#
# Static dielectric constant tensor:
#      x y z
#    x 3.377680 0.000000 0.297490 
#    y 0.000000 4.014000 0.000000 
#    z 0.297490 0.000000 3.165260 
# 
# 
# High freq. dielectric constant tensor:
#      x y z
#    x 1.690150 0.000000 0.027720 
#    y 0.000000 1.700190 0.000000 
#    z 0.027720 0.000000 1.675610 
# 
# From -- ./inp_files/126717.got.cif
#   From: 2010.06.25/outbox.cif.g09.slc.cpg/sg15_64_cif.got.tgz:126717.got - 2010.06.28 07:06:18.
