data_PCOD8131622
_publ_section_title
;
Structure prediction by ZEFSAII (Michael W. Deem and Ramdas Pophale) SiO2 
 PCOD8131622
Probable space group: C 2/C
;
_chemical_formula_sum "Si O2"
_cell_formula_units_Z 60
_cell_length_a 26.516671
_cell_length_b 24.813593
_cell_length_c 15.934030
_cell_angle_alpha 90.000000
_cell_angle_beta 17.621387
_cell_angle_gamma 90.000000
_cell_volume 3173.829081
_symmetry_space_group_name_H-M "C 2/C"
_symmetry_group_IT_number 15
_symmetry_cell_setting 'monoclinic'
loop_
_space_group_symop_operation_xyz
x,y,z
-x,y,1/2-z
-x,-y,-z
x,-y,1/2+z
1/2+x,1/2+y,z
1/2-x,1/2+y,1/2-z
1/2-x,1/2-y,-z
1/2+x,1/2-y,1/2+z
loop_
_atom_site_type_symbol
_atom_site_label
_atom_site_fract_x
_atom_site_fract_y
_atom_site_fract_z
Si Si1 0.163890 0.378705 0.752842
Si Si2 0.199113 0.497618 0.685739
Si Si3 0.367007 0.096029 0.617701
Si Si4 0.500000 0.040464 0.250000
Si Si5 0.827607 0.022046 0.804187
Si Si6 0.632686 0.353505 0.226278
Si Si7 0.368401 0.690465 0.033396
Si Si8 0.677317 0.189343 0.926865
O O1 0.248893 0.437371 0.636719
O O2 0.243800 0.346868 0.547891
O O3 0.199388 0.342667 0.778900
O O4 0.968897 0.385000 0.039132
O O5 0.255806 0.546683 0.658184
O O6 0.282933 0.506275 0.462721
O O7 0.000000 0.500000 0.000000
O O8 0.497615 0.074843 0.340037
O O9 0.271853 0.146136 0.726339
O O10 0.325494 0.007830 0.517740
O O11 0.857875 0.085680 0.757322
O O12 0.000000 0.000000 0.500000
O O13 0.447412 0.334329 0.492859
O O14 0.686303 0.313354 0.215928
O O15 0.321841 0.752808 0.119158
O O16 0.500000 0.682625 0.750000
O O17 0.500000 0.175590 0.250000
#
# Coordination Sequence:
#
# PCOD8131622 Si02
#       8
#     8   8   8   4   8   8   8   8
#     4   9  16  31  47  71 106 146 179 227 293 337
#     4   9  18  34  57  78 116 149 186 234 285 351
#     4  11  17  31  57  77 106 156 192 225 288 352
#     4  12  18  36  56  78 118 158 188 232 294 342
#     4  11  22  37  59  86 116 155 193 243 292 347
#     4  10  18  34  46  74 114 142 188 233 291 350
#     4   9  21  27  45  75 112 145 184 242 290 342
#     4  11  18  29  50  73 104 153 187 229 290 346
#
# _framework density 18.904610000000002
#
# number of rings (size 3 to 8) (size 9 to 14) (size 15 to 20)
#    0.000    1.867    7.333    0.000    1.867    2.667 
#    0.000    2.000    0.000    0.000    0.000    0.933 
#    8.000    0.000    0.000    0.000    0.000    0.000 
#
# Total GULP energy -371658.212776 kJ/mol
# GULP energy per Si atom -12388.607093 kJ/mol
# Density = 1.886158 g / cm^3
# Si number density = 18.904610 Si / 1000 Ang^3
#
#
#
# Elastic Constant Matrix: (Units=GPa)
#
#
# Indices 1 2 3 4 5 6 
#
# 1 117.5386 60.7596 29.1765 0.0274 -20.6530 -0.0101
# 2 60.7596 103.1014 24.2087 0.0006 -0.5211 -0.0009
# 3 29.1765 24.2087 63.8272 -0.0134 -1.2789 -0.0230
# 4 0.0274 0.0006 -0.0134 15.6356 -0.0156 -3.1305
# 5 -20.6530 -0.5211 -1.2789 -0.0156 20.3259 0.0158
# 6 -0.0101 -0.0009 -0.0230 -3.1305 0.0158 29.7425
#
#
#
# Elastic Compliance Matrix: (Units=1/GPa)
#
#
# Indices 1 2 3 4 5 6 
#
# 1 0.017210 -0.009099 -0.004075 -0.000018 0.016997 -0.000008
# 2 -0.009099 0.015458 -0.001883 0.000005 -0.008968 0.000001
# 3 -0.004075 -0.001883 0.018183 0.000023 -0.003045 0.000017
# 4 -0.000018 0.000005 0.000023 0.065333 0.000028 0.006876
# 5 0.016997 -0.008968 -0.003045 0.000028 0.066047 -0.000029
# 6 -0.000008 0.000001 0.000017 0.006876 -0.000029 0.034346
#
#
# Mechanical properties :
#
#
# Convention : Reuss Voigt Hill
#
# Bulk Modulus (GPa) = 48.22512 56.97301 52.59906
# Shear Modulus (GPa) = 19.71566 24.49563 22.10564
#
# Velocity S-wave (km/s) = 3.23290 3.60356 3.42325
# Velocity P-wave (km/s) = 6.28495 6.89323 6.59611
#
# Compressibility (1/GPa) = 0.02073608
#
# Stress axis : x y z
#
# Youngs Moduli (GPa) = 58.10688 64.68951 54.99509
#
# Poissons Ratio (x) = 0.58863 0.22411
# Poissons Ratio (y) = 0.52873 0.10358
# Poissons Ratio (z) = 0.23679 0.12184
#
# Static dielectric constant tensor:
#      x y z
#    x 3.838520 0.000040 -0.062900 
#    y 0.000040 3.869840 0.000110 
#    z -0.062900 0.000110 2.996250 
# 
# 
# High freq. dielectric constant tensor:
#      x y z
#    x 1.740730 0.000000 -0.016670 
#    y 0.000000 1.732430 0.000010 
#    z -0.016670 0.000010 1.661360 
# 
# From -- ./inp_files/179322.got.cif
#   From: 2010.06.25/outbox.cif.g09.slc.cpg/sg15_90_cif.got.tgz:179322.got - 2010.06.28 07:06:18.
