data_PCOD8131824
_publ_section_title
;
Structure prediction by ZEFSAII (Michael W. Deem and Ramdas Pophale) SiO2 
 PCOD8131824
Probable space group: C 2/C
;
_chemical_formula_sum "Si O2"
_cell_formula_units_Z 52
_cell_length_a 13.062618
_cell_length_b 21.724528
_cell_length_c 8.729500
_cell_angle_alpha 90.000000
_cell_angle_beta 86.801107
_cell_angle_gamma 90.000000
_cell_volume 2473.390671
_symmetry_space_group_name_H-M "C 2/C"
_symmetry_group_IT_number 15
_symmetry_cell_setting 'monoclinic'
loop_
_space_group_symop_operation_xyz
x,y,z
-x,y,1/2-z
-x,-y,-z
x,-y,1/2+z
1/2+x,1/2+y,z
1/2-x,1/2+y,1/2-z
1/2-x,1/2-y,-z
1/2+x,1/2-y,1/2+z
loop_
_atom_site_type_symbol
_atom_site_label
_atom_site_fract_x
_atom_site_fract_y
_atom_site_fract_z
Si Si1 0.569211 0.180884 0.898459
Si Si2 0.594577 0.738644 0.011300
Si Si3 0.500000 0.646362 0.250000
Si Si4 0.743440 0.179994 0.678641
Si Si5 0.222284 0.954223 0.235609
Si Si6 0.062541 0.453500 0.395120
Si Si7 0.094615 0.956425 0.953191
O O1 0.500000 0.183752 0.750000
O O2 0.517102 0.230786 0.017146
O O3 0.687154 0.198468 0.843720
O O4 0.571778 0.113383 0.976112
O O5 0.580876 0.688345 0.149042
O O6 0.672932 0.793884 0.047505
O O7 0.641434 0.706772 0.854430
O O8 0.438304 0.604107 0.135791
O O9 0.749612 0.105949 0.666885
O O10 0.325816 0.981422 0.151258
O O11 0.177379 0.006454 0.347867
O O12 0.143042 0.935020 0.109363
O O13 0.000000 0.440125 0.250000
O O14 0.000000 0.500000 0.500000
O O15 0.000000 0.000000 0.000000
#
# Coordination Sequence:
#
# PCOD8131824 Si02
#       7
#     8   8   4   8   8   8   8
#     4   8  15  32  52  82 112 150 198 245 295 365
#     4  10  18  34  60  90 114 163 212 246 309 382
#     4  12  22  38  64  92 126 164 216 260 318 386
#     4   9  18  33  59  85 116 156 207 253 302 374
#     4  11  23  40  63  92 130 168 211 262 324 379
#     4  10  20  37  62  88 121 163 205 259 315 371
#     4  12  24  42  61  94 132 168 212 266 320 385
#
# _framework density 21.023771
#
# number of rings (size 3 to 8) (size 9 to 14) (size 15 to 20)
#    0.000    1.846    3.846    2.769    0.000    0.000 
#    2.769    0.769    0.000    0.000    0.000    0.000 
#    0.000    0.000    0.000    0.000    0.000    0.000 
#
# Total GULP energy -322142.619710 kJ/mol
# GULP energy per Si atom -12390.100758 kJ/mol
# Density = 2.097592 g / cm^3
# Si number density = 21.023771 Si / 1000 Ang^3
#
#
#
# Elastic Constant Matrix: (Units=GPa)
#
#
# Indices 1 2 3 4 5 6 
#
# 1 102.7871 51.2376 42.1868 0.0000 -45.1174 0.0000
# 2 51.2376 129.0754 55.1609 0.0000 -32.1133 0.0000
# 3 42.1868 55.1609 63.1355 0.0000 -30.1286 0.0000
# 4 0.0000 0.0000 0.0000 22.2175 0.0000 -0.9880
# 5 -45.1174 -32.1133 -30.1286 0.0000 56.8925 0.0000
# 6 0.0000 0.0000 0.0000 -0.9880 0.0000 28.7236
#
#
#
# Elastic Compliance Matrix: (Units=1/GPa)
#
#
# Indices 1 2 3 4 5 6 
#
# 1 0.017120 -0.002346 -0.004741 0.000000 0.009742 0.000000
# 2 -0.002346 0.012807 -0.009447 0.000000 0.000365 0.000000
# 3 -0.004741 -0.009447 0.030674 0.000000 0.007152 0.000000
# 4 0.000000 0.000000 0.000000 0.045079 0.000000 0.001551
# 5 0.009742 0.000365 0.007152 0.000000 0.029296 0.000000
# 6 0.000000 0.000000 0.000000 0.001551 0.000000 0.034868
#
#
# Mechanical properties :
#
#
# Convention : Reuss Voigt Hill
#
# Bulk Modulus (GPa) = 36.32138 65.79652 51.05895
# Shear Modulus (GPa) = 23.57494 31.32757 27.45126
#
# Velocity S-wave (km/s) = 3.35228 3.86437 3.61740
# Velocity P-wave (km/s) = 5.68310 7.16068 6.46425
#
# Compressibility (1/GPa) = 0.02753200
#
# Stress axis : x y z
#
# Youngs Moduli (GPa) = 58.41004 78.08236 32.60139
#
# Poissons Ratio (x) = 0.18320 0.15456
# Poissons Ratio (y) = 0.13705 0.30799
# Poissons Ratio (z) = 0.27692 0.73766
#
# Static dielectric constant tensor:
#      x y z
#    x 4.297220 0.000000 -0.557400 
#    y 0.000000 4.420460 0.000000 
#    z -0.557400 0.000000 3.661580 
# 
# 
# High freq. dielectric constant tensor:
#      x y z
#    x 1.828920 0.000000 -0.041220 
#    y 0.000000 1.832120 0.000000 
#    z -0.041220 0.000000 1.784480 
# 
# From -- ./inp_files/40781.got.cif
#   From: 2010.06.25/outbox.cif.g09.slc.cpg/sg15_21_cif.got.tgz:40781.got - 2010.06.28 07:06:18.
