data_PCOD8131009
_publ_section_title
;
Structure prediction by ZEFSAII (Michael W. Deem and Ramdas Pophale) SiO2 
 PCOD8131009
Probable space group: C 2/C
;
_chemical_formula_sum "Si O2"
_cell_formula_units_Z 64
_cell_length_a 17.569089
_cell_length_b 25.962188
_cell_length_c 17.643802
_cell_angle_alpha 90.000000
_cell_angle_beta 147.179115
_cell_angle_gamma 90.000000
_cell_volume 4362.080445
_symmetry_space_group_name_H-M "C 2/C"
_symmetry_group_IT_number 15
_symmetry_cell_setting 'monoclinic'
loop_
_space_group_symop_operation_xyz
x,y,z
-x,y,1/2-z
-x,-y,-z
x,-y,1/2+z
1/2+x,1/2+y,z
1/2-x,1/2+y,1/2-z
1/2-x,1/2-y,-z
1/2+x,1/2-y,1/2+z
loop_
_atom_site_type_symbol
_atom_site_label
_atom_site_fract_x
_atom_site_fract_y
_atom_site_fract_z
Si Si1 0.096229 0.308321 0.398909
Si Si2 0.598234 0.502907 0.899907
Si Si3 0.591369 0.307750 0.897094
Si Si4 0.592345 0.009455 0.899406
Si Si5 0.883958 0.039851 0.426861
Si Si6 0.540038 0.400933 0.645626
Si Si7 0.072436 0.538919 0.117719
Si Si8 0.644869 0.103999 0.048355
O O1 0.248118 0.311325 0.489650
O O2 0.053423 0.250694 0.389330
O O3 0.084338 0.342634 0.464681
O O4 0.000000 0.328569 0.250000
O O5 0.500000 0.522745 0.750000
O O6 0.548472 0.447648 0.890957
O O7 0.750691 0.501444 0.992159
O O8 0.603578 0.545648 0.971682
O O9 0.500000 0.325773 0.750000
O O10 0.551125 0.348461 0.928905
O O11 0.500000 0.022273 0.750000
O O12 0.525433 0.960193 0.888963
O O13 0.585008 0.059136 0.945929
O O14 0.923884 0.091236 0.413342
O O15 0.728866 0.020109 0.272691
O O16 0.000000 0.000000 0.500000
O O17 0.685942 0.395736 0.813460
O O18 0.087576 0.594025 0.086533
O O19 0.000000 0.500000 0.000000
#
# Coordination Sequence:
#
# PCOD8131009 Si02
#       8
#     8   8   8   8   8   8   8   8
#     4  10  20  30  43  67  89 112 146 188 217 249
#     4  11  19  30  46  66  89 120 154 181 214 261
#     4  10  18  31  47  62  88 116 147 182 217 252
#     4  11  19  29  44  65  92 118 147 187 217 254
#     4   9  19  31  44  63  86 115 152 184 213 260
#     4  10  18  31  48  62  85 121 154 177 212 266
#     4   9  19  31  43  62  89 118 145 182 224 256
#     4  10  18  31  46  62  87 121 151 177 220 262
#
# _framework density 14.671898000000001
#
# number of rings (size 3 to 8) (size 9 to 14) (size 15 to 20)
#    0.000    2.000    3.750    1.500    1.750    0.000 
#    2.250    0.000    0.000    0.000    0.000    0.000 
#    0.000    2.000    0.000    0.125    0.000    0.000 
#
# Total GULP energy -396464.474825 kJ/mol
# GULP energy per Si atom -12389.514838 kJ/mol
# Density = 1.463850 g / cm^3
# Si number density = 14.671898 Si / 1000 Ang^3
#
#
#
# Elastic Constant Matrix: (Units=GPa)
#
#
# Indices 1 2 3 4 5 6 
#
# 1 87.9734 43.2760 40.0382 0.0000 -2.8814 0.0000
# 2 43.2760 67.2212 25.8307 0.0000 -6.2636 0.0000
# 3 40.0382 25.8307 101.0109 0.0000 -2.7037 0.0000
# 4 0.0000 0.0000 0.0000 15.3137 0.0000 -0.6944
# 5 -2.8814 -6.2636 -2.7037 0.0000 26.0759 0.0000
# 6 0.0000 0.0000 0.0000 -0.6944 0.0000 24.6374
#
#
#
# Elastic Compliance Matrix: (Units=1/GPa)
#
#
# Indices 1 2 3 4 5 6 
#
# 1 0.018506 -0.010168 -0.004759 0.000000 -0.000891 0.000000
# 2 -0.010168 0.022416 -0.001592 0.000000 0.004096 0.000000
# 3 -0.004759 -0.001592 0.012203 0.000000 0.000357 0.000000
# 4 0.000000 0.000000 0.000000 0.065384 0.000000 0.001843
# 5 -0.000891 0.004096 0.000357 0.000000 0.039272 0.000000
# 6 0.000000 0.000000 0.000000 0.001843 0.000000 0.040641
#
#
# Mechanical properties :
#
#
# Convention : Reuss Voigt Hill
#
# Bulk Modulus (GPa) = 49.78553 52.72169 51.25361
# Shear Modulus (GPa) = 20.99477 23.00946 22.00212
#
# Velocity S-wave (km/s) = 3.78690 3.96443 3.87668
# Velocity P-wave (km/s) = 7.28883 7.54768 7.41938
#
# Compressibility (1/GPa) = 0.02008616
#
# Stress axis : x y z
#
# Youngs Moduli (GPa) = 54.03792 44.61160 81.94767
#
# Poissons Ratio (x) = 0.45361 0.38997
# Poissons Ratio (y) = 0.54945 0.13048
# Poissons Ratio (z) = 0.25716 0.07103
#
# Static dielectric constant tensor:
#      x y z
#    x 3.392250 0.000000 -0.113110 
#    y 0.000000 2.819070 0.000000 
#    z -0.113110 0.000000 2.970920 
# 
# 
# High freq. dielectric constant tensor:
#      x y z
#    x 1.555290 0.000000 0.006400 
#    y 0.000000 1.518640 0.000000 
#    z 0.006400 0.000000 1.582570 
# 
# From -- ./inp_files/52492.got.cif
#   From: 2010.06.25/outbox.cif.g09.slc.cpg/sg15_27_cif.got.tgz:52492.got - 2010.06.28 07:06:18.
