data_PCOD8131012
_publ_section_title
;
Structure prediction by ZEFSAII (Michael W. Deem and Ramdas Pophale) SiO2 
 PCOD8131012
Probable space group: C 2/C
;
_chemical_formula_sum "Si O2"
_cell_formula_units_Z 56
_cell_length_a 25.686703
_cell_length_b 13.180501
_cell_length_c 9.792127
_cell_angle_alpha 90.000000
_cell_angle_beta 53.458888
_cell_angle_gamma 90.000000
_cell_volume 2663.577149
_symmetry_space_group_name_H-M "C 2/C"
_symmetry_group_IT_number 15
_symmetry_cell_setting 'monoclinic'
loop_
_space_group_symop_operation_xyz
x,y,z
-x,y,1/2-z
-x,-y,-z
x,-y,1/2+z
1/2+x,1/2+y,z
1/2-x,1/2+y,1/2-z
1/2-x,1/2-y,-z
1/2+x,1/2-y,1/2+z
loop_
_atom_site_type_symbol
_atom_site_label
_atom_site_fract_x
_atom_site_fract_y
_atom_site_fract_z
Si Si1 0.642368 0.761965 0.014481
Si Si2 0.416495 0.250512 0.610218
Si Si3 0.657515 0.236521 0.044447
Si Si4 0.554436 0.693310 0.919163
Si Si5 0.188453 0.047461 0.962378
Si Si6 0.720488 0.121373 0.177045
Si Si7 0.102815 0.013633 0.346174
O O1 0.580167 0.721719 0.029334
O O2 0.694306 0.670005 0.953737
O O3 0.675726 0.852843 0.878233
O O4 0.617098 0.797857 0.202880
O O5 0.380244 0.204579 0.535064
O O6 0.493904 0.231610 0.482879
O O7 0.421263 0.372017 0.610598
O O8 0.715277 0.310554 0.911750
O O9 0.608643 0.292056 0.220651
O O10 0.685309 0.140195 0.085932
O O11 0.544077 0.570031 0.930462
O O12 0.260313 0.997301 0.842921
O O13 0.145224 0.010001 0.908746
O O14 0.153455 0.001061 0.146489
#
# Coordination Sequence:
#
# PCOD8131012 Si02
#       7
#     8   8   8   8   8   8   8
#     4   9  22  33  52  79 107 149 179 217 279 316
#     4  11  19  31  47  77 110 137 184 220 255 323
#     4  10  20  31  51  73  94 150 189 211 263 311
#     4  10  18  32  49  72 110 147 173 209 264 329
#     4  10  19  34  51  73 108 143 186 221 261 317
#     4  10  19  38  52  67 112 148 183 231 266 316
#     4  10  18  31  46  77 104 149 177 207 258 326
#
# _framework density 21.024357999999999
#
# number of rings (size 3 to 8) (size 9 to 14) (size 15 to 20)
#    0.000    2.000    2.857    1.286    2.000    0.571 
#    0.000    4.286    0.000    0.000    0.000    0.000 
#    0.000   20.571    0.000    0.000    0.000    0.000 
#
# Total GULP energy -346928.097869 kJ/mol
# GULP energy per Si atom -12390.289210 kJ/mol
# Density = 2.097651 g / cm^3
# Si number density = 21.024358 Si / 1000 Ang^3
#
#
#
# Elastic Constant Matrix: (Units=GPa)
#
#
# Indices 1 2 3 4 5 6 
#
# 1 103.4499 20.2652 34.8509 0.0000 12.6253 0.0000
# 2 20.2652 26.1648 6.4487 0.0000 -4.0790 0.0000
# 3 34.8509 6.4487 75.2657 0.0000 22.5720 0.0000
# 4 0.0000 0.0000 0.0000 9.3632 0.0000 -10.5568
# 5 12.6253 -4.0790 22.5720 0.0000 39.6912 0.0000
# 6 0.0000 0.0000 0.0000 -10.5568 0.0000 26.4788
#
#
#
# Elastic Compliance Matrix: (Units=1/GPa)
#
#
# Indices 1 2 3 4 5 6 
#
# 1 0.013437 -0.009689 -0.004595 0.000000 -0.002657 0.000000
# 2 -0.009689 0.047779 -0.002416 0.000000 0.009366 0.000000
# 3 -0.004595 -0.002416 0.018394 0.000000 -0.009247 0.000000
# 4 0.000000 0.000000 0.000000 0.194013 0.000000 0.077351
# 5 -0.002657 0.009366 -0.009247 0.000000 0.032261 0.000000
# 6 0.000000 0.000000 0.000000 0.077351 0.000000 0.068605
#
#
# Mechanical properties :
#
#
# Convention : Reuss Voigt Hill
#
# Bulk Modulus (GPa) = 21.64026 36.44556 29.04291
# Shear Modulus (GPa) = 11.81218 24.66101 18.23660
#
# Velocity S-wave (km/s) = 2.37287 3.42859 2.94837
# Velocity P-wave (km/s) = 4.22169 5.74858 5.04325
#
# Compressibility (1/GPa) = 0.04621016
#
# Stress axis : x y z
#
# Youngs Moduli (GPa) = 74.42336 20.92963 54.36514
#
# Poissons Ratio (x) = 0.20278 0.24980
# Poissons Ratio (y) = 0.72107 0.13137
# Poissons Ratio (z) = 0.34196 0.05057
#
# Static dielectric constant tensor:
#      x y z
#    x 3.900130 0.000000 0.147430 
#    y 0.000000 3.376130 0.000000 
#    z 0.147430 0.000000 3.887660 
# 
# 
# High freq. dielectric constant tensor:
#      x y z
#    x 1.822590 0.000000 0.011650 
#    y 0.000000 1.770680 0.000000 
#    z 0.011650 0.000000 1.835510 
# 
# From -- ./inp_files/61816.got.cif
#   From: 2010.06.25/outbox.cif.g09.slc.cpg/sg15_31_cif.got.tgz:61816.got - 2010.06.28 07:06:18.
