data_PCOD8131221
_publ_section_title
;
Structure prediction by ZEFSAII (Michael W. Deem and Ramdas Pophale) SiO2 
 PCOD8131221
Probable space group: C 2/C
;
_chemical_formula_sum "Si O2"
_cell_formula_units_Z 60
_cell_length_a 26.882888
_cell_length_b 9.186665
_cell_length_c 12.461269
_cell_angle_alpha 90.000000
_cell_angle_beta 112.173574
_cell_angle_gamma 90.000000
_cell_volume 2849.889686
_symmetry_space_group_name_H-M "C 2/C"
_symmetry_group_IT_number 15
_symmetry_cell_setting 'monoclinic'
loop_
_space_group_symop_operation_xyz
x,y,z
-x,y,1/2-z
-x,-y,-z
x,-y,1/2+z
1/2+x,1/2+y,z
1/2-x,1/2+y,1/2-z
1/2-x,1/2-y,-z
1/2+x,1/2-y,1/2+z
loop_
_atom_site_type_symbol
_atom_site_label
_atom_site_fract_x
_atom_site_fract_y
_atom_site_fract_z
Si Si1 0.850271 0.328754 0.239840
Si Si2 0.162576 0.979465 0.858004
Si Si3 0.944666 0.388717 0.166374
Si Si4 0.367243 0.965000 0.929054
Si Si5 0.907223 0.800825 0.323782
Si Si6 0.273437 0.091959 0.507643
Si Si7 0.067215 0.083691 0.433901
Si Si8 0.000000 0.140663 0.750000
O O1 0.834682 0.158723 0.221091
O O2 0.909070 0.355711 0.240500
O O3 0.853653 0.379014 0.365954
O O4 0.807536 0.435121 0.143971
O O5 0.223008 0.017217 0.949279
O O6 0.126127 0.933294 0.929335
O O7 0.140609 0.121046 0.780096
O O8 0.959080 0.236627 0.120777
O O9 0.000000 0.464414 0.250000
O O10 0.913920 0.490682 0.055265
O O11 0.385965 0.850472 0.853595
O O12 0.313387 0.906184 0.939425
O O13 0.926274 0.913398 0.431912
O O14 0.955762 0.765649 0.279312
O O15 0.250000 0.250000 0.500000
O O16 0.028269 0.956226 0.364476
#
# Coordination Sequence:
#
# PCOD8131221 Si02
#       8
#     8   8   8   8   8   8   8   4
#     4   9  19  36  53  78 109 139 181 225 262 323
#     4   9  19  34  57  83 102 141 187 227 266 326
#     4   9  17  33  56  74 100 145 186 215 255 333
#     4  10  21  35  54  82 112 142 176 228 282 318
#     4  10  20  34  53  81 111 140 184 227 277 330
#     4   9  18  36  60  79 105 148 188 219 263 334
#     4   9  17  32  54  78 104 137 185 225 266 323
#     4  10  18  32  52  76 108 146 178 234 280 312
#
# _framework density 21.053446999999998
#
# number of rings (size 3 to 8) (size 9 to 14) (size 15 to 20)
#    0.000    2.667    0.667    2.800    0.000    3.733 
#    1.200    6.000    0.000    0.000    0.000    0.000 
#    0.000    0.000    0.000    0.000    0.000    0.000 
#
# Total GULP energy -371847.506025 kJ/mol
# GULP energy per Si atom -12394.916868 kJ/mol
# Density = 2.100553 g / cm^3
# Si number density = 21.053447 Si / 1000 Ang^3
#
#
#
# Elastic Constant Matrix: (Units=GPa)
#
#
# Indices 1 2 3 4 5 6 
#
# 1 121.8728 14.2131 47.2965 0.0000 20.3270 0.0000
# 2 14.2131 22.8792 4.9505 0.0000 0.1792 0.0000
# 3 47.2965 4.9505 73.1455 0.0000 7.9023 0.0000
# 4 0.0000 0.0000 0.0000 31.0143 0.0000 -5.4175
# 5 20.3270 0.1792 7.9023 0.0000 37.7013 0.0000
# 6 0.0000 0.0000 0.0000 -5.4175 0.0000 14.9243
#
#
#
# Elastic Compliance Matrix: (Units=1/GPa)
#
#
# Indices 1 2 3 4 5 6 
#
# 1 0.012581 -0.006229 -0.007146 0.000000 -0.005256 0.000000
# 2 -0.006229 0.047448 0.000489 0.000000 0.003030 0.000000
# 3 -0.007146 0.000489 0.018256 0.000000 0.000024 0.000000
# 4 0.000000 0.000000 0.000000 0.034426 0.000000 0.012497
# 5 -0.005256 0.003030 0.000024 0.000000 0.029339 0.000000
# 6 0.000000 0.000000 0.000000 0.012497 0.000000 0.071541
#
#
# Mechanical properties :
#
#
# Convention : Reuss Voigt Hill
#
# Bulk Modulus (GPa) = 19.04252 38.97976 29.01114
# Shear Modulus (GPa) = 19.46530 26.82380 23.14455
#
# Velocity S-wave (km/s) = 3.04397 3.57330 3.31920
# Velocity P-wave (km/s) = 4.62804 5.96485 5.33846
#
# Compressibility (1/GPa) = 0.05251405
#
# Stress axis : x y z
#
# Youngs Moduli (GPa) = 79.48186 21.07590 54.77556
#
# Poissons Ratio (x) = 0.13127 0.39142
# Poissons Ratio (y) = 0.49506 -0.02677
# Poissons Ratio (z) = 0.56797 -0.01030
#
# Static dielectric constant tensor:
#      x y z
#    x 4.139920 0.000000 0.318040 
#    y 0.000000 3.364980 0.000000 
#    z 0.318040 0.000000 4.045890 
# 
# 
# High freq. dielectric constant tensor:
#      x y z
#    x 1.830980 0.000000 0.008950 
#    y 0.000000 1.786350 0.000000 
#    z 0.008950 0.000000 1.826130 
# 
# From -- ./inp_files/122467.got.cif
#   From: 2010.06.25/outbox.cif.g09.slc.cpg/sg15_62_cif.got.tgz:122467.got - 2010.06.28 07:06:18.
