data_PCOD8131760
_publ_section_title
;
Structure prediction by ZEFSAII (Michael W. Deem and Ramdas Pophale) SiO2 
 PCOD8131760
Probable space group: C 2/C
;
_chemical_formula_sum "Si O2"
_cell_formula_units_Z 52
_cell_length_a 10.577465
_cell_length_b 15.345987
_cell_length_c 21.706086
_cell_angle_alpha 90.000000
_cell_angle_beta 130.176856
_cell_angle_gamma 90.000000
_cell_volume 2692.052505
_symmetry_space_group_name_H-M "C 2/C"
_symmetry_group_IT_number 15
_symmetry_cell_setting 'monoclinic'
loop_
_space_group_symop_operation_xyz
x,y,z
-x,y,1/2-z
-x,-y,-z
x,-y,1/2+z
1/2+x,1/2+y,z
1/2-x,1/2+y,1/2-z
1/2-x,1/2-y,-z
1/2+x,1/2-y,1/2+z
loop_
_atom_site_type_symbol
_atom_site_label
_atom_site_fract_x
_atom_site_fract_y
_atom_site_fract_z
Si Si1 0.983819 0.939609 0.936123
Si Si2 0.680256 0.565215 0.707193
Si Si3 0.936684 0.207872 0.663054
Si Si4 0.672753 0.889765 0.898592
Si Si5 0.320247 0.964885 0.002466
Si Si6 0.185906 0.565688 0.618624
Si Si7 0.000000 0.511968 0.750000
O O1 0.841430 0.871514 0.911422
O O2 0.929236 0.989824 0.857276
O O3 0.000000 0.000000 0.000000
O O4 0.167700 0.902850 0.977643
O O5 0.579914 0.655446 0.672229
O O6 0.714869 0.539043 0.788810
O O7 0.849978 0.575311 0.722286
O O8 0.903261 0.294707 0.612736
O O9 0.769721 0.151066 0.615840
O O10 0.000000 0.236887 0.750000
O O11 0.700150 0.939787 0.971500
O O12 0.547323 0.950785 0.821706
O O13 0.491775 0.916027 0.072503
O O14 0.306994 0.983303 0.925313
#
# Coordination Sequence:
#
# PCOD8131760 Si02
#       7
#     8   8   8   8   8   8   4
#     4   9  19  34  54  81 107 141 184 228 258 325
#     4  10  19  35  57  78 109 143 188 219 278 325
#     4  10  20  34  55  84 109 140 181 232 274 323
#     4  10  19  34  57  81 108 136 184 229 272 311
#     4  10  19  35  54  79 112 144 187 219 266 332
#     4  10  20  33  53  80 109 148 182 221 270 332
#     4  10  18  34  58  82  96 146 180 226 262 326
#
# _framework density 19.316117999999999
#
# number of rings (size 3 to 8) (size 9 to 14) (size 15 to 20)
#    0.000    2.154    3.846    0.000    0.000    0.615 
#    0.000    0.769    0.000    9.231    0.000    0.000 
#    0.000    0.000    0.000    0.000    0.000    0.000 
#
# Total GULP energy -322194.791932 kJ/mol
# GULP energy per Si atom -12392.107382 kJ/mol
# Density = 1.927215 g / cm^3
# Si number density = 19.316118 Si / 1000 Ang^3
#
#
#
# Elastic Constant Matrix: (Units=GPa)
#
#
# Indices 1 2 3 4 5 6 
#
# 1 128.4862 39.5649 30.2405 0.0000 36.8812 0.0000
# 2 39.5649 67.1388 21.4688 0.0000 9.8114 0.0000
# 3 30.2405 21.4688 90.3401 0.0000 2.3337 0.0000
# 4 0.0000 0.0000 0.0000 18.0068 0.0000 2.0145
# 5 36.8812 9.8114 2.3337 0.0000 41.1054 0.0000
# 6 0.0000 0.0000 0.0000 2.0145 0.0000 21.8847
#
#
#
# Elastic Compliance Matrix: (Units=1/GPa)
#
#
# Indices 1 2 3 4 5 6 
#
# 1 0.013018 -0.005263 -0.002842 0.000000 -0.010263 0.000000
# 2 -0.005263 0.018809 -0.002718 0.000000 0.000387 0.000000
# 3 -0.002842 -0.002718 0.012602 0.000000 0.002483 0.000000
# 4 0.000000 0.000000 0.000000 0.056112 0.000000 -0.005165
# 5 -0.010263 0.000387 0.002483 0.000000 0.033303 0.000000
# 6 0.000000 0.000000 0.000000 -0.005165 0.000000 0.046169
#
#
# Mechanical properties :
#
#
# Convention : Reuss Voigt Hill
#
# Bulk Modulus (GPa) = 43.89185 52.05704 47.97445
# Shear Modulus (GPa) = 23.89436 29.17879 26.53657
#
# Velocity S-wave (km/s) = 3.52094 3.89085 3.71051
# Velocity P-wave (km/s) = 6.26910 6.86975 6.57629
#
# Compressibility (1/GPa) = 0.02278327
#
# Stress axis : x y z
#
# Youngs Moduli (GPa) = 76.81409 53.16701 79.35027
#
# Poissons Ratio (x) = 0.27983 0.22551
# Poissons Ratio (y) = 0.40429 0.21567
# Poissons Ratio (z) = 0.21830 0.14451
#
# Static dielectric constant tensor:
#      x y z
#    x 4.058240 0.000000 0.285620 
#    y 0.000000 2.958630 0.000000 
#    z 0.285620 0.000000 3.868230 
# 
# 
# High freq. dielectric constant tensor:
#      x y z
#    x 1.766620 0.000000 0.009490 
#    y 0.000000 1.682050 0.000000 
#    z 0.009490 0.000000 1.774360 
# 
# From -- ./inp_files/197699.got.cif
#   From: 2010.06.25/outbox.cif.g09.slc.cpg/sg15_99_cif.got.tgz:197699.got - 2010.06.28 07:06:18.
