data_PCOD8131954
_publ_section_title
;
Structure prediction by ZEFSAII (Michael W. Deem and Ramdas Pophale) SiO2 
 PCOD8131954
Probable space group: C 2/C
;
_chemical_formula_sum "Si O2"
_cell_formula_units_Z 52
_cell_length_a 15.242319
_cell_length_b 8.216641
_cell_length_c 24.293522
_cell_angle_alpha 90.000000
_cell_angle_beta 55.586647
_cell_angle_gamma 90.000000
_cell_volume 2510.037517
_symmetry_space_group_name_H-M "C 2/C"
_symmetry_group_IT_number 15
_symmetry_cell_setting 'monoclinic'
loop_
_space_group_symop_operation_xyz
x,y,z
-x,y,1/2-z
-x,-y,-z
x,-y,1/2+z
1/2+x,1/2+y,z
1/2-x,1/2+y,1/2-z
1/2-x,1/2-y,-z
1/2+x,1/2-y,1/2+z
loop_
_atom_site_type_symbol
_atom_site_label
_atom_site_fract_x
_atom_site_fract_y
_atom_site_fract_z
Si Si1 0.768525 0.016063 0.964642
Si Si2 0.000000 0.012731 0.250000
Si Si3 0.742144 0.042352 0.099007
Si Si4 0.588133 0.797497 0.462663
Si Si5 0.060260 0.232784 0.638917
Si Si6 0.926605 0.596705 0.100725
Si Si7 0.294529 0.696393 0.353572
O O1 0.668411 0.106709 0.973972
O O2 0.871363 0.134628 0.930997
O O3 0.793451 0.859423 0.918070
O O4 0.741191 0.973588 0.036899
O O5 0.101092 0.131190 0.213863
O O6 0.995957 0.895637 0.198460
O O7 0.856514 0.126067 0.073563
O O8 0.647186 0.169864 0.144386
O O9 0.716923 0.890492 0.146892
O O10 0.478034 0.782844 0.535874
O O11 0.558032 0.905229 0.419455
O O12 0.978778 0.360661 0.640809
O O13 0.801486 0.624407 0.147826
#
# Coordination Sequence:
#
# PCOD8131954 Si02
#       7
#     8   4   8   8   8   8   8
#     4   9  16  34  56  88 116 155 176 231 285 371
#     4  10  24  46  54  74 106 170 206 256 264 350
#     4  11  18  34  58  92 114 153 183 236 292 374
#     4   9  17  30  57  89 129 137 181 220 309 364
#     4  10  19  37  64  77 109 151 209 226 292 340
#     4  10  18  35  56  88 114 153 172 247 289 354
#     4  10  23  35  56  81 125 145 196 236 298 329
#
# _framework density 20.716822000000001
#
# number of rings (size 3 to 8) (size 9 to 14) (size 15 to 20)
#    0.000    2.154    3.077    2.308    0.000    1.231 
#    0.000    4.615    0.000    0.000    0.000    0.000 
#    0.000    0.000    0.000    0.000    0.000    0.000 
#
# Total GULP energy -322262.961770 kJ/mol
# GULP energy per Si atom -12394.729299 kJ/mol
# Density = 2.066967 g / cm^3
# Si number density = 20.716822 Si / 1000 Ang^3
#
#
#
# Elastic Constant Matrix: (Units=GPa)
#
#
# Indices 1 2 3 4 5 6 
#
# 1 74.3949 14.9052 24.0064 0.0000 -19.9327 0.0001
# 2 14.9052 89.0703 27.5095 0.0001 -13.6363 0.0004
# 3 24.0064 27.5095 72.2097 0.0000 -25.3070 0.0000
# 4 0.0000 0.0001 0.0000 28.3127 0.0000 -6.5854
# 5 -19.9327 -13.6363 -25.3070 0.0000 31.0922 0.0001
# 6 0.0001 0.0004 0.0000 -6.5854 0.0001 37.3089
#
#
#
# Elastic Compliance Matrix: (Units=1/GPa)
#
#
# Indices 1 2 3 4 5 6 
#
# 1 0.016593 -0.000786 -0.002252 0.000000 0.008459 0.000000
# 2 -0.000786 0.012879 -0.003976 0.000000 0.001908 0.000000
# 3 -0.002252 -0.003976 0.020980 0.000000 0.013888 0.000000
# 4 0.000000 0.000000 0.000000 0.036832 0.000000 0.006501
# 5 0.008459 0.001908 0.013888 0.000000 0.049726 0.000000
# 6 0.000000 0.000000 0.000000 0.006501 0.000000 0.027951
#
#
# Mechanical properties :
#
#
# Convention : Reuss Voigt Hill
#
# Bulk Modulus (GPa) = 27.45603 40.94634 34.20119
# Shear Modulus (GPa) = 26.16024 30.62635 28.39329
#
# Velocity S-wave (km/s) = 3.55738 3.84908 3.70610
# Velocity P-wave (km/s) = 5.49136 6.28980 5.90409
#
# Compressibility (1/GPa) = 0.03642187
#
# Stress axis : x y z
#
# Youngs Moduli (GPa) = 60.26817 77.64675 47.66556
#
# Poissons Ratio (x) = 0.06103 0.10735
# Poissons Ratio (y) = 0.04737 0.18954
# Poissons Ratio (z) = 0.13573 0.30876
#
# Static dielectric constant tensor:
#      x y z
#    x 3.651930 0.000000 -0.310140 
#    y 0.000000 3.757850 0.000000 
#    z -0.310140 0.000000 3.505530 
# 
# 
# High freq. dielectric constant tensor:
#      x y z
#    x 1.797950 0.000000 -0.026610 
#    y 0.000000 1.805710 0.000000 
#    z -0.026610 0.000000 1.778880 
# 
# From -- ./inp_files/272583.got.cif
#   From: 2010.06.25/outbox.cif.g09.slc.cpg/sg15_137_cif.got.tgz:272583.got - 2010.06.28 07:06:18.
