data_PCOD8131101
_publ_section_title
;
Structure prediction by ZEFSAII (Michael W. Deem and Ramdas Pophale) SiO2 
 PCOD8131101
Probable space group: C 2/C
;
_chemical_formula_sum "Si O2"
_cell_formula_units_Z 56
_cell_length_a 30.136774
_cell_length_b 11.601658
_cell_length_c 24.514310
_cell_angle_alpha 90.000000
_cell_angle_beta 19.759165
_cell_angle_gamma 90.000000
_cell_volume 2897.607869
_symmetry_space_group_name_H-M "C 2/C"
_symmetry_group_IT_number 15
_symmetry_cell_setting 'monoclinic'
loop_
_space_group_symop_operation_xyz
x,y,z
-x,y,1/2-z
-x,-y,-z
x,-y,1/2+z
1/2+x,1/2+y,z
1/2-x,1/2+y,1/2-z
1/2-x,1/2-y,-z
1/2+x,1/2-y,1/2+z
loop_
_atom_site_type_symbol
_atom_site_label
_atom_site_fract_x
_atom_site_fract_y
_atom_site_fract_z
Si Si1 0.095532 0.837842 0.881738
Si Si2 0.413140 0.214162 0.764274
Si Si3 0.207853 0.606094 0.496898
Si Si4 0.525467 0.456199 0.780535
Si Si5 0.110562 0.418931 0.396760
Si Si6 0.126767 0.424215 0.974116
Si Si7 0.094968 0.972536 0.470271
O O1 0.065062 0.711013 0.939706
O O2 0.248369 0.850617 0.690140
O O3 0.059785 0.920073 0.973159
O O4 0.001956 0.868171 0.937882
O O5 0.274930 0.268425 0.903467
O O6 0.502392 0.317681 0.685974
O O7 0.492051 0.150995 0.623499
O O8 0.390318 0.122100 0.839098
O O9 0.322214 0.517528 0.382264
O O10 0.135939 0.552118 0.528117
O O11 0.500000 0.508314 0.750000
O O12 0.436027 0.510721 0.931675
O O13 0.118676 0.454488 0.451477
O O14 0.253272 0.437668 0.205677
O O15 0.000000 0.500000 0.500000
#
# Coordination Sequence:
#
# PCOD8131101 Si02
#       7
#     8   8   8   8   8   8   8
#     4  10  22  41  61  86 116 163 212 238 299 367
#     4   9  19  29  52  84 123 152 195 242 295 359
#     4   9  19  31  51  82 117 163 193 233 308 357
#     4  10  18  31  53  86 113 151 196 241 295 355
#     4  11  27  37  58  94 116 152 205 254 303 351
#     4  11  20  36  57  82 120 163 191 250 301 356
#     4  10  22  41  64  81 120 166 192 252 302 356
#
# _framework density 19.326286
#
# number of rings (size 3 to 8) (size 9 to 14) (size 15 to 20)
#    0.857    1.143    1.429    2.143    8.000    1.143 
#    0.000    0.000    0.000    1.714    0.000    3.000 
#    0.000    0.000    0.000    0.000    0.000    0.000 
#
# Total GULP energy -346910.677597 kJ/mol
# GULP energy per Si atom -12389.667057 kJ/mol
# Density = 1.928230 g / cm^3
# Si number density = 19.326286 Si / 1000 Ang^3
#
#
#
# Elastic Constant Matrix: (Units=GPa)
#
#
# Indices 1 2 3 4 5 6 
#
# 1 111.6329 30.3460 34.9026 -0.0001 15.0499 0.0000
# 2 30.3460 74.3554 26.4448 0.0001 -1.3107 0.0001
# 3 34.9026 26.4448 109.8004 -0.0002 5.8657 0.0001
# 4 -0.0001 0.0001 -0.0002 19.0651 0.0001 4.4743
# 5 15.0499 -1.3107 5.8657 0.0001 34.5877 -0.0001
# 6 0.0000 0.0001 0.0001 4.4743 -0.0001 26.0873
#
#
#
# Elastic Compliance Matrix: (Units=1/GPa)
#
#
# Indices 1 2 3 4 5 6 
#
# 1 0.011407 -0.003869 -0.002443 0.000000 -0.004696 0.000000
# 2 -0.003869 0.016068 -0.002788 0.000000 0.002765 0.000000
# 3 -0.002443 -0.002788 0.010600 0.000000 -0.000840 0.000000
# 4 0.000000 0.000000 0.000000 0.054652 0.000000 -0.009373
# 5 -0.004696 0.002765 -0.000840 0.000000 0.031202 0.000000
# 6 0.000000 0.000000 0.000000 -0.009373 0.000000 0.039940
#
#
# Mechanical properties :
#
#
# Convention : Reuss Voigt Hill
#
# Bulk Modulus (GPa) = 50.31425 53.24171 51.77798
# Shear Modulus (GPa) = 26.49783 29.55439 28.02611
#
# Velocity S-wave (km/s) = 3.70682 3.91478 3.81222
# Velocity P-wave (km/s) = 6.66418 6.93128 6.79905
#
# Compressibility (1/GPa) = 0.01987509
#
# Stress axis : x y z
#
# Youngs Moduli (GPa) = 87.66849 62.23467 94.33644
#
# Poissons Ratio (x) = 0.24079 0.23048
# Poissons Ratio (y) = 0.33920 0.26299
# Poissons Ratio (z) = 0.21419 0.17350
#
# Static dielectric constant tensor:
#      x y z
#    x 3.568520 0.000000 0.018810 
#    y 0.000000 3.149950 0.000000 
#    z 0.018810 0.000000 3.692660 
# 
# 
# High freq. dielectric constant tensor:
#      x y z
#    x 1.758360 0.000000 -0.000310 
#    y 0.000000 1.685220 0.000000 
#    z -0.000310 0.000000 1.768530 
# 
# From -- ./inp_files/284591.got.cif
#   From: 2010.06.25/outbox.cif.g09.slc.cpg/sg15_143_cif.got.tgz:284591.got - 2010.06.28 07:06:18.
