data_PCOD8131232
_publ_section_title
;
Structure prediction by ZEFSAII (Michael W. Deem and Ramdas Pophale) SiO2 
 PCOD8131232
Probable space group: C 2/C
;
_chemical_formula_sum "Si O2"
_cell_formula_units_Z 48
_cell_length_a 26.403306
_cell_length_b 16.583024
_cell_length_c 19.062662
_cell_angle_alpha 90.000000
_cell_angle_beta 163.416958
_cell_angle_gamma 90.000000
_cell_volume 2382.136990
_symmetry_space_group_name_H-M "C 2/C"
_symmetry_group_IT_number 15
_symmetry_cell_setting 'monoclinic'
loop_
_space_group_symop_operation_xyz
x,y,z
-x,y,1/2-z
-x,-y,-z
x,-y,1/2+z
1/2+x,1/2+y,z
1/2-x,1/2+y,1/2-z
1/2-x,1/2-y,-z
1/2+x,1/2-y,1/2+z
loop_
_atom_site_type_symbol
_atom_site_label
_atom_site_fract_x
_atom_site_fract_y
_atom_site_fract_z
Si Si1 0.841157 0.866477 0.085993
Si Si2 0.235845 0.659796 0.711297
Si Si3 0.475004 0.681243 0.299651
Si Si4 0.898369 0.767666 0.291818
Si Si5 0.087780 0.642985 0.792594
Si Si6 0.991647 0.469693 0.822905
O O1 0.911867 0.843360 0.257021
O O2 0.000000 0.902579 0.250000
O O3 0.770080 0.786052 0.953641
O O4 0.690745 0.933255 0.891321
O O5 0.362807 0.700639 0.822425
O O6 0.080848 0.718739 0.531182
O O7 0.157200 0.576574 0.576753
O O8 0.358145 0.639480 0.940766
O O9 0.500000 0.680595 0.250000
O O10 0.453368 0.773039 0.302298
O O11 0.298583 0.630776 0.082913
O O12 0.005055 0.562932 0.646607
O O13 0.000000 0.653063 0.750000
O O14 0.000000 0.462415 0.750000
#
# Coordination Sequence:
#
# PCOD8131232 Si02
#       6
#     8   8   8   8   8   8
#     4  10  18  32  52  85 126 166 188 236 302 364
#     4  11  22  36  62  92 119 159 203 248 299 357
#     4  10  23  43  66  85 114 162 212 251 289 349
#     4  10  20  31  54  87 126 157 199 239 292 366
#     4   9  21  42  64  84 116 160 204 249 297 349
#     4  10  20  38  61  91 125 154 191 251 307 361
#
# _framework density 20.149974
#
# number of rings (size 3 to 8) (size 9 to 14) (size 15 to 20)
#    0.000    2.000    3.333    0.000    7.000    0.667 
#    0.000    5.833    0.000    0.000    0.000    0.000 
#    0.000    0.000    0.000    0.000    0.000    0.000 
#
# Total GULP energy -297552.694314 kJ/mol
# GULP energy per Si atom -12398.028930 kJ/mol
# Density = 2.010411 g / cm^3
# Si number density = 20.149974 Si / 1000 Ang^3
#
#
#
# Elastic Constant Matrix: (Units=GPa)
#
#
# Indices 1 2 3 4 5 6 
#
# 1 103.3699 31.1967 54.8685 -0.0028 9.3902 0.0011
# 2 31.1967 96.4314 30.9389 -0.0006 -4.9893 0.0032
# 3 54.8685 30.9389 121.1680 0.0021 -2.8933 0.0034
# 4 -0.0028 -0.0006 0.0021 16.5989 -0.0003 5.3687
# 5 9.3902 -4.9893 -2.8933 -0.0003 41.5994 0.0015
# 6 0.0011 0.0032 0.0034 5.3687 0.0015 19.0033
#
#
#
# Elastic Compliance Matrix: (Units=1/GPa)
#
#
# Indices 1 2 3 4 5 6 
#
# 1 0.013894 -0.002883 -0.005648 0.000003 -0.003875 0.000000
# 2 -0.002883 0.011950 -0.001699 0.000001 0.001966 -0.000002
# 3 -0.005648 -0.001699 0.011289 -0.000002 0.001856 -0.000001
# 4 0.000003 0.000001 -0.000002 0.066304 0.000001 -0.018732
# 5 -0.003875 0.001966 0.001856 0.000001 0.025278 -0.000003
# 6 0.000000 -0.000002 -0.000001 -0.018732 -0.000003 0.057915
#
#
# Mechanical properties :
#
#
# Convention : Reuss Voigt Hill
#
# Bulk Modulus (GPa) = 59.97895 61.66417 60.82156
# Shear Modulus (GPa) = 23.51325 29.03798 26.27562
#
# Velocity S-wave (km/s) = 3.41972 3.80029 3.61502
# Velocity P-wave (km/s) = 6.73970 7.06579 6.90467
#
# Compressibility (1/GPa) = 0.01667252
#
# Stress axis : x y z
#
# Youngs Moduli (GPa) = 71.97292 83.68522 88.58480
#
# Poissons Ratio (x) = 0.24129 0.50033
# Poissons Ratio (y) = 0.20752 0.15047
# Poissons Ratio (z) = 0.40650 0.14215
#
# Static dielectric constant tensor:
#      x y z
#    x 3.549860 0.000000 0.200950 
#    y 0.000000 3.851800 0.000000 
#    z 0.200950 0.000000 3.507560 
# 
# 
# High freq. dielectric constant tensor:
#      x y z
#    x 1.786370 0.000000 0.023140 
#    y 0.000000 1.772840 0.000000 
#    z 0.023140 0.000000 1.781100 
# 
# From -- ./inp_files/155271.got.cif
#   From: 2010.06.25/outbox.cif.g09.slc.cpg/sg15_78_cif.got.tgz:155271.got - 2010.06.28 07:06:18.
