data_PCOD8131050
_publ_section_title
;
Structure prediction by ZEFSAII (Michael W. Deem and Ramdas Pophale) SiO2 
 PCOD8131050
Probable space group: C 2/C
;
_chemical_formula_sum "Si O2"
_cell_formula_units_Z 56
_cell_length_a 19.659608
_cell_length_b 18.520682
_cell_length_c 15.799047
_cell_angle_alpha 90.000000
_cell_angle_beta 150.453519
_cell_angle_gamma 90.000000
_cell_volume 2836.767079
_symmetry_space_group_name_H-M "C 2/C"
_symmetry_group_IT_number 15
_symmetry_cell_setting 'monoclinic'
loop_
_space_group_symop_operation_xyz
x,y,z
-x,y,1/2-z
-x,-y,-z
x,-y,1/2+z
1/2+x,1/2+y,z
1/2-x,1/2+y,1/2-z
1/2-x,1/2-y,-z
1/2+x,1/2-y,1/2+z
loop_
_atom_site_type_symbol
_atom_site_label
_atom_site_fract_x
_atom_site_fract_y
_atom_site_fract_z
Si Si1 0.692813 0.544458 0.819486
Si Si2 0.505118 0.083064 0.350728
Si Si3 0.482959 0.437226 0.632498
Si Si4 0.636083 0.668619 0.624183
Si Si5 0.854841 0.788219 0.050770
Si Si6 0.068573 0.709381 0.529232
Si Si7 0.712541 0.556811 0.032705
O O1 0.618500 0.466328 0.727883
O O2 0.635973 0.608529 0.698519
O O3 0.857179 0.535487 0.987238
O O4 0.653175 0.563277 0.873099
O O5 0.500000 0.120167 0.250000
O O6 0.489275 0.137498 0.412984
O O7 0.372130 0.030567 0.210268
O O8 0.500000 0.418538 0.750000
O O9 0.430877 0.364840 0.532161
O O10 0.371939 0.501647 0.501134
O O11 0.791646 0.692954 0.765459
O O12 0.538633 0.736140 0.543765
O O13 0.000000 0.804663 0.250000
O O14 0.750000 0.750000 0.000000
O O15 0.864809 0.733622 0.985776
O O16 0.795244 0.861069 0.943666
#
# Coordination Sequence:
#
# PCOD8131050 Si02
#       7
#     8   8   8   8   8   8   8
#     4   9  18  32  53  78 106 133 165 206 259 321
#     4   9  17  30  50  79 112 138 160 197 254 323
#     4  10  21  38  57  75  99 137 182 224 267 317
#     4  11  22  37  54  77 105 137 177 225 269 314
#     4  12  20  29  49  81 117 150 174 201 253 325
#     4  11  21  33  50  76 109 142 176 216 260 309
#     4  10  18  31  51  78 108 141 173 205 251 319
#
# _framework density 19.740781999999999
#
# number of rings (size 3 to 8) (size 9 to 14) (size 15 to 20)
#    0.000    1.714    0.000    9.000    0.000    0.000 
#    0.000    5.714    0.000    0.000    0.000    0.000 
#    0.000    0.000    0.000    0.000    0.000    0.000 
#
# Total GULP energy -346929.007988 kJ/mol
# GULP energy per Si atom -12390.321714 kJ/mol
# Density = 1.969585 g / cm^3
# Si number density = 19.740782 Si / 1000 Ang^3
#
#
#
# Elastic Constant Matrix: (Units=GPa)
#
#
# Indices 1 2 3 4 5 6 
#
# 1 53.1864 25.9179 38.5005 0.0000 10.7158 0.0000
# 2 25.9179 53.6566 46.0556 0.0000 5.0447 0.0000
# 3 38.5005 46.0556 121.1295 0.0000 20.1314 0.0000
# 4 0.0000 0.0000 0.0000 34.2201 0.0000 2.7773
# 5 10.7158 5.0447 20.1314 0.0000 23.3678 0.0000
# 6 0.0000 0.0000 0.0000 2.7773 0.0000 25.1698
#
#
#
# Elastic Compliance Matrix: (Units=1/GPa)
#
#
# Indices 1 2 3 4 5 6 
#
# 1 0.027699 -0.009161 -0.004130 0.000000 -0.007167 0.000000
# 2 -0.009161 0.030959 -0.009858 0.000000 0.006010 0.000000
# 3 -0.004130 -0.009858 0.014762 0.000000 -0.008695 0.000000
# 4 0.000000 0.000000 0.000000 0.029487 0.000000 -0.003254
# 5 -0.007167 0.006010 -0.008695 0.000000 0.052274 0.000000
# 6 0.000000 0.000000 0.000000 -0.003254 0.000000 0.040089
#
#
# Mechanical properties :
#
#
# Convention : Reuss Voigt Hill
#
# Bulk Modulus (GPa) = 36.87111 49.88007 43.37559
# Shear Modulus (GPa) = 19.95148 24.38479 22.16813
#
# Velocity S-wave (km/s) = 3.18256 3.51842 3.35470
# Velocity P-wave (km/s) = 5.67654 6.46747 6.08487
#
# Compressibility (1/GPa) = 0.02712151
#
# Stress axis : x y z
#
# Youngs Moduli (GPa) = 36.10184 32.30108 67.74315
#
# Poissons Ratio (x) = 0.29591 0.27977
# Poissons Ratio (y) = 0.33073 0.66782
# Poissons Ratio (z) = 0.14910 0.31843
#
# Static dielectric constant tensor:
#      x y z
#    x 3.361890 0.000000 0.237050 
#    y 0.000000 3.364130 0.000000 
#    z 0.237050 0.000000 4.176710 
# 
# 
# High freq. dielectric constant tensor:
#      x y z
#    x 1.745430 0.000000 0.029690 
#    y 0.000000 1.734620 0.000000 
#    z 0.029690 0.000000 1.781250 
# 
# From -- ./inp_files/169160.got.cif
#   From: 2010.06.25/outbox.cif.g09.slc.cpg/sg15_85_cif.got.tgz:169160.got - 2010.06.28 07:06:18.
