data_PCOD8131075
_publ_section_title
;
Structure prediction by ZEFSAII (Michael W. Deem and Ramdas Pophale) SiO2 
 PCOD8131075
Probable space group: C 2/C
;
_chemical_formula_sum "Si O2"
_cell_formula_units_Z 48
_cell_length_a 19.788526
_cell_length_b 15.733327
_cell_length_c 17.614924
_cell_angle_alpha 90.000000
_cell_angle_beta 153.013336
_cell_angle_gamma 90.000000
_cell_volume 2488.645893
_symmetry_space_group_name_H-M "C 2/C"
_symmetry_group_IT_number 15
_symmetry_cell_setting 'monoclinic'
loop_
_space_group_symop_operation_xyz
x,y,z
-x,y,1/2-z
-x,-y,-z
x,-y,1/2+z
1/2+x,1/2+y,z
1/2-x,1/2+y,1/2-z
1/2-x,1/2-y,-z
1/2+x,1/2-y,1/2+z
loop_
_atom_site_type_symbol
_atom_site_label
_atom_site_fract_x
_atom_site_fract_y
_atom_site_fract_z
Si Si1 0.750345 0.502730 0.098188
Si Si2 0.753226 0.812610 0.360956
Si Si3 0.248432 0.868394 0.906277
Si Si4 0.500000 0.464327 0.750000
Si Si5 0.000000 0.537730 0.750000
Si Si6 0.502635 0.750983 0.007239
Si Si7 0.249947 0.368569 0.772172
O O1 0.747120 0.399989 0.094241
O O2 0.750853 0.544461 0.181367
O O3 0.899563 0.525559 0.200981
O O4 0.602525 0.527582 0.903162
O O5 0.745841 0.733865 0.412514
O O6 0.904133 0.807658 0.463682
O O7 0.610324 0.811861 0.163296
O O8 0.100105 0.906359 0.794888
O O9 0.250499 0.889483 0.817805
O O10 0.398270 0.904186 0.093767
O O11 0.395644 0.812559 0.850913
O O12 0.603553 0.686555 0.058355
#
# Coordination Sequence:
#
# PCOD8131075 Si02
#       7
#     8   8   8   4   4   8   8
#     4  11  22  35  55  79 108 139 175 224 269 306
#     4  10  18  31  52  81 111 145 178 203 247 315
#     4   9  20  35  52  78 115 150 178 203 248 316
#     4  10  22  35  50  81 118 146 172 211 260 316
#     4  10  22  35  50  81 118 146 172 211 260 316
#     4   8  18  34  54  80 106 132 180 224 254 308
#     4  10  20  38  59  78 100 138 183 223 264 313
#
# _framework density 19.287596000000001
#
# number of rings (size 3 to 8) (size 9 to 14) (size 15 to 20)
#    0.000    2.667    0.000    4.000    0.000    9.333 
#    0.000    5.000    0.000    3.000    0.000    0.000 
#    0.000    0.000    0.000    0.000    0.000    0.000 
#
# Total GULP energy -297428.812534 kJ/mol
# GULP energy per Si atom -12392.867189 kJ/mol
# Density = 1.924370 g / cm^3
# Si number density = 19.287596 Si / 1000 Ang^3
#
#
#
# Elastic Constant Matrix: (Units=GPa)
#
#
# Indices 1 2 3 4 5 6 
#
# 1 99.1777 50.4942 63.5014 -0.0046 -1.8170 0.0000
# 2 50.4942 50.2277 38.8870 -0.0022 -6.8608 0.0000
# 3 63.5014 38.8870 100.0461 -0.0054 18.7859 -0.0021
# 4 -0.0046 -0.0022 -0.0054 14.6087 -0.0045 -4.3632
# 5 -1.8170 -6.8608 18.7859 -0.0045 30.5096 -0.0008
# 6 0.0000 0.0000 -0.0021 -4.3632 -0.0008 21.3078
#
#
#
# Elastic Compliance Matrix: (Units=1/GPa)
#
#
# Indices 1 2 3 4 5 6 
#
# 1 0.025396 -0.017065 -0.010233 0.000003 0.003976 0.000000
# 2 -0.017065 0.047596 -0.010728 0.000003 0.016292 0.000000
# 3 -0.010233 -0.010728 0.024003 -0.000001 -0.017801 0.000002
# 4 0.000003 0.000003 -0.000001 0.072912 0.000013 0.014930
# 5 0.003976 0.016292 -0.017801 0.000013 0.047638 0.000003
# 6 0.000000 0.000000 0.000002 0.014930 0.000003 0.049988
#
#
# Mechanical properties :
#
#
# Convention : Reuss Voigt Hill
#
# Bulk Modulus (GPa) = 47.74806 61.69075 54.71941
# Shear Modulus (GPa) = 14.26267 19.72315 16.99291
#
# Velocity S-wave (km/s) = 2.72228 3.20125 2.97143
# Velocity P-wave (km/s) = 5.88988 6.76152 6.34069
#
# Compressibility (1/GPa) = 0.02094326
#
# Stress axis : x y z
#
# Youngs Moduli (GPa) = 39.37607 21.01009 41.66213
#
# Poissons Ratio (x) = 0.35855 0.42632
# Poissons Ratio (y) = 0.67197 0.44693
# Poissons Ratio (z) = 0.40293 0.22539
#
# Static dielectric constant tensor:
#      x y z
#    x 3.936440 -0.000010 1.374720 
#    y -0.000010 3.117670 -0.000020 
#    z 1.374720 -0.000020 6.027640 
# 
# 
# High freq. dielectric constant tensor:
#      x y z
#    x 1.736170 0.000000 0.023090 
#    y 0.000000 1.706090 0.000000 
#    z 0.023090 0.000000 1.775740 
# 
# From -- ./inp_files/56267.got.cif
#   From: 2010.06.25/outbox.cif.g09.slc.cpg/sg15_29_cif.got.tgz:56267.got - 2010.06.28 07:06:18.
