data_PCOD8131624
_publ_section_title
;
Structure prediction by ZEFSAII (Michael W. Deem and Ramdas Pophale) SiO2 
 PCOD8131624
Probable space group: C 2/C
;
_chemical_formula_sum "Si O2"
_cell_formula_units_Z 64
_cell_length_a 31.925949
_cell_length_b 13.051058
_cell_length_c 33.612542
_cell_angle_alpha 90.000000
_cell_angle_beta 163.025486
_cell_angle_gamma 90.000000
_cell_volume 4088.781142
_symmetry_space_group_name_H-M "C 2/C"
_symmetry_group_IT_number 15
_symmetry_cell_setting 'monoclinic'
loop_
_space_group_symop_operation_xyz
x,y,z
-x,y,1/2-z
-x,-y,-z
x,-y,1/2+z
1/2+x,1/2+y,z
1/2-x,1/2+y,1/2-z
1/2-x,1/2-y,-z
1/2+x,1/2-y,1/2+z
loop_
_atom_site_type_symbol
_atom_site_label
_atom_site_fract_x
_atom_site_fract_y
_atom_site_fract_z
Si Si1 0.344293 0.850570 0.211520
Si Si2 0.852596 0.631324 0.630967
Si Si3 0.200182 0.058488 0.652394
Si Si4 0.891401 0.866863 0.885059
Si Si5 0.174297 0.644617 0.039075
Si Si6 0.892263 0.364351 0.394184
Si Si7 0.656124 0.624820 0.383404
Si Si8 0.314391 0.942556 0.865714
O O1 0.334195 0.904271 0.159462
O O2 0.257759 0.930868 0.160009
O O3 0.256317 0.744784 0.129680
O O4 0.510589 0.831024 0.376028
O O5 0.734318 0.586145 0.494160
O O6 0.851417 0.753556 0.627091
O O7 0.000000 0.584401 0.750000
O O8 0.330786 0.101641 0.796253
O O9 0.061828 0.127815 0.534990
O O10 0.166510 0.941014 0.632781
O O11 0.852583 0.753788 0.865198
O O12 0.828988 0.896668 0.784837
O O13 0.262298 0.589577 0.082941
O O14 0.177121 0.568604 0.079160
O O15 0.824735 0.434890 0.367585
O O16 0.062082 0.381621 0.545738
O O17 0.500000 0.577250 0.250000
#
# Coordination Sequence:
#
# PCOD8131624 Si02
#       8
#     8   8   8   8   8   8   8   8
#     4  11  21  30  46  65  94 124 158 192 230 268
#     4   9  16  28  41  60  85 123 152 186 224 273
#     4  10  21  32  46  70  91 121 158 194 228 272
#     4  10  20  34  49  65  94 123 155 193 234 272
#     4  11  21  31  44  67  93 125 155 195 227 270
#     4  10  18  34  49  67  89 126 152 191 232 271
#     4   9  18  28  43  61  89 120 156 185 225 276
#     4  10  21  30  49  69  92 118 161 190 225 275
#
# _framework density 15.652585999999999
#
# number of rings (size 3 to 8) (size 9 to 14) (size 15 to 20)
#    0.000    2.000    2.500    2.250    7.000    0.000 
#    0.000    0.000    0.000    0.000    0.000    0.000 
#    0.000    2.000    0.000    0.125    0.000    0.000 
#
# Total GULP energy -396556.764170 kJ/mol
# GULP energy per Si atom -12392.398880 kJ/mol
# Density = 1.561696 g / cm^3
# Si number density = 15.652586 Si / 1000 Ang^3
#
#
#
# Elastic Constant Matrix: (Units=GPa)
#
#
# Indices 1 2 3 4 5 6 
#
# 1 128.3595 43.7403 47.9906 0.0032 -12.9553 0.0008
# 2 43.7403 73.9911 21.7427 -0.0280 -1.3652 0.0065
# 3 47.9906 21.7427 86.3915 -0.0473 -4.7006 -0.0075
# 4 0.0032 -0.0280 -0.0473 12.7429 0.0069 -0.1675
# 5 -12.9553 -1.3652 -4.7006 0.0069 28.0408 0.0005
# 6 0.0008 0.0065 -0.0075 -0.1675 0.0005 16.7941
#
#
#
# Elastic Compliance Matrix: (Units=1/GPa)
#
#
# Indices 1 2 3 4 5 6 
#
# 1 0.012008 -0.005537 -0.005035 -0.000036 0.004434 -0.000001
# 2 -0.005537 0.017148 -0.001346 0.000035 -0.001949 -0.000007
# 3 -0.005035 -0.001346 0.014715 0.000053 0.000075 0.000008
# 4 -0.000036 0.000035 0.000053 0.078486 -0.000026 0.000783
# 5 0.004434 -0.001949 0.000075 -0.000026 0.037629 -0.000001
# 6 -0.000001 -0.000007 0.000008 0.000783 -0.000001 0.059553
#
#
# Mechanical properties :
#
#
# Convention : Reuss Voigt Hill
#
# Bulk Modulus (GPa) = 49.91503 57.29878 53.60690
# Shear Modulus (GPa) = 19.99582 23.20012 21.59797
#
# Velocity S-wave (km/s) = 3.57806 3.85410 3.71864
# Velocity P-wave (km/s) = 7.00204 7.51608 7.26361
#
# Compressibility (1/GPa) = 0.02003405
#
# Stress axis : x y z
#
# Youngs Moduli (GPa) = 83.28096 58.31628 67.95654
#
# Poissons Ratio (x) = 0.32289 0.34219
# Poissons Ratio (y) = 0.46111 0.09147
# Poissons Ratio (z) = 0.41936 0.07849
#
# Static dielectric constant tensor:
#      x y z
#    x 3.129240 0.000010 -0.025490 
#    y 0.000010 2.649560 -0.000090 
#    z -0.025490 -0.000090 3.344090 
# 
# 
# High freq. dielectric constant tensor:
#      x y z
#    x 1.598500 0.000000 -0.000770 
#    y 0.000000 1.541900 -0.000010 
#    z -0.000770 -0.000010 1.628790 
# 
# From -- ./inp_files/320323.got.cif
#   From: 2010.06.25/outbox.cif.g09.slc.cpg/sg15_161_cif.got.tgz:320323.got - 2010.06.28 07:06:18.
