data_PCOD8131431
_publ_section_title
;
Structure prediction by ZEFSAII (Michael W. Deem and Ramdas Pophale) SiO2 
 PCOD8131431
Probable space group: C 2/C
;
_chemical_formula_sum "Si O2"
_cell_formula_units_Z 56
_cell_length_a 9.017108
_cell_length_b 20.788012
_cell_length_c 20.713035
_cell_angle_alpha 90.000000
_cell_angle_beta 134.172489
_cell_angle_gamma 90.000000
_cell_volume 2784.784959
_symmetry_space_group_name_H-M "C 2/C"
_symmetry_group_IT_number 15
_symmetry_cell_setting 'monoclinic'
loop_
_space_group_symop_operation_xyz
x,y,z
-x,y,1/2-z
-x,-y,-z
x,-y,1/2+z
1/2+x,1/2+y,z
1/2-x,1/2+y,1/2-z
1/2-x,1/2-y,-z
1/2+x,1/2-y,1/2+z
loop_
_atom_site_type_symbol
_atom_site_label
_atom_site_fract_x
_atom_site_fract_y
_atom_site_fract_z
Si Si1 0.230897 0.414129 0.298388
Si Si2 0.924657 0.568567 0.001595
Si Si3 0.142539 0.888849 0.852986
Si Si4 0.096165 0.356550 0.130171
Si Si5 0.462365 0.720379 0.087391
Si Si6 0.365293 0.377815 0.465910
Si Si7 0.062535 0.006318 0.437286
O O1 0.242434 0.386477 0.229920
O O2 0.334941 0.363150 0.380670
O O3 0.348493 0.481459 0.342171
O O4 0.000000 0.428145 0.250000
O O5 0.832481 0.612982 0.915889
O O6 0.732818 0.551874 0.991262
O O7 0.000000 0.500000 0.000000
O O8 0.113453 0.607265 0.093857
O O9 0.071746 0.817542 0.855380
O O10 0.125439 0.937115 0.907285
O O11 0.000000 0.909390 0.750000
O O12 0.126558 0.278684 0.143204
O O13 0.856607 0.374683 0.065910
O O14 0.250000 0.750000 0.000000
O O15 0.526363 0.671030 0.048941
O O16 0.447327 0.452667 0.497246
#
# Coordination Sequence:
#
# PCOD8131431 Si02
#       7
#     8   8   8   8   8   8   8
#     4  10  22  32  52  82 103 134 185 219 261 326
#     4  10  18  33  52  77 113 135 167 217 276 321
#     4  10  20  30  52  85 105 136 178 221 263 316
#     4  10  18  33  52  81 103 138 175 224 263 306
#     4   9  16  32  52  73 104 137 178 216 259 307
#     4   9  17  34  50  75 105 141 176 212 267 317
#     4  10  20  33  54  77 112 142 167 223 276 324
#
# _framework density 20.109272000000001
#
# number of rings (size 3 to 8) (size 9 to 14) (size 15 to 20)
#    0.000    2.286    5.714    0.429    4.000    2.857 
#    0.000    0.000    0.000    0.857   18.571    0.000 
#    0.000    0.000    0.000    0.000    0.000    0.000 
#
# Total GULP energy -346869.741264 kJ/mol
# GULP energy per Si atom -12388.205045 kJ/mol
# Density = 2.006350 g / cm^3
# Si number density = 20.109272 Si / 1000 Ang^3
#
#
#
# Elastic Constant Matrix: (Units=GPa)
#
#
# Indices 1 2 3 4 5 6 
#
# 1 33.4263 20.4826 27.7133 0.0000 1.3104 0.0000
# 2 20.4826 119.8538 47.0131 0.0000 0.4619 0.0000
# 3 27.7133 47.0131 137.2336 0.0000 -9.1921 -0.0001
# 4 0.0000 0.0000 0.0000 32.8640 0.0000 0.8156
# 5 1.3104 0.4619 -9.1921 0.0000 16.8606 0.0000
# 6 0.0000 0.0000 -0.0001 0.8156 0.0000 25.1742
#
#
#
# Elastic Compliance Matrix: (Units=1/GPa)
#
#
# Indices 1 2 3 4 5 6 
#
# 1 0.038190 -0.003815 -0.006847 0.000000 -0.006596 0.000000
# 2 -0.003815 0.010095 -0.002788 0.000000 -0.001500 0.000000
# 3 -0.006847 -0.002788 0.010032 0.000000 0.006078 0.000000
# 4 0.000000 0.000000 0.000000 0.030453 0.000000 -0.000987
# 5 -0.006596 -0.001500 0.006078 0.000000 0.063177 0.000000
# 6 0.000000 0.000000 0.000000 -0.000987 0.000000 0.039755
#
#
# Mechanical properties :
#
#
# Convention : Reuss Voigt Hill
#
# Bulk Modulus (GPa) = 31.83150 53.43685 42.63417
# Shear Modulus (GPa) = 21.82695 28.00009 24.91352
#
# Velocity S-wave (km/s) = 3.29814 3.73553 3.52363
# Velocity P-wave (km/s) = 5.51065 6.72581 6.14832
#
# Compressibility (1/GPa) = 0.03141542
#
# Stress axis : x y z
#
# Youngs Moduli (GPa) = 26.18509 99.05854 99.68266
#
# Poissons Ratio (x) = 0.37794 0.68252
# Poissons Ratio (y) = 0.09991 0.27795
# Poissons Ratio (z) = 0.17929 0.27621
#
# Static dielectric constant tensor:
#      x y z
#    x 3.756470 0.000000 -0.170320 
#    y 0.000000 4.349900 0.000000 
#    z -0.170320 0.000000 3.826520 
# 
# 
# High freq. dielectric constant tensor:
#      x y z
#    x 1.750770 0.000000 -0.014620 
#    y 0.000000 1.787050 0.000000 
#    z -0.014620 0.000000 1.786110 
# 
# From -- ./inp_files/270778.got.cif
#   From: 2010.06.25/outbox.cif.g09.slc.cpg/sg15_136_cif.got.tgz:270778.got - 2010.06.28 07:06:18.
