data_PCOD8131314
_publ_section_title
;
Structure prediction by ZEFSAII (Michael W. Deem and Ramdas Pophale) SiO2 
 PCOD8131314
Probable space group: C 2/C
;
_chemical_formula_sum "Si O2"
_cell_formula_units_Z 60
_cell_length_a 23.230710
_cell_length_b 12.633838
_cell_length_c 14.028212
_cell_angle_alpha 90.000000
_cell_angle_beta 49.229529
_cell_angle_gamma 90.000000
_cell_volume 3118.072803
_symmetry_space_group_name_H-M "C 2/C"
_symmetry_group_IT_number 15
_symmetry_cell_setting 'monoclinic'
loop_
_space_group_symop_operation_xyz
x,y,z
-x,y,1/2-z
-x,-y,-z
x,-y,1/2+z
1/2+x,1/2+y,z
1/2-x,1/2+y,1/2-z
1/2-x,1/2-y,-z
1/2+x,1/2-y,1/2+z
loop_
_atom_site_type_symbol
_atom_site_label
_atom_site_fract_x
_atom_site_fract_y
_atom_site_fract_z
Si Si1 0.000000 0.195237 0.250000
Si Si2 0.581647 0.072895 0.125762
Si Si3 0.467586 0.820552 0.003571
Si Si4 0.869849 0.624318 0.226729
Si Si5 0.672402 0.894031 0.237697
Si Si6 0.641863 0.153733 0.564922
Si Si7 0.816267 0.208916 0.651173
Si Si8 0.477028 0.609641 0.476058
O O1 0.929737 0.272123 0.340350
O O2 0.009844 0.120279 0.332757
O O3 0.500000 0.035035 0.250000
O O4 0.578061 0.157018 0.044261
O O5 0.622283 0.134931 0.168019
O O6 0.622161 0.964597 0.049995
O O7 0.548285 0.882151 0.916493
O O8 0.413987 0.857093 0.148008
O O9 0.485103 0.696880 0.996095
O O10 0.823150 0.519390 0.253948
O O11 0.823111 0.725740 0.241702
O O12 0.690323 0.857991 0.109916
O O13 0.735782 0.850295 0.240974
O O14 0.689482 0.208226 0.429934
O O15 0.885621 0.125212 0.569117
O O16 0.500000 0.500000 0.500000
#
# Coordination Sequence:
#
# PCOD8131314 Si02
#       8
#     4   8   8   8   8   8   8   8
#     4  10  18  36  58  84 102 146 194 244 264 334
#     4   9  17  31  58  88 114 137 181 237 295 335
#     4  10  19  35  59  86 109 140 188 236 288 336
#     4   9  20  35  54  82 113 146 184 230 281 338
#     4  11  20  33  56  83 113 148 181 231 297 337
#     4  10  18  32  56  85 113 142 186 233 290 337
#     4  10  22  36  54  80 119 145 190 238 278 334
#     4  10  22  40  57  80 111 154 200 231 273 334
#
# _framework density 19.242654999999999
#
# number of rings (size 3 to 8) (size 9 to 14) (size 15 to 20)
#    0.000    2.133    2.000    1.600    0.000    1.067 
#    6.000    0.667    2.933    0.000    0.000    0.000 
#    0.000    0.000    0.000    0.000    0.000    0.000 
#
# Total GULP energy -371881.644537 kJ/mol
# GULP energy per Si atom -12396.054818 kJ/mol
# Density = 1.919886 g / cm^3
# Si number density = 19.242655 Si / 1000 Ang^3
#
#
#
# Elastic Constant Matrix: (Units=GPa)
#
#
# Indices 1 2 3 4 5 6 
#
# 1 113.0942 63.8261 30.1697 0.0000 11.6470 0.0000
# 2 63.8261 104.1142 30.3940 0.0000 16.8303 0.0000
# 3 30.1697 30.3940 47.9749 0.0000 16.2397 0.0000
# 4 0.0000 0.0000 0.0000 22.4774 0.0000 2.5147
# 5 11.6470 16.8303 16.2397 0.0000 24.1900 0.0000
# 6 0.0000 0.0000 0.0000 2.5147 0.0000 22.7773
#
#
#
# Elastic Compliance Matrix: (Units=1/GPa)
#
#
# Indices 1 2 3 4 5 6 
#
# 1 0.014217 -0.007612 -0.004650 0.000000 0.001573 0.000000
# 2 -0.007612 0.016187 -0.003748 0.000000 -0.005081 0.000000
# 3 -0.004650 -0.003748 0.031708 0.000000 -0.016440 0.000000
# 4 0.000000 0.000000 0.000000 0.045046 0.000000 -0.004973
# 5 0.001573 -0.005081 -0.016440 0.000000 0.055154 0.000000
# 6 0.000000 0.000000 0.000000 -0.004973 0.000000 0.044453
#
#
# Mechanical properties :
#
#
# Convention : Reuss Voigt Hill
#
# Bulk Modulus (GPa) = 33.23285 57.10701 45.16993
# Shear Modulus (GPa) = 20.09522 23.27516 21.68519
#
# Velocity S-wave (km/s) = 3.23508 3.48165 3.36062
# Velocity P-wave (km/s) = 5.59126 6.77527 6.21154
#
# Compressibility (1/GPa) = 0.03009071
#
# Stress axis : x y z
#
# Youngs Moduli (GPa) = 70.33965 61.77833 31.53743
#
# Poissons Ratio (x) = 0.47027 0.14666
# Poissons Ratio (y) = 0.53544 0.11821
# Poissons Ratio (z) = 0.32710 0.23156
#
# Static dielectric constant tensor:
#      x y z
#    x 3.569910 0.000000 0.290390 
#    y 0.000000 3.337610 0.000000 
#    z 0.290390 0.000000 3.520310 
# 
# 
# High freq. dielectric constant tensor:
#      x y z
#    x 1.750120 0.000000 0.018440 
#    y 0.000000 1.734670 0.000000 
#    z 0.018440 0.000000 1.732790 
# 
# From -- ./inp_files/173141.got.cif
#   From: 2010.06.25/outbox.cif.g09.slc.cpg/sg15_87_cif.got.tgz:173141.got - 2010.06.28 07:06:18.
