data_PCOD8131708
_publ_section_title
;
Structure prediction by ZEFSAII (Michael W. Deem and Ramdas Pophale) SiO2 
 PCOD8131708
Probable space group: C 2/C
;
_chemical_formula_sum "Si O2"
_cell_formula_units_Z 60
_cell_length_a 9.062600
_cell_length_b 24.065700
_cell_length_c 22.966403
_cell_angle_alpha 90.000000
_cell_angle_beta 36.278449
_cell_angle_gamma 90.000000
_cell_volume 2963.829384
_symmetry_space_group_name_H-M "C 2/C"
_symmetry_group_IT_number 15
_symmetry_cell_setting 'monoclinic'
loop_
_space_group_symop_operation_xyz
x,y,z
-x,y,1/2-z
-x,-y,-z
x,-y,1/2+z
1/2+x,1/2+y,z
1/2-x,1/2+y,1/2-z
1/2-x,1/2-y,-z
1/2+x,1/2-y,1/2+z
loop_
_atom_site_type_symbol
_atom_site_label
_atom_site_fract_x
_atom_site_fract_y
_atom_site_fract_z
Si Si1 0.814592 0.067255 0.011145
Si Si2 0.000000 0.292387 0.750000
Si Si3 0.989992 0.372334 0.384282
Si Si4 0.953394 0.163594 0.048791
Si Si5 0.310707 0.867430 0.053650
Si Si6 0.488942 0.759366 0.551890
Si Si7 0.338418 0.292770 0.207972
Si Si8 0.861525 0.524531 0.851939
O O1 0.690565 0.078053 0.987193
O O2 0.083792 0.039428 0.920189
O O3 0.834560 0.127075 0.035297
O O4 0.634254 0.026601 0.104437
O O5 0.246518 0.330437 0.665096
O O6 0.027008 0.254447 0.797633
O O7 0.702447 0.364362 0.494921
O O8 0.007167 0.424032 0.334843
O O9 0.141952 0.384944 0.394676
O O10 0.093710 0.317806 0.317195
O O11 0.030019 0.224003 0.000869
O O12 0.032719 0.842730 0.137745
O O13 0.524426 0.823937 0.963436
O O14 0.750000 0.750000 0.500000
O O15 0.277515 0.737283 0.665035
O O16 0.000000 0.504958 0.750000
#
# Coordination Sequence:
#
# PCOD8131708 Si02
#       8
#     8   4   8   8   8   8   8   8
#     4  10  21  40  63  83 118 161 196 248 305 353
#     4  12  20  34  58  86 122 154 210 224 300 366
#     4  11  24  36  60  91 123 150 205 257 295 345
#     4  11  22  37  58  87 117 162 196 249 289 354
#     4  11  19  38  61  86 126 162 196 240 302 364
#     4  10  18  34  56  83 120 155 198 230 284 369
#     4  11  19  34  57  88 118 161 193 237 291 355
#     4  10  23  40  60  93 114 146 210 258 295 357
#
# _framework density 20.244078999999999
#
# number of rings (size 3 to 8) (size 9 to 14) (size 15 to 20)
#    0.000    1.333    6.667    0.800    2.800    2.667 
#    0.000    0.000    0.000    0.800    0.000    0.000 
#    0.000    0.000    0.000    0.000    0.000    0.000 
#
# Total GULP energy -371951.388871 kJ/mol
# GULP energy per Si atom -12398.379629 kJ/mol
# Density = 2.019800 g / cm^3
# Si number density = 20.244079 Si / 1000 Ang^3
#
#
#
# Elastic Constant Matrix: (Units=GPa)
#
#
# Indices 1 2 3 4 5 6 
#
# 1 54.6077 18.5188 30.8898 0.0003 15.4536 0.0017
# 2 18.5188 60.3866 39.9572 -0.0001 1.7855 0.0002
# 3 30.8898 39.9572 126.3638 -0.0008 14.2418 0.0015
# 4 0.0003 -0.0001 -0.0008 31.5805 0.0003 8.7086
# 5 15.4536 1.7855 14.2418 0.0003 24.9490 -0.0010
# 6 0.0017 0.0002 0.0015 8.7086 -0.0010 21.0533
#
#
#
# Elastic Compliance Matrix: (Units=1/GPa)
#
#
# Indices 1 2 3 4 5 6 
#
# 1 0.025809 -0.005520 -0.002999 0.000001 -0.013879 -0.000003
# 2 -0.005520 0.022262 -0.006301 0.000000 0.005423 0.000001
# 3 -0.002999 -0.006301 0.011093 0.000001 -0.004023 -0.000001
# 4 0.000001 0.000000 0.000001 0.035742 -0.000002 -0.014785
# 5 -0.013879 0.005423 -0.004023 -0.000002 0.050587 0.000004
# 6 -0.000003 0.000001 -0.000001 -0.014785 0.000004 0.053614
#
#
# Mechanical properties :
#
#
# Convention : Reuss Voigt Hill
#
# Bulk Modulus (GPa) = 33.87235 46.67664 40.27450
# Shear Modulus (GPa) = 20.95666 25.64939 23.30303
#
# Velocity S-wave (km/s) = 3.22094 3.56337 3.39647
# Velocity P-wave (km/s) = 5.53181 6.32749 5.94298
#
# Compressibility (1/GPa) = 0.02952260
#
# Stress axis : x y z
#
# Youngs Moduli (GPa) = 38.74683 44.91997 90.14856
#
# Poissons Ratio (x) = 0.24795 0.27039
# Poissons Ratio (y) = 0.21387 0.56805
# Poissons Ratio (z) = 0.11622 0.28305
#
# Static dielectric constant tensor:
#      x y z
#    x 3.439780 0.000000 0.176750 
#    y 0.000000 3.647170 0.000000 
#    z 0.176750 0.000000 3.942080 
# 
# 
# High freq. dielectric constant tensor:
#      x y z
#    x 1.771560 0.000000 0.015050 
#    y 0.000000 1.773760 0.000000 
#    z 0.015050 0.000000 1.792320 
# 
# From -- ./inp_files/234555.got.cif
#   From: 2010.06.25/outbox.cif.g09.slc.cpg/sg15_118_cif.got.tgz:234555.got - 2010.06.28 07:06:18.
