data_PCOD8131439
_publ_section_title
;
Structure prediction by ZEFSAII (Michael W. Deem and Ramdas Pophale) SiO2 
 PCOD8131439
Probable space group: C 2/C
;
_chemical_formula_sum "Si O2"
_cell_formula_units_Z 64
_cell_length_a 31.008722
_cell_length_b 9.364270
_cell_length_c 24.629364
_cell_angle_alpha 90.000000
_cell_angle_beta 150.528492
_cell_angle_gamma 90.000000
_cell_volume 3518.583616
_symmetry_space_group_name_H-M "C 2/C"
_symmetry_group_IT_number 15
_symmetry_cell_setting 'monoclinic'
loop_
_space_group_symop_operation_xyz
x,y,z
-x,y,1/2-z
-x,-y,-z
x,-y,1/2+z
1/2+x,1/2+y,z
1/2-x,1/2+y,1/2-z
1/2-x,1/2-y,-z
1/2+x,1/2-y,1/2+z
loop_
_atom_site_type_symbol
_atom_site_label
_atom_site_fract_x
_atom_site_fract_y
_atom_site_fract_z
Si Si1 0.577196 0.270895 0.873599
Si Si2 0.178639 0.456928 0.426171
Si Si3 0.211528 0.426415 0.754827
Si Si4 0.156404 0.333311 0.991673
Si Si5 0.024335 0.397304 0.574632
Si Si6 0.009408 0.500467 0.674748
Si Si7 0.664253 0.180716 0.622738
Si Si8 0.196725 0.990465 0.533941
O O1 0.500000 0.327804 0.750000
O O2 0.656751 0.199181 0.926364
O O3 0.538319 0.152943 0.871755
O O4 0.613068 0.404444 0.947885
O O5 0.209467 0.566482 0.507520
O O6 0.090341 0.519524 0.303258
O O7 0.251150 0.445327 0.459731
O O8 0.121613 0.334675 0.668021
O O9 0.283435 0.324882 0.805192
O O10 0.192341 0.554922 0.693103
O O11 0.247548 0.494599 0.849919
O O12 0.054270 0.372294 0.877831
O O13 0.191784 0.361891 0.091530
O O14 0.166606 0.168795 0.986688
O O15 0.037433 0.490079 0.643150
O O16 0.000000 0.500000 0.500000
O O17 0.941753 0.287824 0.490346
#
# Coordination Sequence:
#
# PCOD8131439 Si02
#       8
#     8   8   8   8   8   8   8   8
#     4   9  20  33  50  74 108 138 172 212 266 314
#     4  10  18  33  53  75 102 139 177 211 252 322
#     4  10  20  36  57  81 106 139 180 225 263 315
#     4   9  19  32  50  75 103 138 172 210 264 316
#     4   9  17  33  56  78 101 140 182 215 258 322
#     4   9  17  34  53  72  99 140 181 208 253 321
#     4   9  20  35  55  79 108 139 183 219 266 313
#     4  11  20  32  52  81 107 131 174 225 269 303
#
# _framework density 18.189136999999999
#
# number of rings (size 3 to 8) (size 9 to 14) (size 15 to 20)
#    0.000    2.500    1.250    1.875    0.000    5.000 
#    0.000    0.625    0.000    0.000    0.000    0.000 
#    0.000    0.000    0.000    0.000    0.000    0.000 
#
# Total GULP energy -396538.042888 kJ/mol
# GULP energy per Si atom -12391.813840 kJ/mol
# Density = 1.814774 g / cm^3
# Si number density = 18.189137 Si / 1000 Ang^3
#
#
#
# Elastic Constant Matrix: (Units=GPa)
#
#
# Indices 1 2 3 4 5 6 
#
# 1 75.7015 31.3414 24.6413 0.0000 0.2294 0.0000
# 2 31.3414 82.5719 53.2817 0.0000 3.6627 0.0000
# 3 24.6413 53.2817 91.6331 0.0000 5.6535 0.0000
# 4 0.0000 0.0000 0.0000 28.6253 0.0000 -2.4343
# 5 0.2294 3.6627 5.6535 0.0000 29.3166 0.0000
# 6 0.0000 0.0000 0.0000 -2.4343 0.0000 15.2965
#
#
#
# Elastic Compliance Matrix: (Units=1/GPa)
#
#
# Indices 1 2 3 4 5 6 
#
# 1 0.015774 -0.005208 -0.001261 0.000000 0.000770 0.000000
# 2 -0.005208 0.021104 -0.010840 0.000000 -0.000506 0.000000
# 3 -0.001261 -0.010840 0.017682 0.000000 -0.002046 0.000000
# 4 0.000000 0.000000 0.000000 0.035413 0.000000 0.005636
# 5 0.000770 -0.000506 -0.002046 0.000000 0.034562 0.000000
# 6 0.000000 0.000000 0.000000 0.005636 0.000000 0.066271
#
#
# Mechanical properties :
#
#
# Convention : Reuss Voigt Hill
#
# Bulk Modulus (GPa) = 50.14462 52.04836 51.09649
# Shear Modulus (GPa) = 21.54503 24.02382 22.78443
#
# Velocity S-wave (km/s) = 3.44539 3.63819 3.54310
# Velocity P-wave (km/s) = 6.59211 6.80631 6.70006
#
# Compressibility (1/GPa) = 0.01994232
#
# Stress axis : x y z
#
# Youngs Moduli (GPa) = 63.39548 47.38326 56.55593
#
# Poissons Ratio (x) = 0.24675 0.07134
# Poissons Ratio (y) = 0.33013 0.61307
# Poissons Ratio (z) = 0.07996 0.51364
#
# Static dielectric constant tensor:
#      x y z
#    x 3.302930 0.000000 0.134840 
#    y 0.000000 3.020130 0.000000 
#    z 0.134840 0.000000 3.633800 
# 
# 
# High freq. dielectric constant tensor:
#      x y z
#    x 1.711530 0.000000 -0.005160 
#    y 0.000000 1.675180 0.000000 
#    z -0.005160 0.000000 1.712390 
# 
# From -- ./inp_files/180795.got.cif
#   From: 2010.06.25/outbox.cif.g09.slc.cpg/sg15_91_cif.got.tgz:180795.got - 2010.06.28 07:06:18.
