data_PCOD8131329
_publ_section_title
;
Structure prediction by ZEFSAII (Michael W. Deem and Ramdas Pophale) SiO2 
 PCOD8131329
Probable space group: C 2/C
;
_chemical_formula_sum "Si O2"
_cell_formula_units_Z 48
_cell_length_a 13.797544
_cell_length_b 11.527599
_cell_length_c 16.855995
_cell_angle_alpha 90.000000
_cell_angle_beta 111.242515
_cell_angle_gamma 90.000000
_cell_volume 2498.829822
_symmetry_space_group_name_H-M "C 2/C"
_symmetry_group_IT_number 15
_symmetry_cell_setting 'monoclinic'
loop_
_space_group_symop_operation_xyz
x,y,z
-x,y,1/2-z
-x,-y,-z
x,-y,1/2+z
1/2+x,1/2+y,z
1/2-x,1/2+y,1/2-z
1/2-x,1/2-y,-z
1/2+x,1/2-y,1/2+z
loop_
_atom_site_type_symbol
_atom_site_label
_atom_site_fract_x
_atom_site_fract_y
_atom_site_fract_z
Si Si1 0.929958 0.156799 0.339483
Si Si2 0.772201 0.771281 0.413814
Si Si3 0.069078 0.055405 0.840076
Si Si4 0.000745 0.132304 0.977646
Si Si5 0.607650 0.892065 0.256607
Si Si6 0.752828 0.955935 0.695085
O O1 0.935581 0.195901 0.433610
O O2 0.934274 0.273635 0.292683
O O3 0.825979 0.084805 0.289489
O O4 0.029647 0.076588 0.346967
O O5 0.750000 0.750000 0.500000
O O6 0.686095 0.859319 0.351790
O O7 0.781984 0.652091 0.368220
O O8 0.883275 0.828116 0.434751
O O9 0.187282 0.045521 0.845240
O O10 0.000000 0.111387 0.750000
O O11 0.061318 0.143226 0.911936
O O12 0.000000 0.000000 0.000000
O O13 0.500000 0.955956 0.250000
O O14 0.657643 0.975857 0.205787
#
# Coordination Sequence:
#
# PCOD8131329 Si02
#       6
#     8   8   8   8   8   8
#     4   9  18  35  57  79 103 138 182 223 270 326
#     4  11  21  36  60  84 109 146 192 230 269 331
#     4   9  16  31  53  77 104 136 179 229 271 318
#     4  10  18  32  57  84 103 132 183 235 270 313
#     4  11  21  37  56  78 113 150 180 223 276 331
#     4  10  21  35  54  82 111 144 182 222 277 335
#
# _framework density 19.20899
#
# number of rings (size 3 to 8) (size 9 to 14) (size 15 to 20)
#    0.000    2.000    0.000    8.500    0.000    0.000 
#    0.000    8.333    0.000    0.000    0.000    0.000 
#    0.000    0.000    0.000    0.000    0.000    0.000 
#
# Total GULP energy -297431.350176 kJ/mol
# GULP energy per Si atom -12392.972924 kJ/mol
# Density = 1.916527 g / cm^3
# Si number density = 19.208990 Si / 1000 Ang^3
#
#
#
# Elastic Constant Matrix: (Units=GPa)
#
#
# Indices 1 2 3 4 5 6 
#
# 1 164.2842 46.5220 63.3539 0.0000 -12.3956 0.0000
# 2 46.5220 41.2510 25.7772 0.0000 -2.9557 0.0000
# 3 63.3539 25.7772 148.4483 0.0000 -12.4572 0.0000
# 4 0.0000 0.0000 0.0000 18.0276 0.0000 -0.7659
# 5 -12.3956 -2.9557 -12.4572 0.0000 28.6207 0.0000
# 6 0.0000 0.0000 0.0000 -0.7659 0.0000 25.4102
#
#
#
# Elastic Compliance Matrix: (Units=1/GPa)
#
#
# Indices 1 2 3 4 5 6 
#
# 1 0.009853 -0.009469 -0.002371 0.000000 0.002257 0.000000
# 2 -0.009469 0.036308 -0.002380 0.000000 -0.001387 0.000000
# 3 -0.002371 -0.002380 0.008360 0.000000 0.002366 0.000000
# 4 0.000000 0.000000 0.000000 0.055542 0.000000 0.001674
# 5 0.002257 -0.001387 0.002366 0.000000 0.036804 0.000000
# 6 0.000000 0.000000 0.000000 0.001674 0.000000 0.039405
#
#
# Mechanical properties :
#
#
# Convention : Reuss Voigt Hill
#
# Bulk Modulus (GPa) = 38.34180 69.47663 53.90922
# Shear Modulus (GPa) = 22.38078 28.96706 25.67392
#
# Velocity S-wave (km/s) = 3.41709 3.88750 3.65986
# Velocity P-wave (km/s) = 5.96425 7.50983 6.78122
#
# Compressibility (1/GPa) = 0.02608119
#
# Stress axis : x y z
#
# Youngs Moduli (GPa) = 101.49032 27.54205 119.61305
#
# Poissons Ratio (x) = 0.26078 0.28366
# Poissons Ratio (y) = 0.96096 0.28470
# Poissons Ratio (z) = 0.24068 0.06556
#
# Static dielectric constant tensor:
#      x y z
#    x 4.236460 0.000000 -1.962950 
#    y 0.000000 3.190350 0.000000 
#    z -1.962950 0.000000 8.820290 
# 
# 
# High freq. dielectric constant tensor:
#      x y z
#    x 1.742750 0.000000 -0.007220 
#    y 0.000000 1.711100 0.000000 
#    z -0.007220 0.000000 1.765670 
# 
# From -- ./inp_files/196579.got.cif
#   From: 2010.06.25/outbox.cif.g09.slc.cpg/sg15_99_cif.got.tgz:196579.got - 2010.06.28 07:06:18.
