data_PCOD8131451
_publ_section_title
;
Structure prediction by ZEFSAII (Michael W. Deem and Ramdas Pophale) SiO2 
 PCOD8131451
Probable space group: C 2/C
;
_chemical_formula_sum "Si O2"
_cell_formula_units_Z 64
_cell_length_a 9.338537
_cell_length_b 20.048628
_cell_length_c 17.377059
_cell_angle_alpha 90.000000
_cell_angle_beta 91.627749
_cell_angle_gamma 90.000000
_cell_volume 3252.104506
_symmetry_space_group_name_H-M "C 2/C"
_symmetry_group_IT_number 15
_symmetry_cell_setting 'monoclinic'
loop_
_space_group_symop_operation_xyz
x,y,z
-x,y,1/2-z
-x,-y,-z
x,-y,1/2+z
1/2+x,1/2+y,z
1/2-x,1/2+y,1/2-z
1/2-x,1/2-y,-z
1/2+x,1/2-y,1/2+z
loop_
_atom_site_type_symbol
_atom_site_label
_atom_site_fract_x
_atom_site_fract_y
_atom_site_fract_z
Si Si1 0.637536 0.696625 0.710065
Si Si2 0.699222 0.120613 0.070778
Si Si3 0.495533 0.239888 0.440998
Si Si4 0.454922 0.933741 0.670504
Si Si5 0.222806 0.695333 0.335085
Si Si6 0.394963 0.037345 0.556101
Si Si7 0.580678 0.150456 0.830260
Si Si8 0.527516 0.296127 0.898171
O O1 0.500000 0.663810 0.750000
O O2 0.591978 0.731940 0.631609
O O3 0.712602 0.750333 0.767531
O O4 0.751278 0.639869 0.688901
O O5 0.596320 0.176674 0.031477
O O6 0.606853 0.082909 0.133405
O O7 0.843826 0.150586 0.109985
O O8 0.730958 0.069815 0.998945
O O9 0.655394 0.222028 0.414549
O O10 0.505209 0.291189 0.511350
O O11 0.500000 0.970944 0.750000
O O12 0.366655 0.868484 0.692869
O O13 0.350442 0.980614 0.617162
O O14 0.387637 0.675988 0.352613
O O15 0.470148 0.096313 0.607493
O O16 0.500000 0.000000 0.500000
O O17 0.500000 0.139550 0.750000
O O18 0.564010 0.224907 0.862625
#
# Coordination Sequence:
#
# PCOD8131451 Si02
#       8
#     8   8   8   8   8   8   8   8
#     4  10  20  35  55  88 125 156 190 241 312 374
#     4  10  19  34  59  85 114 151 197 242 292 347
#     4  10  18  33  53  80 119 157 185 225 299 370
#     4  10  21  39  60  77 112 162 205 235 284 356
#     4  10  21  35  54  86 121 154 187 242 306 365
#     4  10  22  40  60  85 113 159 212 248 277 346
#     4  12  22  35  61  93 124 147 194 256 312 351
#     4  12  21  33  56  95 122 146 183 256 318 357
#
# _framework density 19.679563999999999
#
# number of rings (size 3 to 8) (size 9 to 14) (size 15 to 20)
#    0.000    1.500    3.750    3.750    0.000    0.000 
#    0.000    0.625    0.000    4.500    0.000    0.000 
#    0.000    0.000    0.000    0.000    0.000    0.000 
#
# Total GULP energy -396490.883978 kJ/mol
# GULP energy per Si atom -12390.340124 kJ/mol
# Density = 1.963477 g / cm^3
# Si number density = 19.679564 Si / 1000 Ang^3
#
#
#
# Elastic Constant Matrix: (Units=GPa)
#
#
# Indices 1 2 3 4 5 6 
#
# 1 100.0906 30.7257 41.2379 0.0000 10.8918 0.0000
# 2 30.7257 64.8433 33.9508 0.0000 -1.3851 0.0000
# 3 41.2379 33.9508 109.0790 0.0000 6.8412 0.0000
# 4 0.0000 0.0000 0.0000 26.1378 0.0000 -2.3542
# 5 10.8918 -1.3851 6.8412 0.0000 22.1520 0.0000
# 6 0.0000 0.0000 0.0000 -2.3542 0.0000 16.0179
#
#
#
# Elastic Compliance Matrix: (Units=1/GPa)
#
#
# Indices 1 2 3 4 5 6 
#
# 1 0.013434 -0.004811 -0.003210 0.000000 -0.005915 0.000000
# 2 -0.004811 0.020342 -0.004834 0.000000 0.005131 0.000000
# 3 -0.003210 -0.004834 0.012039 0.000000 -0.002442 0.000000
# 4 0.000000 0.000000 0.000000 0.038772 0.000000 0.005698
# 5 -0.005915 0.005131 -0.002442 0.000000 0.049126 0.000000
# 6 0.000000 0.000000 0.000000 0.005698 0.000000 0.063268
#
#
# Mechanical properties :
#
#
# Convention : Reuss Voigt Hill
#
# Bulk Modulus (GPa) = 49.74199 53.98242 51.86221
# Shear Modulus (GPa) = 21.79648 24.06810 22.93229
#
# Velocity S-wave (km/s) = 3.33163 3.50093 3.41733
# Velocity P-wave (km/s) = 6.33486 6.62060 6.47931
#
# Compressibility (1/GPa) = 0.02010374
#
# Stress axis : x y z
#
# Youngs Moduli (GPa) = 74.43663 49.15849 83.06155
#
# Poissons Ratio (x) = 0.23651 0.26667
# Poissons Ratio (y) = 0.35813 0.40156
# Poissons Ratio (z) = 0.23898 0.23765
#
# Static dielectric constant tensor:
#      x y z
#    x 3.643950 0.000000 -0.157260 
#    y 0.000000 3.512490 0.000000 
#    z -0.157260 0.000000 3.968920 
# 
# 
# High freq. dielectric constant tensor:
#      x y z
#    x 1.741920 0.000000 -0.005380 
#    y 0.000000 1.735630 0.000000 
#    z -0.005380 0.000000 1.796170 
# 
# From -- ./inp_files/193008.got.cif
#   From: 2010.06.25/outbox.cif.g09.slc.cpg/sg15_97_cif.got.tgz:193008.got - 2010.06.28 07:06:18.
