data_PCOD8131154
_publ_section_title
;
Structure prediction by ZEFSAII (Michael W. Deem and Ramdas Pophale) SiO2 
 PCOD8131154
Probable space group: C 2/C
;
_chemical_formula_sum "Si O2"
_cell_formula_units_Z 48
_cell_length_a 14.420202
_cell_length_b 28.179726
_cell_length_c 8.645035
_cell_angle_alpha 90.000000
_cell_angle_beta 38.726646
_cell_angle_gamma 90.000000
_cell_volume 2197.735630
_symmetry_space_group_name_H-M "C 2/C"
_symmetry_group_IT_number 15
_symmetry_cell_setting 'monoclinic'
loop_
_space_group_symop_operation_xyz
x,y,z
-x,y,1/2-z
-x,-y,-z
x,-y,1/2+z
1/2+x,1/2+y,z
1/2-x,1/2+y,1/2-z
1/2-x,1/2-y,-z
1/2+x,1/2-y,1/2+z
loop_
_atom_site_type_symbol
_atom_site_label
_atom_site_fract_x
_atom_site_fract_y
_atom_site_fract_z
Si Si1 0.963523 0.195016 0.134502
Si Si2 0.399160 0.773401 0.747820
Si Si3 0.537982 0.593757 0.024626
Si Si4 0.160210 0.975867 0.126999
Si Si5 0.754685 0.437229 0.703521
Si Si6 0.357132 0.839050 0.525573
O O1 0.792664 0.178263 0.362924
O O2 0.000000 0.220160 0.250000
O O3 0.077561 0.149681 0.973149
O O4 0.996768 0.232633 0.959925
O O5 0.500000 0.795855 0.750000
O O6 0.358110 0.817427 0.694535
O O7 0.250000 0.750000 0.000000
O O8 0.500000 0.576383 0.250000
O O9 0.397934 0.591830 0.092998
O O10 0.654690 0.559263 0.784780
O O11 0.000000 0.984948 0.250000
O O12 0.235545 0.023602 0.094199
O O13 0.277689 0.957940 0.846263
O O14 0.875267 0.396711 0.508989
O O15 0.500000 0.819381 0.250000
#
# Coordination Sequence:
#
# PCOD8131154 Si02
#       6
#     8   8   8   8   8   8
#     4  10  23  41  67 100 132 177 220 271 328 400
#     4  12  26  44  71 100 137 169 220 272 338 398
#     4   9  17  31  56  92 130 163 213 270 327 378
#     4  10  18  31  59  89 132 166 222 274 325 382
#     4  10  20  35  57  90 123 170 216 268 326 384
#     4  11  26  46  66  95 137 179 220 272 336 401
#
# _framework density 21.840661999999998
#
# number of rings (size 3 to 8) (size 9 to 14) (size 15 to 20)
#    0.000    1.667    1.667    4.000    4.667    2.667 
#    0.000    2.500    0.000    0.000    0.000    0.000 
#    0.000    0.000    0.000    0.000    0.000    0.000 
#
# Total GULP energy -297320.401647 kJ/mol
# GULP energy per Si atom -12388.350069 kJ/mol
# Density = 2.179095 g / cm^3
# Si number density = 21.840662 Si / 1000 Ang^3
#
#
#
# Elastic Constant Matrix: (Units=GPa)
#
#
# Indices 1 2 3 4 5 6 
#
# 1 117.6372 43.4460 42.7908 0.0000 21.7623 0.0000
# 2 43.4460 102.2363 32.7433 0.0000 7.3131 0.0000
# 3 42.7908 32.7433 86.3696 0.0000 7.7139 0.0000
# 4 0.0000 0.0000 0.0000 20.1656 0.0000 -0.5265
# 5 21.7623 7.3131 7.7139 0.0000 34.9358 0.0000
# 6 0.0000 0.0000 0.0000 -0.5265 0.0000 31.3412
#
#
#
# Elastic Compliance Matrix: (Units=1/GPa)
#
#
# Indices 1 2 3 4 5 6 
#
# 1 0.012488 -0.003487 -0.004321 0.000000 -0.006095 0.000000
# 2 -0.003487 0.012177 -0.002913 0.000000 0.000266 0.000000
# 3 -0.004321 -0.002913 0.014820 0.000000 0.000029 0.000000
# 4 0.000000 0.000000 0.000000 0.049611 0.000000 0.000833
# 5 -0.006095 0.000266 0.000029 0.000000 0.032358 0.000000
# 6 0.000000 0.000000 0.000000 0.000833 0.000000 0.031921
#
#
# Mechanical properties :
#
#
# Convention : Reuss Voigt Hill
#
# Bulk Modulus (GPa) = 55.41803 60.46703 57.94253
# Shear Modulus (GPa) = 27.65021 29.77273 28.71147
#
# Velocity S-wave (km/s) = 3.56195 3.69613 3.62966
# Velocity P-wave (km/s) = 6.50734 6.77944 6.64478
#
# Compressibility (1/GPa) = 0.01804467
#
# Stress axis : x y z
#
# Youngs Moduli (GPa) = 80.07895 82.12322 67.47493
#
# Poissons Ratio (x) = 0.28636 0.29153
# Poissons Ratio (y) = 0.27923 0.19652
# Poissons Ratio (z) = 0.34599 0.23919
#
# Static dielectric constant tensor:
#      x y z
#    x 4.075590 0.000000 0.340470 
#    y 0.000000 4.191380 0.000000 
#    z 0.340470 0.000000 3.773540 
# 
# 
# High freq. dielectric constant tensor:
#      x y z
#    x 1.848880 0.000000 0.031230 
#    y 0.000000 1.873110 0.000000 
#    z 0.031230 0.000000 1.826710 
# 
# From -- ./inp_files/43812.got.cif
#   From: 2010.06.25/outbox.cif.g09.slc.cpg/sg15_22_cif.got.tgz:43812.got - 2010.06.28 07:06:18.
