data_PCOD8131575
_publ_section_title
;
Structure prediction by ZEFSAII (Michael W. Deem and Ramdas Pophale) SiO2 
 PCOD8131575
Probable space group: C 2/C
;
_chemical_formula_sum "Si O2"
_cell_formula_units_Z 64
_cell_length_a 22.583014
_cell_length_b 13.559305
_cell_length_c 14.422950
_cell_angle_alpha 90.000000
_cell_angle_beta 42.084034
_cell_angle_gamma 90.000000
_cell_volume 2959.993161
_symmetry_space_group_name_H-M "C 2/C"
_symmetry_group_IT_number 15
_symmetry_cell_setting 'monoclinic'
loop_
_space_group_symop_operation_xyz
x,y,z
-x,y,1/2-z
-x,-y,-z
x,-y,1/2+z
1/2+x,1/2+y,z
1/2-x,1/2+y,1/2-z
1/2-x,1/2-y,-z
1/2+x,1/2-y,1/2+z
loop_
_atom_site_type_symbol
_atom_site_label
_atom_site_fract_x
_atom_site_fract_y
_atom_site_fract_z
Si Si1 0.176899 0.825327 0.184091
Si Si2 0.300032 0.887221 0.890933
Si Si3 0.001147 0.886600 0.475499
Si Si4 0.956335 0.224562 0.205271
Si Si5 0.864626 0.588634 0.802990
Si Si6 0.270186 0.348938 0.179094
Si Si7 0.740220 0.658289 0.111101
Si Si8 0.317991 0.438618 0.641589
O O1 0.158646 0.721381 0.153797
O O2 0.234532 0.809958 0.210315
O O3 0.079820 0.868103 0.313195
O O4 0.231381 0.900097 0.055638
O O5 0.246071 0.897121 0.860106
O O6 0.377787 0.970764 0.802223
O O7 0.012434 0.816270 0.552936
O O8 0.906330 0.870875 0.535915
O O9 0.000000 0.000000 0.500000
O O10 0.953770 0.345839 0.207434
O O11 0.855713 0.188918 0.315543
O O12 0.000000 0.187071 0.250000
O O13 0.823625 0.608639 0.748189
O O14 0.793274 0.617932 0.963257
O O15 0.294347 0.254197 0.087327
O O16 0.337981 0.443417 0.101625
O O17 0.728642 0.575148 0.203661
#
# Coordination Sequence:
#
# PCOD8131575 Si02
#       8
#     8   8   8   8   8   8   8   8
#     4  11  22  40  61  89 121 160 201 245 300 361
#     4  10  23  40  66  86 116 161 214 245 292 353
#     4  11  24  38  57  91 130 154 194 240 315 366
#     4  10  23  37  60  90 124 158 194 252 309 360
#     4  10  22  38  63  90 118 156 209 253 295 357
#     4  10  18  33  59  86 119 154 195 249 291 348
#     4  10  20  36  60  92 121 157 203 249 299 352
#     4  10  20  37  58  91 123 156 198 246 302 361
#
# _framework density 21.621670999999999
#
# number of rings (size 3 to 8) (size 9 to 14) (size 15 to 20)
#    0.000    1.750    2.500    2.250    5.250    0.500 
#    0.000    0.625    5.500    0.000    0.000    0.000 
#    0.000    0.000    0.000    0.000    0.000    0.000 
#
# Total GULP energy -396516.935695 kJ/mol
# GULP energy per Si atom -12391.154240 kJ/mol
# Density = 2.157246 g / cm^3
# Si number density = 21.621671 Si / 1000 Ang^3
#
#
#
# Elastic Constant Matrix: (Units=GPa)
#
#
# Indices 1 2 3 4 5 6 
#
# 1 79.9049 18.8163 21.3145 0.0000 14.2874 0.0000
# 2 18.8163 119.1178 30.7631 0.0000 -3.0070 0.0000
# 3 21.3145 30.7631 85.6831 0.0000 3.9839 0.0000
# 4 0.0000 0.0000 0.0000 33.9555 0.0000 -0.8810
# 5 14.2874 -3.0070 3.9839 0.0000 14.4684 0.0000
# 6 0.0000 0.0000 0.0000 -0.8810 0.0000 23.3961
#
#
#
# Elastic Compliance Matrix: (Units=1/GPa)
#
#
# Indices 1 2 3 4 5 6 
#
# 1 0.016658 -0.002388 -0.002531 0.000000 -0.016248 0.000000
# 2 -0.002388 0.009715 -0.003138 0.000000 0.005241 0.000000
# 3 -0.002531 -0.003138 0.013514 0.000000 -0.001874 0.000000
# 4 0.000000 0.000000 0.000000 0.029479 0.000000 0.001110
# 5 -0.016248 0.005241 -0.001874 0.000000 0.086766 0.000000
# 6 0.000000 0.000000 0.000000 0.001110 0.000000 0.042784
#
#
# Mechanical properties :
#
#
# Convention : Reuss Voigt Hill
#
# Bulk Modulus (GPa) = 42.06314 47.38818 44.72566
# Shear Modulus (GPa) = 22.42619 28.61813 25.52216
#
# Velocity S-wave (km/s) = 3.22407 3.64206 3.43942
# Velocity P-wave (km/s) = 5.77545 6.29688 6.04179
#
# Compressibility (1/GPa) = 0.02377378
#
# Stress axis : x y z
#
# Youngs Moduli (GPa) = 60.03271 102.93501 73.99646
#
# Poissons Ratio (x) = 0.24579 0.18728
# Poissons Ratio (y) = 0.14335 0.23217
# Poissons Ratio (z) = 0.15194 0.32297
#
# Static dielectric constant tensor:
#      x y z
#    x 4.228440 0.000000 -0.056240 
#    y 0.000000 4.497470 0.000000 
#    z -0.056240 0.000000 3.918670 
# 
# 
# High freq. dielectric constant tensor:
#      x y z
#    x 1.846250 0.000000 0.022450 
#    y 0.000000 1.863150 0.000000 
#    z 0.022450 0.000000 1.816500 
# 
# From -- ./inp_files/173650.got.cif
#   From: 2010.06.25/outbox.cif.g09.slc.cpg/sg15_87_cif.got.tgz:173650.got - 2010.06.28 07:06:18.
