data_PCOD8131986
_publ_section_title
;
Structure prediction by ZEFSAII (Michael W. Deem and Ramdas Pophale) SiO2 
 PCOD8131986
Probable space group: C 2/C
;
_chemical_formula_sum "Si O2"
_cell_formula_units_Z 56
_cell_length_a 13.628351
_cell_length_b 14.880112
_cell_length_c 16.261288
_cell_angle_alpha 90.000000
_cell_angle_beta 122.688403
_cell_angle_gamma 90.000000
_cell_volume 2775.367878
_symmetry_space_group_name_H-M "C 2/C"
_symmetry_group_IT_number 15
_symmetry_cell_setting 'monoclinic'
loop_
_space_group_symop_operation_xyz
x,y,z
-x,y,1/2-z
-x,-y,-z
x,-y,1/2+z
1/2+x,1/2+y,z
1/2-x,1/2+y,1/2-z
1/2-x,1/2-y,-z
1/2+x,1/2-y,1/2+z
loop_
_atom_site_type_symbol
_atom_site_label
_atom_site_fract_x
_atom_site_fract_y
_atom_site_fract_z
Si Si1 0.087826 0.477268 0.354858
Si Si2 0.371123 0.861232 0.512115
Si Si3 0.435485 0.174539 0.859207
Si Si4 0.465877 0.487093 0.322117
Si Si5 0.610245 0.671721 0.934703
Si Si6 0.723021 0.600978 0.667964
Si Si7 0.007823 0.856605 0.961340
O O1 0.098565 0.543935 0.435434
O O2 0.212354 0.461528 0.369168
O O3 0.000000 0.522403 0.250000
O O4 0.035526 0.382597 0.360605
O O5 0.415388 0.866480 0.439579
O O6 0.428744 0.776827 0.586971
O O7 0.234440 0.843021 0.450598
O O8 0.314839 0.169862 0.751970
O O9 0.487299 0.275408 0.887831
O O10 0.500000 0.532543 0.250000
O O11 0.523980 0.389269 0.343675
O O12 0.331231 0.465441 0.285595
O O13 0.519132 0.550895 0.416609
O O14 0.604425 0.641731 0.028640
O O15 0.622117 0.654734 0.571989
#
# Coordination Sequence:
#
# PCOD8131986 Si02
#       7
#     8   8   8   8   8   8   8
#     4  10  21  36  56  81 116 155 188 229 282 339
#     4  10  18  35  58  82 113 148 186 234 282 332
#     4  10  22  38  57  86 116 148 195 235 273 337
#     4  11  21  35  58  86 111 143 189 234 276 334
#     4   9  19  34  56  81 110 145 183 232 282 329
#     4  10  21  39  58  79 116 152 185 236 286 328
#     4  10  21  39  60  83 114 152 188 229 286 340
#
# _framework density 20.177505
#
# number of rings (size 3 to 8) (size 9 to 14) (size 15 to 20)
#    0.000    2.000    0.000    4.714    0.000    2.857 
#    0.000   18.571    0.000    0.000    0.000    0.000 
#    0.000    0.000    0.000    0.000    0.000    0.000 
#
# Total GULP energy -346969.394078 kJ/mol
# GULP energy per Si atom -12391.764074 kJ/mol
# Density = 2.013158 g / cm^3
# Si number density = 20.177505 Si / 1000 Ang^3
#
#
#
# Elastic Constant Matrix: (Units=GPa)
#
#
# Indices 1 2 3 4 5 6 
#
# 1 117.9347 27.8121 25.3287 0.0000 -9.1077 0.0000
# 2 27.8121 77.1092 30.8279 0.0000 5.5915 0.0000
# 3 25.3287 30.8279 69.9568 0.0000 0.8397 0.0000
# 4 0.0000 0.0000 0.0000 28.6679 0.0000 -3.0990
# 5 -9.1077 5.5915 0.8397 0.0000 26.8320 0.0000
# 6 0.0000 0.0000 0.0000 -3.0990 0.0000 18.5314
#
#
#
# Elastic Compliance Matrix: (Units=1/GPa)
#
#
# Indices 1 2 3 4 5 6 
#
# 1 0.010000 -0.002957 -0.002367 0.000000 0.004085 0.000000
# 2 -0.002957 0.016872 -0.006313 0.000000 -0.004322 0.000000
# 3 -0.002367 -0.006313 0.017934 0.000000 -0.000049 0.000000
# 4 0.000000 0.000000 0.000000 0.035524 0.000000 0.005941
# 5 0.004085 -0.004322 -0.000049 0.000000 0.039558 0.000000
# 6 0.000000 0.000000 0.000000 0.005941 0.000000 0.054956
#
#
# Mechanical properties :
#
#
# Convention : Reuss Voigt Hill
#
# Bulk Modulus (GPa) = 46.43859 48.10424 47.27141
# Shear Modulus (GPa) = 24.35516 26.87506 25.61511
#
# Velocity S-wave (km/s) = 3.47803 3.65352 3.56685
# Velocity P-wave (km/s) = 6.26050 6.45677 6.35939
#
# Compressibility (1/GPa) = 0.02153382
#
# Stress axis : x y z
#
# Youngs Moduli (GPa) = 99.99646 59.26861 55.76058
#
# Poissons Ratio (x) = 0.17526 0.13197
# Poissons Ratio (y) = 0.29569 0.35200
# Poissons Ratio (z) = 0.23666 0.37414
#
# Static dielectric constant tensor:
#      x y z
#    x 3.958190 0.000000 -0.187130 
#    y 0.000000 3.610150 0.000000 
#    z -0.187130 0.000000 3.557970 
# 
# 
# High freq. dielectric constant tensor:
#      x y z
#    x 1.805430 0.000000 -0.016200 
#    y 0.000000 1.778410 0.000000 
#    z -0.016200 0.000000 1.771180 
# 
# From -- ./inp_files/146174.got.cif
#   From: 2010.06.25/outbox.cif.g09.slc.cpg/sg15_74_cif.got.tgz:146174.got - 2010.06.28 07:06:18.
