data_PCOD8131405
_publ_section_title
;
Structure prediction by ZEFSAII (Michael W. Deem and Ramdas Pophale) SiO2 
 PCOD8131405
Probable space group: C 2/C
;
_chemical_formula_sum "Si O2"
_cell_formula_units_Z 56
_cell_length_a 32.233995
_cell_length_b 14.225371
_cell_length_c 12.319906
_cell_angle_alpha 90.000000
_cell_angle_beta 143.480463
_cell_angle_gamma 90.000000
_cell_volume 3361.807064
_symmetry_space_group_name_H-M "C 2/C"
_symmetry_group_IT_number 15
_symmetry_cell_setting 'monoclinic'
loop_
_space_group_symop_operation_xyz
x,y,z
-x,y,1/2-z
-x,-y,-z
x,-y,1/2+z
1/2+x,1/2+y,z
1/2-x,1/2+y,1/2-z
1/2-x,1/2-y,-z
1/2+x,1/2-y,1/2+z
loop_
_atom_site_type_symbol
_atom_site_label
_atom_site_fract_x
_atom_site_fract_y
_atom_site_fract_z
Si Si1 0.335259 0.765484 0.565047
Si Si2 0.356886 0.134013 0.427224
Si Si3 0.904992 0.570812 0.752107
Si Si4 0.244588 0.607524 0.990164
Si Si5 0.749437 0.752288 0.317715
Si Si6 0.946770 0.364054 0.912583
Si Si7 0.253301 0.598869 0.471673
O O1 0.316489 0.771431 0.398937
O O2 0.416221 0.789814 0.760026
O O3 0.319974 0.660845 0.578165
O O4 0.289695 0.844722 0.529038
O O5 0.388012 0.068884 0.587703
O O6 0.319791 0.227721 0.398039
O O7 0.418099 0.162208 0.472338
O O8 0.296058 0.077901 0.236033
O O9 0.839576 0.608354 0.682130
O O10 0.922230 0.467306 0.827529
O O11 0.969596 0.641226 0.910590
O O12 0.267130 0.655434 0.924853
O O13 0.276694 0.502673 0.065966
O O14 0.273685 0.666313 0.153101
#
# Coordination Sequence:
#
# PCOD8131405 Si02
#       7
#     8   8   8   8   8   8   8
#     4   9  17  30  44  70  95 134 168 204 245 302
#     4   9  17  32  44  68  93 132 168 202 242 300
#     4  10  19  29  46  69 102 137 162 195 248 299
#     4  10  18  33  45  74  98 131 166 215 257 312
#     4   9  20  29  49  67  98 129 171 213 267 293
#     4  10  19  30  45  70 101 135 170 194 233 321
#     4   9  17  29  50  67  98 130 168 210 256 291
#
# _framework density 16.657709000000001
#
# number of rings (size 3 to 8) (size 9 to 14) (size 15 to 20)
#    0.000    2.571    2.857    1.286    2.000    1.143 
#    0.000    0.714    0.000    0.000    0.000    9.000 
#    0.000   27.429    0.000    0.429    0.000    0.000 
#
# Total GULP energy -347050.931162 kJ/mol
# GULP energy per Si atom -12394.676113 kJ/mol
# Density = 1.661980 g / cm^3
# Si number density = 16.657709 Si / 1000 Ang^3
#
#
#
# Elastic Constant Matrix: (Units=GPa)
#
#
# Indices 1 2 3 4 5 6 
#
# 1 69.1573 30.6666 36.1557 0.0000 -10.1722 0.0000
# 2 30.6666 96.0159 32.7989 0.0000 -8.8921 0.0000
# 3 36.1557 32.7989 89.6782 0.0000 -11.5968 0.0000
# 4 0.0000 0.0000 0.0000 25.0448 0.0000 1.4522
# 5 -10.1722 -8.8921 -11.5968 0.0000 25.2495 0.0000
# 6 0.0000 0.0000 0.0000 1.4522 0.0000 20.5899
#
#
#
# Elastic Compliance Matrix: (Units=1/GPa)
#
#
# Indices 1 2 3 4 5 6 
#
# 1 0.019966 -0.003932 -0.006114 0.000000 0.003851 0.000000
# 2 -0.003932 0.012807 -0.002892 0.000000 0.001598 0.000000
# 3 -0.006114 -0.002892 0.015121 0.000000 0.003464 0.000000
# 4 0.000000 0.000000 0.000000 0.040092 0.000000 -0.002828
# 5 0.003851 0.001598 0.003464 0.000000 0.043310 0.000000
# 6 0.000000 0.000000 0.000000 -0.002828 0.000000 0.048767
#
#
# Mechanical properties :
#
#
# Convention : Reuss Voigt Hill
#
# Bulk Modulus (GPa) = 45.41555 50.45486 47.93521
# Shear Modulus (GPa) = 23.44358 24.52552 23.98455
#
# Velocity S-wave (km/s) = 3.75556 3.84125 3.79865
# Velocity P-wave (km/s) = 6.79182 7.07309 6.93388
#
# Compressibility (1/GPa) = 0.02201889
#
# Stress axis : x y z
#
# Youngs Moduli (GPa) = 50.08515 78.08445 66.13102
#
# Poissons Ratio (x) = 0.30702 0.40430
# Poissons Ratio (y) = 0.19693 0.19126
# Poissons Ratio (z) = 0.30620 0.22583
#
# Static dielectric constant tensor:
#      x y z
#    x 3.178890 0.000000 -0.121700 
#    y 0.000000 3.078890 0.000000 
#    z -0.121700 0.000000 3.340460 
# 
# 
# High freq. dielectric constant tensor:
#      x y z
#    x 1.631230 0.000000 -0.025500 
#    y 0.000000 1.623090 0.000000 
#    z -0.025500 0.000000 1.630540 
# 
# From -- ./inp_files/126754.got.cif
#   From: 2010.06.25/outbox.cif.g09.slc.cpg/sg15_64_cif.got.tgz:126754.got - 2010.06.28 07:06:18.
