data_PCOD8131839
_publ_section_title
;
Structure prediction by ZEFSAII (Michael W. Deem and Ramdas Pophale) SiO2 
 PCOD8131839
Probable space group: C 2/C
;
_chemical_formula_sum "Si O2"
_cell_formula_units_Z 64
_cell_length_a 9.702184
_cell_length_b 28.393342
_cell_length_c 26.861344
_cell_angle_alpha 90.000000
_cell_angle_beta 151.935898
_cell_angle_gamma 90.000000
_cell_volume 3481.253384
_symmetry_space_group_name_H-M "C 2/C"
_symmetry_group_IT_number 15
_symmetry_cell_setting 'monoclinic'
loop_
_space_group_symop_operation_xyz
x,y,z
-x,y,1/2-z
-x,-y,-z
x,-y,1/2+z
1/2+x,1/2+y,z
1/2-x,1/2+y,1/2-z
1/2-x,1/2-y,-z
1/2+x,1/2-y,1/2+z
loop_
_atom_site_type_symbol
_atom_site_label
_atom_site_fract_x
_atom_site_fract_y
_atom_site_fract_z
Si Si1 0.959864 0.378996 0.320878
Si Si2 0.979688 0.059945 0.950605
Si Si3 0.316969 0.546557 0.376775
Si Si4 0.767060 0.785032 0.051086
Si Si5 0.168433 0.608718 0.996117
Si Si6 0.408585 0.775852 0.277010
Si Si7 0.807341 0.889547 0.072406
Si Si8 0.259231 0.284782 0.548061
O O1 0.053538 0.324567 0.342330
O O2 0.626507 0.389575 0.199633
O O3 0.182084 0.409456 0.358089
O O4 0.988275 0.392820 0.387513
O O5 0.195058 0.075702 0.975093
O O6 0.888045 0.007865 0.906049
O O7 0.163001 0.066543 0.060371
O O8 0.560429 0.572175 0.419646
O O9 0.000000 0.554504 0.250000
O O10 0.725999 0.839233 0.022101
O O11 0.067213 0.780388 0.175563
O O12 0.750000 0.750000 0.000000
O O13 0.536222 0.771444 0.018451
O O14 0.297019 0.660958 0.045446
O O15 0.942407 0.594605 0.967905
O O16 0.500000 0.765812 0.250000
O O17 0.481938 0.729987 0.332565
O O18 0.250000 0.250000 0.500000
#
# Coordination Sequence:
#
# PCOD8131839 Si02
#       8
#     8   8   8   8   8   8   8   8
#     4  10  18  34  61  87 113 143 192 244 294 336
#     4  10  21  38  65  90 112 149 192 247 287 342
#     4  10  22  42  61  85 119 152 196 235 289 350
#     4  10  21  35  54  81 113 148 190 245 281 333
#     4  10  22  38  54  84 121 154 184 239 293 349
#     4  11  20  34  58  82 110 152 199 238 288 342
#     4  10  20  34  58  88 114 146 192 237 297 337
#     4  11  22  38  54  79 116 152 192 238 282 346
#
# _framework density 18.384184000000001
#
# number of rings (size 3 to 8) (size 9 to 14) (size 15 to 20)
#    0.000    1.750    2.500    3.000    0.000    1.000 
#    4.500    0.625    0.000    0.000    0.000    0.000 
#    0.000    0.000    0.000    0.000    0.000    0.000 
#
# Total GULP energy -396668.392232 kJ/mol
# GULP energy per Si atom -12395.887257 kJ/mol
# Density = 1.834234 g / cm^3
# Si number density = 18.384184 Si / 1000 Ang^3
#
#
#
# Elastic Constant Matrix: (Units=GPa)
#
#
# Indices 1 2 3 4 5 6 
#
# 1 121.5665 52.3060 47.8582 -0.0024 -1.5813 -0.0075
# 2 52.3060 88.0676 42.6496 -0.0002 5.8862 -0.0009
# 3 47.8582 42.6496 91.2473 -0.0070 -2.7135 -0.0099
# 4 -0.0024 -0.0002 -0.0070 27.1225 -0.0003 -4.1222
# 5 -1.5813 5.8862 -2.7135 -0.0003 18.7984 -0.0065
# 6 -0.0075 -0.0009 -0.0099 -4.1222 -0.0065 35.6159
#
#
#
# Elastic Compliance Matrix: (Units=1/GPa)
#
#
# Indices 1 2 3 4 5 6 
#
# 1 0.012091 -0.005546 -0.003683 0.000000 0.002222 0.000002
# 2 -0.005546 0.017835 -0.005631 -0.000002 -0.006864 -0.000004
# 3 -0.003683 -0.005631 0.015634 0.000004 0.003710 0.000005
# 4 0.000000 -0.000002 0.000004 0.037530 0.000003 0.004344
# 5 0.002222 -0.006864 0.003710 0.000003 0.056068 0.000012
# 6 0.000002 -0.000004 0.000005 0.004344 0.000012 0.028580
#
#
# Mechanical properties :
#
#
# Convention : Reuss Voigt Hill
#
# Bulk Modulus (GPa) = 63.13925 65.16766 64.15345
# Shear Modulus (GPa) = 24.66234 26.84520 25.75377
#
# Velocity S-wave (km/s) = 3.66662 3.82545 3.74687
# Velocity P-wave (km/s) = 7.23494 7.41867 7.32738
#
# Compressibility (1/GPa) = 0.01583801
#
# Stress axis : x y z
#
# Youngs Moduli (GPa) = 82.70488 56.07012 63.96483
#
# Poissons Ratio (x) = 0.31097 0.23561
# Poissons Ratio (y) = 0.45868 0.36021
# Poissons Ratio (z) = 0.30463 0.31575
#
# Static dielectric constant tensor:
#      x y z
#    x 3.507850 -0.000040 -0.007690 
#    y -0.000040 3.593350 0.000100 
#    z -0.007690 0.000100 3.343740 
# 
# 
# High freq. dielectric constant tensor:
#      x y z
#    x 1.724040 0.000000 -0.003460 
#    y 0.000000 1.713920 0.000000 
#    z -0.003460 0.000000 1.706650 
# 
# From -- ./inp_files/266742.got.cif
#   From: 2010.06.25/outbox.cif.g09.slc.cpg/sg15_134_cif.got.tgz:266742.got - 2010.06.28 07:06:18.
