data_PCOD8131598
_publ_section_title
;
Structure prediction by ZEFSAII (Michael W. Deem and Ramdas Pophale) SiO2 
 PCOD8131598
Probable space group: C 2/C
;
_chemical_formula_sum "Si O2"
_cell_formula_units_Z 52
_cell_length_a 29.514205
_cell_length_b 15.890101
_cell_length_c 15.382310
_cell_angle_alpha 90.000000
_cell_angle_beta 20.318358
_cell_angle_gamma 90.000000
_cell_volume 2504.979793
_symmetry_space_group_name_H-M "C 2/C"
_symmetry_group_IT_number 15
_symmetry_cell_setting 'monoclinic'
loop_
_space_group_symop_operation_xyz
x,y,z
-x,y,1/2-z
-x,-y,-z
x,-y,1/2+z
1/2+x,1/2+y,z
1/2-x,1/2+y,1/2-z
1/2-x,1/2-y,-z
1/2+x,1/2-y,1/2+z
loop_
_atom_site_type_symbol
_atom_site_label
_atom_site_fract_x
_atom_site_fract_y
_atom_site_fract_z
Si Si1 0.372788 0.468921 0.803267
Si Si2 0.889727 0.740472 0.375370
Si Si3 0.252246 0.640849 0.236840
Si Si4 0.352291 0.533848 0.521799
Si Si5 0.500000 0.059578 0.750000
Si Si6 0.300803 0.940351 0.028349
Si Si7 0.538748 0.373243 0.005249
O O1 0.437419 0.386595 0.641125
O O2 0.488337 0.533629 0.628457
O O3 0.293981 0.438214 0.031018
O O4 0.287244 0.520622 0.888091
O O5 0.764719 0.780743 0.649139
O O6 0.849721 0.650619 0.408584
O O7 0.000000 0.731524 0.250000
O O8 0.935497 0.799444 0.212617
O O9 0.339691 0.566596 0.039598
O O10 0.100253 0.619169 0.518342
O O11 0.320788 0.653342 0.207500
O O12 0.272308 0.571097 0.746992
O O13 0.500000 0.567516 0.250000
O O14 0.424614 0.001189 0.816913
#
# Coordination Sequence:
#
# PCOD8131598 Si02
#       7
#     8   8   8   8   4   8   8
#     4  11  19  33  63  94 117 149 207 255 280 353
#     4  10  20  37  63  86 117 159 194 246 304 353
#     4  10  18  36  61  81 114 162 201 234 293 366
#     4  11  18  36  61  91 116 155 205 245 290 350
#     4  10  20  38  58  82 120 160 196 236 298 360
#     4  11  23  37  60  93 124 153 195 254 301 350
#     4  10  18  33  61  88 111 154 205 245 287 346
#
# _framework density 20.758649999999999
#
# number of rings (size 3 to 8) (size 9 to 14) (size 15 to 20)
#    0.000    1.538    6.923    1.385    0.000    0.615 
#    1.385    3.077    0.000    3.692    0.000    0.000 
#    0.000    0.000    0.000    0.000    0.000    0.000 
#
# Total GULP energy -322091.713186 kJ/mol
# GULP energy per Si atom -12388.142815 kJ/mol
# Density = 2.071140 g / cm^3
# Si number density = 20.758650 Si / 1000 Ang^3
#
#
#
# Elastic Constant Matrix: (Units=GPa)
#
#
# Indices 1 2 3 4 5 6 
#
# 1 96.4323 27.6329 49.6698 -0.0013 22.3344 0.0009
# 2 27.6329 88.9390 44.6987 -0.0008 3.9145 0.0006
# 3 49.6698 44.6987 125.0417 -0.0008 -1.3750 0.0006
# 4 -0.0013 -0.0008 -0.0008 25.0099 0.0001 3.6783
# 5 22.3344 3.9145 -1.3750 0.0001 32.6390 -0.0002
# 6 0.0009 0.0006 0.0006 3.6783 -0.0002 16.7836
#
#
#
# Elastic Compliance Matrix: (Units=1/GPa)
#
#
# Indices 1 2 3 4 5 6 
#
# 1 0.016662 -0.001563 -0.006186 0.000001 -0.011474 -0.000001
# 2 -0.001563 0.013965 -0.004380 0.000000 -0.000790 0.000000
# 3 -0.006186 -0.004380 0.012078 0.000000 0.005267 0.000000
# 4 0.000001 0.000000 0.000000 0.041316 -0.000001 -0.009055
# 5 -0.011474 -0.000790 0.005267 -0.000001 0.038807 0.000001
# 6 -0.000001 0.000000 0.000000 -0.009055 0.000001 0.061566
#
#
# Mechanical properties :
#
#
# Convention : Reuss Voigt Hill
#
# Bulk Modulus (GPa) = 54.20782 61.60177 57.90480
# Shear Modulus (GPa) = 23.27736 27.44726 25.36231
#
# Velocity S-wave (km/s) = 3.35226 3.64016 3.49918
# Velocity P-wave (km/s) = 6.41511 6.88530 6.65436
#
# Compressibility (1/GPa) = 0.01844752
#
# Stress axis : x y z
#
# Youngs Moduli (GPa) = 60.01826 71.60600 82.79346
#
# Poissons Ratio (x) = 0.11190 0.51216
# Poissons Ratio (y) = 0.09379 0.36265
# Poissons Ratio (z) = 0.37127 0.31364
#
# Static dielectric constant tensor:
#      x y z
#    x 3.914070 0.000000 0.092420 
#    y 0.000000 3.517640 0.000000 
#    z 0.092420 0.000000 3.753460 
# 
# 
# High freq. dielectric constant tensor:
#      x y z
#    x 1.810890 0.000000 0.002870 
#    y 0.000000 1.778450 0.000000 
#    z 0.002870 0.000000 1.803470 
# 
# From -- ./inp_files/182816.got.cif
#   From: 2010.06.25/outbox.cif.g09.slc.cpg/sg15_92_cif.got.tgz:182816.got - 2010.06.28 07:06:18.
