data_PCOD8131047
_publ_section_title
;
Structure prediction by ZEFSAII (Michael W. Deem and Ramdas Pophale) SiO2 
 PCOD8131047
Probable space group: C 2/C
;
_chemical_formula_sum "Si O2"
_cell_formula_units_Z 64
_cell_length_a 25.803040
_cell_length_b 23.175672
_cell_length_c 8.678578
_cell_angle_alpha 90.000000
_cell_angle_beta 47.725928
_cell_angle_gamma 90.000000
_cell_volume 3840.127921
_symmetry_space_group_name_H-M "C 2/C"
_symmetry_group_IT_number 15
_symmetry_cell_setting 'monoclinic'
loop_
_space_group_symop_operation_xyz
x,y,z
-x,y,1/2-z
-x,-y,-z
x,-y,1/2+z
1/2+x,1/2+y,z
1/2-x,1/2+y,1/2-z
1/2-x,1/2-y,-z
1/2+x,1/2-y,1/2+z
loop_
_atom_site_type_symbol
_atom_site_label
_atom_site_fract_x
_atom_site_fract_y
_atom_site_fract_z
Si Si1 0.140021 0.938610 0.789312
Si Si2 0.151134 0.735193 0.770817
Si Si3 0.000000 0.236727 0.574288
Si Si4 0.224350 0.841116 0.123733
Si Si5 0.859981 0.061390 0.849391
Si Si6 0.348866 0.235192 0.375350
Si Si7 0.224351 0.158884 0.978867
Si Si8 0.000001 0.886088 0.930552
O O1 0.203900 0.895513 0.623520
O O2 0.068169 0.915705 0.863091
O O3 0.160113 0.000001 0.679775
O O4 0.130614 0.944095 0.988771
O O5 0.174348 0.787129 0.614839
O O6 0.195168 0.677221 0.645426
O O7 0.165541 0.753701 0.918919
O O8 0.068605 0.723888 0.906530
O O9 0.931395 0.276112 0.680948
O O10 0.000000 0.181684 0.464294
O O11 0.000000 0.213578 0.750000
O O12 0.203896 0.895510 0.060887
O O13 0.174350 0.787126 0.187772
O O14 0.213838 0.858192 0.322325
O O15 0.304832 0.822781 0.926100
O O16 0.931836 0.084293 0.635764
O O17 0.000000 0.896615 0.750000
#
# Coordination Sequence:
#
# PCOD8131047 Si02
#       8
#     8   8   8   8   8   8   8   8
#     4  12  24  38  53  71  98 135 173 212 251 298
#     4   9  18  31  50  73 102 134 167 207 251 298
#     4  10  18  31  51  76 103 137 171 203 247 297
#     4  10  19  32  49  73 101 132 169 209 251 296
#     4  12  24  38  53  71  98 135 173 212 251 298
#     4   9  18  31  50  73 102 134 167 207 251 298
#     4  10  19  32  49  73 101 132 169 209 251 296
#     4  12  23  35  50  74 103 135 171 209 244 293
#
# _framework density 16.666111999999998
#
# number of rings (size 3 to 8) (size 9 to 14) (size 15 to 20)
#    0.000    1.500    2.500    4.500    0.000    1.000 
#    0.000    0.000    0.000    0.000    0.000    0.875 
#    0.000    0.000    0.000    0.000    0.000    0.000 
#
# Total GULP energy -396811.746803 kJ/mol
# GULP energy per Si atom -12400.367088 kJ/mol
# Density = 1.662818 g / cm^3
# Si number density = 16.666112 Si / 1000 Ang^3
#
#
#
# Elastic Constant Matrix: (Units=GPa)
#
#
# Indices 1 2 3 4 5 6 
#
# 1 96.4070 51.0868 61.9381 0.0000 -9.2421 0.0000
# 2 51.0868 91.1588 48.3981 0.0000 -9.3828 0.0000
# 3 61.9381 48.3981 93.0792 0.0000 -2.3831 0.0000
# 4 0.0000 0.0000 0.0000 20.6882 0.0000 6.2592
# 5 -9.2421 -9.3828 -2.3831 0.0000 39.7844 0.0000
# 6 0.0000 0.0000 0.0000 6.2592 0.0000 18.8874
#
#
#
# Elastic Compliance Matrix: (Units=1/GPa)
#
#
# Indices 1 2 3 4 5 6 
#
# 1 0.020385 -0.005486 -0.010640 0.000000 0.002804 0.000000
# 2 -0.005486 0.017023 -0.005138 0.000000 0.002432 0.000000
# 3 -0.010640 -0.005138 0.020433 0.000000 -0.002460 0.000000
# 4 0.000000 0.000000 0.000000 0.053723 0.000000 -0.017804
# 5 0.002804 0.002432 -0.002460 0.000000 0.026213 0.000000
# 6 0.000000 0.000000 0.000000 -0.017804 0.000000 0.058845
#
#
# Mechanical properties :
#
#
# Convention : Reuss Voigt Hill
#
# Bulk Modulus (GPa) = 65.31371 67.05456 66.18414
# Shear Modulus (GPa) = 20.47039 23.82013 22.14526
#
# Velocity S-wave (km/s) = 3.50846 3.78465 3.64917
# Velocity P-wave (km/s) = 7.46237 7.70841 7.58639
#
# Compressibility (1/GPa) = 0.01531072
#
# Stress axis : x y z
#
# Youngs Moduli (GPa) = 49.05653 58.74481 48.94101
#
# Poissons Ratio (x) = 0.32228 0.52075
# Poissons Ratio (y) = 0.26913 0.25148
# Poissons Ratio (z) = 0.52198 0.30185
#
# Static dielectric constant tensor:
#      x y z
#    x 3.335330 0.000000 -0.057790 
#    y 0.000000 3.033140 0.000000 
#    z -0.057790 0.000000 3.318750 
# 
# 
# High freq. dielectric constant tensor:
#      x y z
#    x 1.647790 0.000000 0.007510 
#    y 0.000000 1.609480 0.000000 
#    z 0.007510 0.000000 1.649950 
# 
# From -- ./inp_files/67428.got.cif
#   From: 2010.06.25/outbox.cif.g09.slc.cpg/sg15_34_cif.got.tgz:67428.got - 2010.06.28 07:06:18.
