data_PCOD8131202
_publ_section_title
;
Structure prediction by ZEFSAII (Michael W. Deem and Ramdas Pophale) SiO2 
 PCOD8131202
Probable space group: C 2/C
;
_chemical_formula_sum "Si O2"
_cell_formula_units_Z 56
_cell_length_a 17.325034
_cell_length_b 27.605398
_cell_length_c 9.952974
_cell_angle_alpha 90.000000
_cell_angle_beta 40.706896
_cell_angle_gamma 90.000000
_cell_volume 3104.522975
_symmetry_space_group_name_H-M "C 2/C"
_symmetry_group_IT_number 15
_symmetry_cell_setting 'monoclinic'
loop_
_space_group_symop_operation_xyz
x,y,z
-x,y,1/2-z
-x,-y,-z
x,-y,1/2+z
1/2+x,1/2+y,z
1/2-x,1/2+y,1/2-z
1/2-x,1/2-y,-z
1/2+x,1/2-y,1/2+z
loop_
_atom_site_type_symbol
_atom_site_label
_atom_site_fract_x
_atom_site_fract_y
_atom_site_fract_z
Si Si1 0.356837 0.960889 0.071278
Si Si2 0.189196 0.215063 0.255616
Si Si3 0.244782 0.359241 0.308123
Si Si4 0.523362 0.205912 0.067098
Si Si5 0.373737 0.045054 0.241782
Si Si6 0.713093 0.151396 0.155124
Si Si7 0.867206 0.205750 0.460033
O O1 0.266397 0.916308 0.206084
O O2 0.317567 0.006822 0.211465
O O3 0.486016 0.945890 0.956045
O O4 0.353021 0.974811 0.919385
O O5 0.066888 0.245721 0.432597
O O6 0.192842 0.172421 0.361944
O O7 0.196154 0.192578 0.097578
O O8 0.302542 0.250227 0.122271
O O9 0.122768 0.335124 0.421803
O O10 0.265794 0.344498 0.435591
O O11 0.355710 0.340589 0.073612
O O12 0.500000 0.221354 0.250000
O O13 0.404193 0.183236 0.165087
O O14 0.310361 0.095045 0.288607
O O15 0.000000 0.219759 0.250000
#
# Coordination Sequence:
#
# PCOD8131202 Si02
#       7
#     8   8   8   8   8   8   8
#     4   9  16  30  47  75 101 132 160 193 250 306
#     4  10  21  32  49  72  97 130 173 211 248 294
#     4   9  18  32  51  70  99 135 166 198 251 299
#     4   9  17  30  49  69  98 131 163 207 245 292
#     4   9  17  28  50  73 107 131 154 200 246 304
#     4  10  18  32  51  76  99 132 170 204 244 295
#     4  10  21  36  48  67 100 136 167 212 254 294
#
# _framework density 18.038197
#
# number of rings (size 3 to 8) (size 9 to 14) (size 15 to 20)
#    0.000    2.571    1.429    0.857    0.000    7.429 
#    0.000    0.000    0.000    0.000    0.000   10.000 
#    0.000    0.000    0.000    0.000    0.000    0.000 
#
# Total GULP energy -347044.007093 kJ/mol
# GULP energy per Si atom -12394.428825 kJ/mol
# Density = 1.799714 g / cm^3
# Si number density = 18.038197 Si / 1000 Ang^3
#
#
#
# Elastic Constant Matrix: (Units=GPa)
#
#
# Indices 1 2 3 4 5 6 
#
# 1 52.7541 46.8993 18.0957 0.0000 20.9898 0.0000
# 2 46.8993 105.6909 48.5709 0.0000 24.7772 0.0000
# 3 18.0957 48.5709 81.8397 0.0000 9.5695 0.0000
# 4 0.0000 0.0000 0.0000 25.6771 0.0000 8.7715
# 5 20.9898 24.7772 9.5695 0.0000 25.1760 0.0000
# 6 0.0000 0.0000 0.0000 8.7715 0.0000 31.0409
#
#
#
# Elastic Compliance Matrix: (Units=1/GPa)
#
#
# Indices 1 2 3 4 5 6 
#
# 1 0.037484 -0.012865 0.001591 0.000000 -0.019196 0.000000
# 2 -0.012865 0.020622 -0.008660 0.000000 -0.006278 0.000000
# 3 0.001591 -0.008660 0.016917 0.000000 0.000766 0.000000
# 4 0.000000 0.000000 0.000000 0.043106 0.000000 -0.012181
# 5 -0.019196 -0.006278 0.000766 0.000000 0.061611 0.000000
# 6 0.000000 0.000000 0.000000 -0.012181 0.000000 0.035658
#
#
# Mechanical properties :
#
#
# Convention : Reuss Voigt Hill
#
# Bulk Modulus (GPa) = 28.44431 51.93518 40.18974
# Shear Modulus (GPa) = 18.72769 24.82672 21.77720
#
# Velocity S-wave (km/s) = 3.22564 3.71393 3.47837
# Velocity P-wave (km/s) = 5.44759 6.87352 6.20167
#
# Compressibility (1/GPa) = 0.03515642
#
# Stress axis : x y z
#
# Youngs Moduli (GPa) = 26.67774 48.49283 59.11123
#
# Poissons Ratio (x) = 0.62384 -0.09406
# Poissons Ratio (y) = 0.34320 0.51191
# Poissons Ratio (z) = -0.04245 0.41995
#
# Static dielectric constant tensor:
#      x y z
#    x 3.090970 0.000000 0.200290 
#    y 0.000000 3.260920 0.000000 
#    z 0.200290 0.000000 3.414520 
# 
# 
# High freq. dielectric constant tensor:
#      x y z
#    x 1.677970 0.000000 0.024350 
#    y 0.000000 1.683910 0.000000 
#    z 0.024350 0.000000 1.689370 
# 
# From -- ./inp_files/44517.got.cif
#   From: 2010.06.25/outbox.cif.g09.slc.cpg/sg15_23_cif.got.tgz:44517.got - 2010.06.28 07:06:18.
