data_PCOD8131086
_publ_section_title
;
Structure prediction by ZEFSAII (Michael W. Deem and Ramdas Pophale) SiO2 
 PCOD8131086
Probable space group: C 2/C
;
_chemical_formula_sum "Si O2"
_cell_formula_units_Z 60
_cell_length_a 11.838976
_cell_length_b 23.747512
_cell_length_c 13.884126
_cell_angle_alpha 90.000000
_cell_angle_beta 123.006722
_cell_angle_gamma 90.000000
_cell_volume 3273.475627
_symmetry_space_group_name_H-M "C 2/C"
_symmetry_group_IT_number 15
_symmetry_cell_setting 'monoclinic'
loop_
_space_group_symop_operation_xyz
x,y,z
-x,y,1/2-z
-x,-y,-z
x,-y,1/2+z
1/2+x,1/2+y,z
1/2-x,1/2+y,1/2-z
1/2-x,1/2-y,-z
1/2+x,1/2-y,1/2+z
loop_
_atom_site_type_symbol
_atom_site_label
_atom_site_fract_x
_atom_site_fract_y
_atom_site_fract_z
Si Si1 0.682673 0.617037 0.172478
Si Si2 0.170036 0.995105 0.422519
Si Si3 0.500000 0.586587 0.250000
Si Si4 0.652376 0.207618 0.336298
Si Si5 0.245525 0.326598 0.080484
Si Si6 0.153765 0.508593 0.315854
Si Si7 0.973038 0.110935 0.585557
Si Si8 0.254114 0.079543 0.785517
O O1 0.608000 0.622696 0.240054
O O2 0.796837 0.665332 0.222905
O O3 0.753651 0.556487 0.190093
O O4 0.570179 0.632184 0.039876
O O5 0.296267 0.005150 0.552433
O O6 0.065924 0.954264 0.426367
O O7 0.214174 0.969744 0.340853
O O8 0.086377 0.051568 0.367363
O O9 0.500000 0.225437 0.250000
O O10 0.743146 0.263705 0.373224
O O11 0.662098 0.174949 0.442718
O O12 0.393991 0.352626 0.129198
O O13 0.170958 0.369699 0.120592
O O14 0.156909 0.450786 0.254748
O O15 0.000000 0.529781 0.250000
O O16 0.131759 0.112891 0.676886
#
# Coordination Sequence:
#
# PCOD8131086 Si02
#       8
#     8   8   4   8   8   8   8   8
#     4  10  21  32  52  76 109 142 173 221 262 314
#     4  10  18  31  53  76 103 137 169 224 259 306
#     4  12  18  34  50  80 100 138 186 212 266 310
#     4  10  19  36  54  81 110 132 170 222 271 315
#     4   9  19  32  58  84  99 135 175 221 272 305
#     4  11  23  36  48  75 112 148 177 206 266 325
#     4   9  16  31  53  80 103 126 175 227 268 294
#     4  11  18  33  53  78 105 137 173 226 258 313
#
# _framework density 18.329142000000001
#
# number of rings (size 3 to 8) (size 9 to 14) (size 15 to 20)
#    0.000    1.867    2.667    4.000    0.000    2.667 
#    2.400    0.000    1.467    0.000    0.000    4.667 
#    0.000    0.000    0.000    0.000    0.000    0.000 
#
# Total GULP energy -371858.355007 kJ/mol
# GULP energy per Si atom -12395.278500 kJ/mol
# Density = 1.828742 g / cm^3
# Si number density = 18.329142 Si / 1000 Ang^3
#
#
#
# Elastic Constant Matrix: (Units=GPa)
#
#
# Indices 1 2 3 4 5 6 
#
# 1 64.7843 22.6316 26.8731 0.0000 -4.8703 0.0000
# 2 22.6316 78.6094 15.9134 0.0000 -9.1280 0.0000
# 3 26.8731 15.9134 64.3993 0.0000 4.3539 0.0000
# 4 0.0000 0.0000 0.0000 24.6315 0.0000 -4.0652
# 5 -4.8703 -9.1280 4.3539 0.0000 18.1675 0.0000
# 6 0.0000 0.0000 0.0000 -4.0652 0.0000 18.6172
#
#
#
# Elastic Compliance Matrix: (Units=1/GPa)
#
#
# Indices 1 2 3 4 5 6 
#
# 1 0.020443 -0.003614 -0.008015 0.000000 0.005585 0.000000
# 2 -0.003614 0.015163 -0.002732 0.000000 0.007304 0.000000
# 3 -0.008015 -0.002732 0.020112 0.000000 -0.008341 0.000000
# 4 0.000000 0.000000 0.000000 0.042116 0.000000 0.009196
# 5 0.005585 0.007304 -0.008341 0.000000 0.062210 0.000000
# 6 0.000000 0.000000 0.000000 0.009196 0.000000 0.055722
#
#
# Mechanical properties :
#
#
# Convention : Reuss Voigt Hill
#
# Bulk Modulus (GPa) = 37.04525 37.62546 37.33535
# Shear Modulus (GPa) = 19.72482 21.77490 20.74986
#
# Velocity S-wave (km/s) = 3.28402 3.45047 3.36827
# Velocity P-wave (km/s) = 5.88513 6.03710 5.96160
#
# Compressibility (1/GPa) = 0.02699402
#
# Stress axis : x y z
#
# Youngs Moduli (GPa) = 48.91612 65.94985 49.72189
#
# Poissons Ratio (x) = 0.23838 0.39853
# Poissons Ratio (y) = 0.17681 0.13586
# Poissons Ratio (z) = 0.39207 0.18020
#
# Static dielectric constant tensor:
#      x y z
#    x 3.064850 0.000000 -0.121920 
#    y 0.000000 3.304590 0.000000 
#    z -0.121920 0.000000 3.542230 
# 
# 
# High freq. dielectric constant tensor:
#      x y z
#    x 1.667080 0.000000 -0.006330 
#    y 0.000000 1.694380 0.000000 
#    z -0.006330 0.000000 1.718870 
# 
# From -- ./inp_files/90874.got.cif
#   From: 2010.06.25/outbox.cif.g09.slc.cpg/sg15_46_cif.got.tgz:90874.got - 2010.06.28 07:06:18.
