data_PCOD8131406
_publ_section_title
;
Structure prediction by ZEFSAII (Michael W. Deem and Ramdas Pophale) SiO2 
 PCOD8131406
Probable space group: C 2/C
;
_chemical_formula_sum "Si O2"
_cell_formula_units_Z 56
_cell_length_a 16.485924
_cell_length_b 21.910430
_cell_length_c 9.405653
_cell_angle_alpha 90.000000
_cell_angle_beta 79.681097
_cell_angle_gamma 90.000000
_cell_volume 3342.500183
_symmetry_space_group_name_H-M "C 2/C"
_symmetry_group_IT_number 15
_symmetry_cell_setting 'monoclinic'
loop_
_space_group_symop_operation_xyz
x,y,z
-x,y,1/2-z
-x,-y,-z
x,-y,1/2+z
1/2+x,1/2+y,z
1/2-x,1/2+y,1/2-z
1/2-x,1/2-y,-z
1/2+x,1/2-y,1/2+z
loop_
_atom_site_type_symbol
_atom_site_label
_atom_site_fract_x
_atom_site_fract_y
_atom_site_fract_z
Si Si1 0.672480 0.064498 0.024737
Si Si2 0.622464 0.242796 0.628109
Si Si3 0.815916 0.702569 0.422150
Si Si4 0.815100 0.543414 0.163818
Si Si5 0.766325 0.327128 0.623208
Si Si6 0.037721 0.712778 0.939028
Si Si7 0.006957 0.594280 0.407299
O O1 0.696158 0.136024 0.999216
O O2 0.704492 0.039257 0.164284
O O3 0.574275 0.053814 0.042069
O O4 0.714252 0.020930 0.893823
O O5 0.671637 0.304797 0.648762
O O6 0.683509 0.197916 0.526085
O O7 0.596594 0.209619 0.782585
O O8 0.539034 0.259244 0.564389
O O9 0.750000 0.750000 0.500000
O O10 0.811962 0.695344 0.253594
O O11 0.905914 0.728506 0.441110
O O12 0.763641 0.599778 0.114621
O O13 0.911704 0.554165 0.101618
O O14 0.991861 0.648188 0.977098
O O15 0.000000 0.622543 0.250000
#
# Coordination Sequence:
#
# PCOD8131406 Si02
#       7
#     8   8   8   8   8   8   8
#     4   9  20  30  48  69  99 135 173 203 248 297
#     4  10  20  32  46  78 101 131 170 216 255 297
#     4  10  19  35  53  73 101 137 172 209 253 307
#     4  10  18  33  46  69  99 137 167 207 246 302
#     4  10  20  34  51  69 109 134 165 213 265 291
#     4  10  19  31  51  74 101 133 175 206 246 309
#     4   9  17  31  48  69 100 140 171 202 242 296
#
# _framework density 16.753926
#
# number of rings (size 3 to 8) (size 9 to 14) (size 15 to 20)
#    0.000    2.286    2.857    1.286    0.000    2.286 
#    0.000    0.000    0.000    0.000    0.000    1.000 
#    0.000    0.000    0.000    0.000    0.000    0.000 
#
# Total GULP energy -346953.502069 kJ/mol
# GULP energy per Si atom -12391.196502 kJ/mol
# Density = 1.671579 g / cm^3
# Si number density = 16.753926 Si / 1000 Ang^3
#
#
#
# Elastic Constant Matrix: (Units=GPa)
#
#
# Indices 1 2 3 4 5 6 
#
# 1 80.4737 36.9785 28.4063 0.0000 18.4389 0.0000
# 2 36.9785 87.8896 37.1593 0.0000 8.0093 0.0000
# 3 28.4063 37.1593 58.2933 0.0000 2.0077 0.0000
# 4 0.0000 0.0000 0.0000 27.5968 0.0000 -2.0631
# 5 18.4389 8.0093 2.0077 0.0000 22.7435 0.0000
# 6 0.0000 0.0000 0.0000 -2.0631 0.0000 12.6410
#
#
#
# Elastic Compliance Matrix: (Units=1/GPa)
#
#
# Indices 1 2 3 4 5 6 
#
# 1 0.019931 -0.004386 -0.006433 0.000000 -0.014046 0.000000
# 2 -0.004386 0.017041 -0.008668 0.000000 -0.001680 0.000000
# 3 -0.006433 -0.008668 0.025608 0.000000 0.006007 0.000000
# 4 0.000000 0.000000 0.000000 0.036684 0.000000 0.005987
# 5 -0.014046 -0.001680 0.006007 0.000000 0.055418 0.000000
# 6 0.000000 0.000000 0.000000 0.005987 0.000000 0.080085
#
#
# Mechanical properties :
#
#
# Convention : Reuss Voigt Hill
#
# Bulk Modulus (GPa) = 42.36067 47.97165 45.16616
# Shear Modulus (GPa) = 17.75521 20.87042 19.31282
#
# Velocity S-wave (km/s) = 3.25893 3.53328 3.39888
# Velocity P-wave (km/s) = 6.28488 6.73355 6.51308
#
# Compressibility (1/GPa) = 0.02360680
#
# Stress axis : x y z
#
# Youngs Moduli (GPa) = 50.17334 58.68196 39.05079
#
# Poissons Ratio (x) = 0.25738 0.25120
# Poissons Ratio (y) = 0.22006 0.33848
# Poissons Ratio (z) = 0.32275 0.50864
#
# Static dielectric constant tensor:
#      x y z
#    x 3.251840 0.000000 0.140390 
#    y 0.000000 2.950050 0.000000 
#    z 0.140390 0.000000 3.249600 
# 
# 
# High freq. dielectric constant tensor:
#      x y z
#    x 1.625210 0.000000 0.013380 
#    y 0.000000 1.616920 0.000000 
#    z 0.013380 0.000000 1.652670 
# 
# From -- ./inp_files/50950.got.cif
#   From: 2010.06.25/outbox.cif.g09.slc.cpg/sg15_26_cif.got.tgz:50950.got - 2010.06.28 07:06:18.
