data_PCOD8131349
_publ_section_title
;
Structure prediction by ZEFSAII (Michael W. Deem and Ramdas Pophale) SiO2 
 PCOD8131349
Probable space group: C 2/C
;
_chemical_formula_sum "Si O2"
_cell_formula_units_Z 52
_cell_length_a 19.472588
_cell_length_b 9.530524
_cell_length_c 13.474872
_cell_angle_alpha 90.000000
_cell_angle_beta 81.683520
_cell_angle_gamma 90.000000
_cell_volume 2474.423198
_symmetry_space_group_name_H-M "C 2/C"
_symmetry_group_IT_number 15
_symmetry_cell_setting 'monoclinic'
loop_
_space_group_symop_operation_xyz
x,y,z
-x,y,1/2-z
-x,-y,-z
x,-y,1/2+z
1/2+x,1/2+y,z
1/2-x,1/2+y,1/2-z
1/2-x,1/2-y,-z
1/2+x,1/2-y,1/2+z
loop_
_atom_site_type_symbol
_atom_site_label
_atom_site_fract_x
_atom_site_fract_y
_atom_site_fract_z
Si Si1 0.500000 0.447645 0.750000
Si Si2 0.441854 0.870005 0.108109
Si Si3 0.902840 0.441048 0.444809
Si Si4 0.596414 0.441573 0.890555
Si Si5 0.174341 0.444198 0.228291
Si Si6 0.284867 0.360452 0.777831
Si Si7 0.612751 0.367358 0.576356
O O1 0.548600 0.530608 0.820011
O O2 0.551927 0.353477 0.672114
O O3 0.516984 0.938510 0.106660
O O4 0.444082 0.704788 0.080748
O O5 0.399815 0.891165 0.217401
O O6 0.396258 0.952189 0.036243
O O7 0.847058 0.497538 0.376351
O O8 0.880148 0.282564 0.479081
O O9 0.671681 0.413722 0.827537
O O10 0.600410 0.517187 0.994959
O O11 0.209312 0.569469 0.282940
O O12 0.224826 0.307983 0.219055
O O13 0.318267 0.407576 0.875848
#
# Coordination Sequence:
#
# PCOD8131349 Si02
#       7
#     4   8   8   8   8   8   8
#     4  10  18  32  58  82 110 148 178 222 284 326
#     4  10  21  36  59  86 112 149 188 227 290 333
#     4  10  21  36  59  86 112 149 188 227 290 333
#     4  10  20  36  60  85 115 145 188 234 277 336
#     4  10  21  40  59  79 116 152 189 237 269 340
#     4   9  22  37  58  83 110 158 191 223 286 329
#     4  10  20  36  60  85 115 145 188 234 277 336
#
# _framework density 21.014999
#
# number of rings (size 3 to 8) (size 9 to 14) (size 15 to 20)
#    0.000    2.154    1.538    1.846    0.000    3.692 
#    0.000    7.692    0.000    0.000    0.000    0.000 
#    0.000    0.000    0.000    0.000    0.000    0.000 
#
# Total GULP energy -322125.659024 kJ/mol
# GULP energy per Si atom -12389.448424 kJ/mol
# Density = 2.096717 g / cm^3
# Si number density = 21.014999 Si / 1000 Ang^3
#
#
#
# Elastic Constant Matrix: (Units=GPa)
#
#
# Indices 1 2 3 4 5 6 
#
# 1 61.9934 25.4676 18.7938 0.0000 28.6536 0.0000
# 2 25.4676 60.5081 35.7485 0.0000 19.8668 0.0000
# 3 18.7938 35.7485 84.2852 0.0000 26.4055 0.0000
# 4 0.0000 0.0000 0.0000 33.3867 0.0000 8.6335
# 5 28.6536 19.8668 26.4055 0.0000 34.4485 0.0000
# 6 0.0000 0.0000 0.0000 8.6335 0.0000 27.6135
#
#
#
# Elastic Compliance Matrix: (Units=1/GPa)
#
#
# Indices 1 2 3 4 5 6 
#
# 1 0.028036 -0.006573 0.003494 0.000000 -0.022207 0.000000
# 2 -0.006573 0.025084 -0.008362 0.000000 -0.002589 0.000000
# 3 0.003494 -0.008362 0.018466 0.000000 -0.012238 0.000000
# 4 0.000000 0.000000 0.000000 0.032587 0.000000 -0.010188
# 5 -0.022207 -0.002589 -0.012238 0.000000 0.058374 0.000000
# 6 0.000000 0.000000 0.000000 -0.010188 0.000000 0.039400
#
#
# Mechanical properties :
#
#
# Convention : Reuss Voigt Hill
#
# Bulk Modulus (GPa) = 20.53271 40.75627 30.64449
# Shear Modulus (GPa) = 20.74140 27.54155 24.14147
#
# Velocity S-wave (km/s) = 3.14503 3.62410 3.39303
# Velocity P-wave (km/s) = 4.79375 6.07850 5.47395
#
# Compressibility (1/GPa) = 0.04870278
#
# Stress axis : x y z
#
# Youngs Moduli (GPa) = 35.66834 39.86646 54.15287
#
# Poissons Ratio (x) = 0.26204 -0.18919
# Poissons Ratio (y) = 0.23445 0.45284
# Poissons Ratio (z) = -0.12461 0.33337
#
# Static dielectric constant tensor:
#      x y z
#    x 3.763550 0.000000 0.232600 
#    y 0.000000 3.495800 0.000000 
#    z 0.232600 0.000000 3.821290 
# 
# 
# High freq. dielectric constant tensor:
#      x y z
#    x 1.827280 0.000000 0.017290 
#    y 0.000000 1.792320 0.000000 
#    z 0.017290 0.000000 1.825000 
# 
# From -- ./inp_files/166292.got.cif
#   From: 2010.06.25/outbox.cif.g09.slc.cpg/sg15_84_cif.got.tgz:166292.got - 2010.06.28 07:06:18.
