data_PCOD8131888
_publ_section_title
;
Structure prediction by ZEFSAII (Michael W. Deem and Ramdas Pophale) SiO2 
 PCOD8131888
Probable space group: C 2/C
;
_chemical_formula_sum "Si O2"
_cell_formula_units_Z 56
_cell_length_a 8.804933
_cell_length_b 13.640290
_cell_length_c 26.296159
_cell_angle_alpha 90.000000
_cell_angle_beta 124.992686
_cell_angle_gamma 90.000000
_cell_volume 2587.291189
_symmetry_space_group_name_H-M "C 2/C"
_symmetry_group_IT_number 15
_symmetry_cell_setting 'monoclinic'
loop_
_space_group_symop_operation_xyz
x,y,z
-x,y,1/2-z
-x,-y,-z
x,-y,1/2+z
1/2+x,1/2+y,z
1/2-x,1/2+y,1/2-z
1/2-x,1/2-y,-z
1/2+x,1/2-y,1/2+z
loop_
_atom_site_type_symbol
_atom_site_label
_atom_site_fract_x
_atom_site_fract_y
_atom_site_fract_z
Si Si1 0.510967 0.872589 0.086517
Si Si2 0.500000 0.395824 0.750000
Si Si3 0.101530 0.198544 0.165785
Si Si4 0.289376 0.386041 0.549106
Si Si5 0.518767 0.794401 0.578757
Si Si6 0.776786 0.880272 0.046155
Si Si7 0.606256 0.050211 0.167166
Si Si8 0.000000 0.390000 0.750000
O O1 0.555847 0.811996 0.146129
O O2 0.663126 0.843870 0.073573
O O3 0.519637 0.984394 0.106287
O O4 0.303705 0.856579 0.022987
O O5 0.490847 0.328556 0.798395
O O6 0.673995 0.468953 0.786516
O O7 0.319844 0.178360 0.209366
O O8 0.004408 0.143239 0.098388
O O9 0.182456 0.322565 0.571405
O O10 0.287883 0.503103 0.554591
O O11 0.332920 0.850510 0.525518
O O12 0.474618 0.677682 0.579035
O O13 0.574305 0.836509 0.644631
O O14 0.514458 0.037073 0.204731
#
# Coordination Sequence:
#
# PCOD8131888 Si02
#       8
#     8   4   8   8   8   8   8   4
#     4  11  21  37  66  93 130 165 209 276 336 392
#     4  10  22  40  66  82 120 182 216 268 320 378
#     4  11  23  42  62  91 130 168 215 268 329 391
#     4  11  20  41  63 100 130 169 210 276 333 407
#     4  10  18  34  65  91 129 161 218 261 322 397
#     4  10  19  34  64  98 125 170 204 259 336 399
#     4  11  20  42  62  90 125 169 223 272 320 395
#     4  10  26  42  60  86 128 174 222 272 314 390
#
# _framework density 21.644258000000001
#
# number of rings (size 3 to 8) (size 9 to 14) (size 15 to 20)
#    0.000    1.429    4.286    2.143    0.000    1.143 
#    2.571    6.429    0.000    0.000    0.000    0.000 
#    0.000    0.000    0.000    0.000    0.000    0.000 
#
# Total GULP energy -346924.338820 kJ/mol
# GULP energy per Si atom -12390.154958 kJ/mol
# Density = 2.159499 g / cm^3
# Si number density = 21.644258 Si / 1000 Ang^3
#
#
#
# Elastic Constant Matrix: (Units=GPa)
#
#
# Indices 1 2 3 4 5 6 
#
# 1 82.4291 36.9168 46.6043 0.0000 -1.3571 0.0000
# 2 36.9168 78.5537 23.6801 0.0000 4.1516 0.0000
# 3 46.6043 23.6801 124.5276 0.0000 4.2481 0.0000
# 4 0.0000 0.0000 0.0000 37.5430 0.0000 -2.4319
# 5 -1.3571 4.1516 4.2481 0.0000 34.9190 0.0000
# 6 0.0000 0.0000 0.0000 -2.4319 0.0000 25.3785
#
#
#
# Elastic Compliance Matrix: (Units=1/GPa)
#
#
# Indices 1 2 3 4 5 6 
#
# 1 0.018571 -0.007138 -0.005670 0.000000 0.002260 0.000000
# 2 -0.007138 0.016307 -0.000355 0.000000 -0.002173 0.000000
# 3 -0.005670 -0.000355 0.010269 0.000000 -0.001427 0.000000
# 4 0.000000 0.000000 0.000000 0.026803 0.000000 0.002568
# 5 0.002260 -0.002173 -0.001427 0.000000 0.029158 0.000000
# 6 0.000000 0.000000 0.000000 0.002568 0.000000 0.039650
#
#
# Mechanical properties :
#
#
# Convention : Reuss Voigt Hill
#
# Bulk Modulus (GPa) = 53.13527 55.54586 54.34056
# Shear Modulus (GPa) = 28.84229 31.45537 30.14883
#
# Velocity S-wave (km/s) = 3.65439 3.81634 3.73624
# Velocity P-wave (km/s) = 6.51220 6.71849 6.61615
#
# Compressibility (1/GPa) = 0.01881989
#
# Stress axis : x y z
#
# Youngs Moduli (GPa) = 53.84602 61.32467 97.38386
#
# Poissons Ratio (x) = 0.43773 0.55218
# Poissons Ratio (y) = 0.38435 0.03461
# Poissons Ratio (z) = 0.30531 0.02179
#
# Static dielectric constant tensor:
#      x y z
#    x 3.822940 0.000000 0.153360 
#    y 0.000000 3.743550 0.000000 
#    z 0.153360 0.000000 4.190590 
# 
# 
# High freq. dielectric constant tensor:
#      x y z
#    x 1.832700 0.000000 0.006040 
#    y 0.000000 1.831770 0.000000 
#    z 0.006040 0.000000 1.868050 
# 
# From -- ./inp_files/264837.got.cif
#   From: 2010.06.25/outbox.cif.g09.slc.cpg/sg15_133_cif.got.tgz:264837.got - 2010.06.28 07:06:18.
