data_PCOD8131054
_publ_section_title
;
Structure prediction by ZEFSAII (Michael W. Deem and Ramdas Pophale) SiO2 
 PCOD8131054
Probable space group: C 2/C
;
_chemical_formula_sum "Si O2"
_cell_formula_units_Z 48
_cell_length_a 20.916328
_cell_length_b 8.820182
_cell_length_c 29.953942
_cell_angle_alpha 90.000000
_cell_angle_beta 152.662287
_cell_angle_gamma 90.000000
_cell_volume 2537.764669
_symmetry_space_group_name_H-M "C 2/C"
_symmetry_group_IT_number 15
_symmetry_cell_setting 'monoclinic'
loop_
_space_group_symop_operation_xyz
x,y,z
-x,y,1/2-z
-x,-y,-z
x,-y,1/2+z
1/2+x,1/2+y,z
1/2-x,1/2+y,1/2-z
1/2-x,1/2-y,-z
1/2+x,1/2-y,1/2+z
loop_
_atom_site_type_symbol
_atom_site_label
_atom_site_fract_x
_atom_site_fract_y
_atom_site_fract_z
Si Si1 0.535601 0.802968 0.482233
Si Si2 0.836400 0.959907 0.401893
Si Si3 0.165631 0.917206 0.690285
Si Si4 0.370674 0.201961 0.200655
Si Si5 0.416561 0.725768 0.830377
Si Si6 0.119464 0.368084 0.022750
O O1 0.672422 0.711387 0.584404
O O2 0.457549 0.700810 0.397030
O O3 0.432363 0.827864 0.459691
O O4 0.583258 0.958205 0.488697
O O5 0.781694 0.976776 0.317939
O O6 0.744788 0.069063 0.376236
O O7 0.000000 0.000000 0.500000
O O8 0.299536 0.817281 0.786702
O O9 0.115312 0.044455 0.694309
O O10 0.500000 0.162375 0.250000
O O11 0.425850 0.218403 0.285325
O O12 0.287308 0.348459 0.129708
O O13 0.557165 0.758764 0.945416
#
# Coordination Sequence:
#
# PCOD8131054 Si02
#       6
#     8   8   8   8   8   8
#     4  10  18  33  59  87 118 144 185 248 301 333
#     4   9  15  34  57  80 108 147 190 238 281 333
#     4  10  18  31  51  90 116 143 193 253 290 334
#     4  11  24  40  57  84 121 160 197 234 296 358
#     4  11  21  33  60  85 118 151 195 248 292 346
#     4  11  20  35  56  87 117 149 189 240 293 347
#
# _framework density 18.914283999999999
#
# number of rings (size 3 to 8) (size 9 to 14) (size 15 to 20)
#    0.000    1.667    6.667    2.000    2.333    0.667 
#    0.000    0.833    0.000    2.000    0.000    0.000 
#    0.000    0.000    0.000    0.000    0.000    0.000 
#
# Total GULP energy -297325.889036 kJ/mol
# GULP energy per Si atom -12388.578710 kJ/mol
# Density = 1.887123 g / cm^3
# Si number density = 18.914284 Si / 1000 Ang^3
#
#
#
# Elastic Constant Matrix: (Units=GPa)
#
#
# Indices 1 2 3 4 5 6 
#
# 1 73.0409 31.8870 32.9225 0.0001 14.7102 0.0000
# 2 31.8870 101.8954 22.6838 0.0005 9.8057 0.0000
# 3 32.9225 22.6838 77.8630 0.0028 5.6002 0.0006
# 4 0.0001 0.0005 0.0028 34.4841 0.0006 -3.1982
# 5 14.7102 9.8057 5.6002 0.0006 24.2524 0.0001
# 6 0.0000 0.0000 0.0006 -3.1982 0.0001 15.1062
#
#
#
# Elastic Compliance Matrix: (Units=1/GPa)
#
#
# Indices 1 2 3 4 5 6 
#
# 1 0.020323 -0.003970 -0.006778 0.000001 -0.009157 0.000000
# 2 -0.003970 0.011588 -0.001559 0.000000 -0.001917 0.000000
# 3 -0.006778 -0.001559 0.016090 -0.000001 0.001026 -0.000001
# 4 0.000001 0.000000 -0.000001 0.029580 -0.000001 0.006263
# 5 -0.009157 -0.001917 0.001026 -0.000001 0.047325 -0.000001
# 6 0.000000 0.000000 -0.000001 0.006263 -0.000001 0.067524
#
#
# Mechanical properties :
#
#
# Convention : Reuss Voigt Hill
#
# Bulk Modulus (GPa) = 42.76061 47.53176 45.14618
# Shear Modulus (GPa) = 22.23806 25.78894 24.01350
#
# Velocity S-wave (km/s) = 3.43261 3.69652 3.56700
# Velocity P-wave (km/s) = 6.19411 6.58814 6.39416
#
# Compressibility (1/GPa) = 0.02338601
#
# Stress axis : x y z
#
# Youngs Moduli (GPa) = 49.20440 86.29642 62.15216
#
# Poissons Ratio (x) = 0.34258 0.42128
# Poissons Ratio (y) = 0.19533 0.09692
# Poissons Ratio (z) = 0.33351 0.13458
#
# Static dielectric constant tensor:
#      x y z
#    x 2.932160 0.000000 -0.126270 
#    y 0.000000 4.109510 0.000000 
#    z -0.126270 0.000000 3.538760 
# 
# 
# High freq. dielectric constant tensor:
#      x y z
#    x 1.667010 0.000000 -0.022130 
#    y 0.000000 1.748090 0.000000 
#    z -0.022130 0.000000 1.738170 
# 
# From -- ./inp_files/317308.got.cif
#   From: 2010.06.25/outbox.cif.g09.slc.cpg/sg15_159_cif.got.tgz:317308.got - 2010.06.28 07:06:18.
