data_PCOD8131754
_publ_section_title
;
Structure prediction by ZEFSAII (Michael W. Deem and Ramdas Pophale) SiO2 
 PCOD8131754
Probable space group: C 2/C
;
_chemical_formula_sum "Si O2"
_cell_formula_units_Z 48
_cell_length_a 8.614844
_cell_length_b 18.729754
_cell_length_c 14.357626
_cell_angle_alpha 90.000000
_cell_angle_beta 108.624649
_cell_angle_gamma 90.000000
_cell_volume 2195.338199
_symmetry_space_group_name_H-M "C 2/C"
_symmetry_group_IT_number 15
_symmetry_cell_setting 'monoclinic'
loop_
_space_group_symop_operation_xyz
x,y,z
-x,y,1/2-z
-x,-y,-z
x,-y,1/2+z
1/2+x,1/2+y,z
1/2-x,1/2+y,1/2-z
1/2-x,1/2-y,-z
1/2+x,1/2-y,1/2+z
loop_
_atom_site_type_symbol
_atom_site_label
_atom_site_fract_x
_atom_site_fract_y
_atom_site_fract_z
Si Si1 0.637877 0.648811 0.442225
Si Si2 0.776799 0.941145 0.198728
Si Si3 0.714790 0.729760 0.631688
Si Si4 0.500000 0.874957 0.250000
Si Si5 0.320242 0.988331 0.999038
Si Si6 0.107852 0.969124 0.605755
Si Si7 0.000000 0.186142 0.750000
O O1 0.613505 0.705822 0.520580
O O2 0.702787 0.692416 0.364860
O O3 0.777965 0.594620 0.505351
O O4 0.466402 0.608828 0.383449
O O5 0.585758 0.926934 0.189679
O O6 0.854526 0.865044 0.186509
O O7 0.795598 0.988874 0.110287
O O8 0.878270 0.979625 0.301556
O O9 0.577255 0.736316 0.685323
O O10 0.856486 0.672593 0.679284
O O11 0.500000 0.000000 0.000000
O O12 0.285788 0.033432 0.087879
O O13 0.000000 0.000000 0.500000
#
# Coordination Sequence:
#
# PCOD8131754 Si02
#       7
#     8   8   8   4   8   8   4
#     4  10  21  38  56  81 114 150 191 227 288 346
#     4  11  20  34  58  84 112 145 189 239 283 339
#     4  10  21  37  58  79 112 154 188 234 276 347
#     4  10  20  36  56  82 112 148 190 224 284 342
#     4  11  21  35  57  84 115 147 186 243 291 328
#     4  10  20  35  57  85 114 147 189 237 286 341
#     4  10  18  34  58  82 106 144 194 230 280 332
#
# _framework density 21.864512000000001
#
# number of rings (size 3 to 8) (size 9 to 14) (size 15 to 20)
#    0.000    1.667    0.000    9.000    0.000    1.333 
#    0.000    5.833    0.000   12.000    0.000    0.000 
#    0.000    0.000    0.000    0.000    0.000    0.000 
#
# Total GULP energy -297419.006136 kJ/mol
# GULP energy per Si atom -12392.458589 kJ/mol
# Density = 2.181475 g / cm^3
# Si number density = 21.864512 Si / 1000 Ang^3
#
#
#
# Elastic Constant Matrix: (Units=GPa)
#
#
# Indices 1 2 3 4 5 6 
#
# 1 113.9444 51.7104 27.7272 0.0000 -28.1874 0.0000
# 2 51.7104 106.7014 30.4301 0.0000 -27.6671 0.0000
# 3 27.7272 30.4301 86.4936 0.0000 -27.8000 0.0000
# 4 0.0000 0.0000 0.0000 28.0087 0.0000 -11.3721
# 5 -28.1874 -27.6671 -27.8000 0.0000 37.2557 0.0000
# 6 0.0000 0.0000 0.0000 -11.3721 0.0000 32.5638
#
#
#
# Elastic Compliance Matrix: (Units=1/GPa)
#
#
# Indices 1 2 3 4 5 6 
#
# 1 0.012275 -0.004316 -0.000607 0.000000 0.005629 0.000000
# 2 -0.004316 0.013324 -0.001544 0.000000 0.005478 0.000000
# 3 -0.000607 -0.001544 0.015501 0.000000 0.009961 0.000000
# 4 0.000000 0.000000 0.000000 0.041602 0.000000 0.014529
# 5 0.005629 0.005478 0.009961 0.000000 0.042601 0.000000
# 6 0.000000 0.000000 0.000000 0.014529 0.000000 0.035783
#
#
# Mechanical properties :
#
#
# Convention : Reuss Voigt Hill
#
# Bulk Modulus (GPa) = 35.50371 58.54164 47.02268
# Shear Modulus (GPa) = 27.26153 32.71707 29.98930
#
# Velocity S-wave (km/s) = 3.53489 3.87247 3.70753
# Velocity P-wave (km/s) = 5.73881 6.84307 6.31512
#
# Compressibility (1/GPa) = 0.02816607
#
# Stress axis : x y z
#
# Youngs Moduli (GPa) = 81.46483 75.05152 64.51267
#
# Poissons Ratio (x) = 0.32394 0.03918
# Poissons Ratio (y) = 0.35162 0.09958
# Poissons Ratio (z) = 0.04948 0.11584
#
# Static dielectric constant tensor:
#      x y z
#    x 4.673680 0.000000 -0.452640 
#    y 0.000000 3.879650 0.000000 
#    z -0.452640 0.000000 4.175620 
# 
# 
# High freq. dielectric constant tensor:
#      x y z
#    x 1.879970 0.000000 -0.019120 
#    y 0.000000 1.833280 0.000000 
#    z -0.019120 0.000000 1.852230 
# 
# From -- ./inp_files/135933.got.cif
#   From: 2010.06.25/outbox.cif.g09.slc.cpg/sg15_68_cif.got.tgz:135933.got - 2010.06.28 07:06:18.
