data_PCOD8131455
_publ_section_title
;
Structure prediction by ZEFSAII (Michael W. Deem and Ramdas Pophale) SiO2 
 PCOD8131455
Probable space group: C 2/C
;
_chemical_formula_sum "Si O2"
_cell_formula_units_Z 56
_cell_length_a 18.550416
_cell_length_b 12.610518
_cell_length_c 14.724895
_cell_angle_alpha 90.000000
_cell_angle_beta 53.305396
_cell_angle_gamma 90.000000
_cell_volume 2761.990175
_symmetry_space_group_name_H-M "C 2/C"
_symmetry_group_IT_number 15
_symmetry_cell_setting 'monoclinic'
loop_
_space_group_symop_operation_xyz
x,y,z
-x,y,1/2-z
-x,-y,-z
x,-y,1/2+z
1/2+x,1/2+y,z
1/2-x,1/2+y,1/2-z
1/2-x,1/2-y,-z
1/2+x,1/2-y,1/2+z
loop_
_atom_site_type_symbol
_atom_site_label
_atom_site_fract_x
_atom_site_fract_y
_atom_site_fract_z
Si Si1 0.515354 0.415668 0.364340
Si Si2 0.777824 0.427452 0.969567
Si Si3 0.627830 0.260785 0.025400
Si Si4 0.304921 0.497823 0.291953
Si Si5 0.114116 0.222267 0.323653
Si Si6 0.263942 0.897630 0.338342
Si Si7 0.433907 0.620910 0.469301
O O1 0.468738 0.306253 0.370511
O O2 0.608170 0.429294 0.240395
O O3 0.448277 0.515769 0.396603
O O4 0.540943 0.414346 0.449642
O O5 0.861615 0.352248 0.933466
O O6 0.756646 0.501215 0.072841
O O7 0.700637 0.347606 0.997751
O O8 0.802697 0.505998 0.869126
O O9 0.631860 0.245462 0.913914
O O10 0.336510 0.611897 0.233870
O O11 0.253424 0.439280 0.249625
O O12 0.158428 0.308885 0.223772
O O13 0.005879 0.212200 0.384828
O O14 0.172062 0.848172 0.453118
#
# Coordination Sequence:
#
# PCOD8131455 Si02
#       7
#     8   8   8   8   8   8   8
#     4   8  14  30  53  77 117 139 184 251 293 336
#     4  11  21  31  55  87 121 148 196 250 292 361
#     4  10  18  33  53  86 114 150 197 250 293 347
#     4  10  20  34  54  87 116 153 197 244 307 348
#     4  10  19  35  59  80 118 164 197 243 300 355
#     4  11  19  35  57  86 121 159 192 252 299 356
#     4   8  15  30  52  83 110 148 194 237 288 352
#
# _framework density 20.275236
#
# number of rings (size 3 to 8) (size 9 to 14) (size 15 to 20)
#    0.000    2.286    4.286    1.714    0.000    1.143 
#    0.000    0.000    0.000    0.857   14.857    0.000 
#    0.000    0.000    0.000    0.000    0.000    0.000 
#
# Total GULP energy -346890.678040 kJ/mol
# GULP energy per Si atom -12388.952787 kJ/mol
# Density = 2.022909 g / cm^3
# Si number density = 20.275236 Si / 1000 Ang^3
#
#
#
# Elastic Constant Matrix: (Units=GPa)
#
#
# Indices 1 2 3 4 5 6 
#
# 1 59.1587 47.2244 36.7799 0.0000 -1.2319 0.0000
# 2 47.2244 101.0562 43.7299 0.0000 -12.6699 0.0000
# 3 36.7799 43.7299 70.5433 0.0000 -0.3708 0.0000
# 4 0.0000 0.0000 0.0000 36.3901 0.0000 -5.3488
# 5 -1.2319 -12.6699 -0.3708 0.0000 11.7870 0.0000
# 6 0.0000 0.0000 0.0000 -5.3488 0.0000 23.5029
#
#
#
# Elastic Compliance Matrix: (Units=1/GPa)
#
#
# Indices 1 2 3 4 5 6 
#
# 1 0.032318 -0.012397 -0.009219 0.000000 -0.010238 0.000000
# 2 -0.012397 0.021198 -0.006565 0.000000 0.021284 0.000000
# 3 -0.009219 -0.006565 0.023014 0.000000 -0.007297 0.000000
# 4 0.000000 0.000000 0.000000 0.028431 0.000000 0.006470
# 5 -0.010238 0.021284 -0.007297 0.000000 0.106418 0.000000
# 6 0.000000 0.000000 0.000000 0.006470 0.000000 0.044020
#
#
# Mechanical properties :
#
#
# Convention : Reuss Voigt Hill
#
# Bulk Modulus (GPa) = 49.58450 54.02516 51.80483
# Shear Modulus (GPa) = 15.69938 21.20426 18.45182
#
# Velocity S-wave (km/s) = 2.78567 3.23742 3.02000
# Velocity P-wave (km/s) = 5.90384 6.37795 6.14547
#
# Compressibility (1/GPa) = 0.02016759
#
# Stress axis : x y z
#
# Youngs Moduli (GPa) = 30.94259 47.17426 43.45204
#
# Poissons Ratio (x) = 0.58480 0.40059
# Poissons Ratio (y) = 0.38358 0.28528
# Poissons Ratio (z) = 0.28526 0.30972
#
# Static dielectric constant tensor:
#      x y z
#    x 3.730740 0.000000 -0.126150 
#    y 0.000000 3.580060 0.000000 
#    z -0.126150 0.000000 3.761020 
# 
# 
# High freq. dielectric constant tensor:
#      x y z
#    x 1.776780 0.000000 0.011510 
#    y 0.000000 1.766900 0.000000 
#    z 0.011510 0.000000 1.787320 
# 
# From -- ./inp_files/161247.got.cif
#   From: 2010.06.25/outbox.cif.g09.slc.cpg/sg15_81_cif.got.tgz:161247.got - 2010.06.28 07:06:18.
