data_PCOD8131600
_publ_section_title
;
Structure prediction by ZEFSAII (Michael W. Deem and Ramdas Pophale) SiO2 
 PCOD8131600
Probable space group: C 2/C
;
_chemical_formula_sum "Si O2"
_cell_formula_units_Z 40
_cell_length_a 11.142298
_cell_length_b 19.858101
_cell_length_c 9.584540
_cell_angle_alpha 90.000000
_cell_angle_beta 111.267873
_cell_angle_gamma 90.000000
_cell_volume 1976.289806
_symmetry_space_group_name_H-M "C 2/C"
_symmetry_group_IT_number 15
_symmetry_cell_setting 'monoclinic'
loop_
_space_group_symop_operation_xyz
x,y,z
-x,y,1/2-z
-x,-y,-z
x,-y,1/2+z
1/2+x,1/2+y,z
1/2-x,1/2+y,1/2-z
1/2-x,1/2-y,-z
1/2+x,1/2-y,1/2+z
loop_
_atom_site_type_symbol
_atom_site_label
_atom_site_fract_x
_atom_site_fract_y
_atom_site_fract_z
Si Si1 0.581531 0.301805 0.016647
Si Si2 0.465679 0.175904 0.037866
Si Si3 0.789230 0.641078 0.213956
Si Si4 0.044439 0.938408 0.612059
Si Si5 0.150589 0.730756 0.771248
O O1 0.505462 0.253892 0.094599
O O2 0.731660 0.309313 0.110715
O O3 0.524589 0.375161 0.986993
O O4 0.562700 0.259757 0.862672
O O5 0.353591 0.149282 0.090099
O O6 0.598928 0.133751 0.120220
O O7 0.415748 0.173967 0.856911
O O8 0.699155 0.574430 0.176162
O O9 0.696439 0.704972 0.200972
O O10 0.000000 0.951382 0.750000
O O11 0.000000 0.000000 0.500000
#
# Coordination Sequence:
#
# PCOD8131600 Si02
#       5
#     8   8   8   8   8
#     4  10  20  35  59  95 125 158 197 249 313 370
#     4  10  19  34  61  94 123 154 191 256 318 365
#     4  10  21  36  58  90 129 157 202 251 312 367
#     4  12  25  44  62  84 125 170 212 251 296 370
#     4  10  18  33  61  91 129 154 189 253 318 372
#
# _framework density 20.239944999999999
#
# number of rings (size 3 to 8) (size 9 to 14) (size 15 to 20)
#    0.000    1.600    4.000    1.200    0.000    1.600 
#    3.600    0.000    0.000   10.800    0.000    0.000 
#    0.000    0.000    0.000    0.000    0.000    0.000 
#
# Total GULP energy -247790.789143 kJ/mol
# GULP energy per Si atom -12389.539457 kJ/mol
# Density = 2.019388 g / cm^3
# Si number density = 20.239945 Si / 1000 Ang^3
#
#
#
# Elastic Constant Matrix: (Units=GPa)
#
#
# Indices 1 2 3 4 5 6 
#
# 1 136.5849 54.0859 61.0364 0.0000 -1.4237 0.0000
# 2 54.0859 86.9985 46.4798 0.0000 4.7823 0.0000
# 3 61.0364 46.4798 115.8692 0.0000 20.0197 0.0000
# 4 0.0000 0.0000 0.0000 29.5827 0.0000 13.3768
# 5 -1.4237 4.7823 20.0197 0.0000 34.8677 0.0000
# 6 0.0000 0.0000 0.0000 13.3768 0.0000 22.5945
#
#
#
# Elastic Compliance Matrix: (Units=1/GPa)
#
#
# Indices 1 2 3 4 5 6 
#
# 1 0.011358 -0.004736 -0.004746 0.000000 0.003839 0.000000
# 2 -0.004736 0.016677 -0.004181 0.000000 -0.000080 0.000000
# 3 -0.004746 -0.004181 0.014146 0.000000 -0.007742 0.000000
# 4 0.000000 0.000000 0.000000 0.046161 0.000000 -0.027329
# 5 0.003839 -0.000080 -0.007742 0.000000 0.033293 0.000000
# 6 0.000000 0.000000 0.000000 -0.027329 0.000000 0.060438
#
#
# Mechanical properties :
#
#
# Convention : Reuss Voigt Hill
#
# Bulk Modulus (GPa) = 67.32567 73.62855 70.47711
# Shear Modulus (GPa) = 23.32615 29.26568 26.29591
#
# Velocity S-wave (km/s) = 3.39850 3.80667 3.60836
# Velocity P-wave (km/s) = 6.98110 7.46846 7.22889
#
# Compressibility (1/GPa) = 0.01485318
#
# Stress axis : x y z
#
# Youngs Moduli (GPa) = 88.04338 59.96219 70.69383
#
# Poissons Ratio (x) = 0.28400 0.33554
# Poissons Ratio (y) = 0.41701 0.29557
# Poissons Ratio (z) = 0.41788 0.25071
#
# Static dielectric constant tensor:
#      x y z
#    x 4.226620 0.000000 0.247920 
#    y 0.000000 3.204670 0.000000 
#    z 0.247920 0.000000 3.872380 
# 
# 
# High freq. dielectric constant tensor:
#      x y z
#    x 1.825650 0.000000 0.020640 
#    y 0.000000 1.720910 0.000000 
#    z 0.020640 0.000000 1.805680 
# 
# From -- ./inp_files/29320.got.cif
#   From: 2010.06.25/outbox.cif.g09.slc.cpg/sg15_15_cif.got.tgz:29320.got - 2010.06.28 07:06:18.
