data_PCOD8131944
_publ_section_title
;
Structure prediction by ZEFSAII (Michael W. Deem and Ramdas Pophale) SiO2 
 PCOD8131944
Probable space group: C 2/C
;
_chemical_formula_sum "Si O2"
_cell_formula_units_Z 56
_cell_length_a 15.491423
_cell_length_b 8.503522
_cell_length_c 24.985418
_cell_angle_alpha 90.000000
_cell_angle_beta 114.440908
_cell_angle_gamma 90.000000
_cell_volume 2996.425786
_symmetry_space_group_name_H-M "C 2/C"
_symmetry_group_IT_number 15
_symmetry_cell_setting 'monoclinic'
loop_
_space_group_symop_operation_xyz
x,y,z
-x,y,1/2-z
-x,-y,-z
x,-y,1/2+z
1/2+x,1/2+y,z
1/2-x,1/2+y,1/2-z
1/2-x,1/2-y,-z
1/2+x,1/2-y,1/2+z
loop_
_atom_site_type_symbol
_atom_site_label
_atom_site_fract_x
_atom_site_fract_y
_atom_site_fract_z
Si Si1 0.536007 0.734211 0.865719
Si Si2 0.718039 0.601703 0.858417
Si Si3 0.019765 0.543810 0.918619
Si Si4 0.943771 0.911235 0.440522
Si Si5 0.112873 0.190876 0.140972
Si Si6 0.862543 0.596632 0.454275
Si Si7 0.417188 0.499203 0.765844
O O1 0.641311 0.699088 0.872359
O O2 0.527317 0.923776 0.870118
O O3 0.522173 0.665407 0.921576
O O4 0.456975 0.658353 0.805663
O O5 0.798255 0.710555 0.854706
O O6 0.759933 0.467504 0.908990
O O7 0.672962 0.529678 0.793890
O O8 0.986628 0.714749 0.889289
O O9 0.939547 0.491710 0.938947
O O10 0.118179 0.559838 0.977626
O O11 0.871551 0.783135 0.446437
O O12 0.881119 0.036516 0.393521
O O13 0.000000 0.000000 0.500000
O O14 0.118256 0.135759 0.203522
O O15 0.500000 0.428984 0.750000
#
# Coordination Sequence:
#
# PCOD8131944 Si02
#       7
#     8   8   8   8   8   8   8
#     4   9  20  36  57  76 108 150 183 221 280 333
#     4  10  21  37  55  83 111 143 187 231 280 324
#     4   9  17  33  53  81 106 143 182 217 275 333
#     4  10  18  35  56  78 110 151 183 214 279 339
#     4  10  20  34  59  82 106 141 188 232 271 329
#     4   9  18  32  54  78 113 144 176 223 271 332
#     4   9  20  40  57  73 107 149 180 220 278 331
#
# _framework density 18.688934
#
# number of rings (size 3 to 8) (size 9 to 14) (size 15 to 20)
#    0.000    2.571    1.429    0.000    2.000    5.143 
#    0.000    8.571    0.000    0.000    0.000    0.000 
#    0.000    0.000    0.000    0.000    0.000    0.000 
#
# Total GULP energy -347010.325059 kJ/mol
# GULP energy per Si atom -12393.225895 kJ/mol
# Density = 1.864640 g / cm^3
# Si number density = 18.688934 Si / 1000 Ang^3
#
#
#
# Elastic Constant Matrix: (Units=GPa)
#
#
# Indices 1 2 3 4 5 6 
#
# 1 68.3097 30.4345 35.2953 0.0000 7.1680 0.0000
# 2 30.4345 101.4673 40.8145 0.0000 10.7028 0.0000
# 3 35.2953 40.8145 106.5348 0.0000 14.7855 0.0000
# 4 0.0000 0.0000 0.0000 22.5611 0.0000 -8.8859
# 5 7.1680 10.7028 14.7855 0.0000 22.6817 0.0000
# 6 0.0000 0.0000 0.0000 -8.8859 0.0000 21.0523
#
#
#
# Elastic Compliance Matrix: (Units=1/GPa)
#
#
# Indices 1 2 3 4 5 6 
#
# 1 0.018796 -0.003634 -0.004671 0.000000 -0.001180 0.000000
# 2 -0.003634 0.012523 -0.003225 0.000000 -0.002659 0.000000
# 3 -0.004671 -0.003225 0.012923 0.000000 -0.005426 0.000000
# 4 0.000000 0.000000 0.000000 0.053162 0.000000 0.022439
# 5 -0.001180 -0.002659 -0.005426 0.000000 0.049253 0.000000
# 6 0.000000 0.000000 0.000000 0.022439 0.000000 0.056972
#
#
# Mechanical properties :
#
#
# Convention : Reuss Voigt Hill
#
# Bulk Modulus (GPa) = 47.21105 54.37781 50.79443
# Shear Modulus (GPa) = 21.39052 24.57685 22.98369
#
# Velocity S-wave (km/s) = 3.38680 3.63029 3.51066
# Velocity P-wave (km/s) = 6.37261 6.83604 6.60839
#
# Compressibility (1/GPa) = 0.02118148
#
# Stress axis : x y z
#
# Youngs Moduli (GPa) = 53.20354 79.85304 77.38407
#
# Poissons Ratio (x) = 0.29021 0.36146
# Poissons Ratio (y) = 0.19336 0.24954
# Poissons Ratio (z) = 0.24851 0.25750
#
# Static dielectric constant tensor:
#      x y z
#    x 3.221490 0.000000 0.040280 
#    y 0.000000 3.672530 0.000000 
#    z 0.040280 0.000000 3.524250 
# 
# 
# High freq. dielectric constant tensor:
#      x y z
#    x 1.701890 0.000000 -0.005060 
#    y 0.000000 1.726570 0.000000 
#    z -0.005060 0.000000 1.733880 
# 
# From -- ./inp_files/247036.got.cif
#   From: 2010.06.25/outbox.cif.g09.slc.cpg/sg15_124_cif.got.tgz:247036.got - 2010.06.28 07:06:18.
