data_PCOD8131309
_publ_section_title
;
Structure prediction by ZEFSAII (Michael W. Deem and Ramdas Pophale) SiO2 
 PCOD8131309
Probable space group: C 2/C
;
_chemical_formula_sum "Si O2"
_cell_formula_units_Z 60
_cell_length_a 12.029748
_cell_length_b 13.631143
_cell_length_c 25.774903
_cell_angle_alpha 90.000000
_cell_angle_beta 130.666263
_cell_angle_gamma 90.000000
_cell_volume 3205.913752
_symmetry_space_group_name_H-M "C 2/C"
_symmetry_group_IT_number 15
_symmetry_cell_setting 'monoclinic'
loop_
_space_group_symop_operation_xyz
x,y,z
-x,y,1/2-z
-x,-y,-z
x,-y,1/2+z
1/2+x,1/2+y,z
1/2-x,1/2+y,1/2-z
1/2-x,1/2-y,-z
1/2+x,1/2-y,1/2+z
loop_
_atom_site_type_symbol
_atom_site_label
_atom_site_fract_x
_atom_site_fract_y
_atom_site_fract_z
Si Si1 0.509348 0.497977 0.171390
Si Si2 0.700126 0.467173 0.534134
Si Si3 0.001732 0.385190 0.636974
Si Si4 0.971442 0.105577 0.424139
Si Si5 0.500000 0.811711 0.750000
Si Si6 0.886632 0.178635 0.579718
Si Si7 0.292689 0.791705 0.379322
Si Si8 0.256244 0.497944 0.169284
O O1 0.554369 0.579764 0.143548
O O2 0.501151 0.390949 0.143606
O O3 0.351046 0.526953 0.147471
O O4 0.634766 0.486543 0.250502
O O5 0.875748 0.467690 0.590147
O O6 0.636130 0.569437 0.490749
O O7 0.642024 0.454987 0.574950
O O8 0.651451 0.370895 0.486708
O O9 0.031911 0.376077 0.708056
O O10 0.961080 0.283997 0.596126
O O11 0.143503 0.417378 0.648504
O O12 0.934995 0.221177 0.417607
O O13 0.355274 0.748027 0.693639
O O14 0.739700 0.193307 0.569432
O O15 0.331202 0.896006 0.365560
#
# Coordination Sequence:
#
# PCOD8131309 Si02
#       8
#     8   8   8   8   4   8   8   8
#     4   9  19  36  54  79 103 145 173 217 265 324
#     4  10  20  34  56  84 104 138 179 228 265 312
#     4  11  20  32  56  85 106 135 178 233 261 313
#     4  10  19  34  58  75 108 142 180 214 270 317
#     4  10  18  32  56  82 104 130 186 226 268 300
#     4   9  18  34  57  79 103 132 189 223 257 299
#     4  10  18  33  55  80 103 144 176 224 261 318
#     4  10  20  33  55  78 111 135 179 216 267 315
#
# _framework density 18.715413000000002
#
# number of rings (size 3 to 8) (size 9 to 14) (size 15 to 20)
#    0.000    2.133    2.667    3.600    0.000    0.000 
#    0.000    6.667    8.800    1.600    0.000    0.000 
#    0.000    0.000    0.000    0.000    0.000    0.000 
#
# Total GULP energy -371762.905945 kJ/mol
# GULP energy per Si atom -12392.096865 kJ/mol
# Density = 1.867282 g / cm^3
# Si number density = 18.715413 Si / 1000 Ang^3
#
#
#
# Elastic Constant Matrix: (Units=GPa)
#
#
# Indices 1 2 3 4 5 6 
#
# 1 87.4279 52.7394 35.3685 0.0000 -7.9129 0.0000
# 2 52.7394 80.8495 16.3044 0.0000 -8.1065 0.0000
# 3 35.3685 16.3044 52.6954 0.0000 -7.5712 0.0000
# 4 0.0000 0.0000 0.0000 -5.9055 0.0000 -4.8746
# 5 -7.9129 -8.1065 -7.5712 0.0000 25.0190 0.0000
# 6 0.0000 0.0000 0.0000 -4.8746 0.0000 36.0039
#
#
#
# Elastic Compliance Matrix: (Units=1/GPa)
#
#
# Indices 1 2 3 4 5 6 
#
# 1 0.024607 -0.013595 -0.012362 0.000000 -0.000363 0.000000
# 2 -0.013595 0.020949 0.003137 0.000000 0.003437 0.000000
# 3 -0.012362 0.003137 0.027064 0.000000 0.005297 0.000000
# 4 0.000000 0.000000 0.000000 -0.152311 0.000000 -0.020622
# 5 -0.000363 0.003437 0.005297 0.000000 0.042571 0.000000
# 6 0.000000 0.000000 0.000000 -0.020622 0.000000 0.024983
#
#
# Mechanical properties :
#
#
# Convention : Reuss Voigt Hill
#
# Bulk Modulus (GPa) = 37.06344 47.75527 42.40936
# Shear Modulus (GPa) = 117.65687 18.79417 68.22552
#
# Velocity S-wave (km/s) = 7.93743 3.17236 6.04428
# Velocity P-wave (km/s) = 10.19070 6.24423 8.45106
#
# Compressibility (1/GPa) = 0.02698077
#
# Stress axis : x y z
#
# Youngs Moduli (GPa) = 40.63891 47.73511 36.94878
#
# Poissons Ratio (x) = 0.64896 0.45675
# Poissons Ratio (y) = 0.55249 -0.11590
# Poissons Ratio (z) = 0.50237 -0.14974
#
# Static dielectric constant tensor:
#      x y z
#    x 3.521040 0.000000 -0.133580 
#    y 0.000000 3.377030 0.000000 
#    z -0.133580 0.000000 3.623220 
# 
# 
# High freq. dielectric constant tensor:
#      x y z
#    x 1.714670 0.000000 -0.017730 
#    y 0.000000 1.707770 0.000000 
#    z -0.017730 0.000000 1.732330 
# 
# From -- ./inp_files/292717.got.cif
#   From: 2010.06.25/outbox.cif.g09.slc.cpg/sg15_147_cif.got.tgz:292717.got - 2010.06.28 07:06:18.
