data_PCOD8131450
_publ_section_title
;
Structure prediction by ZEFSAII (Michael W. Deem and Ramdas Pophale) SiO2 
 PCOD8131450
Probable space group: C 2/C
;
_chemical_formula_sum "Si O2"
_cell_formula_units_Z 60
_cell_length_a 13.738773
_cell_length_b 26.330488
_cell_length_c 9.331197
_cell_angle_alpha 90.000000
_cell_angle_beta 76.502443
_cell_angle_gamma 90.000000
_cell_volume 3282.314381
_symmetry_space_group_name_H-M "C 2/C"
_symmetry_group_IT_number 15
_symmetry_cell_setting 'monoclinic'
loop_
_space_group_symop_operation_xyz
x,y,z
-x,y,1/2-z
-x,-y,-z
x,-y,1/2+z
1/2+x,1/2+y,z
1/2-x,1/2+y,1/2-z
1/2-x,1/2-y,-z
1/2+x,1/2-y,1/2+z
loop_
_atom_site_type_symbol
_atom_site_label
_atom_site_fract_x
_atom_site_fract_y
_atom_site_fract_z
Si Si1 0.246082 0.546063 0.710110
Si Si2 0.898266 0.038703 0.196861
Si Si3 0.544396 0.383843 0.019199
Si Si4 0.309377 0.301490 0.988569
Si Si5 0.500000 0.674517 0.250000
Si Si6 0.730699 0.092601 0.417728
Si Si7 0.931426 0.474365 0.641005
Si Si8 0.649460 0.639761 0.758696
O O1 0.346973 0.515653 0.710260
O O2 0.236248 0.553014 0.545238
O O3 0.149286 0.517548 0.798370
O O4 0.255437 0.601761 0.781267
O O5 0.824730 0.081290 0.286231
O O6 0.000000 0.035090 0.250000
O O7 0.917601 0.058761 0.026195
O O8 0.433980 0.390145 0.120067
O O9 0.612082 0.350915 0.108531
O O10 0.546292 0.358252 0.862386
O O11 0.409610 0.293877 0.856773
O O12 0.239562 0.348252 0.959155
O O13 0.250000 0.250000 0.000000
O O14 0.331119 0.309675 0.152835
O O15 0.623718 0.078735 0.381880
O O16 0.000000 0.459493 0.750000
O O17 0.000000 0.500000 0.500000
#
# Coordination Sequence:
#
# PCOD8131450 Si02
#       8
#     8   8   8   8   4   8   8   8
#     4  10  22  33  51  81 117 150 199 229 281 346
#     4  11  20  29  51  82 120 156 183 220 277 349
#     4  10  18  33  53  80 118 157 175 220 287 350
#     4  10  20  40  64  84 113 149 196 246 300 354
#     4  10  18  38  60  82 116 156 180 232 308 350
#     4  10  21  37  57  86 109 153 199 234 293 358
#     4  11  22  39  58  77 111 161 194 244 293 340
#     4   9  21  34  53  83 116 148 186 235 283 347
#
# _framework density 18.279786000000001
#
# number of rings (size 3 to 8) (size 9 to 14) (size 15 to 20)
#    0.000    1.867    3.333    1.600    5.600    1.067 
#    0.000    3.333    5.867    0.000    0.000    0.000 
#    0.000    0.000    0.000    0.000    0.000    0.000 
#
# Total GULP energy -371671.048296 kJ/mol
# GULP energy per Si atom -12389.034943 kJ/mol
# Density = 1.823818 g / cm^3
# Si number density = 18.279786 Si / 1000 Ang^3
#
#
#
# Elastic Constant Matrix: (Units=GPa)
#
#
# Indices 1 2 3 4 5 6 
#
# 1 122.3257 53.4244 49.2668 0.0000 10.8427 0.0000
# 2 53.4244 91.4685 40.1854 0.0000 0.0207 0.0000
# 3 49.2668 40.1854 104.2207 0.0000 18.8652 0.0000
# 4 0.0000 0.0000 0.0000 16.3698 0.0000 -4.6190
# 5 10.8427 0.0207 18.8652 0.0000 35.2907 0.0000
# 6 0.0000 0.0000 0.0000 -4.6190 0.0000 119.7951
#
#
#
# Elastic Compliance Matrix: (Units=1/GPa)
#
#
# Indices 1 2 3 4 5 6 
#
# 1 0.012112 -0.005682 -0.003168 0.000000 -0.002024 0.000000
# 2 -0.005682 0.016120 -0.004256 0.000000 0.004011 0.000000
# 3 -0.003168 -0.004256 0.013902 0.000000 -0.006456 0.000000
# 4 0.000000 0.000000 0.000000 0.061760 0.000000 0.002381
# 5 -0.002024 0.004011 -0.006456 0.000000 0.032407 0.000000
# 6 0.000000 0.000000 0.000000 0.002381 0.000000 0.008439
#
#
# Mechanical properties :
#
#
# Convention : Reuss Voigt Hill
#
# Bulk Modulus (GPa) = 62.80434 67.08535 64.94485
# Shear Modulus (GPa) = 28.36729 45.96701 37.16715
#
# Velocity S-wave (km/s) = 3.94361 5.02006 4.51404
# Velocity P-wave (km/s) = 7.42751 8.38929 7.92301
#
# Compressibility (1/GPa) = 0.01592247
#
# Stress axis : x y z
#
# Youngs Moduli (GPa) = 82.56412 62.03424 71.93099
#
# Poissons Ratio (x) = 0.35247 0.22789
# Poissons Ratio (y) = 0.46911 0.30612
# Poissons Ratio (z) = 0.26158 0.26400
#
# Static dielectric constant tensor:
#      x y z
#    x 3.479550 0.000000 0.107590 
#    y 0.000000 3.012120 0.000000 
#    z 0.107590 0.000000 3.684790 
# 
# 
# High freq. dielectric constant tensor:
#      x y z
#    x 1.707590 0.000000 0.004510 
#    y 0.000000 1.668490 0.000000 
#    z 0.004510 0.000000 1.721590 
# 
# From -- ./inp_files/42179.got.cif
#   From: 2010.06.25/outbox.cif.g09.slc.cpg/sg15_22_cif.got.tgz:42179.got - 2010.06.28 07:06:18.
