data_PCOD8131414
_publ_section_title
;
Structure prediction by ZEFSAII (Michael W. Deem and Ramdas Pophale) SiO2 
 PCOD8131414
Probable space group: C 2/C
;
_chemical_formula_sum "Si O2"
_cell_formula_units_Z 52
_cell_length_a 23.040176
_cell_length_b 27.289957
_cell_length_c 9.697972
_cell_angle_alpha 90.000000
_cell_angle_beta 29.361280
_cell_angle_gamma 90.000000
_cell_volume 2989.817264
_symmetry_space_group_name_H-M "C 2/C"
_symmetry_group_IT_number 15
_symmetry_cell_setting 'monoclinic'
loop_
_space_group_symop_operation_xyz
x,y,z
-x,y,1/2-z
-x,-y,-z
x,-y,1/2+z
1/2+x,1/2+y,z
1/2-x,1/2+y,1/2-z
1/2-x,1/2-y,-z
1/2+x,1/2-y,1/2+z
loop_
_atom_site_type_symbol
_atom_site_label
_atom_site_fract_x
_atom_site_fract_y
_atom_site_fract_z
Si Si1 0.138259 0.454276 0.617789
Si Si2 0.878953 0.345951 0.789535
Si Si3 0.347098 0.144032 0.842604
Si Si4 0.324180 0.215476 0.666970
Si Si5 0.856690 0.459033 0.201931
Si Si6 0.252563 0.309134 0.693484
Si Si7 0.000000 0.211748 0.750000
O O1 0.174798 0.400683 0.595604
O O2 0.191232 0.462976 0.355090
O O3 0.191590 0.494770 0.611025
O O4 0.997543 0.458432 0.906172
O O5 0.801270 0.313817 0.846043
O O6 0.013797 0.347351 0.460961
O O7 0.870309 0.323406 0.958857
O O8 0.276691 0.184528 0.895440
O O9 0.308758 0.090086 0.874125
O O10 0.308777 0.151100 0.079813
O O11 0.227995 0.253199 0.799212
O O12 0.432784 0.250611 0.494525
O O13 0.396196 0.319528 0.389608
#
# Coordination Sequence:
#
# PCOD8131414 Si02
#       7
#     8   8   8   8   8   8   4
#     4   9  18  29  45  67 101 131 152 182 230 292
#     4  11  18  31  49  74  99 130 157 194 241 288
#     4  11  18  31  49  74  99 130 157 194 241 288
#     4  10  18  33  50  66  98 134 164 190 244 287
#     4   9  18  29  45  67 101 131 152 182 230 292
#     4  10  21  30  48  70  97 126 169 204 227 281
#     4   8  20  34  48  62  94 138 168 192 246 268
#
# _framework density 17.392367
#
# number of rings (size 3 to 8) (size 9 to 14) (size 15 to 20)
#    0.923    1.231    3.077    1.385    2.154    0.000 
#    0.000    0.000    0.000    0.000    0.000    1.077 
#    0.000    0.000    0.000    0.000    0.000    0.000 
#
# Total GULP energy -322090.375757 kJ/mol
# GULP energy per Si atom -12388.091375 kJ/mol
# Density = 1.735278 g / cm^3
# Si number density = 17.392367 Si / 1000 Ang^3
#
#
#
# Elastic Constant Matrix: (Units=GPa)
#
#
# Indices 1 2 3 4 5 6 
#
# 1 69.1546 29.7460 13.8995 0.0001 7.5031 -0.0001
# 2 29.7460 100.1394 18.5709 0.0000 4.5831 0.0000
# 3 13.8995 18.5709 33.8155 0.0010 11.0889 0.0003
# 4 0.0001 0.0000 0.0010 13.3746 -0.0003 7.9829
# 5 7.5031 4.5831 11.0889 -0.0003 18.6219 -0.0001
# 6 -0.0001 0.0000 0.0003 7.9829 -0.0001 27.1347
#
#
#
# Elastic Compliance Matrix: (Units=1/GPa)
#
#
# Indices 1 2 3 4 5 6 
#
# 1 0.017461 -0.004358 -0.003515 0.000000 -0.003870 0.000000
# 2 -0.004358 0.012225 -0.005606 0.000001 0.002086 0.000000
# 3 -0.003515 -0.005606 0.041230 -0.000004 -0.021756 0.000001
# 4 0.000000 0.000001 -0.000004 0.090695 0.000003 -0.026682
# 5 -0.003870 0.002086 -0.021756 0.000003 0.067701 -0.000001
# 6 0.000000 0.000000 0.000001 -0.026682 -0.000001 0.044703
#
#
# Mechanical properties :
#
#
# Convention : Reuss Voigt Hill
#
# Bulk Modulus (GPa) = 22.74908 36.39358 29.57133
# Shear Modulus (GPa) = 15.84154 21.21910 18.53032
#
# Velocity S-wave (km/s) = 3.02128 3.49667 3.26763
# Velocity P-wave (km/s) = 5.02783 6.10514 5.59249
#
# Compressibility (1/GPa) = 0.04395782
#
# Stress axis : x y z
#
# Youngs Moduli (GPa) = 57.27003 81.80107 24.25409
#
# Poissons Ratio (x) = 0.35647 0.08525
# Poissons Ratio (y) = 0.24957 0.13598
# Poissons Ratio (z) = 0.20131 0.45860
#
# Static dielectric constant tensor:
#      x y z
#    x 3.075220 0.000000 0.222080 
#    y 0.000000 3.393850 0.000000 
#    z 0.222080 0.000000 2.873930 
# 
# 
# High freq. dielectric constant tensor:
#      x y z
#    x 1.651360 0.000000 0.032080 
#    y 0.000000 1.678260 0.000000 
#    z 0.032080 0.000000 1.627100 
# 
# From -- ./inp_files/59220.got.cif
#   From: 2010.06.25/outbox.cif.g09.slc.cpg/sg15_30_cif.got.tgz:59220.got - 2010.06.28 07:06:18.
