data_PCOD8131786
_publ_section_title
;
Structure prediction by ZEFSAII (Michael W. Deem and Ramdas Pophale) SiO2 
 PCOD8131786
Probable space group: C 2/C
;
_chemical_formula_sum "Si O2"
_cell_formula_units_Z 60
_cell_length_a 11.266542
_cell_length_b 15.703846
_cell_length_c 16.179440
_cell_angle_alpha 90.000000
_cell_angle_beta 90.281995
_cell_angle_gamma 90.000000
_cell_volume 2862.561945
_symmetry_space_group_name_H-M "C 2/C"
_symmetry_group_IT_number 15
_symmetry_cell_setting 'monoclinic'
loop_
_space_group_symop_operation_xyz
x,y,z
-x,y,1/2-z
-x,-y,-z
x,-y,1/2+z
1/2+x,1/2+y,z
1/2-x,1/2+y,1/2-z
1/2-x,1/2-y,-z
1/2+x,1/2-y,1/2+z
loop_
_atom_site_type_symbol
_atom_site_label
_atom_site_fract_x
_atom_site_fract_y
_atom_site_fract_z
Si Si1 0.246052 0.474971 0.707938
Si Si2 0.308895 0.003721 0.967117
Si Si3 0.007282 0.773009 0.609870
Si Si4 0.632471 0.346083 0.284704
Si Si5 0.330699 0.668551 0.520787
Si Si6 0.043678 0.594135 0.919281
Si Si7 0.000000 0.537042 0.750000
Si Si8 0.317469 0.292495 0.742155
O O1 0.265983 0.463841 0.608974
O O2 0.310757 0.561868 0.737441
O O3 0.105242 0.476995 0.720085
O O4 0.289368 0.392293 0.758300
O O5 0.243216 0.085162 0.003632
O O6 0.439511 0.028256 0.936683
O O7 0.331268 0.934282 0.039254
O O8 0.054596 0.837891 0.539802
O O9 0.104754 0.759057 0.681603
O O10 0.991973 0.688463 0.553942
O O11 0.883512 0.795463 0.653399
O O12 0.500000 0.344040 0.250000
O O13 0.631912 0.330836 0.383266
O O14 0.703871 0.269887 0.238854
O O15 0.250000 0.750000 0.500000
O O16 0.056893 0.598121 0.819926
#
# Coordination Sequence:
#
# PCOD8131786 Si02
#       8
#     8   8   8   8   8   8   4   8
#     4  10  23  43  63  96 134 171 221 275 331 405
#     4   9  20  36  59  90 128 163 211 276 326 386
#     4  11  22  39  66  93 128 177 227 270 331 403
#     4  11  25  44  69 102 140 175 222 283 341 397
#     4  11  20  41  67  95 131 180 226 267 334 412
#     4  10  18  34  58  91 122 159 211 275 325 381
#     4  10  20  34  64  92 122 162 220 272 330 386
#     4  11  24  42  66  96 135 179 227 273 341 401
#
# _framework density 20.960243999999999
#
# number of rings (size 3 to 8) (size 9 to 14) (size 15 to 20)
#    0.000    1.600    2.667    3.200    4.667    1.067 
#    0.000    6.667    0.000    0.000    0.000    0.000 
#    0.000    0.000    0.000    0.000    0.000    0.000 
#
# Total GULP energy -371771.818181 kJ/mol
# GULP energy per Si atom -12392.393939 kJ/mol
# Density = 2.091254 g / cm^3
# Si number density = 20.960244 Si / 1000 Ang^3
#
#
#
# Elastic Constant Matrix: (Units=GPa)
#
#
# Indices 1 2 3 4 5 6 
#
# 1 116.1594 59.4224 51.7069 0.0000 -2.8114 0.0000
# 2 59.4224 136.6559 38.0795 0.0000 10.5299 0.0000
# 3 51.7069 38.0795 95.6376 0.0000 -5.0481 0.0000
# 4 0.0000 0.0000 0.0000 24.6809 0.0000 2.3683
# 5 -2.8114 10.5299 -5.0481 0.0000 32.5393 0.0000
# 6 0.0000 0.0000 0.0000 2.3683 0.0000 31.4282
#
#
#
# Elastic Compliance Matrix: (Units=1/GPa)
#
#
# Indices 1 2 3 4 5 6 
#
# 1 0.013289 -0.004429 -0.005329 0.000000 0.001755 0.000000
# 2 -0.004429 0.010051 -0.001814 0.000000 -0.003917 0.000000
# 3 -0.005329 -0.001814 0.014182 0.000000 0.002327 0.000000
# 4 0.000000 0.000000 0.000000 0.040812 0.000000 -0.003075
# 5 0.001755 -0.003917 0.002327 0.000000 0.032512 0.000000
# 6 0.000000 0.000000 0.000000 -0.003075 0.000000 0.032050
#
#
# Mechanical properties :
#
#
# Convention : Reuss Voigt Hill
#
# Bulk Modulus (GPa) = 69.54752 71.87450 70.71101
# Shear Modulus (GPa) = 29.26839 31.01262 30.14051
#
# Velocity S-wave (km/s) = 3.74087 3.85072 3.79619
# Velocity P-wave (km/s) = 7.20496 7.35772 7.28174
#
# Compressibility (1/GPa) = 0.01437866
#
# Stress axis : x y z
#
# Youngs Moduli (GPa) = 75.25058 99.49527 70.51056
#
# Poissons Ratio (x) = 0.44064 0.37573
# Poissons Ratio (y) = 0.33327 0.12792
# Poissons Ratio (z) = 0.40099 0.18050
#
# Static dielectric constant tensor:
#      x y z
#    x 3.705320 0.000000 -0.040770 
#    y 0.000000 3.702280 0.000000 
#    z -0.040770 0.000000 4.106270 
# 
# 
# High freq. dielectric constant tensor:
#      x y z
#    x 1.806470 0.000000 -0.005590 
#    y 0.000000 1.815180 0.000000 
#    z -0.005590 0.000000 1.822480 
# 
# From -- ./inp_files/197821.got.cif
#   From: 2010.06.25/outbox.cif.g09.slc.cpg/sg15_99_cif.got.tgz:197821.got - 2010.06.28 07:06:18.
