data_PCOD8131971
_publ_section_title
;
Structure prediction by ZEFSAII (Michael W. Deem and Ramdas Pophale) SiO2 
 PCOD8131971
Probable space group: C 2/C
;
_chemical_formula_sum "Si O2"
_cell_formula_units_Z 64
_cell_length_a 20.496107
_cell_length_b 26.991383
_cell_length_c 10.566820
_cell_angle_alpha 90.000000
_cell_angle_beta 148.512497
_cell_angle_gamma 90.000000
_cell_volume 3053.312901
_symmetry_space_group_name_H-M "C 2/C"
_symmetry_group_IT_number 15
_symmetry_cell_setting 'monoclinic'
loop_
_space_group_symop_operation_xyz
x,y,z
-x,y,1/2-z
-x,-y,-z
x,-y,1/2+z
1/2+x,1/2+y,z
1/2-x,1/2+y,1/2-z
1/2-x,1/2-y,-z
1/2+x,1/2-y,1/2+z
loop_
_atom_site_type_symbol
_atom_site_label
_atom_site_fract_x
_atom_site_fract_y
_atom_site_fract_z
Si Si1 0.170781 0.606516 0.405978
Si Si2 0.578553 0.807264 0.224564
Si Si3 0.869352 0.308658 0.476323
Si Si4 0.250617 0.545843 0.233453
Si Si5 0.686949 0.775321 0.652341
Si Si6 0.997424 0.410267 0.402574
Si Si7 0.641537 0.362591 0.480204
Si Si8 0.304689 0.004350 0.607068
O O1 0.152023 0.635458 0.506227
O O2 0.304936 0.622919 0.570205
O O3 0.153423 0.547352 0.388046
O O4 0.060599 0.619804 0.124964
O O5 0.640007 0.808314 0.189600
O O6 0.658966 0.773785 0.454908
O O7 0.577455 0.863778 0.281835
O O8 0.441352 0.783015 0.984426
O O9 0.753629 0.273243 0.322055
O O10 0.000000 0.288224 0.750000
O O11 0.351158 0.588158 0.422369
O O12 0.260045 0.505433 0.363783
O O13 0.285714 0.525442 0.152672
O O14 0.107075 0.567679 0.992222
O O15 0.779573 0.820254 0.825795
O O16 0.916503 0.456887 0.315723
O O17 0.500000 0.344461 0.250000
#
# Coordination Sequence:
#
# PCOD8131971 Si02
#       8
#     8   8   8   8   8   8   8   8
#     4  10  22  39  55  96 125 156 210 260 309 375
#     4  11  23  41  62  90 127 159 205 267 320 373
#     4  12  24  39  62  88 127 166 205 257 320 366
#     4  10  20  35  54  92 120 162 203 254 315 383
#     4  11  23  40  61  89 121 160 215 263 309 378
#     4  10  18  35  57  86 124 155 190 251 320 376
#     4  10  20  40  63  86 118 164 216 256 304 373
#     4  10  21  33  59  90 128 160 201 251 326 383
#
# _framework density 20.960840000000001
#
# number of rings (size 3 to 8) (size 9 to 14) (size 15 to 20)
#    0.000    1.750    3.750    3.375    3.500    4.000 
#    0.000    2.500    0.000    0.000    3.250    0.000 
#    0.000    0.000    0.000    0.000    0.000    0.000 
#
# Total GULP energy -396442.258412 kJ/mol
# GULP energy per Si atom -12388.820575 kJ/mol
# Density = 2.091313 g / cm^3
# Si number density = 20.960840 Si / 1000 Ang^3
#
#
#
# Elastic Constant Matrix: (Units=GPa)
#
#
# Indices 1 2 3 4 5 6 
#
# 1 70.5585 12.5240 15.7252 0.0000 -11.5908 0.0000
# 2 12.5240 80.4416 26.6817 0.0000 -1.6151 0.0000
# 3 15.7252 26.6817 77.2356 0.0000 4.8797 0.0000
# 4 0.0000 0.0000 0.0000 31.9824 0.0000 -4.6452
# 5 -11.5908 -1.6151 4.8797 0.0000 27.5178 0.0000
# 6 0.0000 0.0000 0.0000 -4.6452 0.0000 22.3312
#
#
#
# Elastic Compliance Matrix: (Units=1/GPa)
#
#
# Indices 1 2 3 4 5 6 
#
# 1 0.016367 -0.001286 -0.003356 0.000000 0.007414 0.000000
# 2 -0.001286 0.014221 -0.004722 0.000000 0.001130 0.000000
# 3 -0.003356 -0.004722 0.015543 0.000000 -0.004447 0.000000
# 4 0.000000 0.000000 0.000000 0.032241 0.000000 0.006707
# 5 0.007414 0.001130 -0.004447 0.000000 0.040318 0.000000
# 6 0.000000 0.000000 0.000000 0.006707 0.000000 0.046175
#
#
# Mechanical properties :
#
#
# Convention : Reuss Voigt Hill
#
# Bulk Modulus (GPa) = 36.49478 37.56639 37.03059
# Shear Modulus (GPa) = 25.94332 27.91994 26.93163
#
# Velocity S-wave (km/s) = 3.52192 3.65362 3.58838
# Velocity P-wave (km/s) = 5.82986 5.97994 5.90538
#
# Compressibility (1/GPa) = 0.02740118
#
# Stress axis : x y z
#
# Youngs Moduli (GPa) = 61.09943 70.32047 64.33743
#
# Poissons Ratio (x) = 0.09043 0.21594
# Poissons Ratio (y) = 0.07858 0.30381
# Poissons Ratio (z) = 0.20507 0.33207
#
# Static dielectric constant tensor:
#      x y z
#    x 3.673630 0.000000 -0.189570 
#    y 0.000000 3.930560 0.000000 
#    z -0.189570 0.000000 3.761220 
# 
# 
# High freq. dielectric constant tensor:
#      x y z
#    x 1.807830 0.000000 -0.025320 
#    y 0.000000 1.829060 0.000000 
#    z -0.025320 0.000000 1.800400 
# 
# From -- ./inp_files/115014.got.cif
#   From: 2010.06.25/outbox.cif.g09.slc.cpg/sg15_58_cif.got.tgz:115014.got - 2010.06.28 07:06:18.
