data_PCOD8131785
_publ_section_title
;
Structure prediction by ZEFSAII (Michael W. Deem and Ramdas Pophale) SiO2 
 PCOD8131785
Probable space group: C 2/C
;
_chemical_formula_sum "Si O2"
_cell_formula_units_Z 52
_cell_length_a 21.153747
_cell_length_b 7.109755
_cell_length_c 14.536194
_cell_angle_alpha 90.000000
_cell_angle_beta 78.178517
_cell_angle_gamma 90.000000
_cell_volume 2139.845714
_symmetry_space_group_name_H-M "C 2/C"
_symmetry_group_IT_number 15
_symmetry_cell_setting 'monoclinic'
loop_
_space_group_symop_operation_xyz
x,y,z
-x,y,1/2-z
-x,-y,-z
x,-y,1/2+z
1/2+x,1/2+y,z
1/2-x,1/2+y,1/2-z
1/2-x,1/2-y,-z
1/2+x,1/2-y,1/2+z
loop_
_atom_site_type_symbol
_atom_site_label
_atom_site_fract_x
_atom_site_fract_y
_atom_site_fract_z
Si Si1 0.000000 0.800162 0.750000
Si Si2 0.572222 0.335714 0.042926
Si Si3 0.463461 0.769768 0.453574
Si Si4 0.293412 0.447528 0.560459
Si Si5 0.758018 0.918061 0.368682
Si Si6 0.647985 0.815756 0.886138
Si Si7 0.397033 0.389832 0.266963
O O1 0.978697 0.668827 0.843333
O O2 0.941641 0.931546 0.730719
O O3 0.546238 0.546860 0.047609
O O4 0.579591 0.280704 0.148125
O O5 0.523746 0.190400 0.005268
O O6 0.640899 0.328160 0.972678
O O7 0.397728 0.865043 0.512144
O O8 0.248026 0.309309 0.633808
O O9 0.260293 0.492011 0.472878
O O10 0.304221 0.641080 0.609562
O O11 0.824181 0.971710 0.297815
O O12 0.694703 0.014259 0.342864
O O13 0.599760 0.759221 0.817428
#
# Coordination Sequence:
#
# PCOD8131785 Si02
#       7
#     4   8   8   8   8   8   8
#     4  10  18  34  58  90 118 152 214 262 304 360
#     4   8  15  32  55  82 115 158 199 242 302 350
#     4   9  17  31  57  88 115 156 209 252 300 363
#     4   9  19  37  58  77 116 161 198 248 304 344
#     4  10  22  37  55  87 118 160 202 243 302 367
#     4  11  21  35  59  88 121 157 200 247 302 361
#     4  10  20  32  55  88 121 158 205 249 296 369
#
# _framework density 24.300819000000001
#
# number of rings (size 3 to 8) (size 9 to 14) (size 15 to 20)
#    0.000    2.462    0.000    5.077    2.154    0.000 
#    0.000    0.769    0.000    0.000    0.000   17.231 
#    0.000    0.000    0.000    0.000    0.000    0.000 
#
# Total GULP energy -322350.415030 kJ/mol
# GULP energy per Si atom -12398.092886 kJ/mol
# Density = 2.424551 g / cm^3
# Si number density = 24.300819 Si / 1000 Ang^3
#
#
#
# Elastic Constant Matrix: (Units=GPa)
#
#
# Indices 1 2 3 4 5 6 
#
# 1 101.1953 9.1449 42.7949 0.0000 -9.2438 0.0000
# 2 9.1449 20.9673 9.7963 0.0000 -7.2423 0.0000
# 3 42.7949 9.7963 119.5866 0.0000 -3.7394 0.0000
# 4 0.0000 0.0000 0.0000 12.9663 0.0000 0.2628
# 5 -9.2438 -7.2423 -3.7394 0.0000 43.7762 0.0000
# 6 0.0000 0.0000 0.0000 0.2628 0.0000 28.4881
#
#
#
# Elastic Compliance Matrix: (Units=1/GPa)
#
#
# Indices 1 2 3 4 5 6 
#
# 1 0.011984 -0.002756 -0.004009 0.000000 0.001732 0.000000
# 2 -0.002756 0.053091 -0.003115 0.000000 0.007935 0.000000
# 3 -0.004009 -0.003115 0.010036 0.000000 -0.000505 0.000000
# 4 0.000000 0.000000 0.000000 0.077138 0.000000 -0.000712
# 5 0.001732 0.007935 -0.000505 0.000000 0.024479 0.000000
# 6 0.000000 0.000000 0.000000 -0.000712 0.000000 0.035109
#
#
# Mechanical properties :
#
#
# Convention : Reuss Voigt Hill
#
# Bulk Modulus (GPa) = 18.06575 40.58015 29.32295
# Shear Modulus (GPa) = 19.99620 29.04699 24.52159
#
# Velocity S-wave (km/s) = 2.87167 3.46107 3.18006
# Velocity P-wave (km/s) = 4.29484 5.71904 5.05732
#
# Compressibility (1/GPa) = 0.05535336
#
# Stress axis : x y z
#
# Youngs Moduli (GPa) = 83.44145 18.83541 99.64020
#
# Poissons Ratio (x) = 0.05190 0.39944
# Poissons Ratio (y) = 0.22994 0.31037
# Poissons Ratio (z) = 0.33450 0.05867
#
# Static dielectric constant tensor:
#      x y z
#    x 4.593380 0.000000 0.088800 
#    y 0.000000 3.652670 0.000000 
#    z 0.088800 0.000000 4.627430 
# 
# 
# High freq. dielectric constant tensor:
#      x y z
#    x 1.976140 0.000000 -0.002140 
#    y 0.000000 1.915040 0.000000 
#    z -0.002140 0.000000 1.965780 
# 
# From -- ./inp_files/166231.got.cif
#   From: 2010.06.25/outbox.cif.g09.slc.cpg/sg15_84_cif.got.tgz:166231.got - 2010.06.28 07:06:18.
