data_PCOD8131912
_publ_section_title
;
Structure prediction by ZEFSAII (Michael W. Deem and Ramdas Pophale) SiO2 
 PCOD8131912
Probable space group: C 2/C
;
_chemical_formula_sum "Si O2"
_cell_formula_units_Z 36
_cell_length_a 14.145576
_cell_length_b 21.213894
_cell_length_c 5.272496
_cell_angle_alpha 90.000000
_cell_angle_beta 84.709422
_cell_angle_gamma 90.000000
_cell_volume 1575.444791
_symmetry_space_group_name_H-M "C 2/C"
_symmetry_group_IT_number 15
_symmetry_cell_setting 'monoclinic'
loop_
_space_group_symop_operation_xyz
x,y,z
-x,y,1/2-z
-x,-y,-z
x,-y,1/2+z
1/2+x,1/2+y,z
1/2-x,1/2+y,1/2-z
1/2-x,1/2-y,-z
1/2+x,1/2-y,1/2+z
loop_
_atom_site_type_symbol
_atom_site_label
_atom_site_fract_x
_atom_site_fract_y
_atom_site_fract_z
Si Si1 0.172629 0.038510 0.630420
Si Si2 0.103570 0.768009 0.677654
Si Si3 0.893951 0.538723 0.585736
Si Si4 0.891299 0.822383 0.321757
Si Si5 0.500000 0.851860 0.250000
O O1 0.283462 0.054934 0.602553
O O2 0.115331 0.103181 0.640653
O O3 0.143339 0.999999 0.387676
O O4 0.160499 0.799010 0.426592
O O5 0.000000 0.801422 0.750000
O O6 0.085725 0.693188 0.627484
O O7 0.156684 0.784666 0.929823
O O8 0.921314 0.508502 0.853351
O O9 0.952958 0.603860 0.544955
O O10 0.000000 0.800955 0.250000
#
# Coordination Sequence:
#
# PCOD8131912 Si02
#       5
#     8   8   8   8   4
#     4  10  21  36  54  79 111 141 177 220 267 314
#     4   8  19  31  53  76 106 137 175 221 254 306
#     4  10  22  37  56  83 110 138 175 223 264 318
#     4  10  18  35  53  76 110 139 176 222 259 308
#     4  10  20  38  60  80 106 144 178 214 274 320
#
# _framework density 22.850691000000001
#
# number of rings (size 3 to 8) (size 9 to 14) (size 15 to 20)
#    0.667    1.778    0.000    2.000    0.000    4.444 
#    0.000    2.222    0.000    0.000    0.000    0.000 
#    0.000    0.000    0.000    0.000    0.000    0.000 
#
# Total GULP energy -223014.821589 kJ/mol
# GULP energy per Si atom -12389.712310 kJ/mol
# Density = 2.279868 g / cm^3
# Si number density = 22.850691 Si / 1000 Ang^3
#
#
#
# Elastic Constant Matrix: (Units=GPa)
#
#
# Indices 1 2 3 4 5 6 
#
# 1 12.4706 21.4514 19.7860 0.0000 -1.9796 0.0000
# 2 21.4514 110.8927 44.5430 0.0000 4.6824 0.0000
# 3 19.7860 44.5430 190.9046 0.0000 8.0154 0.0000
# 4 0.0000 0.0000 0.0000 19.9742 0.0000 16.3335
# 5 -1.9796 4.6824 8.0154 0.0000 14.4197 0.0000
# 6 0.0000 0.0000 0.0000 16.3335 0.0000 2.4753
#
#
#
# Elastic Compliance Matrix: (Units=1/GPa)
#
#
# Indices 1 2 3 4 5 6 
#
# 1 0.146392 -0.025482 -0.010667 0.000000 0.034302 0.000000
# 2 -0.025482 0.014442 -0.000394 0.000000 -0.007969 0.000000
# 3 -0.010667 -0.000394 0.006647 0.000000 -0.005031 0.000000
# 4 0.000000 0.000000 0.000000 -0.011389 0.000000 0.075151
# 5 0.034302 -0.007969 -0.005031 0.000000 0.079443 0.000000
# 6 0.000000 0.000000 0.000000 0.075151 0.000000 -0.091902
#
#
# Mechanical properties :
#
#
# Convention : Reuss Voigt Hill
#
# Bulk Modulus (GPa) = 10.59389 53.98098 32.28744
# Shear Modulus (GPa) = 20.14643 22.60635 21.37639
#
# Velocity S-wave (km/s) = 2.97249 3.14874 3.06188
# Velocity P-wave (km/s) = 4.05304 6.07405 5.16339
#
# Compressibility (1/GPa) = 0.09439400
#
# Stress axis : x y z
#
# Youngs Moduli (GPa) = 6.83099 69.24344 150.44434
#
# Poissons Ratio (x) = 1.76447 1.60481
# Poissons Ratio (y) = 0.17407 0.05928
# Poissons Ratio (z) = 0.07287 0.02728
#
# Static dielectric constant tensor:
#      x y z
#    x 3.768750 0.000000 0.144730 
#    y 0.000000 3.825000 0.000000 
#    z 0.144730 0.000000 4.600040 
# 
# 
# High freq. dielectric constant tensor:
#      x y z
#    x 1.873340 0.000000 0.009400 
#    y 0.000000 1.895850 0.000000 
#    z 0.009400 0.000000 1.912780 
# 
# From -- ./inp_files/6888.got.cif
#   From: 2010.06.25/outbox.cif.g09.slc.cpg/sg15_4_cif.got.tgz:6888.got - 2010.06.28 07:06:18.
