data_PCOD8131881
_publ_section_title
;
Structure prediction by ZEFSAII (Michael W. Deem and Ramdas Pophale) SiO2 
 PCOD8131881
Probable space group: C 2/C
;
_chemical_formula_sum "Si O2"
_cell_formula_units_Z 44
_cell_length_a 9.941750
_cell_length_b 13.767650
_cell_length_c 17.302906
_cell_angle_alpha 90.000000
_cell_angle_beta 129.605790
_cell_angle_gamma 90.000000
_cell_volume 1824.674908
_symmetry_space_group_name_H-M "C 2/C"
_symmetry_group_IT_number 15
_symmetry_cell_setting 'monoclinic'
loop_
_space_group_symop_operation_xyz
x,y,z
-x,y,1/2-z
-x,-y,-z
x,-y,1/2+z
1/2+x,1/2+y,z
1/2-x,1/2+y,1/2-z
1/2-x,1/2-y,-z
1/2+x,1/2-y,1/2+z
loop_
_atom_site_type_symbol
_atom_site_label
_atom_site_fract_x
_atom_site_fract_y
_atom_site_fract_z
Si Si1 0.670575 0.725481 0.052294
Si Si2 0.299446 0.655536 0.172844
Si Si3 0.036183 0.405630 0.464692
Si Si4 0.500000 0.253856 0.250000
Si Si5 0.382198 0.012380 0.275234
Si Si6 0.370825 0.349916 0.355071
O O1 0.603558 0.823146 0.067699
O O2 0.827670 0.687190 0.165853
O O3 0.750000 0.750000 0.000000
O O4 0.513180 0.649624 0.977976
O O5 0.500000 0.624186 0.250000
O O6 0.180352 0.599251 0.192115
O O7 0.277230 0.769382 0.181131
O O8 0.229671 0.631438 0.060378
O O9 0.010407 0.435055 0.366018
O O10 0.000000 0.500000 0.500000
O O11 0.464805 0.325147 0.308820
O O12 0.500000 0.056761 0.250000
O O13 0.214103 0.955788 0.180709
#
# Coordination Sequence:
#
# PCOD8131881 Si02
#       6
#     8   8   8   4   8   8
#     4   9  18  33  58  95 118 162 210 258 301 386
#     4  10  23  42  64  90 126 169 216 260 323 385
#     4   9  19  39  60  86 124 165 205 261 320 368
#     4  10  18  34  64  92 122 162 208 254 312 370
#     4  11  23  41  65  94 129 168 214 268 319 378
#     4  10  21  37  62  92 128 163 214 256 324 373
#
# _framework density 24.113883999999999
#
# number of rings (size 3 to 8) (size 9 to 14) (size 15 to 20)
#    0.000    2.182    1.818    0.545    2.545    1.455 
#    3.273    3.636    0.000    0.000    0.000    0.000 
#    0.000    0.000    0.000    0.000    0.000    0.000 
#
# Total GULP energy -272600.637388 kJ/mol
# GULP energy per Si atom -12390.938063 kJ/mol
# Density = 2.405900 g / cm^3
# Si number density = 24.113884 Si / 1000 Ang^3
#
#
#
# Elastic Constant Matrix: (Units=GPa)
#
#
# Indices 1 2 3 4 5 6 
#
# 1 93.0632 0.4087 46.1470 0.0000 13.4838 0.0000
# 2 0.4087 58.6885 20.6917 0.0000 16.4494 0.0000
# 3 46.1470 20.6917 168.2646 0.0000 41.0804 0.0000
# 4 0.0000 0.0000 0.0000 30.4987 0.0000 2.8295
# 5 13.4838 16.4494 41.0804 0.0000 41.6855 0.0000
# 6 0.0000 0.0000 0.0000 2.8295 0.0000 17.5609
#
#
#
# Elastic Compliance Matrix: (Units=1/GPa)
#
#
# Indices 1 2 3 4 5 6 
#
# 1 0.012571 0.001465 -0.003284 0.000000 -0.001408 0.000000
# 2 0.001465 0.019387 -0.001057 0.000000 -0.007083 0.000000
# 3 -0.003284 -0.001057 0.008707 0.000000 -0.007102 0.000000
# 4 0.000000 0.000000 0.000000 0.033286 0.000000 -0.005363
# 5 -0.001408 -0.007083 -0.007102 0.000000 0.034238 0.000000
# 6 0.000000 0.000000 0.000000 -0.005363 0.000000 0.057809
#
#
# Mechanical properties :
#
#
# Convention : Reuss Voigt Hill
#
# Bulk Modulus (GPa) = 28.64174 50.50122 39.57148
# Shear Modulus (GPa) = 27.26461 34.80029 31.03245
#
# Velocity S-wave (km/s) = 3.36618 3.80302 3.59125
# Velocity P-wave (km/s) = 5.19728 6.34604 5.80017
#
# Compressibility (1/GPa) = 0.03491408
#
# Stress axis : x y z
#
# Youngs Moduli (GPa) = 79.54525 51.58200 114.84358
#
# Poissons Ratio (x) = -0.07557 0.37716
# Poissons Ratio (y) = -0.11653 0.12134
# Poissons Ratio (z) = 0.26124 0.05450
#
# Static dielectric constant tensor:
#      x y z
#    x 4.075450 0.000000 0.214840 
#    y 0.000000 4.053330 0.000000 
#    z 0.214840 0.000000 5.918720 
# 
# 
# High freq. dielectric constant tensor:
#      x y z
#    x 1.934320 0.000000 0.010040 
#    y 0.000000 1.943710 0.000000 
#    z 0.010040 0.000000 1.985360 
# 
# From -- ./inp_files/198088.got.cif
#   From: 2010.06.25/outbox.cif.g09.slc.cpg/sg15_100_cif.got.tgz:198088.got - 2010.06.28 07:06:18.
