data_PCOD8131732
_publ_section_title
;
Structure prediction by ZEFSAII (Michael W. Deem and Ramdas Pophale) SiO2 
 PCOD8131732
Probable space group: C 2/C
;
_chemical_formula_sum "Si O2"
_cell_formula_units_Z 56
_cell_length_a 15.571119
_cell_length_b 19.578440
_cell_length_c 9.564218
_cell_angle_alpha 90.000000
_cell_angle_beta 105.393428
_cell_angle_gamma 90.000000
_cell_volume 2811.131137
_symmetry_space_group_name_H-M "C 2/C"
_symmetry_group_IT_number 15
_symmetry_cell_setting 'monoclinic'
loop_
_space_group_symop_operation_xyz
x,y,z
-x,y,1/2-z
-x,-y,-z
x,-y,1/2+z
1/2+x,1/2+y,z
1/2-x,1/2+y,1/2-z
1/2-x,1/2-y,-z
1/2+x,1/2-y,1/2+z
loop_
_atom_site_type_symbol
_atom_site_label
_atom_site_fract_x
_atom_site_fract_y
_atom_site_fract_z
Si Si1 0.296293 0.504833 0.647314
Si Si2 0.744710 0.729954 0.337504
Si Si3 0.977988 0.664107 0.902627
Si Si4 0.088089 0.955858 0.561302
Si Si5 0.443980 0.687552 0.357194
Si Si6 0.157168 0.392830 0.538303
Si Si7 0.211723 0.631278 0.743399
O O1 0.372463 0.465289 0.765928
O O2 0.334640 0.520408 0.511028
O O3 0.201828 0.464228 0.603128
O O4 0.278340 0.575542 0.715803
O O5 0.750000 0.750000 0.500000
O O6 0.647444 0.707890 0.253030
O O7 0.809689 0.666180 0.340543
O O8 0.766614 0.797314 0.254827
O O9 0.984055 0.744488 0.952714
O O10 0.879578 0.633630 0.887101
O O11 0.000000 0.666099 0.750000
O O12 0.049575 0.612952 0.007027
O O13 0.064639 0.875118 0.536107
O O14 0.000000 0.000000 0.500000
O O15 0.500000 0.660776 0.250000
O O16 0.187753 0.380382 0.393987
#
# Coordination Sequence:
#
# PCOD8131732 Si02
#       7
#     8   8   8   8   8   8   8
#     4  12  23  40  60  88 123 163 202 249 314 368
#     4   9  17  30  56  87 113 153 198 251 293 350
#     4   8  17  33  57  88 115 153 201 257 298 349
#     4  12  26  40  58  87 124 164 202 251 311 369
#     4  10  18  34  57  85 117 152 205 257 303 351
#     4  10  18  34  59  86 119 153 206 242 299 361
#     4   9  19  35  56  88 118 151 203 252 297 359
#
# _framework density 19.920808000000001
#
# number of rings (size 3 to 8) (size 9 to 14) (size 15 to 20)
#    0.000    2.000    2.857    3.857    0.000    1.714 
#    0.000    2.857    0.000    0.000    0.000    0.000 
#    0.000    0.000    0.000    0.000    0.000    0.000 
#
# Total GULP energy -346902.907107 kJ/mol
# GULP energy per Si atom -12389.389540 kJ/mol
# Density = 1.987547 g / cm^3
# Si number density = 19.920808 Si / 1000 Ang^3
#
#
#
# Elastic Constant Matrix: (Units=GPa)
#
#
# Indices 1 2 3 4 5 6 
#
# 1 55.2885 37.6349 18.3830 0.0000 15.4048 0.0000
# 2 37.6349 121.3906 27.8136 0.0000 14.2062 0.0000
# 3 18.3830 27.8136 48.6549 0.0000 13.9330 0.0000
# 4 0.0000 0.0000 0.0000 26.7647 0.0000 4.1576
# 5 15.4048 14.2062 13.9330 0.0000 21.6321 0.0000
# 6 0.0000 0.0000 0.0000 4.1576 0.0000 36.0073
#
#
#
# Elastic Compliance Matrix: (Units=1/GPa)
#
#
# Indices 1 2 3 4 5 6 
#
# 1 0.026918 -0.006135 -0.002854 0.000000 -0.013302 0.000000
# 2 -0.006135 0.011080 -0.003903 0.000000 -0.000394 0.000000
# 3 -0.002854 -0.003903 0.027646 0.000000 -0.013210 0.000000
# 4 0.000000 0.000000 0.000000 0.038045 0.000000 -0.004393
# 5 -0.013302 -0.000394 -0.013210 0.000000 0.064467 0.000000
# 6 0.000000 0.000000 0.000000 -0.004393 0.000000 0.028279
#
#
# Mechanical properties :
#
#
# Convention : Reuss Voigt Hill
#
# Bulk Modulus (GPa) = 25.08831 43.66634 34.37732
# Shear Modulus (GPa) = 21.23079 26.31432 23.77256
#
# Velocity S-wave (km/s) = 3.26814 3.63843 3.45824
# Velocity P-wave (km/s) = 5.18289 6.29432 5.76545
#
# Compressibility (1/GPa) = 0.03985921
#
# Stress axis : x y z
#
# Youngs Moduli (GPa) = 37.14960 90.25022 36.17211
#
# Poissons Ratio (x) = 0.55367 0.10324
# Poissons Ratio (y) = 0.22791 0.14120
# Poissons Ratio (z) = 0.10603 0.35229
#
# Static dielectric constant tensor:
#      x y z
#    x 3.644550 0.000000 0.402400 
#    y 0.000000 4.162690 0.000000 
#    z 0.402400 0.000000 3.402000 
# 
# 
# High freq. dielectric constant tensor:
#      x y z
#    x 1.762330 0.000000 0.035030 
#    y 0.000000 1.792620 0.000000 
#    z 0.035030 0.000000 1.739440 
# 
# From -- ./inp_files/49116.got.cif
#   From: 2010.06.25/outbox.cif.g09.slc.cpg/sg15_25_cif.got.tgz:49116.got - 2010.06.28 07:06:18.
