data_PCOD8131949
_publ_section_title
;
Structure prediction by ZEFSAII (Michael W. Deem and Ramdas Pophale) SiO2 
 PCOD8131949
Probable space group: C 2/C
;
_chemical_formula_sum "Si O2"
_cell_formula_units_Z 60
_cell_length_a 26.812537
_cell_length_b 9.161576
_cell_length_c 25.771066
_cell_angle_alpha 90.000000
_cell_angle_beta 28.132781
_cell_angle_gamma 90.000000
_cell_volume 2984.952169
_symmetry_space_group_name_H-M "C 2/C"
_symmetry_group_IT_number 15
_symmetry_cell_setting 'monoclinic'
loop_
_space_group_symop_operation_xyz
x,y,z
-x,y,1/2-z
-x,-y,-z
x,-y,1/2+z
1/2+x,1/2+y,z
1/2-x,1/2+y,1/2-z
1/2-x,1/2-y,-z
1/2+x,1/2-y,1/2+z
loop_
_atom_site_type_symbol
_atom_site_label
_atom_site_fract_x
_atom_site_fract_y
_atom_site_fract_z
Si Si1 0.273002 0.317699 0.138157
Si Si2 0.556730 0.228899 0.448361
Si Si3 0.762455 0.990219 0.354649
Si Si4 0.819713 0.565366 0.342914
Si Si5 0.641528 0.779561 0.532501
Si Si6 0.000000 0.602382 0.250000
Si Si7 0.565755 0.297332 0.328360
Si Si8 0.156376 0.586233 0.847988
O O1 0.396443 0.299126 0.041321
O O2 0.249617 0.429838 0.113572
O O3 0.222629 0.372209 0.237304
O O4 0.232015 0.163101 0.154710
O O5 0.579604 0.327222 0.376996
O O6 0.432729 0.210566 0.569661
O O7 0.609512 0.074266 0.386798
O O8 0.686803 0.936778 0.471247
O O9 0.882902 0.932142 0.250859
O O10 0.723411 0.904951 0.339006
O O11 0.739517 0.668039 0.449068
O O12 0.917578 0.509924 0.290018
O O13 0.873325 0.649727 0.245690
O O14 0.576056 0.795325 0.645635
O O15 0.559420 0.714420 0.566148
#
# Coordination Sequence:
#
# PCOD8131949 Si02
#       8
#     8   8   8   8   8   4   8   8
#     4  11  22  35  56  87 127 161 200 236 291 354
#     4  10  19  31  53  79 117 167 201 226 281 334
#     4  10  21  34  56  86 124 158 197 239 290 349
#     4  10  22  39  63  87 116 151 201 250 298 353
#     4  10  21  39  63  90 115 147 199 250 305 351
#     4  10  22  42  72  86 104 150 204 262 306 350
#     4  10  18  35  56  83 118 159 194 240 285 340
#     4  10  19  33  52  80 121 168 197 231 268 354
#
# _framework density 20.100825
#
# number of rings (size 3 to 8) (size 9 to 14) (size 15 to 20)
#    0.000    1.867    4.000    0.400    0.000    1.067 
#    0.000    2.000    0.000    8.000    0.000    0.000 
#    0.000    0.000    0.000    0.000    0.000    0.000 
#
# Total GULP energy -371736.012626 kJ/mol
# GULP energy per Si atom -12391.200421 kJ/mol
# Density = 2.005507 g / cm^3
# Si number density = 20.100825 Si / 1000 Ang^3
#
#
#
# Elastic Constant Matrix: (Units=GPa)
#
#
# Indices 1 2 3 4 5 6 
#
# 1 86.1868 34.7874 20.6547 0.0130 -2.3973 -0.0043
# 2 34.7874 68.3376 11.3254 -0.0023 -4.8559 -0.0090
# 3 20.6547 11.3254 68.6864 -0.0031 -2.3849 0.0004
# 4 0.0130 -0.0023 -0.0031 14.1863 -0.0039 -3.9759
# 5 -2.3973 -4.8559 -2.3849 -0.0039 31.7051 0.0024
# 6 -0.0043 -0.0090 0.0004 -3.9759 0.0024 24.7407
#
#
#
# Elastic Compliance Matrix: (Units=1/GPa)
#
#
# Indices 1 2 3 4 5 6 
#
# 1 0.015348 -0.007260 -0.003426 -0.000017 -0.000209 -0.000003
# 2 -0.007260 0.018623 -0.000810 0.000012 0.002242 0.000007
# 3 -0.003426 -0.000810 0.015750 0.000007 0.000802 0.000000
# 4 -0.000017 0.000012 0.000007 0.073815 0.000009 0.011862
# 5 -0.000209 0.002242 0.000802 0.000009 0.031929 -0.000001
# 6 -0.000003 0.000007 0.000000 0.011862 -0.000001 0.042325
#
#
# Mechanical properties :
#
#
# Convention : Reuss Voigt Hill
#
# Bulk Modulus (GPa) = 37.41029 39.63843 38.52436
# Shear Modulus (GPa) = 21.76838 24.55599 23.16219
#
# Velocity S-wave (km/s) = 3.29440 3.49899 3.39824
# Velocity P-wave (km/s) = 5.75522 6.00721 5.88256
#
# Compressibility (1/GPa) = 0.02673061
#
# Stress axis : x y z
#
# Youngs Moduli (GPa) = 65.15407 53.69836 63.49076
#
# Poissons Ratio (x) = 0.38986 0.21749
# Poissons Ratio (y) = 0.47303 0.05140
# Poissons Ratio (z) = 0.22319 0.04347
#
# Static dielectric constant tensor:
#      x y z
#    x 3.802450 -0.000010 -0.318780 
#    y -0.000010 3.369640 0.000020 
#    z -0.318780 0.000020 3.773240 
# 
# 
# High freq. dielectric constant tensor:
#      x y z
#    x 1.779770 0.000000 -0.014820 
#    y 0.000000 1.748920 0.000000 
#    z -0.014820 0.000000 1.793820 
# 
# From -- ./inp_files/125882.got.cif
#   From: 2010.06.25/outbox.cif.g09.slc.cpg/sg15_63_cif.got.tgz:125882.got - 2010.06.28 07:06:18.
