data_PCOD8131825
_publ_section_title
;
Structure prediction by ZEFSAII (Michael W. Deem and Ramdas Pophale) SiO2 
 PCOD8131825
Probable space group: C 2/C
;
_chemical_formula_sum "Si O2"
_cell_formula_units_Z 60
_cell_length_a 27.016117
_cell_length_b 6.354661
_cell_length_c 18.715732
_cell_angle_alpha 90.000000
_cell_angle_beta 71.190881
_cell_angle_gamma 90.000000
_cell_volume 3041.499129
_symmetry_space_group_name_H-M "C 2/C"
_symmetry_group_IT_number 15
_symmetry_cell_setting 'monoclinic'
loop_
_space_group_symop_operation_xyz
x,y,z
-x,y,1/2-z
-x,-y,-z
x,-y,1/2+z
1/2+x,1/2+y,z
1/2-x,1/2+y,1/2-z
1/2-x,1/2-y,-z
1/2+x,1/2-y,1/2+z
loop_
_atom_site_type_symbol
_atom_site_label
_atom_site_fract_x
_atom_site_fract_y
_atom_site_fract_z
Si Si1 0.081984 0.198964 0.699740
Si Si2 0.180623 0.336587 0.588478
Si Si3 0.453356 0.382235 0.663831
Si Si4 0.793057 0.033023 0.049773
Si Si5 0.000000 0.443636 0.250000
Si Si6 0.942981 0.995597 0.437330
Si Si7 0.861843 0.348308 0.504666
Si Si8 0.382593 0.764677 0.076912
O O1 0.143625 0.258334 0.670430
O O2 0.048935 0.411543 0.707148
O O3 0.070052 0.050084 0.638751
O O4 0.067793 0.071382 0.777503
O O5 0.196033 0.137700 0.532395
O O6 0.232087 0.444866 0.597962
O O7 0.146847 0.501276 0.558688
O O8 0.484328 0.202012 0.691156
O O9 0.494214 0.476853 0.586546
O O10 0.404681 0.278303 0.645365
O O11 0.827702 0.142589 0.094875
O O12 0.809048 0.788483 0.038854
O O13 0.924005 0.808069 0.497060
O O14 0.913068 0.208205 0.471736
O O15 0.871767 0.487584 0.571125
#
# Coordination Sequence:
#
# PCOD8131825 Si02
#       8
#     8   8   8   8   4   8   8   8
#     4  12  22  40  61  87 121 158 204 251 296 364
#     4  10  19  34  62  93 114 153 195 249 296 349
#     4  12  25  39  58  87 124 165 197 249 303 370
#     4   9  19  36  61  89 121 146 194 251 301 345
#     4  12  24  38  60  82 118 160 206 234 304 370
#     4  11  20  40  60  88 122 156 200 250 300 357
#     4  10  18  34  60  90 123 148 199 251 302 355
#     4  10  23  38  60  89 123 156 199 248 309 358
#
# _framework density 19.727114
#
# number of rings (size 3 to 8) (size 9 to 14) (size 15 to 20)
#    0.000    1.333    6.667    1.600    0.000    2.667 
#    0.000    0.000    2.933    0.000    0.000    0.000 
#    0.000    0.000    0.000    0.000    0.000    0.000 
#
# Total GULP energy -372012.949084 kJ/mol
# GULP energy per Si atom -12400.431636 kJ/mol
# Density = 1.968221 g / cm^3
# Si number density = 19.727114 Si / 1000 Ang^3
#
#
#
# Elastic Constant Matrix: (Units=GPa)
#
#
# Indices 1 2 3 4 5 6 
#
# 1 122.6119 37.8612 45.9690 0.0000 -13.0156 0.0000
# 2 37.8612 114.9929 33.2673 -0.0001 -5.2010 0.0000
# 3 45.9690 33.2673 54.3904 0.0000 -7.2593 0.0000
# 4 0.0000 -0.0001 0.0000 14.2011 0.0000 -1.0868
# 5 -13.0156 -5.2010 -7.2593 0.0000 37.7591 0.0000
# 6 0.0000 0.0000 0.0000 -1.0868 0.0000 30.1129
#
#
#
# Elastic Compliance Matrix: (Units=1/GPa)
#
#
# Indices 1 2 3 4 5 6 
#
# 1 0.012270 -0.001245 -0.009306 0.000000 0.002269 0.000000
# 2 -0.001245 0.010694 -0.005490 0.000000 -0.000012 0.000000
# 3 -0.009306 -0.005490 0.029845 0.000000 0.001774 0.000000
# 4 0.000000 0.000000 0.000000 0.070612 0.000000 0.002548
# 5 0.002269 -0.000012 0.001774 0.000000 0.027605 0.000000
# 6 0.000000 0.000000 0.000000 0.002548 0.000000 0.033300
#
#
# Mechanical properties :
#
#
# Convention : Reuss Voigt Hill
#
# Bulk Modulus (GPa) = 48.24576 58.46557 53.35567
# Shear Modulus (GPa) = 22.38964 28.07449 25.23206
#
# Velocity S-wave (km/s) = 3.37258 3.77655 3.58027
# Velocity P-wave (km/s) = 6.29884 6.97982 6.64806
#
# Compressibility (1/GPa) = 0.02072721
#
# Stress axis : x y z
#
# Youngs Moduli (GPa) = 81.49928 93.51160 33.50615
#
# Poissons Ratio (x) = 0.11643 0.31180
# Poissons Ratio (y) = 0.10147 0.18395
# Poissons Ratio (z) = 0.75842 0.51338
#
# Static dielectric constant tensor:
#      x y z
#    x 3.835010 0.000000 -0.216450 
#    y 0.000000 3.751690 0.000000 
#    z -0.216450 0.000000 3.350540 
# 
# 
# High freq. dielectric constant tensor:
#      x y z
#    x 1.773190 0.000000 -0.011900 
#    y 0.000000 1.780600 0.000000 
#    z -0.011900 0.000000 1.733220 
# 
# From -- ./inp_files/256531.got.cif
#   From: 2010.06.25/outbox.cif.g09.slc.cpg/sg15_129_cif.got.tgz:256531.got - 2010.06.28 07:06:18.
