data_PCOD8131865
_publ_section_title
;
Structure prediction by ZEFSAII (Michael W. Deem and Ramdas Pophale) SiO2 
 PCOD8131865
Probable space group: C 2/C
;
_chemical_formula_sum "Si O2"
_cell_formula_units_Z 64
_cell_length_a 18.295509
_cell_length_b 9.353997
_cell_length_c 32.003240
_cell_angle_alpha 90.000000
_cell_angle_beta 142.569483
_cell_angle_gamma 90.000000
_cell_volume 3328.860256
_symmetry_space_group_name_H-M "C 2/C"
_symmetry_group_IT_number 15
_symmetry_cell_setting 'monoclinic'
loop_
_space_group_symop_operation_xyz
x,y,z
-x,y,1/2-z
-x,-y,-z
x,-y,1/2+z
1/2+x,1/2+y,z
1/2-x,1/2+y,1/2-z
1/2-x,1/2-y,-z
1/2+x,1/2-y,1/2+z
loop_
_atom_site_type_symbol
_atom_site_label
_atom_site_fract_x
_atom_site_fract_y
_atom_site_fract_z
Si Si1 0.202190 0.334823 0.173089
Si Si2 0.700942 0.319466 0.151999
Si Si3 0.382717 0.812557 0.561914
Si Si4 0.683581 0.085402 0.318121
Si Si5 0.428156 0.416704 0.325907
Si Si6 0.923317 0.228508 0.301690
Si Si7 0.539017 0.924803 0.560090
Si Si8 0.465344 0.009224 0.171036
O O1 0.224889 0.218109 0.146337
O O2 0.336097 0.373396 0.247964
O O3 0.119897 0.277280 0.172574
O O4 0.129917 0.471087 0.124668
O O5 0.744529 0.439511 0.139894
O O6 0.639210 0.413365 0.160497
O O7 0.807945 0.220972 0.218888
O O8 0.612000 0.220621 0.084829
O O9 0.250000 0.750000 0.500000
O O10 0.461939 0.691516 0.620189
O O11 0.425657 0.872273 0.536469
O O12 0.395650 0.948960 0.597610
O O13 0.603812 0.065069 0.239110
O O14 0.601485 0.089989 0.321636
O O15 0.479410 0.571753 0.335193
O O16 0.023323 0.335223 0.326388
O O17 0.500000 0.000000 0.500000
#
# Coordination Sequence:
#
# PCOD8131865 Si02
#       8
#     8   8   8   8   8   8   8   8
#     4  11  19  35  65  94 117 153 211 264 305 362
#     4   9  19  34  60  91 120 150 196 264 309 349
#     4  11  24  43  59  85 128 170 202 245 315 386
#     4  10  20  36  62  92 121 153 199 258 314 364
#     4  10  19  35  64  94 114 153 211 260 304 363
#     4  10  18  34  62  94 117 147 209 262 308 354
#     4  11  24  41  60  89 125 164 206 255 309 368
#     4  10  21  38  59  88 126 162 192 248 319 372
#
# _framework density 19.2258
#
# number of rings (size 3 to 8) (size 9 to 14) (size 15 to 20)
#    0.000    1.750    5.000    0.000    1.750    0.000 
#    2.250    2.500    2.750    0.000    0.000    0.000 
#    0.000    0.000    0.000    0.000    0.000    0.000 
#
# Total GULP energy -396420.915403 kJ/mol
# GULP energy per Si atom -12388.153606 kJ/mol
# Density = 1.918204 g / cm^3
# Si number density = 19.225800 Si / 1000 Ang^3
#
#
#
# Elastic Constant Matrix: (Units=GPa)
#
#
# Indices 1 2 3 4 5 6 
#
# 1 70.6994 31.7317 34.4091 0.0000 6.5117 0.0000
# 2 31.7317 101.7061 35.8814 -0.0001 6.0964 0.0002
# 3 34.4091 35.8814 91.0715 0.0000 8.3750 0.0000
# 4 0.0000 -0.0001 0.0000 26.8274 0.0000 1.6362
# 5 6.5117 6.0964 8.3750 0.0000 19.5871 0.0000
# 6 0.0000 0.0002 0.0000 1.6362 0.0000 33.4041
#
#
#
# Elastic Compliance Matrix: (Units=1/GPa)
#
#
# Indices 1 2 3 4 5 6 
#
# 1 0.018685 -0.003790 -0.005313 0.000000 -0.002761 0.000000
# 2 -0.003790 0.012243 -0.003286 0.000000 -0.001145 0.000000
# 3 -0.005313 -0.003286 0.014600 0.000000 -0.003454 0.000000
# 4 0.000000 0.000000 0.000000 0.037387 0.000000 -0.001831
# 5 -0.002761 -0.001145 -0.003454 0.000000 0.053805 0.000000
# 6 0.000000 0.000000 0.000000 -0.001831 0.000000 0.030026
#
#
# Mechanical properties :
#
#
# Convention : Reuss Voigt Hill
#
# Bulk Modulus (GPa) = 48.19216 51.94683 50.06950
# Shear Modulus (GPa) = 25.19643 26.72738 25.96191
#
# Velocity S-wave (km/s) = 3.62408 3.73256 3.67872
# Velocity P-wave (km/s) = 6.52938 6.75677 6.64405
#
# Compressibility (1/GPa) = 0.02075026
#
# Stress axis : x y z
#
# Youngs Moduli (GPa) = 53.51780 81.68118 68.49302
#
# Poissons Ratio (x) = 0.30957 0.36388
# Poissons Ratio (y) = 0.20283 0.22509
# Poissons Ratio (z) = 0.28433 0.26843
#
# Static dielectric constant tensor:
#      x y z
#    x 3.430740 0.000000 0.014900 
#    y 0.000000 3.693890 0.000000 
#    z 0.014900 0.000000 3.366110 
# 
# 
# High freq. dielectric constant tensor:
#      x y z
#    x 1.733490 0.000000 0.000990 
#    y 0.000000 1.759850 0.000000 
#    z 0.000990 0.000000 1.719690 
# 
# From -- ./inp_files/315727.got.cif
#   From: 2010.06.25/outbox.cif.g09.slc.cpg/sg15_158_cif.got.tgz:315727.got - 2010.06.28 07:06:18.
