data_PCOD8131828
_publ_section_title
;
Structure prediction by ZEFSAII (Michael W. Deem and Ramdas Pophale) SiO2 
 PCOD8131828
Probable space group: C 2/C
;
_chemical_formula_sum "Si O2"
_cell_formula_units_Z 56
_cell_length_a 16.338925
_cell_length_b 12.314020
_cell_length_c 14.610450
_cell_angle_alpha 90.000000
_cell_angle_beta 71.389401
_cell_angle_gamma 90.000000
_cell_volume 2785.878105
_symmetry_space_group_name_H-M "C 2/C"
_symmetry_group_IT_number 15
_symmetry_cell_setting 'monoclinic'
loop_
_space_group_symop_operation_xyz
x,y,z
-x,y,1/2-z
-x,-y,-z
x,-y,1/2+z
1/2+x,1/2+y,z
1/2-x,1/2+y,1/2-z
1/2-x,1/2-y,-z
1/2+x,1/2-y,1/2+z
loop_
_atom_site_type_symbol
_atom_site_label
_atom_site_fract_x
_atom_site_fract_y
_atom_site_fract_z
Si Si1 0.275085 0.641585 0.878844
Si Si2 0.705458 0.573110 0.222575
Si Si3 0.137818 0.706891 0.788629
Si Si4 0.502893 0.127701 0.521299
Si Si5 0.699086 0.850652 0.979060
Si Si6 0.374899 0.170974 0.423933
Si Si7 0.189121 0.482585 0.149064
O O1 0.322188 0.530681 0.828780
O O2 0.228596 0.698996 0.809629
O O3 0.353190 0.713675 0.887972
O O4 0.200773 0.628434 0.981334
O O5 0.630374 0.664867 0.262652
O O6 0.738508 0.530488 0.308955
O O7 0.780527 0.627969 0.134774
O O8 0.056940 0.664465 0.873876
O O9 0.141882 0.625990 0.701103
O O10 0.596570 0.169285 0.515500
O O11 0.465837 0.185666 0.443307
O O12 0.500000 0.000000 0.500000
O O13 0.727545 0.949577 0.035843
O O14 0.750000 0.750000 0.000000
O O15 0.381019 0.078356 0.343177
#
# Coordination Sequence:
#
# PCOD8131828 Si02
#       7
#     8   8   8   8   8   8   8
#     4   9  18  33  58  91 125 164 212 253 320 384
#     4  11  21  38  62  98 125 169 224 254 319 409
#     4  10  21  35  60  96 128 162 211 269 322 394
#     4  11  22  40  62  97 130 158 221 283 331 395
#     4  12  24  42  61  90 133 173 205 268 343 395
#     4  10  18  34  60  91 124 165 205 269 324 375
#     4  11  20  36  62  92 127 166 209 269 327 383
#
# _framework density 20.101382000000001
#
# number of rings (size 3 to 8) (size 9 to 14) (size 15 to 20)
#    0.000    1.429    5.714    1.714    0.000    0.571 
#    2.571    0.000    0.000    5.143    0.000    0.000 
#    0.000    0.000    0.000    0.000    0.000    0.000 
#
# Total GULP energy -346866.093912 kJ/mol
# GULP energy per Si atom -12388.074783 kJ/mol
# Density = 2.005563 g / cm^3
# Si number density = 20.101382 Si / 1000 Ang^3
#
#
#
# Elastic Constant Matrix: (Units=GPa)
#
#
# Indices 1 2 3 4 5 6 
#
# 1 107.2319 59.0357 35.2716 0.0000 10.5655 0.0000
# 2 59.0357 153.8300 46.5442 0.0000 3.7400 0.0000
# 3 35.2716 46.5442 72.0060 0.0000 4.4553 0.0000
# 4 0.0000 0.0000 0.0000 40.5153 0.0000 6.4188
# 5 10.5655 3.7400 4.4553 0.0000 23.9381 0.0000
# 6 0.0000 0.0000 0.0000 6.4188 0.0000 23.1434
#
#
#
# Elastic Compliance Matrix: (Units=1/GPa)
#
#
# Indices 1 2 3 4 5 6 
#
# 1 0.013064 -0.003794 -0.003669 0.000000 -0.004490 0.000000
# 2 -0.003794 0.009185 -0.004141 0.000000 0.001010 0.000000
# 3 -0.003669 -0.004141 0.018434 0.000000 -0.001165 0.000000
# 4 0.000000 0.000000 0.000000 0.025816 0.000000 -0.007160
# 5 -0.004490 0.001010 -0.001165 0.000000 0.043815 0.000000
# 6 0.000000 0.000000 0.000000 -0.007160 0.000000 0.045195
#
#
# Mechanical properties :
#
#
# Convention : Reuss Voigt Hill
#
# Bulk Modulus (GPa) = 57.22699 68.30787 62.76743
# Shear Modulus (GPa) = 27.09411 30.33379 28.71395
#
# Velocity S-wave (km/s) = 3.67532 3.88885 3.78359
# Velocity P-wave (km/s) = 6.82214 7.36340 7.09793
#
# Compressibility (1/GPa) = 0.01747427
#
# Stress axis : x y z
#
# Youngs Moduli (GPa) = 76.54836 108.87018 54.24832
#
# Poissons Ratio (x) = 0.41308 0.19902
# Poissons Ratio (y) = 0.29044 0.22465
# Poissons Ratio (z) = 0.28083 0.45086
#
# Static dielectric constant tensor:
#      x y z
#    x 3.465750 0.000000 0.270670 
#    y 0.000000 3.930380 0.000000 
#    z 0.270670 0.000000 3.905900 
# 
# 
# High freq. dielectric constant tensor:
#      x y z
#    x 1.740090 0.000000 0.034440 
#    y 0.000000 1.796780 0.000000 
#    z 0.034440 0.000000 1.792970 
# 
# From -- ./inp_files/160822.got.cif
#   From: 2010.06.25/outbox.cif.g09.slc.cpg/sg15_81_cif.got.tgz:160822.got - 2010.06.28 07:06:18.
