data_PCOD8131141
_publ_section_title
;
Structure prediction by ZEFSAII (Michael W. Deem and Ramdas Pophale) SiO2 
 PCOD8131141
Probable space group: C 2/C
;
_chemical_formula_sum "Si O2"
_cell_formula_units_Z 48
_cell_length_a 20.567174
_cell_length_b 12.806506
_cell_length_c 10.927361
_cell_angle_alpha 90.000000
_cell_angle_beta 119.771388
_cell_angle_gamma 90.000000
_cell_volume 2498.314223
_symmetry_space_group_name_H-M "C 2/C"
_symmetry_group_IT_number 15
_symmetry_cell_setting 'monoclinic'
loop_
_space_group_symop_operation_xyz
x,y,z
-x,y,1/2-z
-x,-y,-z
x,-y,1/2+z
1/2+x,1/2+y,z
1/2-x,1/2+y,1/2-z
1/2-x,1/2-y,-z
1/2+x,1/2-y,1/2+z
loop_
_atom_site_type_symbol
_atom_site_label
_atom_site_fract_x
_atom_site_fract_y
_atom_site_fract_z
Si Si1 0.309886 0.358877 0.896285
Si Si2 0.334427 0.009867 0.420362
Si Si3 0.723947 0.765548 0.610789
Si Si4 0.585038 0.301384 0.298043
Si Si5 0.857080 0.415424 0.692331
Si Si6 0.675169 0.430629 0.201305
O O1 0.294881 0.283308 0.766815
O O2 0.231200 0.387171 0.887917
O O3 0.351650 0.465130 0.893383
O O4 0.364484 0.293879 0.033404
O O5 0.328912 0.133916 0.434240
O O6 0.373783 0.002729 0.321110
O O7 0.378926 0.964055 0.579414
O O8 0.253997 0.953564 0.341479
O O9 0.750000 0.750000 0.500000
O O10 0.679769 0.662388 0.608249
O O11 0.500000 0.324525 0.250000
O O12 0.594394 0.189356 0.240777
O O13 0.614056 0.398226 0.244728
#
# Coordination Sequence:
#
# PCOD8131141 Si02
#       6
#     8   8   8   8   8   8
#     4  10  21  34  61  84 110 148 194 243 283 335
#     4  10  19  31  59  85 111 140 189 249 289 322
#     4  10  18  31  56  91 111 134 180 254 296 322
#     4  12  23  38  57  80 120 161 188 227 285 353
#     4  10  19  37  58  89 108 149 192 244 290 336
#     4  10  19  34  55  84 112 140 192 232 281 338
#
# _framework density 19.212955000000001
#
# number of rings (size 3 to 8) (size 9 to 14) (size 15 to 20)
#    0.000    2.000    5.000    3.500    2.333    0.667 
#    0.000    0.833    0.000    0.000    0.000    0.000 
#    0.000    0.000    0.000    0.000    0.000    0.000 
#
# Total GULP energy -297430.447176 kJ/mol
# GULP energy per Si atom -12392.935299 kJ/mol
# Density = 1.916923 g / cm^3
# Si number density = 19.212955 Si / 1000 Ang^3
#
#
#
# Elastic Constant Matrix: (Units=GPa)
#
#
# Indices 1 2 3 4 5 6 
#
# 1 78.3732 33.0889 31.7976 0.0000 -16.9158 0.0000
# 2 33.0889 66.9867 13.5374 0.0000 -9.9908 0.0000
# 3 31.7976 13.5374 84.8080 0.0000 -33.8216 0.0000
# 4 0.0000 0.0000 0.0000 26.5443 0.0000 -15.5484
# 5 -16.9158 -9.9908 -33.8216 0.0000 24.7930 0.0000
# 6 0.0000 0.0000 0.0000 -15.5484 0.0000 28.3662
#
#
#
# Elastic Compliance Matrix: (Units=1/GPa)
#
#
# Indices 1 2 3 4 5 6 
#
# 1 0.018558 -0.007750 -0.004204 0.000000 0.003804 0.000000
# 2 -0.007750 0.019120 0.001793 0.000000 0.004863 0.000000
# 3 -0.004204 0.001793 0.026812 0.000000 0.034430 0.000000
# 4 0.000000 0.000000 0.000000 0.055488 0.000000 0.030415
# 5 0.003804 0.004863 0.034430 0.000000 0.091857 0.000000
# 6 0.000000 0.000000 0.000000 0.030415 0.000000 0.051924
#
#
# Mechanical properties :
#
#
# Convention : Reuss Voigt Hill
#
# Bulk Modulus (GPa) = 22.64067 43.00173 32.82120
# Shear Modulus (GPa) = 16.73333 26.05698 21.39515
#
# Velocity S-wave (km/s) = 2.95437 3.68668 3.34065
# Velocity P-wave (km/s) = 4.84225 6.36808 5.65684
#
# Compressibility (1/GPa) = 0.04416830
#
# Stress axis : x y z
#
# Youngs Moduli (GPa) = 53.88447 52.30251 37.29634
#
# Poissons Ratio (x) = 0.40535 0.15680
# Poissons Ratio (y) = 0.41761 -0.06689
# Poissons Ratio (z) = 0.22654 -0.09380
#
# Static dielectric constant tensor:
#      x y z
#    x 3.187110 0.000000 -0.461280 
#    y 0.000000 3.659170 0.000000 
#    z -0.461280 0.000000 3.556250 
# 
# 
# High freq. dielectric constant tensor:
#      x y z
#    x 1.699100 0.000000 -0.044490 
#    y 0.000000 1.760260 0.000000 
#    z -0.044490 0.000000 1.739100 
# 
# From -- ./inp_files/104248.got.cif
#   From: 2010.06.25/outbox.cif.g09.slc.cpg/sg15_53_cif.got.tgz:104248.got - 2010.06.28 07:06:18.
