data_PCOD8131989
_publ_section_title
;
Structure prediction by ZEFSAII (Michael W. Deem and Ramdas Pophale) SiO2 
 PCOD8131989
Probable space group: C 2/C
;
_chemical_formula_sum "Si O2"
_cell_formula_units_Z 64
_cell_length_a 8.454048
_cell_length_b 17.351252
_cell_length_c 20.611734
_cell_angle_alpha 90.000000
_cell_angle_beta 99.561734
_cell_angle_gamma 90.000000
_cell_volume 2981.495677
_symmetry_space_group_name_H-M "C 2/C"
_symmetry_group_IT_number 15
_symmetry_cell_setting 'monoclinic'
loop_
_space_group_symop_operation_xyz
x,y,z
-x,y,1/2-z
-x,-y,-z
x,-y,1/2+z
1/2+x,1/2+y,z
1/2-x,1/2+y,1/2-z
1/2-x,1/2-y,-z
1/2+x,1/2-y,1/2+z
loop_
_atom_site_type_symbol
_atom_site_label
_atom_site_fract_x
_atom_site_fract_y
_atom_site_fract_z
Si Si1 0.427061 0.965845 0.845251
Si Si2 0.681325 0.185980 0.764851
Si Si3 0.693555 0.676214 0.870324
Si Si4 0.496693 0.527717 0.895468
Si Si5 0.759334 0.033658 0.996221
Si Si6 0.273836 0.984796 0.209987
Si Si7 0.549417 0.201741 0.178985
Si Si8 0.930064 0.411166 0.460382
O O1 0.600370 0.968374 0.823941
O O2 0.287605 0.993997 0.786469
O O3 0.404726 0.874829 0.858107
O O4 0.412787 0.019445 0.906501
O O5 0.500000 0.218396 0.750000
O O6 0.749154 0.168842 0.698744
O O7 0.792541 0.245334 0.810899
O O8 0.685153 0.104585 0.802038
O O9 0.577959 0.606503 0.880081
O O10 0.595733 0.756056 0.870263
O O11 0.850042 0.668419 0.928808
O O12 0.362880 0.548110 0.939934
O O13 0.405008 0.493365 0.826635
O O14 0.623977 0.465560 0.932349
O O15 0.618562 0.099308 0.990578
O O16 0.671640 0.948456 0.986713
O O17 0.500000 0.183157 0.250000
#
# Coordination Sequence:
#
# PCOD8131989 Si02
#       8
#     8   8   8   8   8   8   8   8
#     4  11  20  34  57  90 119 150 181 234 293 348
#     4  11  20  34  54  83 117 154 187 225 284 357
#     4  10  20  32  57  83 110 151 189 228 280 350
#     4  10  19  34  54  87 112 145 196 244 281 329
#     4   9  20  33  54  85 111 144 196 258 279 316
#     4  11  18  31  58  86 112 148 189 230 278 352
#     4  10  21  35  52  82 127 153 180 221 289 362
#     4  10  18  35  58  84 113 148 197 241 288 334
#
# _framework density 21.465736
#
# number of rings (size 3 to 8) (size 9 to 14) (size 15 to 20)
#    0.000    1.750    6.250    0.000    0.000    0.000 
#    0.000    2.500    0.000    7.500    0.000    0.000 
#    0.000    0.000    0.000    0.000    0.000    0.000 
#
# Total GULP energy -396522.039504 kJ/mol
# GULP energy per Si atom -12391.313735 kJ/mol
# Density = 2.141688 g / cm^3
# Si number density = 21.465736 Si / 1000 Ang^3
#
#
#
# Elastic Constant Matrix: (Units=GPa)
#
#
# Indices 1 2 3 4 5 6 
#
# 1 117.0814 24.7245 24.8390 0.0000 25.3907 0.0000
# 2 24.7245 91.8646 13.4854 0.0000 6.9199 0.0000
# 3 24.8390 13.4854 44.6158 0.0000 12.2252 0.0000
# 4 0.0000 0.0000 0.0000 13.3992 0.0000 4.2461
# 5 25.3907 6.9199 12.2252 0.0000 47.2660 0.0000
# 6 0.0000 0.0000 0.0000 4.2461 0.0000 18.6342
#
#
#
# Elastic Compliance Matrix: (Units=1/GPa)
#
#
# Indices 1 2 3 4 5 6 
#
# 1 0.010809 -0.001957 -0.004212 0.000000 -0.004430 0.000000
# 2 -0.001957 0.011776 -0.002460 0.000000 -0.000037 0.000000
# 3 -0.004212 -0.002460 0.026674 0.000000 -0.004276 0.000000
# 4 0.000000 0.000000 0.000000 0.080440 0.000000 -0.018330
# 5 -0.004430 -0.000037 -0.004276 0.000000 0.024648 0.000000
# 6 0.000000 0.000000 0.000000 -0.018330 0.000000 0.057842
#
#
# Mechanical properties :
#
#
# Convention : Reuss Voigt Hill
#
# Bulk Modulus (GPa) = 31.24920 42.18441 36.71680
# Shear Modulus (GPa) = 20.82352 28.56074 24.69213
#
# Velocity S-wave (km/s) = 3.11799 3.65160 3.39529
# Velocity P-wave (km/s) = 5.24898 6.12156 5.70199
#
# Compressibility (1/GPa) = 0.03200082
#
# Stress axis : x y z
#
# Youngs Moduli (GPa) = 92.51789 84.91734 37.48988
#
# Poissons Ratio (x) = 0.16619 0.15791
# Poissons Ratio (y) = 0.18106 0.09222
# Poissons Ratio (z) = 0.38969 0.20889
#
# Static dielectric constant tensor:
#      x y z
#    x 4.355640 0.000000 0.323530 
#    y 0.000000 3.505020 0.000000 
#    z 0.323530 0.000000 4.122160 
# 
# 
# High freq. dielectric constant tensor:
#      x y z
#    x 1.860540 0.000000 0.012530 
#    y 0.000000 1.793030 0.000000 
#    z 0.012530 0.000000 1.838380 
# 
# From -- ./inp_files/265282.got.cif
#   From: 2010.06.25/outbox.cif.g09.slc.cpg/sg15_133_cif.got.tgz:265282.got - 2010.06.28 07:06:18.
