data_PCOD8131527
_publ_section_title
;
Structure prediction by ZEFSAII (Michael W. Deem and Ramdas Pophale) SiO2 
 PCOD8131527
Probable space group: C 2/C
;
_chemical_formula_sum "Si O2"
_cell_formula_units_Z 48
_cell_length_a 19.874271
_cell_length_b 6.988555
_cell_length_c 22.873839
_cell_angle_alpha 90.000000
_cell_angle_beta 129.136139
_cell_angle_gamma 90.000000
_cell_volume 2464.237646
_symmetry_space_group_name_H-M "C 2/C"
_symmetry_group_IT_number 15
_symmetry_cell_setting 'monoclinic'
loop_
_space_group_symop_operation_xyz
x,y,z
-x,y,1/2-z
-x,-y,-z
x,-y,1/2+z
1/2+x,1/2+y,z
1/2-x,1/2+y,1/2-z
1/2-x,1/2-y,-z
1/2+x,1/2-y,1/2+z
loop_
_atom_site_type_symbol
_atom_site_label
_atom_site_fract_x
_atom_site_fract_y
_atom_site_fract_z
Si Si1 0.560546 0.360314 0.836534
Si Si2 0.183292 0.866388 0.347985
Si Si3 0.371863 0.972012 0.471096
Si Si4 0.598877 0.927185 0.879957
Si Si5 0.550527 0.648270 0.673689
Si Si6 0.030613 0.790127 0.033287
O O1 0.500000 0.420260 0.750000
O O2 0.651295 0.467547 0.874955
O O3 0.507414 0.451466 0.862213
O O4 0.574706 0.137913 0.847070
O O5 0.167719 0.662945 0.372110
O O6 0.137626 0.870866 0.259485
O O7 0.283787 0.907833 0.390953
O O8 0.398313 0.193638 0.471384
O O9 0.359172 0.938874 0.533006
O O10 0.444936 0.837163 0.484710
O O11 0.509985 0.808324 0.829337
O O12 0.575448 0.708113 0.621824
O O13 0.000000 0.000000 0.000000
#
# Coordination Sequence:
#
# PCOD8131527 Si02
#       6
#     8   8   8   8   8   8
#     4   9  17  30  53  81 106 139 176 215 277 335
#     4  10  20  34  51  84 115 131 175 235 276 318
#     4  10  22  36  54  80 108 140 188 225 266 328
#     4  10  18  33  57  80 109 146 171 219 283 333
#     4   9  19  35  54  77 110 142 180 227 266 325
#     4  10  21  40  57  72 103 153 190 219 266 322
#
# _framework density 19.478639999999999
#
# number of rings (size 3 to 8) (size 9 to 14) (size 15 to 20)
#    0.000    2.333    0.000    4.000    0.000    2.000 
#    3.000    0.000    0.000    0.000    0.000    0.000 
#    0.000    0.000    0.000    0.000    0.000    0.000 
#
# Total GULP energy -297526.892700 kJ/mol
# GULP energy per Si atom -12396.953863 kJ/mol
# Density = 1.943431 g / cm^3
# Si number density = 19.478640 Si / 1000 Ang^3
#
#
#
# Elastic Constant Matrix: (Units=GPa)
#
#
# Indices 1 2 3 4 5 6 
#
# 1 70.0490 34.4946 48.5966 0.0000 8.8526 0.0000
# 2 34.4946 142.6737 31.1217 0.0001 4.5743 -0.0001
# 3 48.5966 31.1217 109.0136 0.0000 19.4918 0.0000
# 4 0.0000 0.0001 0.0000 24.8744 0.0000 -3.6512
# 5 8.8526 4.5743 19.4918 0.0000 18.8373 0.0000
# 6 0.0000 -0.0001 0.0000 -3.6512 0.0000 23.2625
#
#
#
# Elastic Compliance Matrix: (Units=1/GPa)
#
#
# Indices 1 2 3 4 5 6 
#
# 1 0.022124 -0.003413 -0.008806 0.000000 -0.000456 0.000000
# 2 -0.003413 0.008005 -0.000862 0.000000 0.000553 0.000000
# 3 -0.008806 -0.000862 0.015421 0.000000 -0.011609 0.000000
# 4 0.000000 0.000000 0.000000 0.041150 0.000000 0.006459
# 5 -0.000456 0.000553 -0.011609 0.000000 0.065178 0.000000
# 6 0.000000 0.000000 0.000000 0.006459 0.000000 0.044001
#
#
# Mechanical properties :
#
#
# Convention : Reuss Voigt Hill
#
# Bulk Modulus (GPa) = 51.58709 61.12912 56.35811
# Shear Modulus (GPa) = 21.88140 27.22972 24.55556
#
# Velocity S-wave (km/s) = 3.35528 3.74294 3.55440
# Velocity P-wave (km/s) = 6.44608 7.08027 6.77061
#
# Compressibility (1/GPa) = 0.01938469
#
# Stress axis : x y z
#
# Youngs Moduli (GPa) = 45.20053 124.92746 64.84752
#
# Poissons Ratio (x) = 0.42642 0.57108
# Poissons Ratio (y) = 0.15428 0.05593
# Poissons Ratio (z) = 0.39806 0.10774
#
# Static dielectric constant tensor:
#      x y z
#    x 3.402420 0.000000 -0.128120 
#    y 0.000000 3.737210 0.000000 
#    z -0.128120 0.000000 3.496080 
# 
# 
# High freq. dielectric constant tensor:
#      x y z
#    x 1.734740 0.000000 -0.005970 
#    y 0.000000 1.767370 0.000000 
#    z -0.005970 0.000000 1.757770 
# 
# From -- ./inp_files/279032.got.cif
#   From: 2010.06.25/outbox.cif.g09.slc.cpg/sg15_140_cif.got.tgz:279032.got - 2010.06.28 07:06:18.
