data_PCOD8131407
_publ_section_title
;
Structure prediction by ZEFSAII (Michael W. Deem and Ramdas Pophale) SiO2 
 PCOD8131407
Probable space group: C 2/C
;
_chemical_formula_sum "Si O2"
_cell_formula_units_Z 56
_cell_length_a 27.522605
_cell_length_b 19.063376
_cell_length_c 17.999901
_cell_angle_alpha 90.000000
_cell_angle_beta 20.254942
_cell_angle_gamma 90.000000
_cell_volume 3269.519978
_symmetry_space_group_name_H-M "C 2/C"
_symmetry_group_IT_number 15
_symmetry_cell_setting 'monoclinic'
loop_
_space_group_symop_operation_xyz
x,y,z
-x,y,1/2-z
-x,-y,-z
x,-y,1/2+z
1/2+x,1/2+y,z
1/2-x,1/2+y,1/2-z
1/2-x,1/2-y,-z
1/2+x,1/2-y,1/2+z
loop_
_atom_site_type_symbol
_atom_site_label
_atom_site_fract_x
_atom_site_fract_y
_atom_site_fract_z
Si Si1 0.341402 0.506071 0.636751
Si Si2 0.414732 0.001503 0.734806
Si Si3 0.276026 0.342130 0.395581
Si Si4 0.401644 0.801590 0.708359
Si Si5 0.644637 0.079766 0.329021
Si Si6 0.885328 0.616270 0.513676
Si Si7 0.849760 0.998398 0.293548
O O1 0.291361 0.441765 0.656633
O O2 0.247137 0.575890 0.759410
O O3 0.502129 0.526633 0.387234
O O4 0.328105 0.477832 0.739994
O O5 0.369542 0.969144 0.722004
O O6 0.491016 0.941627 0.675417
O O7 0.519403 0.065971 0.568069
O O8 0.278421 0.029048 0.974302
O O9 0.388422 0.281490 0.213552
O O10 0.207294 0.325625 0.572691
O O11 0.155285 0.347448 0.505723
O O12 0.360141 0.414077 0.281637
O O13 0.359801 0.839488 0.690726
O O14 0.558638 0.823933 0.509514
#
# Coordination Sequence:
#
# PCOD8131407 Si02
#       7
#     8   8   8   8   8   8   8
#     4   9  20  29  49  69  98 130 173 217 269 296
#     4   9  17  30  51  67  96 132 171 210 255 305
#     4  10  19  29  47  71  99 139 168 196 245 307
#     4  10  19  30  46  72 102 134 172 198 236 321
#     4   9  17  31  44  71  96 131 167 208 250 303
#     4   9  17  32  48  64  94 138 170 201 248 313
#     4  10  18  33  46  74  98 132 171 218 254 314
#
# _framework density 17.127897000000001
#
# number of rings (size 3 to 8) (size 9 to 14) (size 15 to 20)
#    0.000    2.571    2.857    1.286    2.000    3.429 
#    0.000    1.429    0.000    0.000    0.000    9.000 
#    0.000   27.429    0.000    0.429    0.000    0.000 
#
# Total GULP energy -347051.564369 kJ/mol
# GULP energy per Si atom -12394.698727 kJ/mol
# Density = 1.708891 g / cm^3
# Si number density = 17.127897 Si / 1000 Ang^3
#
#
#
# Elastic Constant Matrix: (Units=GPa)
#
#
# Indices 1 2 3 4 5 6 
#
# 1 71.5062 27.3331 43.3782 0.0040 -9.6810 -0.0006
# 2 27.3331 59.5145 17.4410 -0.0183 -1.5272 0.0023
# 3 43.3782 17.4410 94.2880 -0.0181 -14.7077 0.0029
# 4 0.0040 -0.0183 -0.0181 23.4789 -0.0032 -3.2201
# 5 -9.6810 -1.5272 -14.7077 -0.0032 24.8098 0.0013
# 6 -0.0006 0.0023 0.0029 -3.2201 0.0013 22.7590
#
#
#
# Elastic Compliance Matrix: (Units=1/GPa)
#
#
# Indices 1 2 3 4 5 6 
#
# 1 0.022505 -0.007791 -0.008394 -0.000016 0.003326 0.000000
# 2 -0.007791 0.020483 -0.000531 0.000017 -0.002094 0.000000
# 3 -0.008394 -0.000531 0.015481 0.000014 0.005870 -0.000001
# 4 -0.000016 0.000017 0.000014 0.043434 0.000008 0.006145
# 5 0.003326 -0.002094 0.005870 0.000008 0.044955 -0.000002
# 6 0.000000 0.000000 -0.000001 0.006145 -0.000002 0.044808
#
#
# Mechanical properties :
#
#
# Convention : Reuss Voigt Hill
#
# Bulk Modulus (GPa) = 39.94002 44.62370 42.28186
# Shear Modulus (GPa) = 21.41842 23.35329 22.38585
#
# Velocity S-wave (km/s) = 3.54008 3.69652 3.61914
# Velocity P-wave (km/s) = 6.33078 6.65799 6.49645
#
# Compressibility (1/GPa) = 0.02503754
#
# Stress axis : x y z
#
# Youngs Moduli (GPa) = 44.43453 48.82190 64.59410
#
# Poissons Ratio (x) = 0.38036 0.54219
# Poissons Ratio (y) = 0.34617 0.03432
# Poissons Ratio (z) = 0.37297 0.02594
#
# Static dielectric constant tensor:
#      x y z
#    x 3.369380 0.000000 -0.147760 
#    y 0.000000 3.172390 0.000010 
#    z -0.147760 0.000010 3.239850 
# 
# 
# High freq. dielectric constant tensor:
#      x y z
#    x 1.666990 0.000000 -0.013500 
#    y 0.000000 1.621520 0.000000 
#    z -0.013500 0.000000 1.647820 
# 
# From -- ./inp_files/174730.got.cif
#   From: 2010.06.25/outbox.cif.g09.slc.cpg/sg15_88_cif.got.tgz:174730.got - 2010.06.28 07:06:18.
