data_PCOD8131128
_publ_section_title
;
Structure prediction by ZEFSAII (Michael W. Deem and Ramdas Pophale) SiO2 
 PCOD8131128
Probable space group: C 2/C
;
_chemical_formula_sum "Si O2"
_cell_formula_units_Z 56
_cell_length_a 16.035993
_cell_length_b 20.890220
_cell_length_c 14.349553
_cell_angle_alpha 90.000000
_cell_angle_beta 37.715473
_cell_angle_gamma 90.000000
_cell_volume 2940.658645
_symmetry_space_group_name_H-M "C 2/C"
_symmetry_group_IT_number 15
_symmetry_cell_setting 'monoclinic'
loop_
_space_group_symop_operation_xyz
x,y,z
-x,y,1/2-z
-x,-y,-z
x,-y,1/2+z
1/2+x,1/2+y,z
1/2-x,1/2+y,1/2-z
1/2-x,1/2-y,-z
1/2+x,1/2-y,1/2+z
loop_
_atom_site_type_symbol
_atom_site_label
_atom_site_fract_x
_atom_site_fract_y
_atom_site_fract_z
Si Si1 0.302368 0.459161 0.894229
Si Si2 0.500000 0.357939 0.750000
Si Si3 0.500000 0.430255 0.250000
Si Si4 0.781851 0.017751 0.213420
Si Si5 0.129852 0.210463 0.966850
Si Si6 0.444474 0.187472 0.696080
Si Si7 0.518095 0.600488 0.938636
Si Si8 0.608103 0.952553 0.224825
O O1 0.410648 0.405735 0.764928
O O2 0.367958 0.524399 0.874628
O O3 0.218276 0.473041 0.873555
O O4 0.224603 0.428475 0.050384
O O5 0.406481 0.315763 0.898892
O O6 0.489250 0.387452 0.166500
O O7 0.655611 0.006017 0.255685
O O8 0.867750 0.079677 0.105826
O O9 0.876496 0.955127 0.127735
O O10 0.050829 0.278959 0.030005
O O11 0.293337 0.217904 0.814693
O O12 0.070113 0.165782 0.938362
O O13 0.500000 0.200211 0.750000
O O14 0.444084 0.111159 0.676080
O O15 0.500000 0.985292 0.250000
#
# Coordination Sequence:
#
# PCOD8131128 Si02
#       8
#     8   4   4   8   8   8   8   8
#     4  10  18  31  55  83 109 141 179 226 282 330
#     4  11  18  30  54  82 112 142 174 235 274 328
#     4   9  18  30  60  84 102 132 182 237 278 318
#     4  10  18  33  55  83 108 143 186 228 284 332
#     4  12  22  36  57  82 116 149 192 229 277 334
#     4  11  24  37  53  79 117 158 186 226 272 337
#     4  10  18  33  57  85 107 135 187 245 276 326
#     4  11  22  36  51  78 124 151 178 225 277 343
#
# _framework density 19.043353
#
# number of rings (size 3 to 8) (size 9 to 14) (size 15 to 20)
#    0.000    1.429    6.429    0.429    0.000    0.571 
#    0.000    0.000    0.000    0.857    0.000    0.000 
#    0.000    0.000    0.000    0.000    0.000    0.000 
#
# Total GULP energy -346985.843754 kJ/mol
# GULP energy per Si atom -12392.351563 kJ/mol
# Density = 1.900001 g / cm^3
# Si number density = 19.043353 Si / 1000 Ang^3
#
#
#
# Elastic Constant Matrix: (Units=GPa)
#
#
# Indices 1 2 3 4 5 6 
#
# 1 127.5691 35.8151 27.8351 0.0019 -5.7296 -0.0017
# 2 35.8151 52.8361 10.2840 0.0009 -1.7174 -0.0011
# 3 27.8351 10.2840 25.6997 -0.0006 -4.8444 0.0007
# 4 0.0019 0.0009 -0.0006 22.4227 -0.0014 -4.0747
# 5 -5.7296 -1.7174 -4.8444 -0.0014 30.6919 0.0012
# 6 -0.0017 -0.0011 0.0007 -4.0747 0.0012 13.6053
#
#
#
# Elastic Compliance Matrix: (Units=1/GPa)
#
#
# Indices 1 2 3 4 5 6 
#
# 1 0.011777 -0.005966 -0.010324 -0.000001 0.000235 0.000001
# 2 -0.005966 0.023548 -0.003012 0.000000 -0.000272 0.000001
# 3 -0.010324 -0.003012 0.052464 0.000002 0.006185 -0.000004
# 4 -0.000001 0.000000 0.000002 0.047165 0.000002 0.014126
# 5 0.000235 -0.000272 0.006185 0.000002 0.033587 -0.000003
# 6 0.000001 0.000001 -0.000004 0.014126 -0.000003 0.077731
#
#
# Mechanical properties :
#
#
# Convention : Reuss Voigt Hill
#
# Bulk Modulus (GPa) = 20.33166 39.33037 29.83102
# Shear Modulus (GPa) = 16.59633 22.15534 19.37584
#
# Velocity S-wave (km/s) = 2.95532 3.41459 3.19322
# Velocity P-wave (km/s) = 4.72704 6.02028 5.41243
#
# Compressibility (1/GPa) = 0.04918436
#
# Stress axis : x y z
#
# Youngs Moduli (GPa) = 84.91079 42.46634 19.06073
#
# Poissons Ratio (x) = 0.25336 0.19678
# Poissons Ratio (y) = 0.50658 0.05742
# Poissons Ratio (z) = 0.87661 0.12792
#
# Static dielectric constant tensor:
#      x y z
#    x 3.580620 0.000000 -0.144280 
#    y 0.000000 3.335890 0.000000 
#    z -0.144280 0.000000 3.545030 
# 
# 
# High freq. dielectric constant tensor:
#      x y z
#    x 1.738020 0.000000 -0.007290 
#    y 0.000000 1.707260 0.000000 
#    z -0.007290 0.000000 1.726200 
# 
# From -- ./inp_files/156193.got.cif
#   From: 2010.06.25/outbox.cif.g09.slc.cpg/sg15_79_cif.got.tgz:156193.got - 2010.06.28 07:06:18.
