data_PCOD8131555
_publ_section_title
;
Structure prediction by ZEFSAII (Michael W. Deem and Ramdas Pophale) SiO2 
 PCOD8131555
Probable space group: C 2/C
;
_chemical_formula_sum "Si O2"
_cell_formula_units_Z 56
_cell_length_a 31.306004
_cell_length_b 5.698184
_cell_length_c 25.632305
_cell_angle_alpha 90.000000
_cell_angle_beta 144.296059
_cell_angle_gamma 90.000000
_cell_volume 2668.485631
_symmetry_space_group_name_H-M "C 2/C"
_symmetry_group_IT_number 15
_symmetry_cell_setting 'monoclinic'
loop_
_space_group_symop_operation_xyz
x,y,z
-x,y,1/2-z
-x,-y,-z
x,-y,1/2+z
1/2+x,1/2+y,z
1/2-x,1/2+y,1/2-z
1/2-x,1/2-y,-z
1/2+x,1/2-y,1/2+z
loop_
_atom_site_type_symbol
_atom_site_label
_atom_site_fract_x
_atom_site_fract_y
_atom_site_fract_z
Si Si1 0.912988 0.631949 0.659216
Si Si2 0.642980 0.200613 0.611856
Si Si3 0.433404 0.369683 0.143535
Si Si4 0.291195 0.884672 0.737107
Si Si5 0.018452 0.307645 0.913868
Si Si6 0.598109 0.507095 0.656167
Si Si7 0.608059 0.129876 0.744741
O O1 0.889720 0.382535 0.608269
O O2 0.873206 0.632797 0.675839
O O3 0.000000 0.636116 0.750000
O O4 0.889086 0.881291 0.607629
O O5 0.703175 0.373030 0.644969
O O6 0.591285 0.095567 0.515107
O O7 0.588862 0.329824 0.598979
O O8 0.686882 0.003718 0.686562
O O9 0.500000 0.369189 0.250000
O O10 0.460202 0.375122 0.110388
O O11 0.322967 0.624389 0.772383
O O12 0.325398 0.007043 0.720067
O O13 0.969177 0.186919 0.909899
O O14 0.971893 0.515146 0.842342
O O15 0.599807 0.390546 0.714940
#
# Coordination Sequence:
#
# PCOD8131555 Si02
#       7
#     8   8   8   8   8   8   8
#     4  10  18  33  58  85 124 157 196 249 309 371
#     4  11  22  40  59  83 124 161 208 244 303 369
#     4  10  19  34  57  90 126 158 191 250 318 367
#     4  10  22  39  58  82 117 170 204 240 304 379
#     4  11  22  35  59  96 119 152 203 262 303 359
#     4  10  21  37  60  84 119 154 199 251 307 360
#     4  10  21  36  58  91 116 154 206 251 309 368
#
# _framework density 20.985685
#
# number of rings (size 3 to 8) (size 9 to 14) (size 15 to 20)
#    0.000    1.714    4.286    2.143    2.000    6.286 
#    0.000    0.000    0.000    1.714    0.000    0.000 
#    0.000    0.000    0.000    0.000    0.000    0.000 
#
# Total GULP energy -346902.848151 kJ/mol
# GULP energy per Si atom -12389.387434 kJ/mol
# Density = 2.093792 g / cm^3
# Si number density = 20.985685 Si / 1000 Ang^3
#
#
#
# Elastic Constant Matrix: (Units=GPa)
#
#
# Indices 1 2 3 4 5 6 
#
# 1 110.6152 25.0138 30.4830 0.0041 -2.8630 -0.0046
# 2 25.0138 123.5554 10.8990 -0.0213 4.1335 -0.0179
# 3 30.4830 10.8990 51.2650 -0.0075 7.2345 -0.0009
# 4 0.0041 -0.0213 -0.0075 8.3434 -0.0061 -1.1729
# 5 -2.8630 4.1335 7.2345 -0.0061 15.0167 0.0039
# 6 -0.0046 -0.0179 -0.0009 -1.1729 0.0039 31.6279
#
#
#
# Elastic Compliance Matrix: (Units=1/GPa)
#
#
# Indices 1 2 3 4 5 6 
#
# 1 0.011688 -0.001922 -0.007436 -0.000013 0.006340 -0.000001
# 2 -0.001922 0.008597 -0.000321 0.000022 -0.002578 0.000006
# 3 -0.007436 -0.000321 0.025948 0.000016 -0.013830 0.000002
# 4 -0.000013 0.000022 0.000016 0.120483 0.000032 0.004468
# 5 0.006340 -0.002578 -0.013830 0.000032 0.075174 -0.000009
# 6 -0.000001 0.000006 0.000002 0.004468 -0.000009 0.031783
#
#
# Mechanical properties :
#
#
# Convention : Reuss Voigt Hill
#
# Bulk Modulus (GPa) = 37.20927 46.46971 41.83949
# Shear Modulus (GPa) = 16.55676 25.60025 21.07850
#
# Velocity S-wave (km/s) = 2.81188 3.49648 3.17270
# Velocity P-wave (km/s) = 5.32086 6.20420 5.77943
#
# Compressibility (1/GPa) = 0.02687502
#
# Stress axis : x y z
#
# Youngs Moduli (GPa) = 85.55492 116.31549 38.53854
#
# Poissons Ratio (x) = 0.22361 0.28658
# Poissons Ratio (y) = 0.16448 0.01236
# Poissons Ratio (z) = 0.63620 0.03731
#
# Static dielectric constant tensor:
#      x y z
#    x 4.099940 -0.000030 -0.032410 
#    y -0.000030 4.380930 -0.000020 
#    z -0.032410 -0.000020 3.201860 
# 
# 
# High freq. dielectric constant tensor:
#      x y z
#    x 1.838150 0.000000 -0.010020 
#    y 0.000000 1.829770 0.000000 
#    z -0.010020 0.000000 1.756090 
# 
# From -- ./inp_files/303937.got.cif
#   From: 2010.06.25/outbox.cif.g09.slc.cpg/sg15_152_cif.got.tgz:303937.got - 2010.06.28 07:06:18.
