data_PCOD8131115
_publ_section_title
;
Structure prediction by ZEFSAII (Michael W. Deem and Ramdas Pophale) SiO2 
 PCOD8131115
Probable space group: C 2/C
;
_chemical_formula_sum "Si O2"
_cell_formula_units_Z 64
_cell_length_a 27.870733
_cell_length_b 20.413125
_cell_length_c 8.789964
_cell_angle_alpha 90.000000
_cell_angle_beta 139.399121
_cell_angle_gamma 90.000000
_cell_volume 3254.491144
_symmetry_space_group_name_H-M "C 2/C"
_symmetry_group_IT_number 15
_symmetry_cell_setting 'monoclinic'
loop_
_space_group_symop_operation_xyz
x,y,z
-x,y,1/2-z
-x,-y,-z
x,-y,1/2+z
1/2+x,1/2+y,z
1/2-x,1/2+y,1/2-z
1/2-x,1/2-y,-z
1/2+x,1/2-y,1/2+z
loop_
_atom_site_type_symbol
_atom_site_label
_atom_site_fract_x
_atom_site_fract_y
_atom_site_fract_z
Si Si1 0.129459 0.567318 0.636139
Si Si2 0.798677 0.924959 0.204426
Si Si3 0.623509 0.064523 0.276668
Si Si4 0.850143 0.304202 0.162177
Si Si5 0.321984 0.711240 0.617466
Si Si6 0.319300 0.317416 0.756302
Si Si7 0.695538 0.444684 0.939407
Si Si8 0.918030 0.689795 0.502594
O O1 0.097630 0.568418 0.388956
O O2 0.096749 0.505603 0.648774
O O3 0.104484 0.635265 0.655392
O O4 0.216691 0.559360 0.854684
O O5 0.830790 0.856371 0.227238
O O6 0.829317 0.934763 0.447598
O O7 0.830393 0.983848 0.178341
O O8 0.710609 0.923293 0.979101
O O9 0.583886 0.118664 0.078374
O O10 0.871266 0.234767 0.291296
O O11 0.862886 0.304930 0.012881
O O12 0.764981 0.312753 0.999712
O O13 0.250000 0.750000 0.500000
O O14 0.322942 0.695175 0.442931
O O15 0.392922 0.756119 0.820328
O O16 0.343259 0.390669 0.763650
O O17 0.000000 0.706807 0.750000
#
# Coordination Sequence:
#
# PCOD8131115 Si02
#       8
#     8   8   8   8   8   8   8   8
#     4   9  18  30  54  77 110 147 191 237 273 325
#     4  10  18  31  54  82 116 146 182 233 280 337
#     4  10  18  34  51  77 109 150 192 234 281 321
#     4  10  19  34  54  82 112 145 186 233 283 329
#     4  12  21  35  58  82 109 146 193 234 282 333
#     4  10  19  32  58  86 112 140 185 235 284 334
#     4   9  18  29  50  88 120 141 174 232 296 329
#     4  12  25  39  54  79 114 152 191 236 284 335
#
# _framework density 19.665133000000001
#
# number of rings (size 3 to 8) (size 9 to 14) (size 15 to 20)
#    0.000    1.750    2.500    3.000    3.500    4.000 
#    0.000    5.000    0.000    0.000    0.000    7.875 
#    0.000    0.000    0.000    0.000    0.000    0.000 
#
# Total GULP energy -396760.473089 kJ/mol
# GULP energy per Si atom -12398.764784 kJ/mol
# Density = 1.962037 g / cm^3
# Si number density = 19.665133 Si / 1000 Ang^3
#
#
#
# Elastic Constant Matrix: (Units=GPa)
#
#
# Indices 1 2 3 4 5 6 
#
# 1 43.9576 36.9047 32.1164 0.0000 -33.7530 0.0000
# 2 36.9047 174.3958 52.1598 0.0000 -23.7696 0.0000
# 3 32.1164 52.1598 81.4357 0.0000 -25.2848 0.0000
# 4 0.0000 0.0000 0.0000 33.9624 0.0000 -19.4768
# 5 -33.7530 -23.7696 -25.2848 0.0000 39.6098 0.0000
# 6 0.0000 0.0000 0.0000 -19.4768 0.0000 26.7195
#
#
#
# Elastic Compliance Matrix: (Units=1/GPa)
#
#
# Indices 1 2 3 4 5 6 
#
# 1 0.078942 -0.006048 -0.009354 0.000000 0.057669 0.000000
# 2 -0.006048 0.007648 -0.003353 0.000000 -0.002704 0.000000
# 3 -0.009354 -0.003353 0.018729 0.000000 0.001972 0.000000
# 4 0.000000 0.000000 0.000000 0.050594 0.000000 0.036880
# 5 0.057669 -0.002704 0.001972 0.000000 0.074025 0.000000
# 6 0.000000 0.000000 0.000000 0.036880 0.000000 0.064309
#
#
# Mechanical properties :
#
#
# Convention : Reuss Voigt Hill
#
# Bulk Modulus (GPa) = 14.74715 60.23899 37.49307
# Shear Modulus (GPa) = 14.10997 31.96556 23.03777
#
# Velocity S-wave (km/s) = 2.68155 4.03612 3.42644
# Velocity P-wave (km/s) = 4.13558 7.24011 5.89585
#
# Compressibility (1/GPa) = 0.06780972
#
# Stress axis : x y z
#
# Youngs Moduli (GPa) = 12.66750 130.74999 53.39368
#
# Poissons Ratio (x) = 0.79071 0.49944
# Poissons Ratio (y) = 0.07661 0.17905
# Poissons Ratio (z) = 0.11849 0.43845
#
# Static dielectric constant tensor:
#      x y z
#    x 3.342530 0.000000 -0.378700 
#    y 0.000000 3.994960 0.000000 
#    z -0.378700 0.000000 3.325850 
# 
# 
# High freq. dielectric constant tensor:
#      x y z
#    x 1.735170 0.000000 -0.049210 
#    y 0.000000 1.789060 0.000000 
#    z -0.049210 0.000000 1.735610 
# 
# From -- ./inp_files/70623.got.cif
#   From: 2010.06.25/outbox.cif.g09.slc.cpg/sg15_36_cif.got.tgz:70623.got - 2010.06.28 07:06:18.
