data_PCOD8131375
_publ_section_title
;
Structure prediction by ZEFSAII (Michael W. Deem and Ramdas Pophale) SiO2 
 PCOD8131375
Probable space group: C 2/C
;
_chemical_formula_sum "Si O2"
_cell_formula_units_Z 64
_cell_length_a 16.707772
_cell_length_b 16.052014
_cell_length_c 14.025036
_cell_angle_alpha 90.000000
_cell_angle_beta 114.632250
_cell_angle_gamma 90.000000
_cell_volume 3419.138773
_symmetry_space_group_name_H-M "C 2/C"
_symmetry_group_IT_number 15
_symmetry_cell_setting 'monoclinic'
loop_
_space_group_symop_operation_xyz
x,y,z
-x,y,1/2-z
-x,-y,-z
x,-y,1/2+z
1/2+x,1/2+y,z
1/2-x,1/2+y,1/2-z
1/2-x,1/2-y,-z
1/2+x,1/2-y,1/2+z
loop_
_atom_site_type_symbol
_atom_site_label
_atom_site_fract_x
_atom_site_fract_y
_atom_site_fract_z
Si Si1 0.831229 0.394713 0.359261
Si Si2 0.655691 0.052287 0.425144
Si Si3 0.684744 0.494968 0.730514
Si Si4 0.667990 0.866478 0.738075
Si Si5 0.273707 0.233234 0.699056
Si Si6 0.302360 0.578045 0.952897
Si Si7 0.598914 0.372706 0.815777
Si Si8 0.027359 0.484500 0.620771
O O1 0.857240 0.397482 0.482668
O O2 0.729542 0.424980 0.301819
O O3 0.832976 0.302515 0.315678
O O4 0.895855 0.447713 0.320504
O O5 0.676109 0.122557 0.356598
O O6 0.727356 0.978558 0.466853
O O7 0.559825 0.009425 0.355482
O O8 0.759311 0.425136 0.772032
O O9 0.653991 0.522253 0.609404
O O10 0.605433 0.454990 0.751378
O O11 0.688196 0.774580 0.707937
O O12 0.570812 0.892980 0.654549
O O13 0.242339 0.161818 0.610385
O O14 0.333398 0.298886 0.673066
O O15 0.379658 0.600029 0.065157
O O16 0.500000 0.339501 0.750000
O O17 0.000000 0.500000 0.500000
#
# Coordination Sequence:
#
# PCOD8131375 Si02
#       8
#     8   8   8   8   8   8   8   8
#     4   9  17  34  54  80 110 145 180 223 272 321
#     4  10  18  32  60  83 104 143 192 227 271 328
#     4   8  17  35  56  76 107 135 188 224 253 320
#     4   9  18  32  50  79 113 145 176 223 272 328
#     4  10  22  36  52  78 117 147 174 221 283 338
#     4  10  20  37  61  80 104 151 182 224 278 323
#     4  11  22  37  55  82 110 140 184 228 273 325
#     4   9  18  31  54  84 108 140 183 235 270 314
#
# _framework density 18.718164000000002
#
# number of rings (size 3 to 8) (size 9 to 14) (size 15 to 20)
#    0.000    2.500    1.250    1.500    1.750    2.000 
#    4.500    0.000    0.000    6.000    0.000    0.000 
#    0.000    0.000    0.000    0.000    0.000    0.000 
#
# Total GULP energy -396464.899814 kJ/mol
# GULP energy per Si atom -12389.528119 kJ/mol
# Density = 1.867556 g / cm^3
# Si number density = 18.718164 Si / 1000 Ang^3
#
#
#
# Elastic Constant Matrix: (Units=GPa)
#
#
# Indices 1 2 3 4 5 6 
#
# 1 64.2943 19.9625 30.1382 0.0000 0.0393 0.0000
# 2 19.9625 64.8386 36.0403 0.0000 -3.4380 0.0000
# 3 30.1382 36.0403 101.8441 0.0000 0.6955 0.0000
# 4 0.0000 0.0000 0.0000 28.0113 0.0000 -0.1152
# 5 0.0393 -3.4380 0.6955 0.0000 24.8445 0.0000
# 6 0.0000 0.0000 0.0000 -0.1152 0.0000 17.1709
#
#
#
# Elastic Compliance Matrix: (Units=1/GPa)
#
#
# Indices 1 2 3 4 5 6 
#
# 1 0.018620 -0.003350 -0.004322 0.000000 -0.000372 0.000000
# 2 -0.003350 0.020006 -0.006108 0.000000 0.002945 0.000000
# 3 -0.004322 -0.006108 0.013268 0.000000 -0.001210 0.000000
# 4 0.000000 0.000000 0.000000 0.035701 0.000000 0.000240
# 5 -0.000372 0.002945 -0.001210 0.000000 0.040692 0.000000
# 6 0.000000 0.000000 0.000000 0.000240 0.000000 0.058240
#
#
# Mechanical properties :
#
#
# Convention : Reuss Voigt Hill
#
# Bulk Modulus (GPa) = 41.09714 44.80655 42.95185
# Shear Modulus (GPa) = 22.50248 23.66107 23.08177
#
# Velocity S-wave (km/s) = 3.47100 3.55923 3.51539
# Velocity P-wave (km/s) = 6.16986 6.39377 6.28281
#
# Compressibility (1/GPa) = 0.02433259
#
# Stress axis : x y z
#
# Youngs Moduli (GPa) = 53.70629 49.98569 75.37047
#
# Poissons Ratio (x) = 0.16745 0.32575
# Poissons Ratio (y) = 0.17992 0.46039
# Poissons Ratio (z) = 0.23212 0.30533
#
# Static dielectric constant tensor:
#      x y z
#    x 3.636270 0.000000 -0.051780 
#    y 0.000000 3.483670 0.000000 
#    z -0.051780 0.000000 3.454910 
# 
# 
# High freq. dielectric constant tensor:
#      x y z
#    x 1.712380 0.000000 -0.011270 
#    y 0.000000 1.704460 0.000000 
#    z -0.011270 0.000000 1.733410 
# 
# From -- ./inp_files/162281.got.cif
#   From: 2010.06.25/outbox.cif.g09.slc.cpg/sg15_82_cif.got.tgz:162281.got - 2010.06.28 07:06:18.
