data_PCOD8131264
_publ_section_title
;
Structure prediction by ZEFSAII (Michael W. Deem and Ramdas Pophale) SiO2 
 PCOD8131264
Probable space group: C 2/C
;
_chemical_formula_sum "Si O2"
_cell_formula_units_Z 56
_cell_length_a 29.776769
_cell_length_b 8.191807
_cell_length_c 17.845179
_cell_angle_alpha 90.000000
_cell_angle_beta 39.469073
_cell_angle_gamma 90.000000
_cell_volume 2766.968300
_symmetry_space_group_name_H-M "C 2/C"
_symmetry_group_IT_number 15
_symmetry_cell_setting 'monoclinic'
loop_
_space_group_symop_operation_xyz
x,y,z
-x,y,1/2-z
-x,-y,-z
x,-y,1/2+z
1/2+x,1/2+y,z
1/2-x,1/2+y,1/2-z
1/2-x,1/2-y,-z
1/2+x,1/2-y,1/2+z
loop_
_atom_site_type_symbol
_atom_site_label
_atom_site_fract_x
_atom_site_fract_y
_atom_site_fract_z
Si Si1 0.727020 0.167997 0.276832
Si Si2 0.827995 0.288175 0.807389
Si Si3 0.221110 0.003262 0.536522
Si Si4 0.641678 0.158306 0.885879
Si Si5 0.942964 0.543027 0.633986
Si Si6 0.543583 0.987385 0.126334
Si Si7 0.175867 0.290886 0.000513
O O1 0.688249 0.258152 0.257780
O O2 0.813059 0.177790 0.157253
O O3 0.706168 0.260157 0.380621
O O4 0.701017 0.982662 0.314274
O O5 0.902114 0.382894 0.716636
O O6 0.832469 0.124981 0.851635
O O7 0.764150 0.402350 0.917391
O O8 0.174239 0.863575 0.558032
O O9 0.276000 0.932449 0.526005
O O10 0.610301 0.165968 0.841047
O O11 0.582668 0.126560 0.025956
O O12 0.000000 0.500000 0.500000
O O13 0.986722 0.613416 0.648176
O O14 0.500000 0.072787 0.250000
O O15 0.596680 0.856833 0.093184
#
# Coordination Sequence:
#
# PCOD8131264 Si02
#       7
#     8   8   8   8   8   8   8
#     4  10  18  32  54  81 106 136 180 230 278 325
#     4  10  19  34  56  83 114 143 180 239 290 332
#     4  10  21  34  54  86 116 141 180 239 300 331
#     4   9  19  33  54  81 105 133 178 233 280 321
#     4   9  18  32  50  76 106 142 183 221 266 330
#     4  10  19  32  52  76 105 144 184 215 257 333
#     4  10  20  35  55  83 114 150 189 229 283 344
#
# _framework density 20.238758000000001
#
# number of rings (size 3 to 8) (size 9 to 14) (size 15 to 20)
#    0.000    2.286    0.000    5.143    0.000    2.286 
#    0.000    0.000    0.000   14.571    0.000   43.000 
#    0.000    0.000    0.000    0.000    0.000    0.000 
#
# Total GULP energy -346963.274660 kJ/mol
# GULP energy per Si atom -12391.545524 kJ/mol
# Density = 2.019269 g / cm^3
# Si number density = 20.238758 Si / 1000 Ang^3
#
#
#
# Elastic Constant Matrix: (Units=GPa)
#
#
# Indices 1 2 3 4 5 6 
#
# 1 141.2596 23.5097 49.5495 -0.0008 -2.5752 0.0005
# 2 23.5097 46.8542 30.5468 0.0010 -2.6323 0.0030
# 3 49.5495 30.5468 113.6524 0.0048 8.7904 -0.0017
# 4 -0.0008 0.0010 0.0048 19.6045 -0.0019 2.1421
# 5 -2.5752 -2.6323 8.7904 -0.0019 36.3608 0.0006
# 6 0.0005 0.0030 -0.0017 2.1421 0.0006 23.8514
#
#
#
# Elastic Compliance Matrix: (Units=1/GPa)
#
#
# Indices 1 2 3 4 5 6 
#
# 1 0.008604 -0.002108 -0.003281 0.000001 0.001250 0.000000
# 2 -0.002108 0.026870 -0.006565 0.000001 0.003383 -0.000004
# 3 -0.003281 -0.006565 0.012278 -0.000003 -0.003676 0.000002
# 4 0.000001 0.000001 -0.000003 0.051514 0.000004 -0.004626
# 5 0.001250 0.003383 -0.003676 0.000004 0.028724 -0.000002
# 6 0.000000 -0.000004 0.000002 -0.004626 -0.000002 0.042342
#
#
# Mechanical properties :
#
#
# Convention : Reuss Voigt Hill
#
# Bulk Modulus (GPa) = 41.93787 56.55313 49.24550
# Shear Modulus (GPa) = 24.72949 29.17402 26.95176
#
# Velocity S-wave (km/s) = 3.49934 3.80082 3.65319
# Velocity P-wave (km/s) = 6.09046 6.87497 6.49458
#
# Compressibility (1/GPa) = 0.02384480
#
# Stress axis : x y z
#
# Youngs Moduli (GPa) = 116.22962 37.21577 81.44621
#
# Poissons Ratio (x) = 0.07844 0.26724
# Poissons Ratio (y) = 0.24496 0.53468
# Poissons Ratio (z) = 0.38137 0.24432
#
# Static dielectric constant tensor:
#      x y z
#    x 4.394050 -0.000010 0.168890 
#    y -0.000010 3.250470 0.000020 
#    z 0.168890 0.000020 3.865430 
# 
# 
# High freq. dielectric constant tensor:
#      x y z
#    x 1.812830 0.000000 0.015900 
#    y 0.000000 1.735940 0.000000 
#    z 0.015900 0.000000 1.798850 
# 
# From -- ./inp_files/224396.got.cif
#   From: 2010.06.25/outbox.cif.g09.slc.cpg/sg15_113_cif.got.tgz:224396.got - 2010.06.28 07:06:18.
