data_PCOD8131397
_publ_section_title
;
Structure prediction by ZEFSAII (Michael W. Deem and Ramdas Pophale) SiO2 
 PCOD8131397
Probable space group: C 2/C
;
_chemical_formula_sum "Si O2"
_cell_formula_units_Z 60
_cell_length_a 22.550425
_cell_length_b 7.666134
_cell_length_c 16.466497
_cell_angle_alpha 90.000000
_cell_angle_beta 76.652141
_cell_angle_gamma 90.000000
_cell_volume 2769.740714
_symmetry_space_group_name_H-M "C 2/C"
_symmetry_group_IT_number 15
_symmetry_cell_setting 'monoclinic'
loop_
_space_group_symop_operation_xyz
x,y,z
-x,y,1/2-z
-x,-y,-z
x,-y,1/2+z
1/2+x,1/2+y,z
1/2-x,1/2+y,1/2-z
1/2-x,1/2-y,-z
1/2+x,1/2-y,1/2+z
loop_
_atom_site_type_symbol
_atom_site_label
_atom_site_fract_x
_atom_site_fract_y
_atom_site_fract_z
Si Si1 0.806898 0.669206 0.341225
Si Si2 0.304015 0.780777 0.349380
Si Si3 0.500000 0.622746 0.750000
Si Si4 0.934839 0.145424 0.032224
Si Si5 0.386468 0.477925 0.380870
Si Si6 0.173755 0.228462 0.842426
Si Si7 0.958440 0.208550 0.595789
Si Si8 0.676584 0.317770 0.836594
O O1 0.816949 0.476845 0.376212
O O2 0.849292 0.802537 0.374566
O O3 0.821184 0.660846 0.240988
O O4 0.735992 0.725248 0.372078
O O5 0.344066 0.647293 0.387988
O O6 0.231761 0.732159 0.382015
O O7 0.321051 0.779693 0.249237
O O8 0.556295 0.505480 0.699149
O O9 0.476152 0.747348 0.684143
O O10 0.906861 0.033332 0.967010
O O11 0.988348 0.276977 0.982781
O O12 0.881858 0.253151 0.094594
O O13 0.961857 0.003288 0.086351
O O14 0.108950 0.281035 0.904634
O O15 0.171999 0.024155 0.820035
#
# Coordination Sequence:
#
# PCOD8131397 Si02
#       8
#     8   8   4   8   8   8   8   8
#     4  10  19  32  56  82 111 142 191 237 276 328
#     4  10  20  33  59  86 110 146 198 238 276 330
#     4  10  18  32  64  82 106 146 198 236 262 340
#     4   9  19  31  56  81 115 151 181 230 293 343
#     4  11  20  36  56  84 111 151 189 230 287 337
#     4   9  16  32  55  82 110 142 190 241 275 326
#     4   9  16  32  54  87 104 146 197 224 281 341
#     4   9  17  33  52  82 113 145 188 237 281 337
#
# _framework density 21.662676999999999
#
# number of rings (size 3 to 8) (size 9 to 14) (size 15 to 20)
#    0.000    2.400    2.667    0.800    1.867    0.533 
#    0.000    6.667    5.867    0.800    0.000    0.000 
#    0.000    0.000    0.000    0.000    0.000    0.000 
#
# Total GULP energy -371769.213394 kJ/mol
# GULP energy per Si atom -12392.307113 kJ/mol
# Density = 2.161337 g / cm^3
# Si number density = 21.662677 Si / 1000 Ang^3
#
#
#
# Elastic Constant Matrix: (Units=GPa)
#
#
# Indices 1 2 3 4 5 6 
#
# 1 155.7605 31.9821 42.4422 0.0000 -34.7589 0.0000
# 2 31.9821 61.3635 2.3777 0.0000 5.5095 0.0000
# 3 42.4422 2.3777 60.8327 0.0000 -20.9275 0.0000
# 4 0.0000 0.0000 0.0000 12.0249 0.0000 3.5717
# 5 -34.7589 5.5095 -20.9275 0.0000 45.3989 0.0000
# 6 0.0000 0.0000 0.0000 3.5717 0.0000 26.6158
#
#
#
# Elastic Compliance Matrix: (Units=1/GPa)
#
#
# Indices 1 2 3 4 5 6 
#
# 1 0.010342 -0.005781 -0.004783 0.000000 0.006415 0.000000
# 2 -0.005781 0.019836 0.001078 0.000000 -0.006336 0.000000
# 3 -0.004783 0.001078 0.021902 0.000000 0.006303 0.000000
# 4 0.000000 0.000000 0.000000 0.086613 0.000000 -0.011623
# 5 0.006415 -0.006336 0.006303 0.000000 0.030613 0.000000
# 6 0.000000 0.000000 0.000000 -0.011623 0.000000 0.039131
#
#
# Mechanical properties :
#
#
# Convention : Reuss Voigt Hill
#
# Bulk Modulus (GPa) = 30.20298 47.95117 39.07708
# Shear Modulus (GPa) = 20.96928 30.21823 25.59376
#
# Velocity S-wave (km/s) = 3.11463 3.73895 3.44098
# Velocity P-wave (km/s) = 5.18722 6.38929 5.81938
#
# Compressibility (1/GPa) = 0.03310932
#
# Stress axis : x y z
#
# Youngs Moduli (GPa) = 96.69555 50.41260 45.65872
#
# Poissons Ratio (x) = 0.29142 0.21836
# Poissons Ratio (y) = 0.55897 -0.04922
# Poissons Ratio (z) = 0.46245 -0.05435
#
# Static dielectric constant tensor:
#      x y z
#    x 4.491550 0.000000 -0.380780 
#    y 0.000000 3.320980 0.000000 
#    z -0.380780 0.000000 3.799760 
# 
# 
# High freq. dielectric constant tensor:
#      x y z
#    x 1.876730 0.000000 -0.016420 
#    y 0.000000 1.792890 0.000000 
#    z -0.016420 0.000000 1.835440 
# 
# From -- ./inp_files/213878.got.cif
#   From: 2010.06.25/outbox.cif.g09.slc.cpg/sg15_107_cif.got.tgz:213878.got - 2010.06.28 07:06:18.
