data_PCOD8131482
_publ_section_title
;
Structure prediction by ZEFSAII (Michael W. Deem and Ramdas Pophale) SiO2 
 PCOD8131482
Probable space group: C 2/C
;
_chemical_formula_sum "Si O2"
_cell_formula_units_Z 56
_cell_length_a 15.789533
_cell_length_b 13.129362
_cell_length_c 22.531742
_cell_angle_alpha 90.000000
_cell_angle_beta 37.937681
_cell_angle_gamma 90.000000
_cell_volume 2871.735072
_symmetry_space_group_name_H-M "C 2/C"
_symmetry_group_IT_number 15
_symmetry_cell_setting 'monoclinic'
loop_
_space_group_symop_operation_xyz
x,y,z
-x,y,1/2-z
-x,-y,-z
x,-y,1/2+z
1/2+x,1/2+y,z
1/2-x,1/2+y,1/2-z
1/2-x,1/2-y,-z
1/2+x,1/2-y,1/2+z
loop_
_atom_site_type_symbol
_atom_site_label
_atom_site_fract_x
_atom_site_fract_y
_atom_site_fract_z
Si Si1 0.878919 0.608964 0.065912
Si Si2 0.631362 0.669522 0.952889
Si Si3 0.905194 0.385567 0.359373
Si Si4 0.967044 0.497055 0.118322
Si Si5 0.067046 0.786464 0.838226
Si Si6 0.390584 0.509442 0.259511
Si Si7 0.207365 0.121166 0.785870
O O1 0.811330 0.717899 0.093133
O O2 0.951447 0.604146 0.092012
O O3 0.760332 0.522435 0.127458
O O4 0.995108 0.587597 0.952711
O O5 0.745647 0.617521 0.931137
O O6 0.617445 0.615365 0.896380
O O7 0.486820 0.674756 0.067472
O O8 0.000000 0.392249 0.250000
O O9 0.921280 0.489178 0.390351
O O10 0.953923 0.288760 0.371421
O O11 0.821982 0.466947 0.228069
O O12 0.078270 0.885488 0.791366
O O13 0.215021 0.730473 0.764653
O O14 0.500000 0.486230 0.250000
O O15 0.390054 0.410988 0.215648
#
# Coordination Sequence:
#
# PCOD8131482 Si02
#       7
#     8   8   8   8   8   8   8
#     4  10  18  33  55  78 107 144 186 226 264 326
#     4  12  20  32  57  81 116 145 179 228 282 322
#     4  11  18  31  52  83 119 140 174 230 282 318
#     4   9  19  32  50  81 111 142 183 222 273 325
#     4  11  21  34  55  87 112 148 183 226 279 332
#     4  11  23  37  58  84 112 146 190 228 276 327
#     4  10  21  38  53  82 117 147 180 233 276 333
#
# _framework density 19.500406000000002
#
# number of rings (size 3 to 8) (size 9 to 14) (size 15 to 20)
#    0.000    1.429    7.143    1.714    2.000    0.571 
#    0.000    0.000    0.000    3.429    0.000    0.000 
#    0.000    0.000    0.000    0.000    0.000    0.000 
#
# Total GULP energy -346897.777258 kJ/mol
# GULP energy per Si atom -12389.206331 kJ/mol
# Density = 1.945602 g / cm^3
# Si number density = 19.500406 Si / 1000 Ang^3
#
#
#
# Elastic Constant Matrix: (Units=GPa)
#
#
# Indices 1 2 3 4 5 6 
#
# 1 125.5603 44.6717 27.0965 0.0000 20.9806 0.0000
# 2 44.6717 24.7476 12.9212 0.0000 10.9133 0.0000
# 3 27.0965 12.9212 100.8190 -0.0001 21.2475 0.0000
# 4 0.0000 0.0000 -0.0001 23.4197 0.0000 11.0089
# 5 20.9806 10.9133 21.2475 0.0000 25.5414 0.0000
# 6 0.0000 0.0000 0.0000 11.0089 0.0000 31.7417
#
#
#
# Elastic Compliance Matrix: (Units=1/GPa)
#
#
# Indices 1 2 3 4 5 6 
#
# 1 0.022347 -0.039583 -0.000762 0.000000 -0.000809 0.000000
# 2 -0.039583 0.120348 -0.000971 0.000000 -0.018099 0.000000
# 3 -0.000762 -0.000971 0.012161 0.000000 -0.009075 0.000000
# 4 0.000000 0.000000 0.000000 0.051016 0.000000 -0.017694
# 5 -0.000809 -0.018099 -0.009075 0.000000 0.055100 0.000000
# 6 0.000000 0.000000 0.000000 -0.017694 0.000000 0.037641
#
#
# Mechanical properties :
#
#
# Convention : Reuss Voigt Hill
#
# Bulk Modulus (GPa) = 13.84624 46.72285 30.28455
# Shear Modulus (GPa) = 12.33591 27.23639 19.78615
#
# Velocity S-wave (km/s) = 2.51788 3.74131 3.18882
# Velocity P-wave (km/s) = 3.94574 6.53262 5.39648
#
# Compressibility (1/GPa) = 0.07222176
#
# Stress axis : x y z
#
# Youngs Moduli (GPa) = 44.74878 8.30924 82.23202
#
# Poissons Ratio (x) = 0.32891 0.06270
# Poissons Ratio (y) = 1.77131 0.07986
# Poissons Ratio (z) = 0.03412 0.00807
#
# Static dielectric constant tensor:
#      x y z
#    x 3.710200 0.000000 0.236880 
#    y 0.000000 3.449300 0.000000 
#    z 0.236880 0.000000 3.791800 
# 
# 
# High freq. dielectric constant tensor:
#      x y z
#    x 1.734100 0.000000 0.013880 
#    y 0.000000 1.716830 0.000000 
#    z 0.013880 0.000000 1.782350 
# 
# From -- ./inp_files/205351.got.cif
#   From: 2010.06.25/outbox.cif.g09.slc.cpg/sg15_103_cif.got.tgz:205351.got - 2010.06.28 07:06:18.
