data_PCOD8131700
_publ_section_title
;
Structure prediction by ZEFSAII (Michael W. Deem and Ramdas Pophale) SiO2 
 PCOD8131700
Probable space group: C 2/C
;
_chemical_formula_sum "Si O2"
_cell_formula_units_Z 64
_cell_length_a 28.449518
_cell_length_b 18.337367
_cell_length_c 11.743458
_cell_angle_alpha 90.000000
_cell_angle_beta 148.524346
_cell_angle_gamma 90.000000
_cell_volume 3198.834017
_symmetry_space_group_name_H-M "C 2/C"
_symmetry_group_IT_number 15
_symmetry_cell_setting 'monoclinic'
loop_
_space_group_symop_operation_xyz
x,y,z
-x,y,1/2-z
-x,-y,-z
x,-y,1/2+z
1/2+x,1/2+y,z
1/2-x,1/2+y,1/2-z
1/2-x,1/2-y,-z
1/2+x,1/2-y,1/2+z
loop_
_atom_site_type_symbol
_atom_site_label
_atom_site_fract_x
_atom_site_fract_y
_atom_site_fract_z
Si Si1 0.673097 0.791060 0.994342
Si Si2 0.358288 0.216236 0.325241
Si Si3 0.106918 0.851316 0.469796
Si Si4 0.354671 0.391100 0.708386
Si Si5 0.160719 0.948203 0.252185
Si Si6 0.516712 0.340977 0.906468
Si Si7 0.768222 0.576048 0.182513
Si Si8 0.235723 0.422788 0.254844
O O1 0.777274 0.770855 0.189324
O O2 0.667536 0.864172 0.059920
O O3 0.630305 0.803911 0.783204
O O4 0.614956 0.729259 0.935460
O O5 0.449470 0.258003 0.547947
O O6 0.339807 0.140698 0.355024
O O7 0.156148 0.848883 0.694990
O O8 0.167386 0.908174 0.522625
O O9 0.000000 0.873742 0.250000
O O10 0.381397 0.473919 0.798505
O O11 0.426979 0.342437 0.792767
O O12 0.269282 0.392796 0.447123
O O13 0.251255 0.931580 0.511443
O O14 0.183093 0.941263 0.164472
O O15 0.087759 0.886073 0.128736
O O16 0.500000 0.378927 0.750000
O O17 0.811030 0.501696 0.320911
#
# Coordination Sequence:
#
# PCOD8131700 Si02
#       8
#     8   8   8   8   8   8   8   8
#     4  10  19  35  57  76 107 144 188 227 268 326
#     4  10  18  34  56  79 104 147 192 223 259 325
#     4  11  22  35  52  82 112 144 180 227 276 326
#     4  11  23  33  51  80 119 146 178 224 277 330
#     4  11  19  35  50  79 114 148 184 214 270 331
#     4  12  21  34  53  80 115 150 184 220 268 329
#     4  10  21  35  58  79 107 144 188 228 268 326
#     4  11  20  37  55  82 110 148 182 226 277 323
#
# _framework density 20.007290000000001
#
# number of rings (size 3 to 8) (size 9 to 14) (size 15 to 20)
#    0.000    1.250    5.000    3.375    0.000    2.000 
#    0.000    0.000    0.000    0.750    0.000    2.625 
#    0.000    0.000    0.000    0.000    0.000    0.000 
#
# Total GULP energy -396494.019497 kJ/mol
# GULP energy per Si atom -12390.438109 kJ/mol
# Density = 1.996175 g / cm^3
# Si number density = 20.007290 Si / 1000 Ang^3
#
#
#
# Elastic Constant Matrix: (Units=GPa)
#
#
# Indices 1 2 3 4 5 6 
#
# 1 63.1658 12.4384 13.7264 0.0000 -16.4737 0.0000
# 2 12.4384 96.7894 16.8901 0.0000 4.0870 0.0000
# 3 13.7264 16.8901 32.7215 0.0000 -10.9189 0.0000
# 4 0.0000 0.0000 0.0000 27.7520 0.0000 -6.2093
# 5 -16.4737 4.0870 -10.9189 0.0000 28.6859 0.0000
# 6 0.0000 0.0000 0.0000 -6.2093 0.0000 28.2173
#
#
#
# Elastic Compliance Matrix: (Units=1/GPa)
#
#
# Indices 1 2 3 4 5 6 
#
# 1 0.019771 -0.002339 -0.003650 0.000000 0.010298 0.000000
# 2 -0.002339 0.012140 -0.007229 0.000000 -0.005824 0.000000
# 3 -0.003650 -0.007229 0.040628 0.000000 0.014398 0.000000
# 4 0.000000 0.000000 0.000000 0.037899 0.000000 0.008340
# 5 0.010298 -0.005824 0.014398 0.000000 0.047084 0.000000
# 6 0.000000 0.000000 0.000000 0.008340 0.000000 0.037275
#
#
# Mechanical properties :
#
#
# Convention : Reuss Voigt Hill
#
# Bulk Modulus (GPa) = 21.69040 30.97626 26.33333
# Shear Modulus (GPa) = 21.13281 26.90582 24.01932
#
# Velocity S-wave (km/s) = 3.25353 3.67113 3.46862
# Velocity P-wave (km/s) = 4.99788 5.78668 5.40668
#
# Compressibility (1/GPa) = 0.04610335
#
# Stress axis : x y z
#
# Youngs Moduli (GPa) = 50.57984 82.37528 24.61364
#
# Poissons Ratio (x) = 0.19264 0.08985
# Poissons Ratio (y) = 0.11828 0.17792
# Poissons Ratio (z) = 0.18463 0.59545
#
# Static dielectric constant tensor:
#      x y z
#    x 3.736330 0.000000 -0.411280 
#    y 0.000000 3.723550 0.000000 
#    z -0.411280 0.000000 3.335760 
# 
# 
# High freq. dielectric constant tensor:
#      x y z
#    x 1.775140 0.000000 -0.038310 
#    y 0.000000 1.781960 0.000000 
#    z -0.038310 0.000000 1.737730 
# 
# From -- ./inp_files/127310.got.cif
#   From: 2010.06.25/outbox.cif.g09.slc.cpg/sg15_64_cif.got.tgz:127310.got - 2010.06.28 07:06:18.
