data_PCOD8131206
_publ_section_title
;
Structure prediction by ZEFSAII (Michael W. Deem and Ramdas Pophale) SiO2 
 PCOD8131206
Probable space group: C 2/C
;
_chemical_formula_sum "Si O2"
_cell_formula_units_Z 64
_cell_length_a 22.929030
_cell_length_b 9.372394
_cell_length_c 20.071659
_cell_angle_alpha 90.000000
_cell_angle_beta 56.424572
_cell_angle_gamma 90.000000
_cell_volume 3593.743824
_symmetry_space_group_name_H-M "C 2/C"
_symmetry_group_IT_number 15
_symmetry_cell_setting 'monoclinic'
loop_
_space_group_symop_operation_xyz
x,y,z
-x,y,1/2-z
-x,-y,-z
x,-y,1/2+z
1/2+x,1/2+y,z
1/2-x,1/2+y,1/2-z
1/2-x,1/2-y,-z
1/2+x,1/2-y,1/2+z
loop_
_atom_site_type_symbol
_atom_site_label
_atom_site_fract_x
_atom_site_fract_y
_atom_site_fract_z
Si Si1 0.823993 0.662190 0.113101
Si Si2 0.956657 0.448490 0.213737
Si Si3 0.940024 0.121568 0.233796
Si Si4 0.171952 0.647587 0.230837
Si Si5 0.525248 0.889437 0.036018
Si Si6 0.805431 0.978871 0.148894
Si Si7 0.952187 0.096292 0.074907
Si Si8 0.303654 0.464587 0.307187
O O1 0.836340 0.653257 0.184267
O O2 0.802750 0.826439 0.113332
O O3 0.767466 0.544372 0.123198
O O4 0.892982 0.639548 0.025486
O O5 0.924189 0.290003 0.239619
O O6 0.897418 0.567868 0.248567
O O7 0.000000 0.491663 0.250000
O O8 0.011031 0.450850 0.118222
O O9 0.960025 0.056867 0.148559
O O10 0.000000 0.086357 0.250000
O O11 0.867454 0.049251 0.301224
O O12 0.238793 0.560991 0.163326
O O13 0.183841 0.797817 0.184828
O O14 0.475542 0.757064 0.051222
O O15 0.500000 0.000000 0.000000
O O16 0.799811 0.967473 0.230944
O O17 0.875034 0.072481 0.093038
O O18 0.000000 0.000000 0.000000
#
# Coordination Sequence:
#
# PCOD8131206 Si02
#       8
#     8   8   8   8   8   8   8   8
#     4  10  18  32  51  80 110 135 175 221 268 314
#     4  10  21  37  56  76 107 143 181 215 260 326
#     4   9  19  35  55  76 105 143 182 215 258 316
#     4  10  19  32  52  78 106 140 178 218 266 312
#     4  11  21  32  56  82 110 139 173 223 273 311
#     4   9  18  31  51  76 108 141 172 217 264 315
#     4  10  19  33  53  81 109 135 175 219 267 313
#     4   9  19  30  52  80 106 137 178 220 262 313
#
# _framework density 17.808726
#
# number of rings (size 3 to 8) (size 9 to 14) (size 15 to 20)
#    0.000    2.250    2.500    0.750    1.750    3.500 
#    0.000    0.000    2.750    3.750    0.000    0.000 
#    0.000    0.000    0.000    0.000    0.000    0.000 
#
# Total GULP energy -396503.180661 kJ/mol
# GULP energy per Si atom -12390.724396 kJ/mol
# Density = 1.776819 g / cm^3
# Si number density = 17.808726 Si / 1000 Ang^3
#
#
#
# Elastic Constant Matrix: (Units=GPa)
#
#
# Indices 1 2 3 4 5 6 
#
# 1 108.1581 76.7016 57.1042 0.0001 -21.3714 -0.0002
# 2 76.7016 124.1738 57.5853 0.0009 -19.2428 -0.0009
# 3 57.1042 57.5853 88.9414 0.0000 -24.1137 -0.0001
# 4 0.0001 0.0009 0.0000 22.7596 0.0000 -10.2528
# 5 -21.3714 -19.2428 -24.1137 0.0000 34.8731 0.0000
# 6 -0.0002 -0.0009 -0.0001 -10.2528 0.0000 33.3080
#
#
#
# Elastic Compliance Matrix: (Units=1/GPa)
#
#
# Indices 1 2 3 4 5 6 
#
# 1 0.018977 -0.008558 -0.005871 0.000000 0.002848 0.000000
# 2 -0.008558 0.015430 -0.004442 -0.000001 0.000198 0.000000
# 3 -0.005871 -0.004442 0.019998 0.000000 0.007779 0.000000
# 4 0.000000 -0.000001 0.000000 0.051011 0.000000 0.015702
# 5 0.002848 0.000198 0.007779 0.000000 0.035909 0.000000
# 6 0.000000 0.000000 0.000000 0.015702 0.000000 0.034856
#
#
# Mechanical properties :
#
#
# Convention : Reuss Voigt Hill
#
# Bulk Modulus (GPa) = 60.01351 78.22838 69.12095
# Shear Modulus (GPa) = 22.78129 26.84695 24.81412
#
# Velocity S-wave (km/s) = 3.58050 3.88689 3.73683
# Velocity P-wave (km/s) = 7.13200 8.01038 7.58392
#
# Compressibility (1/GPa) = 0.01666291
#
# Stress axis : x y z
#
# Youngs Moduli (GPa) = 52.69431 64.80806 50.00550
#
# Poissons Ratio (x) = 0.55464 0.29359
# Poissons Ratio (y) = 0.45097 0.22212
# Poissons Ratio (z) = 0.30938 0.28787
#
# Static dielectric constant tensor:
#      x y z
#    x 3.302030 0.000000 -0.341200 
#    y 0.000000 3.239910 0.000000 
#    z -0.341200 0.000000 3.295650 
# 
# 
# High freq. dielectric constant tensor:
#      x y z
#    x 1.677370 0.000000 -0.026110 
#    y 0.000000 1.701570 0.000000 
#    z -0.026110 0.000000 1.669460 
# 
# From -- ./inp_files/256997.got.cif
#   From: 2010.06.25/outbox.cif.g09.slc.cpg/sg15_129_cif.got.tgz:256997.got - 2010.06.28 07:06:18.
