data_PCOD8131449
_publ_section_title
;
Structure prediction by ZEFSAII (Michael W. Deem and Ramdas Pophale) SiO2 
 PCOD8131449
Probable space group: C 2/C
;
_chemical_formula_sum "Si O2"
_cell_formula_units_Z 56
_cell_length_a 9.946075
_cell_length_b 15.918344
_cell_length_c 19.797346
_cell_angle_alpha 90.000000
_cell_angle_beta 110.350804
_cell_angle_gamma 90.000000
_cell_volume 2938.768381
_symmetry_space_group_name_H-M "C 2/C"
_symmetry_group_IT_number 15
_symmetry_cell_setting 'monoclinic'
loop_
_space_group_symop_operation_xyz
x,y,z
-x,y,1/2-z
-x,-y,-z
x,-y,1/2+z
1/2+x,1/2+y,z
1/2-x,1/2+y,1/2-z
1/2-x,1/2-y,-z
1/2+x,1/2-y,1/2+z
loop_
_atom_site_type_symbol
_atom_site_label
_atom_site_fract_x
_atom_site_fract_y
_atom_site_fract_z
Si Si1 0.047390 0.354592 0.189248
Si Si2 0.044265 0.672108 0.480589
Si Si3 0.265660 0.079132 0.889003
Si Si4 0.759805 0.109985 0.126123
Si Si5 0.913844 0.242646 0.645973
Si Si6 0.107110 0.755262 0.933008
Si Si7 0.782961 0.282459 0.756673
O O1 0.130117 0.420908 0.157753
O O2 0.144663 0.275586 0.227648
O O3 0.000000 0.400900 0.250000
O O4 0.908379 0.319829 0.124424
O O5 0.145824 0.598621 0.527226
O O6 0.124977 0.716488 0.432663
O O7 0.894712 0.630152 0.433195
O O8 0.023699 0.743215 0.536354
O O9 0.141411 0.147564 0.857982
O O10 0.199077 0.986676 0.878231
O O11 0.887463 0.158108 0.108158
O O12 0.757939 0.135613 0.205492
O O13 0.839659 0.301949 0.690422
O O14 0.085464 0.235417 0.682829
O O15 0.250000 0.750000 0.000000
#
# Coordination Sequence:
#
# PCOD8131449 Si02
#       7
#     8   8   8   8   8   8   8
#     4  10  18  34  53  77 103 138 179 212 256 326
#     4   9  18  33  55  75 104 145 182 207 261 324
#     4  10  20  32  53  81 109 135 171 229 269 301
#     4  10  18  33  53  80 109 134 177 224 271 298
#     4   9  18  34  53  73 105 144 182 207 260 328
#     4   9  18  32  55  79 101 139 176 213 255 319
#     4   9  18  33  55  74 100 144 178 214 258 320
#
# _framework density 19.055602
#
# number of rings (size 3 to 8) (size 9 to 14) (size 15 to 20)
#    0.000    2.571    1.429    0.857    0.000    0.000 
#    5.143    6.429    0.000    0.000    0.000    0.000 
#    0.000    0.000    0.000    0.000    0.000    0.000 
#
# Total GULP energy -346938.101402 kJ/mol
# GULP energy per Si atom -12390.646479 kJ/mol
# Density = 1.901223 g / cm^3
# Si number density = 19.055602 Si / 1000 Ang^3
#
#
#
# Elastic Constant Matrix: (Units=GPa)
#
#
# Indices 1 2 3 4 5 6 
#
# 1 36.9231 18.3941 23.5286 0.0000 -16.0737 0.0000
# 2 18.3941 101.3150 30.0602 0.0000 -24.1688 0.0000
# 3 23.5286 30.0602 106.6131 0.0000 -27.8728 0.0000
# 4 0.0000 0.0000 0.0000 19.9773 0.0000 -1.7663
# 5 -16.0737 -24.1688 -27.8728 0.0000 36.5918 0.0000
# 6 0.0000 0.0000 0.0000 -1.7663 0.0000 21.3025
#
#
#
# Elastic Compliance Matrix: (Units=1/GPa)
#
#
# Indices 1 2 3 4 5 6 
#
# 1 0.035834 -0.002669 -0.004372 0.000000 0.010648 0.000000
# 2 -0.002669 0.012137 -0.001303 0.000000 0.005852 0.000000
# 3 -0.004372 -0.001303 0.012468 0.000000 0.006716 0.000000
# 4 0.000000 0.000000 0.000000 0.050427 0.000000 0.004181
# 5 0.010648 0.005852 0.006716 0.000000 0.040986 0.000000
# 6 0.000000 0.000000 0.000000 0.004181 0.000000 0.047289
#
#
# Mechanical properties :
#
#
# Convention : Reuss Voigt Hill
#
# Bulk Modulus (GPa) = 22.85654 43.20189 33.02921
# Shear Modulus (GPa) = 21.70014 27.09887 24.39951
#
# Velocity S-wave (km/s) = 3.37824 3.77516 3.58220
# Velocity P-wave (km/s) = 5.21895 6.45934 5.87199
#
# Compressibility (1/GPa) = 0.04375116
#
# Stress axis : x y z
#
# Youngs Moduli (GPa) = 27.90642 82.39043 80.20651
#
# Poissons Ratio (x) = 0.21986 0.35067
# Poissons Ratio (y) = 0.07447 0.10454
# Poissons Ratio (z) = 0.12201 0.10739
#
# Static dielectric constant tensor:
#      x y z
#    x 3.660360 0.000000 -0.215150 
#    y 0.000000 3.084940 0.000000 
#    z -0.215150 0.000000 3.973830 
# 
# 
# High freq. dielectric constant tensor:
#      x y z
#    x 1.734460 0.000000 -0.004600 
#    y 0.000000 1.690670 0.000000 
#    z -0.004600 0.000000 1.767860 
# 
# From -- ./inp_files/238414.got.cif
#   From: 2010.06.25/outbox.cif.g09.slc.cpg/sg15_120_cif.got.tgz:238414.got - 2010.06.28 07:06:18.
