data_PCOD8131685
_publ_section_title
;
Structure prediction by ZEFSAII (Michael W. Deem and Ramdas Pophale) SiO2 
 PCOD8131685
Probable space group: C 2/C
;
_chemical_formula_sum "Si O2"
_cell_formula_units_Z 40
_cell_length_a 20.249823
_cell_length_b 9.902356
_cell_length_c 22.303296
_cell_angle_alpha 90.000000
_cell_angle_beta 22.007179
_cell_angle_gamma 90.000000
_cell_volume 1675.864464
_symmetry_space_group_name_H-M "C 2/C"
_symmetry_group_IT_number 15
_symmetry_cell_setting 'monoclinic'
loop_
_space_group_symop_operation_xyz
x,y,z
-x,y,1/2-z
-x,-y,-z
x,-y,1/2+z
1/2+x,1/2+y,z
1/2-x,1/2+y,1/2-z
1/2-x,1/2-y,-z
1/2+x,1/2-y,1/2+z
loop_
_atom_site_type_symbol
_atom_site_label
_atom_site_fract_x
_atom_site_fract_y
_atom_site_fract_z
Si Si1 0.854834 0.882695 0.621032
Si Si2 0.183801 0.964963 0.579014
Si Si3 0.020617 0.501966 0.355352
Si Si4 0.267747 0.811209 0.394296
Si Si5 0.588020 0.841135 0.946002
O O1 0.765937 0.874950 0.761438
O O2 0.940220 0.737545 0.530580
O O3 0.697564 0.907325 0.704542
O O4 0.000000 0.000000 0.500000
O O5 0.344692 0.057952 0.470248
O O6 0.202718 0.932439 0.492667
O O7 0.173906 0.823854 0.622383
O O8 0.000000 0.040791 0.750000
O O9 0.057609 0.363923 0.287418
O O10 0.986067 0.473800 0.456225
O O11 0.122218 0.775514 0.467210
#
# Coordination Sequence:
#
# PCOD8131685 Si02
#       5
#     8   8   8   8   8
#     4  12  23  40  59  84 123 163 200 247 300 367
#     4  10  20  31  54  88 125 161 191 243 310 363
#     4  11  22  35  58  87 123 163 201 235 302 364
#     4  10  18  34  55  84 125 159 191 245 312 365
#     4  11  22  38  57  87 125 158 199 251 298 359
#
# _framework density 23.868278
#
# number of rings (size 3 to 8) (size 9 to 14) (size 15 to 20)
#    0.000    1.200    4.000    4.800    2.800    0.000 
#    0.000    0.000    0.000    0.000    0.000    9.800 
#    0.000    0.000    0.000    0.600    0.000    0.000 
#
# Total GULP energy -247854.772028 kJ/mol
# GULP energy per Si atom -12392.738601 kJ/mol
# Density = 2.381395 g / cm^3
# Si number density = 23.868278 Si / 1000 Ang^3
#
#
#
# Elastic Constant Matrix: (Units=GPa)
#
#
# Indices 1 2 3 4 5 6 
#
# 1 78.9871 11.7948 45.6907 0.0032 -11.0937 0.0014
# 2 11.7948 51.8930 36.9915 0.0372 -10.6209 0.0015
# 3 45.6907 36.9915 173.1123 0.0377 -19.3516 0.0019
# 4 0.0032 0.0372 0.0377 33.2914 -0.0049 -8.4164
# 5 -11.0937 -10.6209 -19.3516 -0.0049 60.8598 -0.0029
# 6 0.0014 0.0015 0.0019 -8.4164 -0.0029 14.0148
#
#
#
# Elastic Compliance Matrix: (Units=1/GPa)
#
#
# Indices 1 2 3 4 5 6 
#
# 1 0.015089 -0.000478 -0.003714 0.000004 0.001486 0.000002
# 2 -0.000478 0.023125 -0.004535 -0.000024 0.002507 -0.000016
# 3 -0.003714 -0.004535 0.007841 -0.000004 0.001025 -0.000002
# 4 0.000004 -0.000024 -0.000004 0.035414 -0.000001 0.021268
# 5 0.001486 0.002507 0.001025 -0.000001 0.017465 0.000003
# 6 0.000002 -0.000016 -0.000002 0.021268 0.000003 0.084125
#
#
# Mechanical properties :
#
#
# Convention : Reuss Voigt Hill
#
# Bulk Modulus (GPa) = 34.96501 54.77183 44.86842
# Shear Modulus (GPa) = 23.80421 35.60092 29.70257
#
# Velocity S-wave (km/s) = 3.16146 3.86626 3.53148
# Velocity P-wave (km/s) = 5.29220 6.55194 5.95547
#
# Compressibility (1/GPa) = 0.02860002
#
# Stress axis : x y z
#
# Youngs Moduli (GPa) = 66.27383 43.24345 127.54167
#
# Poissons Ratio (x) = 0.02066 0.47373
# Poissons Ratio (y) = 0.03166 0.57842
# Poissons Ratio (z) = 0.24616 0.19612
#
# Static dielectric constant tensor:
#      x y z
#    x 4.780920 0.000000 -0.126950 
#    y 0.000000 3.833650 0.000020 
#    z -0.126950 0.000020 4.667670 
# 
# 
# High freq. dielectric constant tensor:
#      x y z
#    x 1.947110 0.000000 -0.003450 
#    y 0.000000 1.879670 0.000000 
#    z -0.003450 0.000000 1.977280 
# 
# From -- ./inp_files/279944.got.cif
#   From: 2010.06.25/outbox.cif.g09.slc.cpg/sg15_140_cif.got.tgz:279944.got - 2010.06.28 07:06:18.
