data_PCOD8131822
_publ_section_title
;
Structure prediction by ZEFSAII (Michael W. Deem and Ramdas Pophale) SiO2 
 PCOD8131822
Probable space group: C 2/C
;
_chemical_formula_sum "Si O2"
_cell_formula_units_Z 60
_cell_length_a 14.716052
_cell_length_b 11.550682
_cell_length_c 20.709660
_cell_angle_alpha 90.000000
_cell_angle_beta 64.804266
_cell_angle_gamma 90.000000
_cell_volume 3185.317308
_symmetry_space_group_name_H-M "C 2/C"
_symmetry_group_IT_number 15
_symmetry_cell_setting 'monoclinic'
loop_
_space_group_symop_operation_xyz
x,y,z
-x,y,1/2-z
-x,-y,-z
x,-y,1/2+z
1/2+x,1/2+y,z
1/2-x,1/2+y,1/2-z
1/2-x,1/2-y,-z
1/2+x,1/2-y,1/2+z
loop_
_atom_site_type_symbol
_atom_site_label
_atom_site_fract_x
_atom_site_fract_y
_atom_site_fract_z
Si Si1 0.857047 0.370182 0.165280
Si Si2 0.210679 0.746907 0.301096
Si Si3 0.397761 0.068429 0.243528
Si Si4 0.789912 0.966178 0.856857
Si Si5 0.000000 0.917228 0.750000
Si Si6 0.199682 0.021478 0.873812
Si Si7 0.030528 0.840593 0.884772
Si Si8 0.308437 0.628197 0.487687
O O1 0.805199 0.281176 0.229809
O O2 0.916505 0.470680 0.184220
O O3 0.777036 0.424098 0.140622
O O4 0.935138 0.288468 0.104396
O O5 0.123734 0.691033 0.283749
O O6 0.250033 0.654257 0.340611
O O7 0.166687 0.860313 0.348502
O O8 0.500000 0.084285 0.250000
O O9 0.302618 0.031924 0.315536
O O10 0.900685 0.993831 0.794068
O O11 0.784814 0.955106 0.934913
O O12 0.983932 0.843055 0.689060
O O13 0.108630 0.934180 0.888764
O O14 0.221898 0.052645 0.941159
O O15 0.927276 0.852821 0.954098
O O16 0.250000 0.750000 0.500000
#
# Coordination Sequence:
#
# PCOD8131822 Si02
#       8
#     8   8   8   8   4   8   8   8
#     4  10  20  36  59  85 120 147 188 249 297 347
#     4  10  18  38  60  85 121 148 188 247 304 335
#     4  10  22  35  60  92 116 150 194 246 301 350
#     4  10  20  37  58  92 115 152 200 246 294 343
#     4  10  18  34  60  90 112 148 206 242 276 348
#     4  11  22  42  60  82 127 156 195 242 297 358
#     4  11  22  38  61  90 117 162 197 237 306 343
#     4  11  24  40  63  84 116 159 211 242 278 364
#
# _framework density 18.836428999999999
#
# number of rings (size 3 to 8) (size 9 to 14) (size 15 to 20)
#    0.000    1.600    4.000    2.000    2.800    0.000 
#    7.200    2.667    0.000    0.000    0.000    0.000 
#    0.000    0.000    0.000    0.000    0.000    0.000 
#
# Total GULP energy -371889.284634 kJ/mol
# GULP energy per Si atom -12396.309488 kJ/mol
# Density = 1.879356 g / cm^3
# Si number density = 18.836429 Si / 1000 Ang^3
#
#
#
# Elastic Constant Matrix: (Units=GPa)
#
#
# Indices 1 2 3 4 5 6 
#
# 1 131.3168 44.4206 37.9816 0.0000 6.1606 0.0000
# 2 44.4206 72.3388 32.8702 0.0000 5.3209 0.0000
# 3 37.9816 32.8702 87.0051 0.0000 6.5099 0.0000
# 4 0.0000 0.0000 0.0000 4.4280 0.0000 -4.9761
# 5 6.1606 5.3209 6.5099 0.0000 21.2758 0.0000
# 6 0.0000 0.0000 0.0000 -4.9761 0.0000 25.7472
#
#
#
# Elastic Compliance Matrix: (Units=1/GPa)
#
#
# Indices 1 2 3 4 5 6 
#
# 1 0.010053 -0.005001 -0.002431 0.000000 -0.000916 0.000000
# 2 -0.005001 0.019287 -0.004964 0.000000 -0.001856 0.000000
# 3 -0.002431 -0.004964 0.014619 0.000000 -0.002528 0.000000
# 4 0.000000 0.000000 0.000000 0.288492 0.000000 0.055756
# 5 -0.000916 -0.001856 -0.002528 0.000000 0.048505 0.000000
# 6 0.000000 0.000000 0.000000 0.055756 0.000000 0.049615
#
#
# Mechanical properties :
#
#
# Convention : Reuss Voigt Hill
#
# Bulk Modulus (GPa) = 52.17314 57.91174 55.04244
# Shear Modulus (GPa) = 10.82830 21.98275 16.40553
#
# Velocity S-wave (km/s) = 2.40022 3.41989 2.95438
# Velocity P-wave (km/s) = 5.95311 6.81216 6.39707
#
# Compressibility (1/GPa) = 0.01916695
#
# Stress axis : x y z
#
# Youngs Moduli (GPa) = 99.47306 51.84742 68.40272
#
# Poissons Ratio (x) = 0.25931 0.16625
# Poissons Ratio (y) = 0.49750 0.33958
# Poissons Ratio (z) = 0.24177 0.25740
#
# Static dielectric constant tensor:
#      x y z
#    x 3.550920 0.000000 -0.004750 
#    y 0.000000 3.477710 0.000000 
#    z -0.004750 0.000000 3.481150 
# 
# 
# High freq. dielectric constant tensor:
#      x y z
#    x 1.738430 0.000000 0.004340 
#    y 0.000000 1.730150 0.000000 
#    z 0.004340 0.000000 1.720480 
# 
# From -- ./inp_files/204425.got.cif
#   From: 2010.06.25/outbox.cif.g09.slc.cpg/sg15_103_cif.got.tgz:204425.got - 2010.06.28 07:06:18.
