data_PCOD8131018
_publ_section_title
;
Structure prediction by ZEFSAII (Michael W. Deem and Ramdas Pophale) SiO2 
 PCOD8131018
Probable space group: C 2/C
;
_chemical_formula_sum "Si O2"
_cell_formula_units_Z 56
_cell_length_a 29.865040
_cell_length_b 18.399676
_cell_length_c 10.013440
_cell_angle_alpha 90.000000
_cell_angle_beta 143.258839
_cell_angle_gamma 90.000000
_cell_volume 3291.574579
_symmetry_space_group_name_H-M "C 2/C"
_symmetry_group_IT_number 15
_symmetry_cell_setting 'monoclinic'
loop_
_space_group_symop_operation_xyz
x,y,z
-x,y,1/2-z
-x,-y,-z
x,-y,1/2+z
1/2+x,1/2+y,z
1/2-x,1/2+y,1/2-z
1/2-x,1/2-y,-z
1/2+x,1/2-y,1/2+z
loop_
_atom_site_type_symbol
_atom_site_label
_atom_site_fract_x
_atom_site_fract_y
_atom_site_fract_z
Si Si1 0.637756 0.041566 0.629827
Si Si2 0.191903 0.931843 0.967822
Si Si3 0.119693 0.011203 0.556088
Si Si4 0.427684 0.951296 0.812417
Si Si5 0.000000 0.894927 0.250000
Si Si6 0.569428 0.685501 0.157290
Si Si7 0.000000 0.126381 0.250000
Si Si8 0.971850 0.334391 0.541479
O O1 0.616591 0.025237 0.426884
O O2 0.584212 0.100230 0.567718
O O3 0.626977 0.966813 0.690986
O O4 0.719805 0.076293 0.835974
O O5 0.165027 0.990028 0.795403
O O6 0.150667 0.853887 0.847613
O O7 0.175747 0.963521 0.075051
O O8 0.071861 0.943696 0.386193
O O9 0.064840 0.076287 0.467402
O O10 0.456369 0.867042 0.870010
O O11 0.500000 0.000000 0.000000
O O12 0.014650 0.847151 0.415232
O O13 0.532091 0.676669 0.211446
O O14 0.573681 0.771992 0.145431
O O15 0.000000 0.302344 0.750000
#
# Coordination Sequence:
#
# PCOD8131018 Si02
#       8
#     8   8   8   8   4   8   4   8
#     4  10  19  33  51  75  99 124 156 204 251 293
#     4  10  19  29  49  73 102 130 154 194 249 299
#     4   9  17  30  46  73  96 127 161 195 238 279
#     4   9  18  34  54  73  95 120 165 212 244 279
#     4   9  16  28  52  68  93 124 168 202 221 280
#     4  10  18  31  47  72  97 130 162 196 242 289
#     4   9  18  30  46  70 101 124 160 206 233 268
#     4   9  18  33  51  70  93 127 167 203 241 281
#
# _framework density 17.013134000000001
#
# number of rings (size 3 to 8) (size 9 to 14) (size 15 to 20)
#    0.000    2.571    0.714    3.000    0.000    4.000 
#    5.143    0.000    0.000    0.000    0.000    6.000 
#    0.000    0.000    0.000    0.000    0.000    0.000 
#
# Total GULP energy -347034.633778 kJ/mol
# GULP energy per Si atom -12394.094063 kJ/mol
# Density = 1.697441 g / cm^3
# Si number density = 17.013134 Si / 1000 Ang^3
#
#
#
# Elastic Constant Matrix: (Units=GPa)
#
#
# Indices 1 2 3 4 5 6 
#
# 1 74.8077 26.0511 38.8912 0.0000 2.0599 0.0000
# 2 26.0511 69.0472 25.8459 0.0000 -6.2498 0.0000
# 3 38.8912 25.8459 91.2422 0.0000 1.0754 0.0000
# 4 0.0000 0.0000 0.0000 22.1535 0.0000 -3.6440
# 5 2.0599 -6.2498 1.0754 0.0000 24.6292 0.0000
# 6 0.0000 0.0000 0.0000 -3.6440 0.0000 11.9521
#
#
#
# Elastic Compliance Matrix: (Units=1/GPa)
#
#
# Indices 1 2 3 4 5 6 
#
# 1 0.018470 -0.004761 -0.006495 0.000000 -0.002469 0.000000
# 2 -0.004761 0.017899 -0.003101 0.000000 0.005076 0.000000
# 3 -0.006495 -0.003101 0.014617 0.000000 -0.000882 0.000000
# 4 0.000000 0.000000 0.000000 0.047523 0.000000 0.014489
# 5 -0.002469 0.005076 -0.000882 0.000000 0.042135 0.000000
# 6 0.000000 0.000000 0.000000 0.014489 0.000000 0.088085
#
#
# Mechanical properties :
#
#
# Convention : Reuss Voigt Hill
#
# Bulk Modulus (GPa) = 44.89755 46.29707 45.59731
# Shear Modulus (GPa) = 18.87739 21.36755 20.12247
#
# Velocity S-wave (km/s) = 3.33465 3.54778 3.44286
# Velocity P-wave (km/s) = 6.42446 6.63731 6.53175
#
# Compressibility (1/GPa) = 0.02227293
#
# Stress axis : x y z
#
# Youngs Moduli (GPa) = 54.14121 55.86837 68.41325
#
# Poissons Ratio (x) = 0.26599 0.44435
# Poissons Ratio (y) = 0.25776 0.21213
# Poissons Ratio (z) = 0.35165 0.17324
#
# Static dielectric constant tensor:
#      x y z
#    x 3.360390 0.000000 -0.083320 
#    y 0.000000 3.113460 0.000000 
#    z -0.083320 0.000000 3.396340 
# 
# 
# High freq. dielectric constant tensor:
#      x y z
#    x 1.653430 0.000000 -0.008760 
#    y 0.000000 1.637640 0.000000 
#    z -0.008760 0.000000 1.656390 
# 
# From -- ./inp_files/49184.got.cif
#   From: 2010.06.25/outbox.cif.g09.slc.cpg/sg15_25_cif.got.tgz:49184.got - 2010.06.28 07:06:18.
