data_PCOD8131567
_publ_section_title
;
Structure prediction by ZEFSAII (Michael W. Deem and Ramdas Pophale) SiO2 
 PCOD8131567
Probable space group: C 2/C
;
_chemical_formula_sum "Si O2"
_cell_formula_units_Z 56
_cell_length_a 9.019452
_cell_length_b 15.907848
_cell_length_c 26.359700
_cell_angle_alpha 90.000000
_cell_angle_beta 131.341941
_cell_angle_gamma 90.000000
_cell_volume 2839.521807
_symmetry_space_group_name_H-M "C 2/C"
_symmetry_group_IT_number 15
_symmetry_cell_setting 'monoclinic'
loop_
_space_group_symop_operation_xyz
x,y,z
-x,y,1/2-z
-x,-y,-z
x,-y,1/2+z
1/2+x,1/2+y,z
1/2-x,1/2+y,1/2-z
1/2-x,1/2-y,-z
1/2+x,1/2-y,1/2+z
loop_
_atom_site_type_symbol
_atom_site_label
_atom_site_fract_x
_atom_site_fract_y
_atom_site_fract_z
Si Si1 0.592614 0.130481 0.442565
Si Si2 0.883748 0.964124 0.140163
Si Si3 0.790031 0.902350 0.697645
Si Si4 0.213638 0.536890 0.288206
Si Si5 0.125166 0.142862 0.084367
Si Si6 0.396724 0.175525 0.941890
Si Si7 0.236906 0.453869 0.507843
O O1 0.367095 0.145205 0.373177
O O2 0.739910 0.163811 0.433498
O O3 0.619513 0.182190 0.500486
O O4 0.649976 0.032066 0.457510
O O5 0.806751 0.868409 0.123603
O O6 0.848156 0.007377 0.186136
O O7 0.760521 0.019277 0.071638
O O8 0.115448 0.966064 0.176229
O O9 0.695952 0.913879 0.731429
O O10 0.000000 0.851850 0.750000
O O11 0.256620 0.605672 0.341391
O O12 0.000000 0.494036 0.250000
O O13 0.058742 0.239068 0.079251
O O14 0.941628 0.081194 0.030370
O O15 0.580289 0.119072 0.968254
#
# Coordination Sequence:
#
# PCOD8131567 Si02
#       7
#     8   8   8   8   8   8   8
#     4  11  19  36  59  81 112 148 187 226 275 334
#     4   9  18  35  59  85 102 141 193 231 262 332
#     4  10  18  33  59  80 100 145 200 224 258 325
#     4  10  20  35  56  80 107 147 193 229 266 328
#     4  11  23  34  53  89 120 143 175 236 291 325
#     4  11  20  36  57  87 115 141 178 236 291 325
#     4  10  19  35  58  85 108 144 188 225 270 332
#
# _framework density 19.721629
#
# number of rings (size 3 to 8) (size 9 to 14) (size 15 to 20)
#    0.000    1.714    4.286    2.143    0.000    0.000 
#    0.000    2.143    0.000    0.857    0.000    0.000 
#    0.000    0.000    0.000    0.000    0.000    0.000 
#
# Total GULP energy -346995.712281 kJ/mol
# GULP energy per Si atom -12392.704010 kJ/mol
# Density = 1.967674 g / cm^3
# Si number density = 19.721629 Si / 1000 Ang^3
#
#
#
# Elastic Constant Matrix: (Units=GPa)
#
#
# Indices 1 2 3 4 5 6 
#
# 1 81.6656 2.0997 30.8614 0.0000 12.3864 0.0000
# 2 2.0997 61.5594 23.6306 0.0000 9.5219 0.0000
# 3 30.8614 23.6306 92.4350 0.0000 14.3388 0.0000
# 4 0.0000 0.0000 0.0000 10.8615 0.0000 -2.1376
# 5 12.3864 9.5219 14.3388 0.0000 37.3279 0.0000
# 6 0.0000 0.0000 0.0000 -2.1376 0.0000 20.4618
#
#
#
# Elastic Compliance Matrix: (Units=1/GPa)
#
#
# Indices 1 2 3 4 5 6 
#
# 1 0.014534 0.001881 -0.004797 0.000000 -0.003460 0.000000
# 2 0.001881 0.018578 -0.004833 0.000000 -0.003506 0.000000
# 3 -0.004797 -0.004833 0.014055 0.000000 -0.002574 0.000000
# 4 0.000000 0.000000 0.000000 0.094001 0.000000 0.009820
# 5 -0.003460 -0.003506 -0.002574 0.000000 0.029821 0.000000
# 6 0.000000 0.000000 0.000000 0.009820 0.000000 0.049897
#
#
# Mechanical properties :
#
#
# Convention : Reuss Voigt Hill
#
# Bulk Modulus (GPa) = 31.57714 38.76038 35.16876
# Shear Modulus (GPa) = 20.24770 25.66812 22.95791
#
# Velocity S-wave (km/s) = 3.20765 3.61157 3.41559
# Velocity P-wave (km/s) = 5.45572 6.08997 5.78155
#
# Compressibility (1/GPa) = 0.03166847
#
# Stress axis : x y z
#
# Youngs Moduli (GPa) = 68.80357 53.82689 71.14994
#
# Poissons Ratio (x) = -0.10123 0.34128
# Poissons Ratio (y) = -0.12940 0.34389
# Poissons Ratio (z) = 0.33002 0.26017
#
# Static dielectric constant tensor:
#      x y z
#    x 3.696650 0.000000 0.157410 
#    y 0.000000 3.261670 0.000000 
#    z 0.157410 0.000000 3.802550 
# 
# 
# High freq. dielectric constant tensor:
#      x y z
#    x 1.780660 0.000000 0.010410 
#    y 0.000000 1.723010 0.000000 
#    z 0.010410 0.000000 1.778940 
# 
# From -- ./inp_files/232176.got.cif
#   From: 2010.06.25/outbox.cif.g09.slc.cpg/sg15_117_cif.got.tgz:232176.got - 2010.06.28 07:06:18.
