data_PCOD8131193
_publ_section_title
;
Structure prediction by ZEFSAII (Michael W. Deem and Ramdas Pophale) SiO2 
 PCOD8131193
Probable space group: C 2/C
;
_chemical_formula_sum "Si O2"
_cell_formula_units_Z 60
_cell_length_a 11.246877
_cell_length_b 15.500850
_cell_length_c 26.433259
_cell_angle_alpha 90.000000
_cell_angle_beta 135.847148
_cell_angle_gamma 90.000000
_cell_volume 3210.007229
_symmetry_space_group_name_H-M "C 2/C"
_symmetry_group_IT_number 15
_symmetry_cell_setting 'monoclinic'
loop_
_space_group_symop_operation_xyz
x,y,z
-x,y,1/2-z
-x,-y,-z
x,-y,1/2+z
1/2+x,1/2+y,z
1/2-x,1/2+y,1/2-z
1/2-x,1/2-y,-z
1/2+x,1/2-y,1/2+z
loop_
_atom_site_type_symbol
_atom_site_label
_atom_site_fract_x
_atom_site_fract_y
_atom_site_fract_z
Si Si1 0.587222 0.256737 0.529398
Si Si2 0.011149 0.549910 0.854440
Si Si3 0.500000 0.852202 0.250000
Si Si4 0.923900 0.273452 0.078929
Si Si5 0.708635 0.921357 0.038341
Si Si6 0.221342 0.779313 0.868627
Si Si7 0.339174 0.448731 0.972761
Si Si8 0.166377 0.462536 0.615613
O O1 0.575587 0.250875 0.587044
O O2 0.716418 0.182124 0.549567
O O3 0.402641 0.248375 0.446855
O O4 0.666195 0.348530 0.542093
O O5 0.951451 0.587097 0.782468
O O6 0.073644 0.624356 0.911448
O O7 0.170759 0.486761 0.895207
O O8 0.852702 0.502008 0.833788
O O9 0.334099 0.791836 0.189711
O O10 0.927379 0.222770 0.133469
O O11 0.750000 0.250000 0.000000
O O12 0.759109 0.971355 0.105333
O O13 0.836535 0.953492 0.033269
O O14 0.518092 0.943055 0.963325
O O15 0.224923 0.874716 0.846172
O O16 0.500000 0.500000 0.000000
#
# Coordination Sequence:
#
# PCOD8131193 Si02
#       8
#     8   8   4   8   8   8   8   8
#     4  10  18  32  50  81 112 135 167 217 281 327
#     4  10  20  36  54  74 104 147 177 217 262 325
#     4  10  20  38  52  72 102 142 188 216 256 304
#     4   9  16  28  50  76 104 129 168 211 264 309
#     4   9  18  30  51  78 113 137 157 205 276 337
#     4   9  19  31  56  76 103 138 179 224 257 315
#     4  11  21  29  48  83 117 136 167 215 273 321
#     4   9  17  32  55  80  99 135 175 211 264 317
#
# _framework density 18.691547
#
# number of rings (size 3 to 8) (size 9 to 14) (size 15 to 20)
#    0.000    2.400    1.333    2.800    7.467    0.000 
#    0.000    2.667    2.933    0.000    0.000    0.000 
#    0.000    0.000    0.000    0.000    0.000    0.000 
#
# Total GULP energy -371825.019582 kJ/mol
# GULP energy per Si atom -12394.167319 kJ/mol
# Density = 1.864900 g / cm^3
# Si number density = 18.691547 Si / 1000 Ang^3
#
#
#
# Elastic Constant Matrix: (Units=GPa)
#
#
# Indices 1 2 3 4 5 6 
#
# 1 122.0624 67.5954 37.0059 0.0000 -26.7752 0.0000
# 2 67.5954 151.1632 41.3291 0.0000 -21.7243 0.0000
# 3 37.0059 41.3291 58.8508 0.0000 -22.1819 0.0000
# 4 0.0000 0.0000 0.0000 30.1594 0.0000 -1.1940
# 5 -26.7752 -21.7243 -22.1819 0.0000 22.2315 0.0000
# 6 0.0000 0.0000 0.0000 -1.1940 0.0000 41.9650
#
#
#
# Elastic Compliance Matrix: (Units=1/GPa)
#
#
# Indices 1 2 3 4 5 6 
#
# 1 0.013136 -0.003952 -0.001566 0.000000 0.010397 0.000000
# 2 -0.003952 0.009563 -0.004011 0.000000 0.000583 0.000000
# 3 -0.001566 -0.004011 0.029820 0.000000 0.023947 0.000000
# 4 0.000000 0.000000 0.000000 0.033195 0.000000 0.000944
# 5 0.010397 0.000583 0.023947 0.000000 0.081967 0.000000
# 6 0.000000 0.000000 0.000000 0.000944 0.000000 0.023856
#
#
# Mechanical properties :
#
#
# Convention : Reuss Voigt Hill
#
# Bulk Modulus (GPa) = 29.88540 69.32633 49.60587
# Shear Modulus (GPa) = 22.54803 31.28093 26.91448
#
# Velocity S-wave (km/s) = 3.47698 4.09532 3.79875
# Velocity P-wave (km/s) = 5.66945 7.71572 6.77034
#
# Compressibility (1/GPa) = 0.03346115
#
# Stress axis : x y z
#
# Youngs Moduli (GPa) = 76.12443 104.57048 33.53442
#
# Poissons Ratio (x) = 0.41324 0.05253
# Poissons Ratio (y) = 0.30083 0.13451
# Poissons Ratio (z) = 0.11924 0.41943
#
# Static dielectric constant tensor:
#      x y z
#    x 3.761920 0.000000 -0.440620 
#    y 0.000000 3.599370 0.000000 
#    z -0.440620 0.000000 3.045580 
# 
# 
# High freq. dielectric constant tensor:
#      x y z
#    x 1.725660 0.000000 -0.032520 
#    y 0.000000 1.742870 0.000000 
#    z -0.032520 0.000000 1.672010 
# 
# From -- ./inp_files/292683.got.cif
#   From: 2010.06.25/outbox.cif.g09.slc.cpg/sg15_147_cif.got.tgz:292683.got - 2010.06.28 07:06:18.
