data_PCOD8131670
_publ_section_title
;
Structure prediction by ZEFSAII (Michael W. Deem and Ramdas Pophale) SiO2 
 PCOD8131670
Probable space group: C 2/C
;
_chemical_formula_sum "Si O2"
_cell_formula_units_Z 60
_cell_length_a 17.996334
_cell_length_b 19.763380
_cell_length_c 11.755874
_cell_angle_alpha 90.000000
_cell_angle_beta 55.139089
_cell_angle_gamma 90.000000
_cell_volume 3430.844348
_symmetry_space_group_name_H-M "C 2/C"
_symmetry_group_IT_number 15
_symmetry_cell_setting 'monoclinic'
loop_
_space_group_symop_operation_xyz
x,y,z
-x,y,1/2-z
-x,-y,-z
x,-y,1/2+z
1/2+x,1/2+y,z
1/2-x,1/2+y,1/2-z
1/2-x,1/2-y,-z
1/2+x,1/2-y,1/2+z
loop_
_atom_site_type_symbol
_atom_site_label
_atom_site_fract_x
_atom_site_fract_y
_atom_site_fract_z
Si Si1 0.236048 0.421173 0.202146
Si Si2 0.805281 0.929768 0.666301
Si Si3 0.088664 0.529320 0.980319
Si Si4 0.741302 0.456315 0.564636
Si Si5 0.206646 0.822624 0.162727
Si Si6 0.400574 0.426057 0.369569
Si Si7 0.176722 0.671006 0.155365
Si Si8 0.000000 0.615433 0.250000
O O1 0.289751 0.489633 0.182824
O O2 0.134238 0.426163 0.340255
O O3 0.282039 0.357670 0.224677
O O4 0.238614 0.410542 0.063651
O O5 0.814008 0.911119 0.793062
O O6 0.894743 0.913885 0.512106
O O7 0.721197 0.889476 0.687088
O O8 0.162216 0.475508 0.962863
O O9 0.060916 0.571306 0.113896
O O10 0.000000 0.500000 0.000000
O O11 0.680839 0.522200 0.588288
O O12 0.118133 0.855425 0.179076
O O13 0.196959 0.743240 0.194060
O O14 0.291778 0.833385 0.003845
O O15 0.500000 0.453699 0.250000
O O16 0.069033 0.662279 0.259162
#
# Coordination Sequence:
#
# PCOD8131670 Si02
#       8
#     8   8   8   8   8   8   8   4
#     4  10  18  34  55  74 107 143 175 217 266 328
#     4   9  18  35  51  75 106 138 174 222 265 322
#     4  11  19  30  52  81 111 138 174 218 270 324
#     4  10  19  35  52  78 109 141 177 221 272 323
#     4  10  19  38  51  76 107 145 176 222 275 322
#     4  10  19  32  55  80 103 136 183 231 274 311
#     4  10  21  33  55  75 112 139 181 222 274 323
#     4  12  18  30  48  84 106 136 172 220 274 314
#
# _framework density 17.488406000000001
#
# number of rings (size 3 to 8) (size 9 to 14) (size 15 to 20)
#    0.000    1.867    4.000    4.000    0.933    0.533 
#    0.000    0.667    0.000    0.000    0.000    1.867 
#    0.000    0.000    0.000    0.000    0.000    0.000 
#
# Total GULP energy -371703.414174 kJ/mol
# GULP energy per Si atom -12390.113806 kJ/mol
# Density = 1.744860 g / cm^3
# Si number density = 17.488406 Si / 1000 Ang^3
#
#
#
# Elastic Constant Matrix: (Units=GPa)
#
#
# Indices 1 2 3 4 5 6 
#
# 1 66.2026 29.6381 49.0484 0.0000 1.3645 0.0000
# 2 29.6381 66.7489 27.9891 0.0000 6.7201 0.0000
# 3 49.0484 27.9891 151.0143 0.0000 19.2842 0.0000
# 4 0.0000 0.0000 0.0000 18.7901 0.0000 5.4612
# 5 1.3645 6.7201 19.2842 0.0000 33.9927 0.0000
# 6 0.0000 0.0000 0.0000 5.4612 0.0000 19.3165
#
#
#
# Elastic Compliance Matrix: (Units=1/GPa)
#
#
# Indices 1 2 3 4 5 6 
#
# 1 0.023649 -0.008122 -0.006748 0.000000 0.004485 0.000000
# 2 -0.008122 0.019117 -0.000500 0.000000 -0.003169 0.000000
# 3 -0.006748 -0.000500 0.009551 0.000000 -0.005049 0.000000
# 4 0.000000 0.000000 0.000000 0.057984 0.000000 -0.016394
# 5 0.004485 -0.003169 -0.005049 0.000000 0.032729 0.000000
# 6 0.000000 0.000000 0.000000 -0.016394 0.000000 0.056404
#
#
# Mechanical properties :
#
#
# Convention : Reuss Voigt Hill
#
# Bulk Modulus (GPa) = 46.35037 55.25744 50.80390
# Shear Modulus (GPa) = 21.06441 26.23919 23.65180
#
# Velocity S-wave (km/s) = 3.47432 3.87767 3.68153
# Velocity P-wave (km/s) = 6.53112 7.19122 6.86911
#
# Compressibility (1/GPa) = 0.02157480
#
# Stress axis : x y z
#
# Youngs Moduli (GPa) = 42.28578 52.30963 104.70028
#
# Poissons Ratio (x) = 0.42488 0.70654
# Poissons Ratio (y) = 0.34346 0.05238
# Poissons Ratio (z) = 0.28535 0.02617
#
# Static dielectric constant tensor:
#      x y z
#    x 3.230780 0.000000 0.090050 
#    y 0.000000 3.028590 0.000000 
#    z 0.090050 0.000000 3.888260 
# 
# 
# High freq. dielectric constant tensor:
#      x y z
#    x 1.656480 0.000000 0.002150 
#    y 0.000000 1.642060 0.000000 
#    z 0.002150 0.000000 1.691650 
# 
# From -- ./inp_files/106699.got.cif
#   From: 2010.06.25/outbox.cif.g09.slc.cpg/sg15_54_cif.got.tgz:106699.got - 2010.06.28 07:06:18.
