data_PCOD8131518
_publ_section_title
;
Structure prediction by ZEFSAII (Michael W. Deem and Ramdas Pophale) SiO2 
 PCOD8131518
Probable space group: C 2/C
;
_chemical_formula_sum "Si O2"
_cell_formula_units_Z 56
_cell_length_a 13.389978
_cell_length_b 13.810590
_cell_length_c 19.758989
_cell_angle_alpha 90.000000
_cell_angle_beta 125.987711
_cell_angle_gamma 90.000000
_cell_volume 2956.528851
_symmetry_space_group_name_H-M "C 2/C"
_symmetry_group_IT_number 15
_symmetry_cell_setting 'monoclinic'
loop_
_space_group_symop_operation_xyz
x,y,z
-x,y,1/2-z
-x,-y,-z
x,-y,1/2+z
1/2+x,1/2+y,z
1/2-x,1/2+y,1/2-z
1/2-x,1/2-y,-z
1/2+x,1/2-y,1/2+z
loop_
_atom_site_type_symbol
_atom_site_label
_atom_site_fract_x
_atom_site_fract_y
_atom_site_fract_z
Si Si1 0.196067 0.521128 0.076237
Si Si2 0.855339 0.529648 0.200496
Si Si3 0.733129 0.406223 0.513521
Si Si4 0.032368 0.374967 0.069893
Si Si5 0.301110 0.163319 0.304553
Si Si6 0.597828 0.819058 0.237122
Si Si7 0.444357 0.237467 0.047814
O O1 0.163154 0.430070 0.111420
O O2 0.238360 0.608468 0.141547
O O3 0.291010 0.488368 0.054431
O O4 0.074873 0.548581 0.985971
O O5 0.772567 0.551288 0.101625
O O6 0.800955 0.590761 0.241280
O O7 0.839424 0.415513 0.207671
O O8 0.000000 0.556006 0.250000
O O9 0.604625 0.347155 0.466295
O O10 0.843009 0.337596 0.533051
O O11 0.015400 0.344265 0.139731
O O12 0.024728 0.281742 0.018446
O O13 0.199580 0.244336 0.252938
O O14 0.431967 0.218594 0.360224
O O15 0.500000 0.772193 0.250000
#
# Coordination Sequence:
#
# PCOD8131518 Si02
#       7
#     8   8   8   8   8   8   8
#     4   9  17  32  58  78 108 149 183 223 276 333
#     4  11  20  36  59  86 111 148 190 237 274 329
#     4  10  18  33  56  87 112 142 188 231 278 333
#     4   9  16  33  55  79 103 148 185 227 273 326
#     4  11  21  38  55  83 117 149 185 234 281 329
#     4  11  23  36  56  83 113 148 195 230 276 332
#     4   9  19  33  57  85 111 140 187 235 282 329
#
# _framework density 18.941130999999999
#
# number of rings (size 3 to 8) (size 9 to 14) (size 15 to 20)
#    0.000    2.000    2.857    3.429    0.000    0.000 
#    0.000    8.571    0.000    0.000    0.000    0.000 
#    0.000    0.000    0.000    0.000    0.000    0.000 
#
# Total GULP energy -347038.096055 kJ/mol
# GULP energy per Si atom -12394.217716 kJ/mol
# Density = 1.889802 g / cm^3
# Si number density = 18.941131 Si / 1000 Ang^3
#
#
#
# Elastic Constant Matrix: (Units=GPa)
#
#
# Indices 1 2 3 4 5 6 
#
# 1 62.8203 35.9260 17.6732 0.0000 -11.1912 0.0000
# 2 35.9260 75.6123 15.7618 0.0000 -5.3330 0.0000
# 3 17.6732 15.7618 60.0475 0.0000 -25.9015 0.0000
# 4 0.0000 0.0000 0.0000 18.0720 0.0000 -4.0002
# 5 -11.1912 -5.3330 -25.9015 0.0000 26.6150 0.0000
# 6 0.0000 0.0000 0.0000 -4.0002 0.0000 39.6270
#
#
#
# Elastic Compliance Matrix: (Units=1/GPa)
#
#
# Indices 1 2 3 4 5 6 
#
# 1 0.023379 -0.010365 -0.001406 0.000000 0.006385 0.000000
# 2 -0.010365 0.018613 -0.003630 0.000000 -0.004162 0.000000
# 3 -0.001406 -0.003630 0.030078 0.000000 0.027953 0.000000
# 4 0.000000 0.000000 0.000000 0.056599 0.000000 0.005713
# 5 0.006385 -0.004162 0.027953 0.000000 0.066627 0.000000
# 6 0.000000 0.000000 0.000000 0.005713 0.000000 0.025812
#
#
# Mechanical properties :
#
#
# Convention : Reuss Voigt Hill
#
# Bulk Modulus (GPa) = 24.23194 37.46688 30.84941
# Shear Modulus (GPa) = 18.82067 25.47074 22.14570
#
# Velocity S-wave (km/s) = 3.15563 3.67104 3.42305
# Velocity P-wave (km/s) = 5.10866 6.14755 5.65202
#
# Compressibility (1/GPa) = 0.04126785
#
# Stress axis : x y z
#
# Youngs Moduli (GPa) = 42.77365 53.72533 33.24741
#
# Poissons Ratio (x) = 0.55684 0.04674
# Poissons Ratio (y) = 0.44333 0.12070
# Poissons Ratio (z) = 0.06014 0.19504
#
# Static dielectric constant tensor:
#      x y z
#    x 3.417640 0.000000 -0.290780 
#    y 0.000000 3.471250 0.000000 
#    z -0.290780 0.000000 3.395190 
# 
# 
# High freq. dielectric constant tensor:
#      x y z
#    x 1.716910 0.000000 -0.029130 
#    y 0.000000 1.726610 0.000000 
#    z -0.029130 0.000000 1.731410 
# 
# From -- ./inp_files/182161.got.cif
#   From: 2010.06.25/outbox.cif.g09.slc.cpg/sg15_92_cif.got.tgz:182161.got - 2010.06.28 07:06:18.
