data_PCOD8131486
_publ_section_title
;
Structure prediction by ZEFSAII (Michael W. Deem and Ramdas Pophale) SiO2 
 PCOD8131486
Probable space group: C 2/C
;
_chemical_formula_sum "Si O2"
_cell_formula_units_Z 64
_cell_length_a 21.564434
_cell_length_b 12.399002
_cell_length_c 12.275516
_cell_angle_alpha 90.000000
_cell_angle_beta 83.384304
_cell_angle_gamma 90.000000
_cell_volume 3260.340940
_symmetry_space_group_name_H-M "C 2/C"
_symmetry_group_IT_number 15
_symmetry_cell_setting 'monoclinic'
loop_
_space_group_symop_operation_xyz
x,y,z
-x,y,1/2-z
-x,-y,-z
x,-y,1/2+z
1/2+x,1/2+y,z
1/2-x,1/2+y,1/2-z
1/2-x,1/2-y,-z
1/2+x,1/2-y,1/2+z
loop_
_atom_site_type_symbol
_atom_site_label
_atom_site_fract_x
_atom_site_fract_y
_atom_site_fract_z
Si Si1 0.648537 0.372330 0.239829
Si Si2 0.447320 0.890043 0.616217
Si Si3 0.869468 0.566563 0.559889
Si Si4 0.287287 0.817389 0.252015
Si Si5 0.374754 0.714038 0.527746
Si Si6 0.217456 0.383521 0.006754
Si Si7 0.414680 0.819962 0.846902
Si Si8 0.333827 0.394403 0.847056
O O1 0.718801 0.326028 0.211285
O O2 0.623648 0.362776 0.368149
O O3 0.602057 0.306790 0.167892
O O4 0.643879 0.499032 0.217712
O O5 0.424469 0.809980 0.525724
O O6 0.402929 0.876940 0.732620
O O7 0.515731 0.848870 0.630413
O O8 0.438088 0.015716 0.580648
O O9 0.840255 0.636618 0.661980
O O10 0.830130 0.461697 0.543313
O O11 0.870348 0.638092 0.451219
O O12 0.288002 0.889523 0.361413
O O13 0.305265 0.692044 0.268123
O O14 0.303187 0.762985 0.530750
O O15 0.390488 0.654037 0.409758
O O16 0.284011 0.423636 0.951264
#
# Coordination Sequence:
#
# PCOD8131486 Si02
#       8
#     8   8   8   8   8   8   8   8
#     4  11  21  34  55  81 117 150 185 230 282 336
#     4   9  20  40  63  75 105 153 193 233 272 339
#     4  11  21  34  57  88 117 139 178 247 297 315
#     4  11  21  34  53  85 120 151 182 227 285 356
#     4   9  18  36  56  76 104 148 195 225 266 344
#     4  10  18  33  55  79 111 155 190 209 273 362
#     4  10  22  38  55  85 109 143 197 232 276 334
#     4  11  20  34  55  81 113 153 189 223 277 346
#
# _framework density 19.629849
#
# number of rings (size 3 to 8) (size 9 to 14) (size 15 to 20)
#    0.000    1.750    3.750    1.875    0.000    2.500 
#    0.000    0.625    0.000    3.000    0.000    0.000 
#    0.000    0.000    0.000    0.000    0.000    0.000 
#
# Total GULP energy -396556.212748 kJ/mol
# GULP energy per Si atom -12392.381648 kJ/mol
# Density = 1.958517 g / cm^3
# Si number density = 19.629849 Si / 1000 Ang^3
#
#
#
# Elastic Constant Matrix: (Units=GPa)
#
#
# Indices 1 2 3 4 5 6 
#
# 1 48.3212 20.6806 16.6404 0.0000 12.9188 0.0000
# 2 20.6806 105.5512 45.0093 0.0000 5.4044 0.0000
# 3 16.6404 45.0093 92.1198 0.0000 4.1792 0.0000
# 4 0.0000 0.0000 0.0000 33.2793 0.0000 4.7125
# 5 12.9188 5.4044 4.1792 0.0000 24.5384 0.0000
# 6 0.0000 0.0000 0.0000 4.7125 0.0000 23.6181
#
#
#
# Elastic Compliance Matrix: (Units=1/GPa)
#
#
# Indices 1 2 3 4 5 6 
#
# 1 0.026443 -0.003459 -0.002509 0.000000 -0.012733 0.000000
# 2 -0.003459 0.012487 -0.005476 0.000000 0.000004 0.000000
# 3 -0.002509 -0.005476 0.013978 0.000000 0.000146 0.000000
# 4 0.000000 0.000000 0.000000 0.030922 0.000000 -0.006170
# 5 -0.012733 0.000004 0.000146 0.000000 0.047430 0.000000
# 6 0.000000 0.000000 0.000000 -0.006170 0.000000 0.043572
#
#
# Mechanical properties :
#
#
# Convention : Reuss Voigt Hill
#
# Bulk Modulus (GPa) = 33.31219 45.62810 39.47014
# Shear Modulus (GPa) = 24.07001 27.19795 25.63398
#
# Velocity S-wave (km/s) = 3.50551 3.72632 3.61760
# Velocity P-wave (km/s) = 5.77856 6.46596 6.13190
#
# Compressibility (1/GPa) = 0.03001904
#
# Stress axis : x y z
#
# Youngs Moduli (GPa) = 37.81660 80.08413 71.54252
#
# Poissons Ratio (x) = 0.27703 0.17949
# Poissons Ratio (y) = 0.13082 0.39179
# Poissons Ratio (z) = 0.09488 0.43857
#
# Static dielectric constant tensor:
#      x y z
#    x 3.480280 0.000000 0.264850 
#    y 0.000000 3.558320 0.000000 
#    z 0.264850 0.000000 3.795890 
# 
# 
# High freq. dielectric constant tensor:
#      x y z
#    x 1.742150 0.000000 0.019410 
#    y 0.000000 1.756140 0.000000 
#    z 0.019410 0.000000 1.769070 
# 
# From -- ./inp_files/117596.got.cif
#   From: 2010.06.25/outbox.cif.g09.slc.cpg/sg15_59_cif.got.tgz:117596.got - 2010.06.28 07:06:18.
