data_PCOD8131506
_publ_section_title
;
Structure prediction by ZEFSAII (Michael W. Deem and Ramdas Pophale) SiO2 
 PCOD8131506
Probable space group: C 2/C
;
_chemical_formula_sum "Si O2"
_cell_formula_units_Z 60
_cell_length_a 16.202314
_cell_length_b 8.581386
_cell_length_c 23.150291
_cell_angle_alpha 90.000000
_cell_angle_beta 106.575370
_cell_angle_gamma 90.000000
_cell_volume 3085.022009
_symmetry_space_group_name_H-M "C 2/C"
_symmetry_group_IT_number 15
_symmetry_cell_setting 'monoclinic'
loop_
_space_group_symop_operation_xyz
x,y,z
-x,y,1/2-z
-x,-y,-z
x,-y,1/2+z
1/2+x,1/2+y,z
1/2-x,1/2+y,1/2-z
1/2-x,1/2-y,-z
1/2+x,1/2-y,1/2+z
loop_
_atom_site_type_symbol
_atom_site_label
_atom_site_fract_x
_atom_site_fract_y
_atom_site_fract_z
Si Si1 0.702150 0.346995 0.069728
Si Si2 0.827205 0.779071 0.248271
Si Si3 0.127450 0.819425 0.934618
Si Si4 0.338106 0.083857 0.354535
Si Si5 0.687202 0.437013 0.669828
Si Si6 0.362618 0.478948 0.676759
Si Si7 0.545202 0.802188 0.136923
Si Si8 0.000000 0.252054 0.250000
O O1 0.798216 0.295579 0.072729
O O2 0.650184 0.209717 0.092195
O O3 0.709332 0.501158 0.110052
O O4 0.648530 0.388727 0.001491
O O5 0.871685 0.654010 0.299666
O O6 0.746757 0.707336 0.198604
O O7 0.797585 0.923188 0.282595
O O8 0.888240 0.851918 0.209523
O O9 0.118751 0.965067 0.887951
O O10 0.039625 0.720137 0.919068
O O11 0.237913 0.043410 0.328839
O O12 0.395452 0.933325 0.380794
O O13 0.590779 0.367332 0.649554
O O14 0.414755 0.348821 0.721644
O O15 0.518831 0.855095 0.196896
#
# Coordination Sequence:
#
# PCOD8131506 Si02
#       8
#     8   8   8   8   8   8   8   4
#     4   9  21  41  59  81 109 154 192 236 278 340
#     4  11  18  32  54  87 115 143 181 236 278 345
#     4   9  21  39  61  77 114 153 193 227 291 336
#     4  10  20  33  60  85 111 145 192 231 284 337
#     4  11  20  33  61  87 112 146 195 228 280 339
#     4  10  18  33  56  80 111 151 182 227 277 345
#     4  11  20  35  59  86 110 152 189 233 282 347
#     4  10  20  34  52  84 118 148 180 228 298 340
#
# _framework density 19.448808
#
# number of rings (size 3 to 8) (size 9 to 14) (size 15 to 20)
#    0.000    1.867    4.000    0.000    0.000    3.200 
#    0.000    2.667    0.000    0.000    0.000    0.000 
#    0.000    0.000    0.000    0.000    0.000    0.000 
#
# Total GULP energy -371780.306224 kJ/mol
# GULP energy per Si atom -12392.676874 kJ/mol
# Density = 1.940454 g / cm^3
# Si number density = 19.448808 Si / 1000 Ang^3
#
#
#
# Elastic Constant Matrix: (Units=GPa)
#
#
# Indices 1 2 3 4 5 6 
#
# 1 74.3171 36.8369 39.9708 0.0000 7.7544 0.0000
# 2 36.8369 79.8683 42.0853 0.0000 -0.1830 0.0000
# 3 39.9708 42.0853 137.0217 0.0000 0.1213 0.0000
# 4 0.0000 0.0000 0.0000 26.8829 0.0000 -6.2529
# 5 7.7544 -0.1830 0.1213 0.0000 21.8985 0.0000
# 6 0.0000 0.0000 0.0000 -6.2529 0.0000 22.5460
#
#
#
# Elastic Compliance Matrix: (Units=1/GPa)
#
#
# Indices 1 2 3 4 5 6 
#
# 1 0.019659 -0.007236 -0.003506 0.000000 -0.007002 0.000000
# 2 -0.007236 0.017602 -0.003298 0.000000 0.002728 0.000000
# 3 -0.003506 -0.003298 0.009333 0.000000 0.001162 0.000000
# 4 0.000000 0.000000 0.000000 0.039763 0.000000 0.011028
# 5 -0.007002 0.002728 0.001162 0.000000 0.048161 0.000000
# 6 0.000000 0.000000 0.000000 0.011028 0.000000 0.047412
#
#
# Mechanical properties :
#
#
# Convention : Reuss Voigt Hill
#
# Bulk Modulus (GPa) = 54.01309 58.77702 56.39506
# Shear Modulus (GPa) = 23.12878 25.75309 24.44094
#
# Velocity S-wave (km/s) = 3.45224 3.64283 3.54881
# Velocity P-wave (km/s) = 6.61232 6.92681 6.77139
#
# Compressibility (1/GPa) = 0.01851403
#
# Stress axis : x y z
#
# Youngs Moduli (GPa) = 50.86810 56.81207 107.14861
#
# Poissons Ratio (x) = 0.41107 0.37568
# Poissons Ratio (y) = 0.36806 0.35338
# Poissons Ratio (z) = 0.17835 0.18737
#
# Static dielectric constant tensor:
#      x y z
#    x 3.430270 0.000000 -0.103850 
#    y 0.000000 3.528890 0.000000 
#    z -0.103850 0.000000 3.771310 
# 
# 
# High freq. dielectric constant tensor:
#      x y z
#    x 1.741150 0.000000 0.001260 
#    y 0.000000 1.736530 0.000000 
#    z 0.001260 0.000000 1.762860 
# 
# From -- ./inp_files/273212.got.cif
#   From: 2010.06.25/outbox.cif.g09.slc.cpg/sg15_137_cif.got.tgz:273212.got - 2010.06.28 07:06:18.
