data_PCOD8131059
_publ_section_title
;
Structure prediction by ZEFSAII (Michael W. Deem and Ramdas Pophale) SiO2 
 PCOD8131059
Probable space group: C 2/C
;
_chemical_formula_sum "Si O2"
_cell_formula_units_Z 40
_cell_length_a 16.630692
_cell_length_b 14.836690
_cell_length_c 12.044338
_cell_angle_alpha 90.000000
_cell_angle_beta 151.567647
_cell_angle_gamma 90.000000
_cell_volume 1414.970775
_symmetry_space_group_name_H-M "C 2/C"
_symmetry_group_IT_number 15
_symmetry_cell_setting 'monoclinic'
loop_
_space_group_symop_operation_xyz
x,y,z
-x,y,1/2-z
-x,-y,-z
x,-y,1/2+z
1/2+x,1/2+y,z
1/2-x,1/2+y,1/2-z
1/2-x,1/2-y,-z
1/2+x,1/2-y,1/2+z
loop_
_atom_site_type_symbol
_atom_site_label
_atom_site_fract_x
_atom_site_fract_y
_atom_site_fract_z
Si Si1 0.040711 0.196141 0.182280
Si Si2 0.813384 0.990147 0.670179
Si Si3 0.485092 0.048821 0.365039
Si Si4 0.639354 0.580993 0.029068
Si Si5 0.309614 0.218576 0.828681
O O1 0.000000 0.242313 0.250000
O O2 0.158201 0.267747 0.263335
O O3 0.881121 0.178800 0.903766
O O4 0.139048 0.104207 0.328416
O O5 0.608814 0.009975 0.415324
O O6 0.833642 0.980837 0.828577
O O7 0.938626 0.065620 0.762982
O O8 0.276265 0.047303 0.099105
O O9 0.553220 0.151207 0.454186
O O10 0.500000 0.000000 0.500000
O O11 0.680207 0.685850 0.096541
#
# Coordination Sequence:
#
# PCOD8131059 Si02
#       5
#     8   8   8   8   8
#     4  11  22  35  50  75 115 152 175 204 254 336
#     4   9  19  33  50  73 102 142 177 212 268 311
#     4  10  18  31  52  74 105 136 171 231 269 309
#     4   9  17  31  51  76 102 130 171 233 269 303
#     4  11  19  33  52  79 110 136 179 220 275 315
#
# _framework density 28.269134000000001
#
# number of rings (size 3 to 8) (size 9 to 14) (size 15 to 20)
#    0.000    2.000    2.000    5.400    0.000    0.000 
#    0.000    0.000    0.000    0.000    0.000    1.400 
#    0.000    0.000    0.000    0.000    0.000    0.000 
#
# Total GULP energy -247816.664555 kJ/mol
# GULP energy per Si atom -12390.833228 kJ/mol
# Density = 2.820479 g / cm^3
# Si number density = 28.269134 Si / 1000 Ang^3
#
#
#
# Elastic Constant Matrix: (Units=GPa)
#
#
# Indices 1 2 3 4 5 6 
#
# 1 148.0820 24.6862 71.2502 0.0000 49.5376 0.0000
# 2 24.6862 139.1151 82.6907 0.0000 14.0479 0.0000
# 3 71.2502 82.6907 265.7498 0.0000 1.4053 0.0000
# 4 0.0000 0.0000 0.0000 33.4250 0.0000 13.1167
# 5 49.5376 14.0479 1.4053 0.0000 51.3515 0.0000
# 6 0.0000 0.0000 0.0000 13.1167 0.0000 12.2635
#
#
#
# Elastic Compliance Matrix: (Units=1/GPa)
#
#
# Indices 1 2 3 4 5 6 
#
# 1 0.012361 0.001184 -0.003618 0.000000 -0.012149 0.000000
# 2 0.001184 0.009223 -0.003168 0.000000 -0.003579 0.000000
# 3 -0.003618 -0.003168 0.005697 0.000000 0.004201 0.000000
# 4 0.000000 0.000000 0.000000 0.051558 0.000000 -0.055145
# 5 -0.012149 -0.003579 0.004201 0.000000 0.032057 0.000000
# 6 0.000000 0.000000 0.000000 -0.055145 0.000000 0.140524
#
#
# Mechanical properties :
#
#
# Convention : Reuss Voigt Hill
#
# Bulk Modulus (GPa) = 62.20741 101.13346 81.67043
# Shear Modulus (GPa) = 18.65791 44.36266 31.51028
#
# Velocity S-wave (km/s) = 2.57185 3.96573 3.34226
# Velocity P-wave (km/s) = 5.55630 7.53805 6.62173
#
# Compressibility (1/GPa) = 0.01607526
#
# Stress axis : x y z
#
# Youngs Moduli (GPa) = 80.90141 108.42701 175.54168
#
# Poissons Ratio (x) = -0.12839 0.63515
# Poissons Ratio (y) = -0.09579 0.55617
# Poissons Ratio (z) = 0.29272 0.34353
#
# Static dielectric constant tensor:
#      x y z
#    x 5.495650 0.000000 0.575900 
#    y 0.000000 4.609040 0.000000 
#    z 0.575900 0.000000 7.048790 
# 
# 
# High freq. dielectric constant tensor:
#      x y z
#    x 2.195230 0.000000 0.009110 
#    y 0.000000 2.106860 0.000000 
#    z 0.009110 0.000000 2.208150 
# 
# From -- ./inp_files/55049.got.cif
#   From: 2010.06.25/outbox.cif.g09.slc.cpg/sg15_28_cif.got.tgz:55049.got - 2010.06.28 07:06:18.
