data_PCOD8131160
_publ_section_title
;
Structure prediction by ZEFSAII (Michael W. Deem and Ramdas Pophale) SiO2 
 PCOD8131160
Probable space group: C 2/C
;
_chemical_formula_sum "Si O2"
_cell_formula_units_Z 56
_cell_length_a 17.064026
_cell_length_b 18.213680
_cell_length_c 24.597716
_cell_angle_alpha 90.000000
_cell_angle_beta 159.356047
_cell_angle_gamma 90.000000
_cell_volume 2695.296563
_symmetry_space_group_name_H-M "C 2/C"
_symmetry_group_IT_number 15
_symmetry_cell_setting 'monoclinic'
loop_
_space_group_symop_operation_xyz
x,y,z
-x,y,1/2-z
-x,-y,-z
x,-y,1/2+z
1/2+x,1/2+y,z
1/2-x,1/2+y,1/2-z
1/2-x,1/2-y,-z
1/2+x,1/2-y,1/2+z
loop_
_atom_site_type_symbol
_atom_site_label
_atom_site_fract_x
_atom_site_fract_y
_atom_site_fract_z
Si Si1 0.640084 0.383432 0.195505
Si Si2 0.500000 0.933774 0.250000
Si Si3 0.272932 0.030273 0.330519
Si Si4 0.179290 0.046207 0.083555
Si Si5 0.516442 0.069252 0.391757
Si Si6 0.388751 0.689682 0.622038
Si Si7 0.574523 0.896323 0.417161
Si Si8 0.500000 0.600268 0.250000
O O1 0.638464 0.467796 0.212441
O O2 0.594601 0.330951 0.216687
O O3 0.868468 0.359061 0.314940
O O4 0.432915 0.383971 0.019084
O O5 0.535801 0.883722 0.327363
O O6 0.284901 0.985936 0.112018
O O7 0.354950 0.089560 0.338329
O O8 0.119708 0.056515 0.279679
O O9 0.500000 0.000000 0.500000
O O10 0.372863 0.083405 0.244814
O O11 0.000000 0.000000 0.000000
O O12 0.735507 0.119082 0.535025
O O13 0.587915 0.983312 0.439490
O O14 0.500000 0.718901 0.750000
O O15 0.250000 0.750000 0.500000
O O16 0.800433 0.857423 0.587855
#
# Coordination Sequence:
#
# PCOD8131160 Si02
#       8
#     8   4   8   8   8   8   8   4
#     4  11  21  37  58  84 123 160 211 253 313 378
#     4  10  18  32  44  78 120 158 194 226 298 380
#     4  11  19  31  53  88 121 163 197 247 327 380
#     4  11  18  33  56  87 123 165 199 247 309 383
#     4  10  21  37  57  85 122 164 211 248 318 373
#     4  12  29  46  66  88 124 174 221 269 315 371
#     4  10  21  32  57  90 123 165 192 250 315 380
#     4  12  20  28  48  82 132 146 192 240 310 384
#
# _framework density 20.776933
#
# number of rings (size 3 to 8) (size 9 to 14) (size 15 to 20)
#    0.000    1.143    7.143    4.286    4.000    0.000 
#    0.000    0.000    0.000    0.000    0.000    2.000 
#    0.000    0.000    0.000    0.000    0.000    0.000 
#
# Total GULP energy -346866.598409 kJ/mol
# GULP energy per Si atom -12388.092800 kJ/mol
# Density = 2.072964 g / cm^3
# Si number density = 20.776933 Si / 1000 Ang^3
#
#
#
# Elastic Constant Matrix: (Units=GPa)
#
#
# Indices 1 2 3 4 5 6 
#
# 1 170.8168 19.5151 56.7290 0.0035 7.0393 -0.0166
# 2 19.5151 28.0773 11.9752 0.1067 0.7866 -0.0029
# 3 56.7290 11.9752 142.1957 0.3168 -11.2521 -0.0469
# 4 0.0035 0.1067 0.3168 14.4197 -0.0731 -4.3937
# 5 7.0393 0.7866 -11.2521 -0.0731 50.9736 -0.0066
# 6 -0.0166 -0.0029 -0.0469 -4.3937 -0.0066 12.8151
#
#
#
# Elastic Compliance Matrix: (Units=1/GPa)
#
#
# Indices 1 2 3 4 5 6 
#
# 1 0.007251 -0.003850 -0.002690 0.000086 -0.001536 0.000028
# 2 -0.003850 0.039070 -0.001791 -0.000282 -0.000467 -0.000100
# 3 -0.002690 -0.001791 0.008436 -0.000169 0.002261 -0.000030
# 4 0.000086 -0.000282 -0.000169 0.077446 0.000070 0.026552
# 5 -0.001536 -0.000467 0.002261 0.000070 0.020336 0.000041
# 6 0.000028 -0.000100 -0.000030 0.026552 0.000041 0.087136
#
#
# Mechanical properties :
#
#
# Convention : Reuss Voigt Hill
#
# Bulk Modulus (GPa) = 26.25015 57.50314 41.87664
# Shear Modulus (GPa) = 18.58499 32.49972 25.54235
#
# Velocity S-wave (km/s) = 2.99407 3.95931 3.51003
# Velocity P-wave (km/s) = 4.96128 6.97410 6.05196
#
# Compressibility (1/GPa) = 0.03809502
#
# Stress axis : x y z
#
# Youngs Moduli (GPa) = 137.91735 25.59538 118.54083
#
# Poissons Ratio (x) = 0.09853 0.31890
# Poissons Ratio (y) = 0.53092 0.21229
# Poissons Ratio (z) = 0.37102 0.04584
#
# Static dielectric constant tensor:
#      x y z
#    x -3.492740 -0.028800 -3.351930 
#    y -0.028800 3.298490 -0.015740 
#    z -3.351930 -0.015740 2.682770 
# 
# 
# High freq. dielectric constant tensor:
#      x y z
#    x 1.848260 0.000000 -0.002490 
#    y 0.000000 1.709330 -0.000030 
#    z -0.002490 -0.000030 1.843000 
# 
# From -- ./inp_files/299324.got.cif
#   From: 2010.06.25/outbox.cif.g09.slc.cpg/sg15_150_cif.got.tgz:299324.got - 2010.06.28 07:06:18.
