data_PCOD8131278
_publ_section_title
;
Structure prediction by ZEFSAII (Michael W. Deem and Ramdas Pophale) SiO2 
 PCOD8131278
Probable space group: C 2/C
;
_chemical_formula_sum "Si O2"
_cell_formula_units_Z 60
_cell_length_a 24.257693
_cell_length_b 25.790499
_cell_length_c 9.822859
_cell_angle_alpha 90.000000
_cell_angle_beta 151.155819
_cell_angle_gamma 90.000000
_cell_volume 2964.700222
_symmetry_space_group_name_H-M "C 2/C"
_symmetry_group_IT_number 15
_symmetry_cell_setting 'monoclinic'
loop_
_space_group_symop_operation_xyz
x,y,z
-x,y,1/2-z
-x,-y,-z
x,-y,1/2+z
1/2+x,1/2+y,z
1/2-x,1/2+y,1/2-z
1/2-x,1/2-y,-z
1/2+x,1/2-y,1/2+z
loop_
_atom_site_type_symbol
_atom_site_label
_atom_site_fract_x
_atom_site_fract_y
_atom_site_fract_z
Si Si1 0.766429 0.561732 0.401142
Si Si2 0.097951 0.294083 0.647655
Si Si3 0.000000 0.435410 0.750000
Si Si4 0.019884 0.406493 0.500769
Si Si5 0.689387 0.008531 0.261016
Si Si6 0.433886 0.298174 0.733138
Si Si7 0.780697 0.249656 0.346085
Si Si8 0.395209 0.658400 0.433060
O O1 0.901367 0.574306 0.679037
O O2 0.728809 0.535683 0.175345
O O3 0.740256 0.523692 0.472543
O O4 0.701201 0.615142 0.281027
O O5 0.209400 0.285324 0.796745
O O6 0.056909 0.351496 0.522324
O O7 0.993910 0.257074 0.384001
O O8 0.130151 0.284702 0.875655
O O9 0.008817 0.398771 0.638386
O O10 0.888312 0.470463 0.495435
O O11 0.114701 0.449443 0.678719
O O12 0.500000 0.326254 0.750000
O O13 0.300554 0.288731 0.412880
O O14 0.444264 0.333826 0.887545
O O15 0.847131 0.212774 0.385063
O O16 0.500000 0.638227 0.750000
#
# Coordination Sequence:
#
# PCOD8131278 Si02
#       8
#     8   8   4   8   8   8   8   8
#     4  11  23  38  64  91 118 162 204 252 324 371
#     4  10  21  37  59  98 123 164 205 254 306 381
#     4  10  18  32  54  88 126 156 174 250 316 366
#     4  11  20  33  61  91 129 152 202 245 322 379
#     4  11  19  40  59  89 126 154 194 259 310 370
#     4  10  22  42  63  87 130 165 203 261 309 364
#     4  10  21  38  62  86 131 163 210 252 311 356
#     4  12  24  42  63  90 122 170 213 254 303 372
#
# _framework density 20.238133999999999
#
# number of rings (size 3 to 8) (size 9 to 14) (size 15 to 20)
#    0.000    1.333    4.000    2.800    0.000    5.333 
#    0.000    0.667    0.000    0.000    0.000    0.000 
#    0.000    0.000    0.000    0.000    0.000    0.000 
#
# Total GULP energy -372046.461409 kJ/mol
# GULP energy per Si atom -12401.548714 kJ/mol
# Density = 2.019207 g / cm^3
# Si number density = 20.238134 Si / 1000 Ang^3
#
#
#
# Elastic Constant Matrix: (Units=GPa)
#
#
# Indices 1 2 3 4 5 6 
#
# 1 90.3706 28.3799 29.8493 0.0000 -19.4261 0.0000
# 2 28.3799 69.9045 14.1374 0.0000 -6.3604 0.0000
# 3 29.8493 14.1374 71.7072 0.0000 -21.1142 0.0000
# 4 0.0000 0.0000 0.0000 20.1283 0.0000 3.6178
# 5 -19.4261 -6.3604 -21.1142 0.0000 26.2688 0.0000
# 6 0.0000 0.0000 0.0000 3.6178 0.0000 4.3089
#
#
#
# Elastic Compliance Matrix: (Units=1/GPa)
#
#
# Indices 1 2 3 4 5 6 
#
# 1 0.015267 -0.004869 -0.003168 0.000000 0.007565 0.000000
# 2 -0.004869 0.016506 -0.001455 0.000000 -0.000774 0.000000
# 3 -0.003168 -0.001455 0.019333 0.000000 0.012845 0.000000
# 4 0.000000 0.000000 0.000000 0.058511 0.000000 -0.049126
# 5 0.007565 -0.000774 0.012845 0.000000 0.053799 0.000000
# 6 0.000000 0.000000 0.000000 -0.049126 0.000000 0.273325
#
#
# Mechanical properties :
#
#
# Convention : Reuss Voigt Hill
#
# Bulk Modulus (GPa) = 31.13118 41.85728 36.49423
# Shear Modulus (GPa) = 10.71965 20.78224 15.75095
#
# Velocity S-wave (km/s) = 2.30397 3.20798 2.79279
# Velocity P-wave (km/s) = 4.74273 5.86931 5.33584
#
# Compressibility (1/GPa) = 0.03212213
#
# Stress axis : x y z
#
# Youngs Moduli (GPa) = 65.50000 60.58431 51.72443
#
# Poissons Ratio (x) = 0.29500 0.16384
# Poissons Ratio (y) = 0.31894 0.07527
# Poissons Ratio (z) = 0.20748 0.08816
#
# Static dielectric constant tensor:
#      x y z
#    x 3.867350 0.000000 -0.288390 
#    y 0.000000 3.441030 0.000000 
#    z -0.288390 0.000000 3.667030 
# 
# 
# High freq. dielectric constant tensor:
#      x y z
#    x 1.795970 0.000000 -0.027310 
#    y 0.000000 1.772660 0.000000 
#    z -0.027310 0.000000 1.781330 
# 
# From -- ./inp_files/64116.got.cif
#   From: 2010.06.25/outbox.cif.g09.slc.cpg/sg15_33_cif.got.tgz:64116.got - 2010.06.28 07:06:18.
