data_PCOD8131261
_publ_section_title
;
Structure prediction by ZEFSAII (Michael W. Deem and Ramdas Pophale) SiO2 
 PCOD8131261
Probable space group: C 2/C
;
_chemical_formula_sum "Si O2"
_cell_formula_units_Z 64
_cell_length_a 27.506776
_cell_length_b 20.765808
_cell_length_c 18.536567
_cell_angle_alpha 90.000000
_cell_angle_beta 19.233592
_cell_angle_gamma 90.000000
_cell_volume 3487.933117
_symmetry_space_group_name_H-M "C 2/C"
_symmetry_group_IT_number 15
_symmetry_cell_setting 'monoclinic'
loop_
_space_group_symop_operation_xyz
x,y,z
-x,y,1/2-z
-x,-y,-z
x,-y,1/2+z
1/2+x,1/2+y,z
1/2-x,1/2+y,1/2-z
1/2-x,1/2-y,-z
1/2+x,1/2-y,1/2+z
loop_
_atom_site_type_symbol
_atom_site_label
_atom_site_fract_x
_atom_site_fract_y
_atom_site_fract_z
Si Si1 0.539269 0.909040 0.309552
Si Si2 0.888249 0.455716 0.748259
Si Si3 0.729782 0.918573 0.914039
Si Si4 0.344702 0.139752 0.195834
Si Si5 0.423504 0.643312 0.031145
Si Si6 0.403216 0.231442 0.246154
Si Si7 0.417295 0.121243 0.435781
Si Si8 0.307888 0.561721 0.841566
O O1 0.400715 0.935626 0.458510
O O2 0.481085 0.855000 0.447158
O O3 0.608232 0.967621 0.258503
O O4 0.664600 0.884572 0.078061
O O5 0.841535 0.432245 0.734243
O O6 0.048348 0.424703 0.544039
O O7 0.778619 0.426508 0.962462
O O8 0.840719 0.866679 0.723741
O O9 0.806646 0.986555 0.822691
O O10 0.190096 0.151295 0.374635
O O11 0.362785 0.189447 0.234170
O O12 0.522952 0.706306 0.891702
O O13 0.523749 0.580491 0.878168
O O14 0.250000 0.250000 0.500000
O O15 0.522352 0.193947 0.130944
O O16 0.500000 0.092508 0.250000
O O17 0.248107 0.110044 0.645731
#
# Coordination Sequence:
#
# PCOD8131261 Si02
#       8
#     8   8   8   8   8   8   8   8
#     4   9  16  33  58  78 106 134 174 228 262 316
#     4   9  16  30  53  81 105 137 170 215 260 317
#     4   9  18  34  56  82 104 137 178 222 270 315
#     4  10  22  35  50  81 106 138 180 218 272 310
#     4  11  23  34  52  78 112 140 177 223 268 313
#     4  11  24  37  52  75 111 146 180 219 263 316
#     4   9  17  30  52  75 101 143 180 204 247 312
#     4  10  18  32  54  80 109 140 177 211 267 323
#
# _framework density 18.348976
#
# number of rings (size 3 to 8) (size 9 to 14) (size 15 to 20)
#    0.000    2.250    1.250    3.000    3.500    1.500 
#    0.000    0.625    0.000    0.000    0.000    0.000 
#    0.000    0.000    0.000    0.000    0.000    0.000 
#
# Total GULP energy -396436.023444 kJ/mol
# GULP energy per Si atom -12388.625733 kJ/mol
# Density = 1.830721 g / cm^3
# Si number density = 18.348976 Si / 1000 Ang^3
#
#
#
# Elastic Constant Matrix: (Units=GPa)
#
#
# Indices 1 2 3 4 5 6 
#
# 1 80.1207 34.4907 47.7317 0.0033 12.7261 -0.0018
# 2 34.4907 61.9062 47.2645 0.0033 9.2449 -0.0037
# 3 47.7317 47.2645 108.2210 0.0104 11.6536 -0.0104
# 4 0.0033 0.0033 0.0104 26.7922 -0.0089 4.6750
# 5 12.7261 9.2449 11.6536 -0.0089 21.6107 0.0042
# 6 -0.0018 -0.0037 -0.0104 4.6750 0.0042 25.9688
#
#
#
# Elastic Compliance Matrix: (Units=1/GPa)
#
#
# Indices 1 2 3 4 5 6 
#
# 1 0.019004 -0.005688 -0.005260 -0.000002 -0.005921 0.000000
# 2 -0.005688 0.026445 -0.008688 0.000000 -0.003279 0.000001
# 3 -0.005260 -0.008688 0.015522 -0.000006 -0.001556 0.000006
# 4 -0.000002 0.000000 -0.000006 0.038535 0.000022 -0.006937
# 5 -0.005921 -0.003279 -0.001556 0.000022 0.052002 -0.000014
# 6 0.000000 0.000001 0.000006 -0.006937 -0.000014 0.039757
#
#
# Mechanical properties :
#
#
# Convention : Reuss Voigt Hill
#
# Bulk Modulus (GPa) = 46.08343 56.58019 51.33181
# Shear Modulus (GPa) = 21.02877 22.92508 21.97692
#
# Velocity S-wave (km/s) = 3.38900 3.53851 3.46456
# Velocity P-wave (km/s) = 6.36265 6.89908 6.63629
#
# Compressibility (1/GPa) = 0.02169977
#
# Stress axis : x y z
#
# Youngs Moduli (GPa) = 52.62101 37.81420 64.42300
#
# Poissons Ratio (x) = 0.21507 0.33888
# Poissons Ratio (y) = 0.29928 0.55971
# Poissons Ratio (z) = 0.27680 0.32853
#
# Static dielectric constant tensor:
#      x y z
#    x 3.560080 -0.000010 0.058220 
#    y -0.000010 3.177330 0.000010 
#    z 0.058220 0.000010 3.482340 
# 
# 
# High freq. dielectric constant tensor:
#      x y z
#    x 1.712520 0.000000 0.004410 
#    y 0.000000 1.688370 0.000000 
#    z 0.004410 0.000000 1.697710 
# 
# From -- ./inp_files/223139.got.cif
#   From: 2010.06.25/outbox.cif.g09.slc.cpg/sg15_112_cif.got.tgz:223139.got - 2010.06.28 07:06:18.
