data_PCOD8131688
_publ_section_title
;
Structure prediction by ZEFSAII (Michael W. Deem and Ramdas Pophale) SiO2 
 PCOD8131688
Probable space group: C 2/C
;
_chemical_formula_sum "Si O2"
_cell_formula_units_Z 52
_cell_length_a 8.203537
_cell_length_b 15.429576
_cell_length_c 28.782351
_cell_angle_alpha 90.000000
_cell_angle_beta 135.604005
_cell_angle_gamma 90.000000
_cell_volume 2548.822049
_symmetry_space_group_name_H-M "C 2/C"
_symmetry_group_IT_number 15
_symmetry_cell_setting 'monoclinic'
loop_
_space_group_symop_operation_xyz
x,y,z
-x,y,1/2-z
-x,-y,-z
x,-y,1/2+z
1/2+x,1/2+y,z
1/2-x,1/2+y,1/2-z
1/2-x,1/2-y,-z
1/2+x,1/2-y,1/2+z
loop_
_atom_site_type_symbol
_atom_site_label
_atom_site_fract_x
_atom_site_fract_y
_atom_site_fract_z
Si Si1 0.546778 0.607956 0.462842
Si Si2 0.237822 0.929786 0.462049
Si Si3 0.065427 0.468057 0.854268
Si Si4 0.314916 0.042936 0.396053
Si Si5 0.000000 0.361745 0.750000
Si Si6 0.993326 0.189602 0.139785
Si Si7 0.290648 0.645774 0.903972
O O1 0.664660 0.517992 0.472795
O O2 0.277319 0.587517 0.419200
O O3 0.569245 0.680551 0.427511
O O4 0.674505 0.643245 0.533837
O O5 0.481897 0.902301 0.535499
O O6 0.042208 0.855012 0.428917
O O7 0.272911 0.951223 0.414377
O O8 0.972574 0.422430 0.789304
O O9 0.145702 0.563984 0.856065
O O10 0.867409 0.475517 0.853058
O O11 0.082484 0.100869 0.350164
O O12 0.227735 0.300425 0.798209
O O13 0.858341 0.268497 0.137084
#
# Coordination Sequence:
#
# PCOD8131688 Si02
#       7
#     8   8   8   8   4   8   8
#     4   9  16  34  57  88 117 151 174 235 293 369
#     4   9  17  30  56  89 129 135 185 219 301 364
#     4  10  19  37  64  78 111 154 204 226 282 346
#     4  10  18  34  55  88 113 158 172 237 288 364
#     4  10  24  46  54  74 108 170 210 244 270 352
#     4  10  23  35  56  82 122 148 193 238 306 330
#     4  11  18  35  59  91 111 148 182 248 293 351
#
# _framework density 20.401581
#
# number of rings (size 3 to 8) (size 9 to 14) (size 15 to 20)
#    0.000    2.154    3.077    2.308    0.000    1.231 
#    0.000    4.615    0.000    0.000    0.000    0.000 
#    0.000    0.000    0.000    0.000    0.000    0.000 
#
# Total GULP energy -322335.164605 kJ/mol
# GULP energy per Si atom -12397.506331 kJ/mol
# Density = 2.035515 g / cm^3
# Si number density = 20.401581 Si / 1000 Ang^3
#
#
#
# Elastic Constant Matrix: (Units=GPa)
#
#
# Indices 1 2 3 4 5 6 
#
# 1 118.2803 15.8440 29.0950 0.0000 1.1980 0.0000
# 2 15.8440 57.8670 21.2774 0.0000 9.9620 0.0000
# 3 29.0950 21.2774 72.2480 -0.0001 5.9596 0.0000
# 4 0.0000 0.0000 -0.0001 17.5504 0.0000 7.4963
# 5 1.1980 9.9620 5.9596 0.0000 35.9683 0.0000
# 6 0.0000 0.0000 0.0000 7.4963 0.0000 36.1198
#
#
#
# Elastic Compliance Matrix: (Units=1/GPa)
#
#
# Indices 1 2 3 4 5 6 
#
# 1 0.009490 -0.001442 -0.003451 0.000000 0.000655 0.000000
# 2 -0.001442 0.020339 -0.005017 0.000000 -0.004754 0.000000
# 3 -0.003451 -0.005017 0.016814 0.000000 -0.001281 0.000000
# 4 0.000000 0.000000 0.000000 0.062521 0.000000 -0.012976
# 5 0.000655 -0.004754 -0.001281 0.000000 0.029309 0.000000
# 6 0.000000 0.000000 0.000000 -0.012976 0.000000 0.030379
#
#
# Mechanical properties :
#
#
# Convention : Reuss Voigt Hill
#
# Bulk Modulus (GPa) = 37.28186 42.31425 39.79805
# Shear Modulus (GPa) = 25.30190 30.07294 27.68742
#
# Velocity S-wave (km/s) = 3.52546 3.84350 3.68791
# Velocity P-wave (km/s) = 5.90639 6.36257 6.13872
#
# Compressibility (1/GPa) = 0.02682269
#
# Stress axis : x y z
#
# Youngs Moduli (GPa) = 105.37480 49.16665 59.47353
#
# Poissons Ratio (x) = 0.07091 0.20524
# Poissons Ratio (y) = 0.15197 0.29838
# Poissons Ratio (z) = 0.36365 0.24667
#
# Static dielectric constant tensor:
#      x y z
#    x 3.996810 0.000000 0.141930 
#    y 0.000000 3.280100 0.000000 
#    z 0.141930 0.000000 3.493860 
# 
# 
# High freq. dielectric constant tensor:
#      x y z
#    x 1.816060 0.000000 0.009040 
#    y 0.000000 1.756350 0.000000 
#    z 0.009040 0.000000 1.771620 
# 
# From -- ./inp_files/231139.got.cif
#   From: 2010.06.25/outbox.cif.g09.slc.cpg/sg15_116_cif.got.tgz:231139.got - 2010.06.28 07:06:18.
