data_PCOD8131111
_publ_section_title
;
Structure prediction by ZEFSAII (Michael W. Deem and Ramdas Pophale) SiO2 
 PCOD8131111
Probable space group: C 2/C
;
_chemical_formula_sum "Si O2"
_cell_formula_units_Z 52
_cell_length_a 17.693306
_cell_length_b 21.542088
_cell_length_c 12.338423
_cell_angle_alpha 90.000000
_cell_angle_beta 143.230712
_cell_angle_gamma 90.000000
_cell_volume 2815.068819
_symmetry_space_group_name_H-M "C 2/C"
_symmetry_group_IT_number 15
_symmetry_cell_setting 'monoclinic'
loop_
_space_group_symop_operation_xyz
x,y,z
-x,y,1/2-z
-x,-y,-z
x,-y,1/2+z
1/2+x,1/2+y,z
1/2-x,1/2+y,1/2-z
1/2-x,1/2-y,-z
1/2+x,1/2-y,1/2+z
loop_
_atom_site_type_symbol
_atom_site_label
_atom_site_fract_x
_atom_site_fract_y
_atom_site_fract_z
Si Si1 0.500000 0.984404 0.750000
Si Si2 0.299842 0.082404 0.888768
Si Si3 0.734917 0.720789 0.864195
Si Si4 0.609719 0.481704 0.755411
Si Si5 0.114702 0.065690 0.034738
Si Si6 0.719236 0.029797 0.862471
Si Si7 0.539349 0.704417 0.914450
O O1 0.433901 0.941317 0.584887
O O2 0.593080 0.028636 0.789196
O O3 0.281235 0.150701 0.912911
O O4 0.191555 0.041102 0.816193
O O5 0.294811 0.078696 0.751811
O O6 0.585629 0.720666 0.655867
O O7 0.750000 0.750000 0.000000
O O8 0.832775 0.759619 0.899573
O O9 0.471626 0.510486 0.614479
O O10 0.607224 0.431265 0.656298
O O11 0.667412 0.447960 0.927144
O O12 0.251494 0.040655 0.150061
O O13 0.074876 0.132193 0.946073
O O14 0.500000 0.726717 0.750000
#
# Coordination Sequence:
#
# PCOD8131111 Si02
#       7
#     4   8   8   8   8   8   8
#     4  10  22  32  52  78 114 144 182 222 278 344
#     4  10  20  35  53  76 112 147 184 224 277 339
#     4  10  22  34  51  79 110 149 182 231 279 332
#     4   9  18  32  53  83 107 133 174 230 281 328
#     4  10  18  31  54  80 107 137 177 228 279 329
#     4  10  20  33  52  79 111 147 179 224 283 339
#     4  10  20  33  52  74 111 141 186 226 279 331
#
# _framework density 18.472016
#
# number of rings (size 3 to 8) (size 9 to 14) (size 15 to 20)
#    0.000    2.154    1.538    1.846    9.692    0.000 
#    0.000    0.000    0.000    0.923    0.000    0.000 
#    0.000    0.000    0.000    0.000    0.000    0.000 
#
# Total GULP energy -322090.141569 kJ/mol
# GULP energy per Si atom -12388.082368 kJ/mol
# Density = 1.842997 g / cm^3
# Si number density = 18.472016 Si / 1000 Ang^3
#
#
#
# Elastic Constant Matrix: (Units=GPa)
#
#
# Indices 1 2 3 4 5 6 
#
# 1 76.3844 26.8009 30.6742 0.0000 10.1932 0.0000
# 2 26.8009 55.4981 23.2080 0.0000 2.2299 0.0000
# 3 30.6742 23.2080 86.7966 0.0000 -11.5046 0.0000
# 4 0.0000 0.0000 0.0000 20.3283 0.0000 -2.8506
# 5 10.1932 2.2299 -11.5046 0.0000 38.1837 0.0000
# 6 0.0000 0.0000 0.0000 -2.8506 0.0000 12.9574
#
#
#
# Elastic Compliance Matrix: (Units=1/GPa)
#
#
# Indices 1 2 3 4 5 6 
#
# 1 0.018395 -0.006268 -0.005653 0.000000 -0.006248 0.000000
# 2 -0.006268 0.022744 -0.003979 0.000000 -0.000854 0.000000
# 3 -0.005653 -0.003979 0.015430 0.000000 0.006390 0.000000
# 4 0.000000 0.000000 0.000000 0.050758 0.000000 0.011167
# 5 -0.006248 -0.000854 0.006390 0.000000 0.029832 0.000000
# 6 0.000000 0.000000 0.000000 0.011167 0.000000 0.079633
#
#
# Mechanical properties :
#
#
# Convention : Reuss Voigt Hill
#
# Bulk Modulus (GPa) = 40.37480 42.22726 41.30103
# Shear Modulus (GPa) = 19.46669 23.49360 21.48014
#
# Velocity S-wave (km/s) = 3.24982 3.57017 3.41375
# Velocity P-wave (km/s) = 5.99888 6.31700 6.16000
#
# Compressibility (1/GPa) = 0.02476792
#
# Stress axis : x y z
#
# Youngs Moduli (GPa) = 54.36329 43.96759 64.80895
#
# Poissons Ratio (x) = 0.27560 0.36636
# Poissons Ratio (y) = 0.34076 0.25790
# Poissons Ratio (z) = 0.30731 0.17496
#
# Static dielectric constant tensor:
#      x y z
#    x 3.777870 0.000000 0.358680 
#    y 0.000000 3.034410 0.000000 
#    z 0.358680 0.000000 3.860850 
# 
# 
# High freq. dielectric constant tensor:
#      x y z
#    x 1.726120 0.000000 0.023480 
#    y 0.000000 1.672530 0.000000 
#    z 0.023480 0.000000 1.711320 
# 
# From -- ./inp_files/99701.got.cif
#   From: 2010.06.25/outbox.cif.g09.slc.cpg/sg15_50_cif.got.tgz:99701.got - 2010.06.28 07:06:18.
