data_PCOD8131196
_publ_section_title
;
Structure prediction by ZEFSAII (Michael W. Deem and Ramdas Pophale) SiO2 
 PCOD8131196
Probable space group: C 2/C
;
_chemical_formula_sum "Si O2"
_cell_formula_units_Z 48
_cell_length_a 27.069664
_cell_length_b 14.719211
_cell_length_c 8.764880
_cell_angle_alpha 90.000000
_cell_angle_beta 43.765952
_cell_angle_gamma 90.000000
_cell_volume 2415.683472
_symmetry_space_group_name_H-M "C 2/C"
_symmetry_group_IT_number 15
_symmetry_cell_setting 'monoclinic'
loop_
_space_group_symop_operation_xyz
x,y,z
-x,y,1/2-z
-x,-y,-z
x,-y,1/2+z
1/2+x,1/2+y,z
1/2-x,1/2+y,1/2-z
1/2-x,1/2-y,-z
1/2+x,1/2-y,1/2+z
loop_
_atom_site_type_symbol
_atom_site_label
_atom_site_fract_x
_atom_site_fract_y
_atom_site_fract_z
Si Si1 0.806054 0.440898 0.055010
Si Si2 0.172032 0.256545 0.602773
Si Si3 0.575788 0.548118 0.316064
Si Si4 0.655019 0.304320 0.792588
Si Si5 0.695259 0.883785 0.114463
Si Si6 0.357273 0.402972 0.144938
O O1 0.826680 0.435686 0.184000
O O2 0.723402 0.413428 0.228816
O O3 0.849642 0.363248 0.861335
O O4 0.825731 0.543879 0.968150
O O5 0.250000 0.250000 0.500000
O O6 0.166888 0.212153 0.445293
O O7 0.124127 0.197219 0.826627
O O8 0.500000 0.500000 0.500000
O O9 0.584390 0.636487 0.408959
O O10 0.633893 0.474239 0.237421
O O11 0.588245 0.577562 0.113866
O O12 0.650407 0.209955 0.707086
O O13 0.721072 0.361547 0.578961
#
# Coordination Sequence:
#
# PCOD8131196 Si02
#       6
#     8   8   8   8   8   8
#     4  10  18  32  50  83 107 150 181 235 303 365
#     4   9  21  32  53  79 112 146 193 240 305 368
#     4  12  24  37  54  76 110 160 205 241 289 342
#     4  10  20  36  49  78 112 154 190 242 291 360
#     4  10  20  30  54  76 113 146 187 229 306 357
#     4  11  20  35  50  76 109 150 195 245 286 355
#
# _framework density 19.870153999999999
#
# number of rings (size 3 to 8) (size 9 to 14) (size 15 to 20)
#    0.000    1.667    3.333    1.500    7.000    0.000 
#    0.000    0.000    0.000    0.000    0.000    1.167 
#    0.000    2.667    0.000    0.500    0.000    0.333 
#
# Total GULP energy -297320.217992 kJ/mol
# GULP energy per Si atom -12388.342416 kJ/mol
# Density = 1.982493 g / cm^3
# Si number density = 19.870154 Si / 1000 Ang^3
#
#
#
# Elastic Constant Matrix: (Units=GPa)
#
#
# Indices 1 2 3 4 5 6 
#
# 1 58.2523 47.4124 29.8182 0.0000 10.9219 0.0000
# 2 47.4124 164.7718 52.4533 0.0000 12.1583 0.0000
# 3 29.8182 52.4533 76.0054 0.0000 17.9909 0.0000
# 4 0.0000 0.0000 0.0000 31.8141 0.0000 4.5868
# 5 10.9219 12.1583 17.9909 0.0000 23.5723 0.0000
# 6 0.0000 0.0000 0.0000 4.5868 0.0000 37.4312
#
#
#
# Elastic Compliance Matrix: (Units=1/GPa)
#
#
# Indices 1 2 3 4 5 6 
#
# 1 0.024901 -0.005207 -0.004980 0.000000 -0.005051 0.000000
# 2 -0.005207 0.008867 -0.004351 0.000000 0.001160 0.000000
# 3 -0.004980 -0.004351 0.020792 0.000000 -0.011318 0.000000
# 4 0.000000 0.000000 0.000000 0.031998 0.000000 -0.003921
# 5 -0.005051 0.001160 -0.011318 0.000000 0.052803 0.000000
# 6 0.000000 0.000000 0.000000 -0.003921 0.000000 0.027196
#
#
# Mechanical properties :
#
#
# Convention : Reuss Voigt Hill
#
# Bulk Modulus (GPa) = 39.24014 62.04416 50.64215
# Shear Modulus (GPa) = 24.49450 29.85323 27.17387
#
# Velocity S-wave (km/s) = 3.51483 3.88031 3.70208
# Velocity P-wave (km/s) = 6.02189 7.16717 6.61935
#
# Compressibility (1/GPa) = 0.02548411
#
# Stress axis : x y z
#
# Youngs Moduli (GPa) = 40.15896 112.78001 48.09475
#
# Poissons Ratio (x) = 0.58726 0.23951
# Poissons Ratio (y) = 0.20911 0.20926
# Poissons Ratio (z) = 0.19999 0.49070
#
# Static dielectric constant tensor:
#      x y z
#    x 3.594900 0.000000 0.424210 
#    y 0.000000 4.273720 0.000000 
#    z 0.424210 0.000000 3.330430 
# 
# 
# High freq. dielectric constant tensor:
#      x y z
#    x 1.753250 0.000000 0.047190 
#    y 0.000000 1.798840 0.000000 
#    z 0.047190 0.000000 1.729990 
# 
# From -- ./inp_files/66432.got.cif
#   From: 2010.06.25/outbox.cif.g09.slc.cpg/sg15_34_cif.got.tgz:66432.got - 2010.06.28 07:06:18.
