data_PCOD8131516
_publ_section_title
;
Structure prediction by ZEFSAII (Michael W. Deem and Ramdas Pophale) SiO2 
 PCOD8131516
Probable space group: C 2/C
;
_chemical_formula_sum "Si O2"
_cell_formula_units_Z 64
_cell_length_a 13.540555
_cell_length_b 18.621827
_cell_length_c 13.962288
_cell_angle_alpha 90.000000
_cell_angle_beta 65.009789
_cell_angle_gamma 90.000000
_cell_volume 3190.991510
_symmetry_space_group_name_H-M "C 2/C"
_symmetry_group_IT_number 15
_symmetry_cell_setting 'monoclinic'
loop_
_space_group_symop_operation_xyz
x,y,z
-x,y,1/2-z
-x,-y,-z
x,-y,1/2+z
1/2+x,1/2+y,z
1/2-x,1/2+y,1/2-z
1/2-x,1/2-y,-z
1/2+x,1/2-y,1/2+z
loop_
_atom_site_type_symbol
_atom_site_label
_atom_site_fract_x
_atom_site_fract_y
_atom_site_fract_z
Si Si1 0.337883 0.338675 0.389659
Si Si2 0.617566 0.974925 0.984139
Si Si3 0.059128 0.193437 0.452805
Si Si4 0.070972 0.327372 0.942365
Si Si5 0.131162 0.611647 0.081599
Si Si6 0.339886 0.492359 0.316509
Si Si7 0.796453 0.703545 0.286623
Si Si8 0.501202 0.455366 0.595757
O O1 0.418048 0.327688 0.446521
O O2 0.214385 0.344903 0.478636
O O3 0.369089 0.408312 0.314868
O O4 0.352984 0.271514 0.313789
O O5 0.646303 0.024695 0.065030
O O6 0.612238 0.888563 0.001218
O O7 0.710356 0.992365 0.866405
O O8 0.500000 0.000000 0.000000
O O9 0.167230 0.210351 0.348361
O O10 0.981197 0.262577 0.477061
O O11 0.997512 0.128616 0.427121
O O12 0.172662 0.299113 0.837779
O O13 0.987916 0.362862 0.900573
O O14 0.158413 0.631496 0.179636
O O15 0.389233 0.531218 0.389744
O O16 0.392938 0.522885 0.198711
O O17 0.500000 0.500000 0.500000
#
# Coordination Sequence:
#
# PCOD8131516 Si02
#       8
#     8   8   8   8   8   8   8   8
#     4  10  18  33  56  84 122 143 180 249 312 346
#     4   9  20  38  59  83 115 158 197 242 295 355
#     4  11  21  36  53  88 121 147 192 248 294 360
#     4  11  20  32  55  86 112 149 196 236 294 360
#     4   9  17  33  51  80 114 148 180 232 298 351
#     4  10  22  40  62  86 121 159 202 245 297 357
#     4  11  20  31  56  88 117 146 184 246 316 349
#     4  11  23  38  59  89 121 161 199 241 299 363
#
# _framework density 20.056462
#
# number of rings (size 3 to 8) (size 9 to 14) (size 15 to 20)
#    0.000    1.750    3.750    1.875    1.750    0.000 
#    0.000    0.625    0.000    0.000   19.500    0.000 
#    0.000    0.000    0.000    0.000    0.000    0.000 
#
# Total GULP energy -396720.511502 kJ/mol
# GULP energy per Si atom -12397.515984 kJ/mol
# Density = 2.001081 g / cm^3
# Si number density = 20.056462 Si / 1000 Ang^3
#
#
#
# Elastic Constant Matrix: (Units=GPa)
#
#
# Indices 1 2 3 4 5 6 
#
# 1 56.3620 39.1404 38.2992 0.0000 -10.6608 0.0000
# 2 39.1404 169.0575 60.5927 0.0000 -1.5753 0.0000
# 3 38.2992 60.5927 90.0760 0.0000 -12.3506 0.0000
# 4 0.0000 0.0000 0.0000 20.5831 0.0000 -3.0343
# 5 -10.6608 -1.5753 -12.3506 0.0000 23.7383 0.0000
# 6 0.0000 0.0000 0.0000 -3.0343 0.0000 34.1867
#
#
#
# Elastic Compliance Matrix: (Units=1/GPa)
#
#
# Indices 1 2 3 4 5 6 
#
# 1 0.027056 -0.003221 -0.008292 0.000000 0.007623 0.000000
# 2 -0.003221 0.008305 -0.004673 0.000000 -0.003327 0.000000
# 3 -0.008292 -0.004673 0.018540 0.000000 0.005612 0.000000
# 4 0.000000 0.000000 0.000000 0.049228 0.000000 0.004369
# 5 0.007623 -0.003327 0.005612 0.000000 0.048249 0.000000
# 6 0.000000 0.000000 0.000000 0.004369 0.000000 0.029639
#
#
# Mechanical properties :
#
#
# Convention : Reuss Voigt Hill
#
# Bulk Modulus (GPa) = 46.44924 65.72889 56.08906
# Shear Modulus (GPa) = 22.66916 27.53250 25.10083
#
# Velocity S-wave (km/s) = 3.36559 3.70908 3.54150
# Velocity P-wave (km/s) = 6.18971 7.15445 6.68949
#
# Compressibility (1/GPa) = 0.02152888
#
# Stress axis : x y z
#
# Youngs Moduli (GPa) = 36.96097 120.41238 53.93641
#
# Poissons Ratio (x) = 0.38785 0.44723
# Poissons Ratio (y) = 0.11905 0.25205
# Poissons Ratio (z) = 0.30647 0.56270
#
# Static dielectric constant tensor:
#      x y z
#    x 3.500660 0.000000 -0.245690 
#    y 0.000000 4.063730 0.000000 
#    z -0.245690 0.000000 3.559420 
# 
# 
# High freq. dielectric constant tensor:
#      x y z
#    x 1.757220 0.000000 -0.033760 
#    y 0.000000 1.795060 0.000000 
#    z -0.033760 0.000000 1.766500 
# 
# From -- ./inp_files/155174.got.cif
#   From: 2010.06.25/outbox.cif.g09.slc.cpg/sg15_78_cif.got.tgz:155174.got - 2010.06.28 07:06:18.
