data_PCOD8131453
_publ_section_title
;
Structure prediction by ZEFSAII (Michael W. Deem and Ramdas Pophale) SiO2 
 PCOD8131453
Probable space group: C 2/C
;
_chemical_formula_sum "Si O2"
_cell_formula_units_Z 52
_cell_length_a 13.271109
_cell_length_b 25.156157
_cell_length_c 8.363059
_cell_angle_alpha 90.000000
_cell_angle_beta 94.828062
_cell_angle_gamma 90.000000
_cell_volume 2782.101372
_symmetry_space_group_name_H-M "C 2/C"
_symmetry_group_IT_number 15
_symmetry_cell_setting 'monoclinic'
loop_
_space_group_symop_operation_xyz
x,y,z
-x,y,1/2-z
-x,-y,-z
x,-y,1/2+z
1/2+x,1/2+y,z
1/2-x,1/2+y,1/2-z
1/2-x,1/2-y,-z
1/2+x,1/2-y,1/2+z
loop_
_atom_site_type_symbol
_atom_site_label
_atom_site_fract_x
_atom_site_fract_y
_atom_site_fract_z
Si Si1 0.158674 0.245773 0.684848
Si Si2 0.394551 0.522917 0.327024
Si Si3 0.323172 0.425687 0.516945
Si Si4 0.439860 0.274129 0.018217
Si Si5 0.810530 0.331066 0.058291
Si Si6 0.975993 0.110495 0.559365
Si Si7 0.000000 0.706360 0.750000
O O1 0.136516 0.254996 0.869283
O O2 0.198534 0.300580 0.612955
O O3 0.239441 0.198599 0.676407
O O4 0.055993 0.227809 0.586670
O O5 0.500000 0.510167 0.250000
O O6 0.341549 0.469582 0.382232
O O7 0.413921 0.559638 0.485599
O O8 0.315969 0.549667 0.193441
O O9 0.221634 0.392366 0.468026
O O10 0.418756 0.385764 0.524447
O O11 0.411765 0.336681 0.008639
O O12 0.428585 0.244547 0.848067
O O13 0.926403 0.330774 0.135437
O O14 0.000000 0.105252 0.750000
#
# Coordination Sequence:
#
# PCOD8131453 Si02
#       7
#     8   8   8   8   8   8   4
#     4   9  18  33  53  79 107 155 182 225 269 350
#     4  10  22  32  53  82 114 141 186 227 280 349
#     4  11  20  36  52  77 110 150 182 233 275 338
#     4  10  18  33  53  81 118 145 181 222 281 333
#     4  10  20  36  56  75 113 150 195 232 286 321
#     4  11  18  30  54  83 116 153 171 214 280 349
#     4  10  24  34  54  84 110 150 196 244 264 336
#
# _framework density 18.690909000000001
#
# number of rings (size 3 to 8) (size 9 to 14) (size 15 to 20)
#    0.000    1.846    3.077    3.231    3.231    0.615 
#    0.000    3.077    0.000    0.923    0.000    0.000 
#    0.000    0.000    0.000    0.000    0.000    0.000 
#
# Total GULP energy -322348.364029 kJ/mol
# GULP energy per Si atom -12398.014001 kJ/mol
# Density = 1.864837 g / cm^3
# Si number density = 18.690909 Si / 1000 Ang^3
#
#
#
# Elastic Constant Matrix: (Units=GPa)
#
#
# Indices 1 2 3 4 5 6 
#
# 1 54.8036 42.2612 29.7722 0.0000 -4.2614 0.0000
# 2 42.2612 127.2216 58.9067 0.0000 0.6929 0.0000
# 3 29.7722 58.9067 108.8521 0.0000 -9.8259 0.0000
# 4 0.0000 0.0000 0.0000 18.9701 0.0000 1.7999
# 5 -4.2614 0.6929 -9.8259 0.0000 27.9151 0.0000
# 6 0.0000 0.0000 0.0000 1.7999 0.0000 32.5148
#
#
#
# Elastic Compliance Matrix: (Units=1/GPa)
#
#
# Indices 1 2 3 4 5 6 
#
# 1 0.025576 -0.007210 -0.002815 0.000000 0.003093 0.000000
# 2 -0.007210 0.012670 -0.005177 0.000000 -0.003237 0.000000
# 3 -0.002815 -0.005177 0.013149 0.000000 0.004327 0.000000
# 4 0.000000 0.000000 0.000000 0.052993 0.000000 -0.002933
# 5 0.003093 -0.003237 0.004327 0.000000 0.037898 0.000000
# 6 0.000000 0.000000 0.000000 -0.002933 0.000000 0.030918
#
#
# Mechanical properties :
#
#
# Convention : Reuss Voigt Hill
#
# Bulk Modulus (GPa) = 47.63575 61.41752 54.52663
# Shear Modulus (GPa) = 23.74133 26.54246 25.14189
#
# Velocity S-wave (km/s) = 3.56786 3.77247 3.67159
# Velocity P-wave (km/s) = 6.52029 7.20460 6.87097
#
# Compressibility (1/GPa) = 0.02099264
#
# Stress axis : x y z
#
# Youngs Moduli (GPa) = 39.09895 78.92764 76.05341
#
# Poissons Ratio (x) = 0.56904 0.21406
# Poissons Ratio (y) = 0.28189 0.39371
# Poissons Ratio (z) = 0.11005 0.40859
#
# Static dielectric constant tensor:
#      x y z
#    x 3.161420 0.000000 -0.166420 
#    y 0.000000 3.440960 0.000000 
#    z -0.166420 0.000000 3.648500 
# 
# 
# High freq. dielectric constant tensor:
#      x y z
#    x 1.683910 0.000000 -0.011810 
#    y 0.000000 1.713630 0.000000 
#    z -0.011810 0.000000 1.734540 
# 
# From -- ./inp_files/41780.got.cif
#   From: 2010.06.25/outbox.cif.g09.slc.cpg/sg15_21_cif.got.tgz:41780.got - 2010.06.28 07:06:18.
