data_PCOD8131870
_publ_section_title
;
Structure prediction by ZEFSAII (Michael W. Deem and Ramdas Pophale) SiO2 
 PCOD8131870
Probable space group: C 2/C
;
_chemical_formula_sum "Si O2"
_cell_formula_units_Z 56
_cell_length_a 15.744344
_cell_length_b 11.491739
_cell_length_c 18.432285
_cell_angle_alpha 90.000000
_cell_angle_beta 52.358241
_cell_angle_gamma 90.000000
_cell_volume 2640.763671
_symmetry_space_group_name_H-M "C 2/C"
_symmetry_group_IT_number 15
_symmetry_cell_setting 'monoclinic'
loop_
_space_group_symop_operation_xyz
x,y,z
-x,y,1/2-z
-x,-y,-z
x,-y,1/2+z
1/2+x,1/2+y,z
1/2-x,1/2+y,1/2-z
1/2-x,1/2-y,-z
1/2+x,1/2-y,1/2+z
loop_
_atom_site_type_symbol
_atom_site_label
_atom_site_fract_x
_atom_site_fract_y
_atom_site_fract_z
Si Si1 0.242421 0.112436 0.502621
Si Si2 0.979790 0.620023 0.345546
Si Si3 0.680190 0.325472 0.763255
Si Si4 0.181898 0.996677 0.893881
Si Si5 0.122165 0.959633 0.206527
Si Si6 0.889756 0.194833 0.653087
Si Si7 0.092127 0.596488 0.761551
O O1 0.250000 0.250000 0.500000
O O2 0.361782 0.070842 0.420984
O O3 0.202792 0.065140 0.599361
O O4 0.162603 0.057875 0.483443
O O5 0.000000 0.651135 0.250000
O O6 0.001449 0.735986 0.382707
O O7 0.058430 0.514658 0.328207
O O8 0.676388 0.387838 0.842584
O O9 0.636318 0.407181 0.722218
O O10 0.801307 0.290759 0.679082
O O11 0.604039 0.211234 0.804825
O O12 0.093023 0.097120 0.919488
O O13 0.294442 0.065249 0.833802
O O14 0.157186 0.875008 0.253310
O O15 0.000000 0.933878 0.250000
O O16 0.000000 0.616651 0.750000
#
# Coordination Sequence:
#
# PCOD8131870 Si02
#       7
#     8   8   8   8   8   8   8
#     4  12  23  39  66  96 123 166 218 254 306 381
#     4  11  19  37  66  94 122 165 210 254 310 371
#     4  10  20  37  64  91 123 166 200 252 319 366
#     4  10  20  37  61  91 124 162 204 256 306 364
#     4  11  24  42  64  89 124 164 213 253 307 377
#     4  10  20  38  64  89 125 162 200 259 314 358
#     4  10  18  34  63  89 123 162 204 246 315 364
#
# _framework density 21.205987
#
# number of rings (size 3 to 8) (size 9 to 14) (size 15 to 20)
#    0.000    1.429    4.286    3.429    0.000    0.000 
#    0.000   11.429    3.143    0.000    0.000    0.000 
#    0.000    0.000    0.000    0.000    0.000    0.000 
#
# Total GULP energy -347060.657589 kJ/mol
# GULP energy per Si atom -12395.023485 kJ/mol
# Density = 2.115772 g / cm^3
# Si number density = 21.205987 Si / 1000 Ang^3
#
#
#
# Elastic Constant Matrix: (Units=GPa)
#
#
# Indices 1 2 3 4 5 6 
#
# 1 83.7748 44.3085 16.8322 0.0000 11.0232 0.0000
# 2 44.3085 133.3512 20.1415 0.0000 15.7156 0.0000
# 3 16.8322 20.1415 69.8416 0.0000 11.4370 0.0000
# 4 0.0000 0.0000 0.0000 11.4252 0.0000 -3.7782
# 5 11.0232 15.7156 11.4370 0.0000 22.3340 0.0000
# 6 0.0000 0.0000 0.0000 -3.7782 0.0000 49.2937
#
#
#
# Elastic Compliance Matrix: (Units=1/GPa)
#
#
# Indices 1 2 3 4 5 6 
#
# 1 0.015039 -0.004315 -0.001814 0.000000 -0.003457 0.000000
# 2 -0.004315 0.009571 -0.001055 0.000000 -0.004065 0.000000
# 3 -0.001814 -0.001055 0.016145 0.000000 -0.006631 0.000000
# 4 0.000000 0.000000 0.000000 0.089802 0.000000 0.006883
# 5 -0.003457 -0.004065 -0.006631 0.000000 0.052737 0.000000
# 6 0.000000 0.000000 0.000000 0.006883 0.000000 0.020814
#
#
# Mechanical properties :
#
#
# Convention : Reuss Voigt Hill
#
# Bulk Modulus (GPa) = 37.89682 49.94799 43.92240
# Shear Modulus (GPa) = 22.00019 30.32295 26.16157
#
# Velocity S-wave (km/s) = 3.22444 3.78554 3.51620
# Velocity P-wave (km/s) = 5.63669 6.53543 6.10263
#
# Compressibility (1/GPa) = 0.02638744
#
# Stress axis : x y z
#
# Youngs Moduli (GPa) = 66.49591 104.47987 61.93815
#
# Poissons Ratio (x) = 0.45088 0.11234
# Poissons Ratio (y) = 0.28696 0.06531
# Poissons Ratio (z) = 0.12061 0.11018
#
# Static dielectric constant tensor:
#      x y z
#    x 3.954150 0.000000 0.150730 
#    y 0.000000 4.256760 0.000000 
#    z 0.150730 0.000000 3.351660 
# 
# 
# High freq. dielectric constant tensor:
#      x y z
#    x 1.847420 0.000000 -0.001260 
#    y 0.000000 1.852200 0.000000 
#    z -0.001260 0.000000 1.783410 
# 
# From -- ./inp_files/204343.got.cif
#   From: 2010.06.25/outbox.cif.g09.slc.cpg/sg15_103_cif.got.tgz:204343.got - 2010.06.28 07:06:18.
