data_PCOD8131801
_publ_section_title
;
Structure prediction by ZEFSAII (Michael W. Deem and Ramdas Pophale) SiO2 
 PCOD8131801
Probable space group: C 2/C
;
_chemical_formula_sum "Si O2"
_cell_formula_units_Z 48
_cell_length_a 13.811008
_cell_length_b 26.900718
_cell_length_c 9.119330
_cell_angle_alpha 90.000000
_cell_angle_beta 134.101689
_cell_angle_gamma 90.000000
_cell_volume 2432.991572
_symmetry_space_group_name_H-M "C 2/C"
_symmetry_group_IT_number 15
_symmetry_cell_setting 'monoclinic'
loop_
_space_group_symop_operation_xyz
x,y,z
-x,y,1/2-z
-x,-y,-z
x,-y,1/2+z
1/2+x,1/2+y,z
1/2-x,1/2+y,1/2-z
1/2-x,1/2-y,-z
1/2+x,1/2-y,1/2+z
loop_
_atom_site_type_symbol
_atom_site_label
_atom_site_fract_x
_atom_site_fract_y
_atom_site_fract_z
Si Si1 0.217004 0.854626 0.115975
Si Si2 0.499890 0.806609 0.417776
Si Si3 0.996307 0.793887 0.419914
Si Si4 0.390617 0.543152 0.015741
Si Si5 0.918751 0.063402 0.531262
Si Si6 0.777552 0.150071 0.213123
O O1 0.359587 0.831859 0.316173
O O2 0.103096 0.834620 0.108973
O O3 0.226517 0.915022 0.122151
O O4 0.179945 0.840907 0.910390
O O5 0.500000 0.787636 0.250000
O O6 0.539176 0.761194 0.564382
O O7 0.616677 0.847530 0.562044
O O8 0.000000 0.796928 0.250000
O O9 0.149568 0.804765 0.628153
O O10 0.336917 0.486962 0.996284
O O11 0.500000 0.561670 0.250000
O O12 0.458111 0.541745 0.929530
O O13 0.822309 0.098527 0.335392
O O14 0.000000 0.090859 0.750000
#
# Coordination Sequence:
#
# PCOD8131801 Si02
#       6
#     8   8   8   8   8   8
#     4  11  21  39  62  85 113 153 196 236 282 340
#     4  10  24  40  59  83 116 155 194 234 283 347
#     4  12  24  39  60  86 113 149 195 242 289 338
#     4  10  18  34  59  87 115 149 189 238 282 329
#     4  10  20  33  57  91 118 142 189 242 283 332
#     4  11  21  39  60  86 116 152 194 235 284 339
#
# _framework density 19.7288
#
# number of rings (size 3 to 8) (size 9 to 14) (size 15 to 20)
#    0.000    1.333    3.333    3.000    0.000    5.333 
#    0.000    0.833    0.000    0.000    0.000    0.000 
#    0.000    0.000    0.000    0.000    0.000    0.000 
#
# Total GULP energy -297334.398051 kJ/mol
# GULP energy per Si atom -12388.933252 kJ/mol
# Density = 1.968390 g / cm^3
# Si number density = 19.728800 Si / 1000 Ang^3
#
#
#
# Elastic Constant Matrix: (Units=GPa)
#
#
# Indices 1 2 3 4 5 6 
#
# 1 80.4068 32.9996 62.7165 0.0000 -8.9944 0.0000
# 2 32.9996 110.2776 40.9790 0.0000 -0.3476 0.0000
# 3 62.7165 40.9790 110.0623 0.0000 -11.7078 0.0000
# 4 0.0000 0.0000 0.0000 22.3579 0.0000 -5.7718
# 5 -8.9944 -0.3476 -11.7078 0.0000 30.4254 0.0000
# 6 0.0000 0.0000 0.0000 -5.7718 0.0000 18.4469
#
#
#
# Elastic Compliance Matrix: (Units=1/GPa)
#
#
# Indices 1 2 3 4 5 6 
#
# 1 0.023024 -0.002429 -0.011985 0.000000 0.002167 0.000000
# 2 -0.002429 0.010842 -0.002831 0.000000 -0.001684 0.000000
# 3 -0.011985 -0.002831 0.017297 0.000000 0.003081 0.000000
# 4 0.000000 0.000000 0.000000 0.048657 0.000000 0.015224
# 5 0.002167 -0.001684 0.003081 0.000000 0.034674 0.000000
# 6 0.000000 0.000000 0.000000 0.015224 0.000000 0.058973
#
#
# Mechanical properties :
#
#
# Convention : Reuss Voigt Hill
#
# Bulk Modulus (GPa) = 59.98202 63.79297 61.88750
# Shear Modulus (GPa) = 21.41180 25.18281 23.29731
#
# Velocity S-wave (km/s) = 3.29797 3.57662 3.44012
# Velocity P-wave (km/s) = 6.70608 7.03288 6.87142
#
# Compressibility (1/GPa) = 0.01667166
#
# Stress axis : x y z
#
# Youngs Moduli (GPa) = 43.43258 92.23500 57.81370
#
# Poissons Ratio (x) = 0.22408 0.69288
# Poissons Ratio (y) = 0.10552 0.16370
# Poissons Ratio (z) = 0.52053 0.26116
#
# Static dielectric constant tensor:
#      x y z
#    x 3.546880 0.000000 -0.186510 
#    y 0.000000 3.891280 0.000000 
#    z -0.186510 0.000000 3.566700 
# 
# 
# High freq. dielectric constant tensor:
#      x y z
#    x 1.748710 0.000000 -0.025340 
#    y 0.000000 1.779370 0.000000 
#    z -0.025340 0.000000 1.762950 
# 
# From -- ./inp_files/43796.got.cif
#   From: 2010.06.25/outbox.cif.g09.slc.cpg/sg15_22_cif.got.tgz:43796.got - 2010.06.28 07:06:18.
