data_PCOD8131587
_publ_section_title
;
Structure prediction by ZEFSAII (Michael W. Deem and Ramdas Pophale) SiO2 
 PCOD8131587
Probable space group: C 2/C
;
_chemical_formula_sum "Si O2"
_cell_formula_units_Z 48
_cell_length_a 13.655449
_cell_length_b 35.660933
_cell_length_c 5.328777
_cell_angle_alpha 90.000000
_cell_angle_beta 115.247780
_cell_angle_gamma 90.000000
_cell_volume 2347.043841
_symmetry_space_group_name_H-M "C 2/C"
_symmetry_group_IT_number 15
_symmetry_cell_setting 'monoclinic'
loop_
_space_group_symop_operation_xyz
x,y,z
-x,y,1/2-z
-x,-y,-z
x,-y,1/2+z
1/2+x,1/2+y,z
1/2-x,1/2+y,1/2-z
1/2-x,1/2-y,-z
1/2+x,1/2-y,1/2+z
loop_
_atom_site_type_symbol
_atom_site_label
_atom_site_fract_x
_atom_site_fract_y
_atom_site_fract_z
Si Si1 0.500000 0.217614 0.750000
Si Si2 0.325404 0.801475 0.717733
Si Si3 0.805978 0.580959 0.520979
Si Si4 0.373547 0.477193 0.620420
Si Si5 0.894335 0.770631 0.016913
Si Si6 0.372943 0.878243 0.592294
Si Si7 0.000000 0.524153 0.750000
O O1 0.415445 0.189179 0.526791
O O2 0.422444 0.245312 0.814429
O O3 0.198036 0.801136 0.655617
O O4 0.352956 0.758789 0.678448
O O5 0.347005 0.833773 0.537657
O O6 0.688110 0.562143 0.413092
O O7 0.813648 0.605456 0.275225
O O8 0.893167 0.548403 0.617665
O O9 0.822880 0.605933 0.784531
O O10 0.500000 0.467599 0.750000
O O11 0.341080 0.496688 0.321785
O O12 0.000000 0.791565 0.250000
O O13 0.500000 0.887354 0.750000
O O14 0.000000 0.500000 0.500000
#
# Coordination Sequence:
#
# PCOD8131587 Si02
#       7
#     4   8   8   8   8   8   4
#     4  10  18  33  60  86 112 146 204 278 310 366
#     4  10  22  35  59  84 115 164 205 253 319 374
#     4  12  24  41  60  93 130 159 203 252 302 372
#     4  10  21  41  69  95 119 159 208 257 304 355
#     4   9  19  38  57  87 115 145 210 275 312 358
#     4  12  24  41  59  88 129 173 202 243 314 386
#     4  12  22  37  62  88 120 158 196 246 306 346
#
# _framework density 20.451256999999998
#
# number of rings (size 3 to 8) (size 9 to 14) (size 15 to 20)
#    0.000    1.333    1.667    5.000    4.667    0.000 
#    0.000    1.667    0.000    0.000    0.000    0.000 
#    0.000    0.000    0.000    0.000    0.000    0.000 
#
# Total GULP energy -297438.736633 kJ/mol
# GULP energy per Si atom -12393.280693 kJ/mol
# Density = 2.040471 g / cm^3
# Si number density = 20.451257 Si / 1000 Ang^3
#
#
#
# Elastic Constant Matrix: (Units=GPa)
#
#
# Indices 1 2 3 4 5 6 
#
# 1 110.8851 35.6954 53.3469 0.0000 11.5509 0.0000
# 2 35.6954 67.8337 40.8611 0.0000 12.2137 0.0000
# 3 53.3469 40.8611 113.5555 0.0000 -7.0755 0.0000
# 4 0.0000 0.0000 0.0000 32.4908 0.0000 -8.2536
# 5 11.5509 12.2137 -7.0755 0.0000 38.9692 0.0000
# 6 0.0000 0.0000 0.0000 -8.2536 0.0000 4.5691
#
#
#
# Elastic Compliance Matrix: (Units=1/GPa)
#
#
# Indices 1 2 3 4 5 6 
#
# 1 0.012883 -0.002931 -0.005237 0.000000 -0.003851 0.000000
# 2 -0.002931 0.021730 -0.006890 0.000000 -0.007193 0.000000
# 3 -0.005237 -0.006890 0.014137 0.000000 0.006279 0.000000
# 4 0.000000 0.000000 0.000000 0.056878 0.000000 0.102744
# 5 -0.003851 -0.007193 0.006279 0.000000 0.030197 0.000000
# 6 0.000000 0.000000 0.000000 0.102744 0.000000 0.404458
#
#
# Mechanical properties :
#
#
# Convention : Reuss Voigt Hill
#
# Bulk Modulus (GPa) = 53.66966 61.34236 57.50601
# Shear Modulus (GPa) = 8.67136 26.03055 17.35095
#
# Velocity S-wave (km/s) = 2.06136 3.57152 2.91590
# Velocity P-wave (km/s) = 5.65379 6.86055 6.28619
#
# Compressibility (1/GPa) = 0.01863250
#
# Stress axis : x y z
#
# Youngs Moduli (GPa) = 77.62333 46.01943 70.73432
#
# Poissons Ratio (x) = 0.13488 0.37047
# Poissons Ratio (y) = 0.22750 0.48739
# Poissons Ratio (z) = 0.40655 0.31710
#
# Static dielectric constant tensor:
#      x y z
#    x 5.867510 0.000000 -0.328510 
#    y 0.000000 3.506030 0.000000 
#    z -0.328510 0.000000 4.112840 
# 
# 
# High freq. dielectric constant tensor:
#      x y z
#    x 1.809510 0.000000 0.000680 
#    y 0.000000 1.777050 0.000000 
#    z 0.000680 0.000000 1.811760 
# 
# From -- ./inp_files/9185.got.cif
#   From: 2010.06.25/outbox.cif.g09.slc.cpg/sg15_5_cif.got.tgz:9185.got - 2010.06.28 07:06:18.
