data_PCOD8131915
_publ_section_title
;
Structure prediction by ZEFSAII (Michael W. Deem and Ramdas Pophale) SiO2 
 PCOD8131915
Probable space group: C 2/C
;
_chemical_formula_sum "Si O2"
_cell_formula_units_Z 48
_cell_length_a 22.837781
_cell_length_b 18.938449
_cell_length_c 16.665403
_cell_angle_alpha 90.000000
_cell_angle_beta 159.128222
_cell_angle_gamma 90.000000
_cell_volume 2568.046553
_symmetry_space_group_name_H-M "C 2/C"
_symmetry_group_IT_number 15
_symmetry_cell_setting 'monoclinic'
loop_
_space_group_symop_operation_xyz
x,y,z
-x,y,1/2-z
-x,-y,-z
x,-y,1/2+z
1/2+x,1/2+y,z
1/2-x,1/2+y,1/2-z
1/2-x,1/2-y,-z
1/2+x,1/2-y,1/2+z
loop_
_atom_site_type_symbol
_atom_site_label
_atom_site_fract_x
_atom_site_fract_y
_atom_site_fract_z
Si Si1 0.000000 0.448315 0.250000
Si Si2 0.809131 0.431295 0.563200
Si Si3 0.918384 0.591816 0.475671
Si Si4 0.611598 0.068495 0.571798
Si Si5 0.130367 0.189452 0.058819
Si Si6 0.000000 0.097539 0.750000
Si Si7 0.212611 0.170379 0.805182
O O1 0.157367 0.501357 0.450885
O O2 0.006114 0.401527 0.338032
O O3 0.640000 0.451319 0.390968
O O4 0.787941 0.358997 0.485410
O O5 0.956580 0.420039 0.814195
O O6 0.842595 0.514041 0.361462
O O7 0.781375 0.651959 0.296644
O O8 0.063691 0.602486 0.596616
O O9 0.771405 0.108703 0.741471
O O10 0.179020 0.266247 0.090181
O O11 0.088952 0.145781 0.927888
O O12 0.976362 0.193411 0.923206
#
# Coordination Sequence:
#
# PCOD8131915 Si02
#       7
#     4   8   8   8   8   4   8
#     4  10  20  37  64  80 111 154 192 250 276 331
#     4  10  18  35  53  85 113 152 188 224 286 340
#     4  10  20  38  57  85 111 154 196 233 288 334
#     4  10  19  36  60  78 117 151 192 233 284 342
#     4  11  24  34  55  85 123 156 188 229 286 349
#     4  10  22  31  50  86 123 156 176 230 278 353
#     4  11  22  36  56  85 120 153 187 233 282 354
#
# _framework density 18.69125
#
# number of rings (size 3 to 8) (size 9 to 14) (size 15 to 20)
#    0.000    1.667    5.000    1.000    2.333    2.000 
#    0.000    0.000    0.000    4.000    0.000    0.000 
#    0.000    0.000    0.000    0.000    0.000    0.000 
#
# Total GULP energy -297483.136004 kJ/mol
# GULP energy per Si atom -12395.130667 kJ/mol
# Density = 1.864871 g / cm^3
# Si number density = 18.691250 Si / 1000 Ang^3
#
#
#
# Elastic Constant Matrix: (Units=GPa)
#
#
# Indices 1 2 3 4 5 6 
#
# 1 131.8438 23.9710 38.2814 0.0000 15.7757 0.0000
# 2 23.9710 49.1630 25.0762 0.0000 7.9115 0.0000
# 3 38.2814 25.0762 50.6042 0.0000 9.3440 0.0000
# 4 0.0000 0.0000 0.0000 28.6378 0.0000 -4.8601
# 5 15.7757 7.9115 9.3440 0.0000 41.3044 0.0000
# 6 0.0000 0.0000 0.0000 -4.8601 0.0000 33.2042
#
#
#
# Elastic Compliance Matrix: (Units=1/GPa)
#
#
# Indices 1 2 3 4 5 6 
#
# 1 0.009954 -0.001168 -0.006564 0.000000 -0.002093 0.000000
# 2 -0.001168 0.027561 -0.012399 0.000000 -0.002028 0.000000
# 3 -0.006564 -0.012399 0.031276 0.000000 -0.002193 0.000000
# 4 0.000000 0.000000 0.000000 0.035808 0.000000 0.005241
# 5 -0.002093 -0.002028 -0.002193 0.000000 0.025894 0.000000
# 6 0.000000 0.000000 0.000000 0.005241 0.000000 0.030884
#
#
# Mechanical properties :
#
#
# Convention : Reuss Voigt Hill
#
# Bulk Modulus (GPa) = 35.05440 45.14091 40.09765
# Shear Modulus (GPa) = 23.67989 30.24812 26.96400
#
# Velocity S-wave (km/s) = 3.56321 4.02718 3.80228
# Velocity P-wave (km/s) = 5.97694 6.76960 6.38558
#
# Compressibility (1/GPa) = 0.02852709
#
# Stress axis : x y z
#
# Youngs Moduli (GPa) = 100.46679 36.28350 31.97308
#
# Poissons Ratio (x) = 0.04238 0.20988
# Poissons Ratio (y) = 0.11736 0.39644
# Poissons Ratio (z) = 0.65951 0.44989
#
# Static dielectric constant tensor:
#      x y z
#    x 3.927470 0.000000 0.240580 
#    y 0.000000 3.284210 0.000000 
#    z 0.240580 0.000000 3.233060 
# 
# 
# High freq. dielectric constant tensor:
#      x y z
#    x 1.751370 0.000000 0.019220 
#    y 0.000000 1.699990 0.000000 
#    z 0.019220 0.000000 1.691520 
# 
# From -- ./inp_files/40304.got.cif
#   From: 2010.06.25/outbox.cif.g09.slc.cpg/sg15_21_cif.got.tgz:40304.got - 2010.06.28 07:06:18.
