data_PCOD8131319
_publ_section_title
;
Structure prediction by ZEFSAII (Michael W. Deem and Ramdas Pophale) SiO2 
 PCOD8131319
Probable space group: C 2/C
;
_chemical_formula_sum "Si O2"
_cell_formula_units_Z 48
_cell_length_a 25.544049
_cell_length_b 11.794698
_cell_length_c 7.786481
_cell_angle_alpha 90.000000
_cell_angle_beta 69.276044
_cell_angle_gamma 90.000000
_cell_volume 2194.153173
_symmetry_space_group_name_H-M "C 2/C"
_symmetry_group_IT_number 15
_symmetry_cell_setting 'monoclinic'
loop_
_space_group_symop_operation_xyz
x,y,z
-x,y,1/2-z
-x,-y,-z
x,-y,1/2+z
1/2+x,1/2+y,z
1/2-x,1/2+y,1/2-z
1/2-x,1/2-y,-z
1/2+x,1/2-y,1/2+z
loop_
_atom_site_type_symbol
_atom_site_label
_atom_site_fract_x
_atom_site_fract_y
_atom_site_fract_z
Si Si1 0.669820 0.615382 0.037607
Si Si2 0.174299 0.715267 0.217118
Si Si3 0.293349 0.629757 0.121985
Si Si4 0.924858 0.593860 0.005024
Si Si5 0.036723 0.642291 0.048240
Si Si6 0.060536 0.790814 0.748774
O O1 0.698367 0.653107 0.184346
O O2 0.602901 0.609046 0.151282
O O3 0.683139 0.701727 0.868747
O O4 0.687591 0.494208 0.951706
O O5 0.227563 0.632802 0.155149
O O6 0.117255 0.639703 0.296539
O O7 0.172427 0.781240 0.037139
O O8 0.917546 0.458782 0.975187
O O9 0.913662 0.671891 0.853742
O O10 0.991131 0.605643 0.959029
O O11 0.000000 0.676581 0.250000
O O12 0.062672 0.761260 0.949693
O O13 0.000000 0.828237 0.750000
#
# Coordination Sequence:
#
# PCOD8131319 Si02
#       6
#     8   8   8   8   8   8
#     4  11  22  44  67  90 125 160 207 260 310 365
#     4  10  23  43  64  91 126 165 207 252 309 373
#     4  11  23  43  66  91 123 167 208 258 307 364
#     4   9  18  35  56  82 125 157 193 246 301 359
#     4  10  18  32  56  90 119 156 198 243 304 368
#     4   9  20  38  59  87 123 162 198 253 309 364
#
# _framework density 21.87632
#
# number of rings (size 3 to 8) (size 9 to 14) (size 15 to 20)
#    0.000    2.000    1.667    3.000    2.333    0.000 
#   12.000    0.833    0.000    0.000    0.000    0.000 
#    0.000    0.000    0.000    0.000    0.000    0.000 
#
# Total GULP energy -297321.012540 kJ/mol
# GULP energy per Si atom -12388.375522 kJ/mol
# Density = 2.182653 g / cm^3
# Si number density = 21.876320 Si / 1000 Ang^3
#
#
#
# Elastic Constant Matrix: (Units=GPa)
#
#
# Indices 1 2 3 4 5 6 
#
# 1 55.3081 31.2270 6.1463 0.0000 -9.9121 0.0000
# 2 31.2270 87.2527 38.4333 0.0000 -16.4744 0.0000
# 3 6.1463 38.4333 94.7747 0.0000 0.2276 0.0000
# 4 0.0000 0.0000 0.0000 14.3698 0.0000 3.5408
# 5 -9.9121 -16.4744 0.2276 0.0000 49.9744 0.0000
# 6 0.0000 0.0000 0.0000 3.5408 0.0000 14.7396
#
#
#
# Elastic Compliance Matrix: (Units=1/GPa)
#
#
# Indices 1 2 3 4 5 6 
#
# 1 0.023172 -0.008910 0.002106 0.000000 0.001649 0.000000
# 2 -0.008910 0.018537 -0.006950 0.000000 0.004375 0.000000
# 3 0.002106 -0.006950 0.013238 0.000000 -0.001934 0.000000
# 4 0.000000 0.000000 0.000000 0.073969 0.000000 -0.017769
# 5 0.001649 0.004375 -0.001934 0.000000 0.021789 0.000000
# 6 0.000000 0.000000 0.000000 -0.017769 0.000000 0.072113
#
#
# Mechanical properties :
#
#
# Convention : Reuss Voigt Hill
#
# Bulk Modulus (GPa) = 36.44204 43.21654 39.82929
# Shear Modulus (GPa) = 19.27000 26.58535 22.92768
#
# Velocity S-wave (km/s) = 2.97115 3.48984 3.24089
# Velocity P-wave (km/s) = 5.33523 6.00303 5.67896
#
# Compressibility (1/GPa) = 0.02744084
#
# Stress axis : x y z
#
# Youngs Moduli (GPa) = 43.15480 53.94607 75.54169
#
# Poissons Ratio (x) = 0.48064 -0.15911
# Poissons Ratio (y) = 0.38449 0.52501
# Poissons Ratio (z) = -0.09090 0.37492
#
# Static dielectric constant tensor:
#      x y z
#    x 4.020900 0.000000 -0.023330 
#    y 0.000000 3.778930 0.000000 
#    z -0.023330 0.000000 4.358330 
# 
# 
# High freq. dielectric constant tensor:
#      x y z
#    x 1.843830 0.000000 -0.002710 
#    y 0.000000 1.833650 0.000000 
#    z -0.002710 0.000000 1.887180 
# 
# From -- ./inp_files/65031.got.cif
#   From: 2010.06.25/outbox.cif.g09.slc.cpg/sg15_33_cif.got.tgz:65031.got - 2010.06.28 07:06:18.
