data_PCOD8131733
_publ_section_title
;
Structure prediction by ZEFSAII (Michael W. Deem and Ramdas Pophale) SiO2 
 PCOD8131733
Probable space group: C 2/C
;
_chemical_formula_sum "Si O2"
_cell_formula_units_Z 52
_cell_length_a 11.605760
_cell_length_b 9.848383
_cell_length_c 24.639994
_cell_angle_alpha 90.000000
_cell_angle_beta 100.545956
_cell_angle_gamma 90.000000
_cell_volume 2768.729513
_symmetry_space_group_name_H-M "C 2/C"
_symmetry_group_IT_number 15
_symmetry_cell_setting 'monoclinic'
loop_
_space_group_symop_operation_xyz
x,y,z
-x,y,1/2-z
-x,-y,-z
x,-y,1/2+z
1/2+x,1/2+y,z
1/2-x,1/2+y,1/2-z
1/2-x,1/2-y,-z
1/2+x,1/2-y,1/2+z
loop_
_atom_site_type_symbol
_atom_site_label
_atom_site_fract_x
_atom_site_fract_y
_atom_site_fract_z
Si Si1 0.000000 0.691220 0.750000
Si Si2 0.440055 0.153331 0.098016
Si Si3 0.214553 0.891900 0.395070
Si Si4 0.677709 0.649054 0.336780
Si Si5 0.215829 0.477257 0.492463
Si Si6 0.658317 0.730343 0.562138
Si Si7 0.619273 0.011629 0.676266
O O1 0.067775 0.783384 0.798758
O O2 0.096052 0.601096 0.727237
O O3 0.341991 0.245014 0.118782
O O4 0.531359 0.259432 0.078885
O O5 0.384098 0.051025 0.050332
O O6 0.499890 0.063894 0.149847
O O7 0.337398 0.897909 0.371867
O O8 0.132261 0.014733 0.365283
O O9 0.234220 0.913085 0.460943
O O10 0.737807 0.750468 0.384990
O O11 0.777956 0.599116 0.302217
O O12 0.320451 0.416985 0.463395
O O13 0.158085 0.350433 0.518075
#
# Coordination Sequence:
#
# PCOD8131733 Si02
#       7
#     4   8   8   8   8   8   8
#     4  12  20  42  66  72 102 156 186 228 314 322
#     4  11  19  37  59  82 117 157 174 225 286 316
#     4   9  21  40  50  89 124 130 194 234 258 341
#     4   8  20  41  51  85 112 133 189 244 267 330
#     4  10  18  34  57  86 117 155 184 216 263 342
#     4   9  19  34  57  83 118 148 188 224 266 332
#     4   9  23  39  55  86 108 139 194 236 271 342
#
# _framework density 18.781178000000001
#
# number of rings (size 3 to 8) (size 9 to 14) (size 15 to 20)
#    0.923    1.538    1.538    1.846    0.000    1.846 
#    8.308    0.000    0.000    0.000    0.000    0.000 
#    0.000    0.000    0.000    0.000    0.000    0.000 
#
# Total GULP energy -322187.166850 kJ/mol
# GULP energy per Si atom -12391.814110 kJ/mol
# Density = 1.873843 g / cm^3
# Si number density = 18.781178 Si / 1000 Ang^3
#
#
#
# Elastic Constant Matrix: (Units=GPa)
#
#
# Indices 1 2 3 4 5 6 
#
# 1 55.3305 32.9347 17.8640 0.0000 2.0856 0.0000
# 2 32.9347 51.6217 24.9282 0.0000 2.5744 0.0000
# 3 17.8640 24.9282 55.0575 0.0000 0.0888 0.0000
# 4 0.0000 0.0000 0.0000 17.5667 0.0000 2.0781
# 5 2.0856 2.5744 0.0888 0.0000 20.2009 0.0000
# 6 0.0000 0.0000 0.0000 2.0781 0.0000 29.1433
#
#
#
# Elastic Compliance Matrix: (Units=1/GPa)
#
#
# Indices 1 2 3 4 5 6 
#
# 1 0.029226 -0.017958 -0.001351 0.000000 -0.000723 0.000000
# 2 -0.017958 0.036023 -0.010479 0.000000 -0.002691 0.000000
# 3 -0.001351 -0.010479 0.023344 0.000000 0.001372 0.000000
# 4 0.000000 0.000000 0.000000 0.057410 0.000000 -0.004094
# 5 -0.000723 -0.002691 0.001372 0.000000 0.049914 0.000000
# 6 0.000000 0.000000 0.000000 -0.004094 0.000000 0.034605
#
#
# Mechanical properties :
#
#
# Convention : Reuss Voigt Hill
#
# Bulk Modulus (GPa) = 34.46241 34.82928 34.64585
# Shear Modulus (GPa) = 16.67944 19.13435 17.90690
#
# Velocity S-wave (km/s) = 2.98332 3.19533 3.09115
# Velocity P-wave (km/s) = 5.50057 5.67438 5.58815
#
# Compressibility (1/GPa) = 0.02901712
#
# Stress axis : x y z
#
# Youngs Moduli (GPa) = 34.21648 27.75970 42.83840
#
# Poissons Ratio (x) = 0.49850 0.05786
# Poissons Ratio (y) = 0.61445 0.44892
# Poissons Ratio (z) = 0.04622 0.29090
#
# Static dielectric constant tensor:
#      x y z
#    x 3.225340 0.000000 -0.084700 
#    y 0.000000 3.309890 0.000000 
#    z -0.084700 0.000000 3.275880 
# 
# 
# High freq. dielectric constant tensor:
#      x y z
#    x 1.713460 0.000000 -0.000720 
#    y 0.000000 1.722130 0.000000 
#    z -0.000720 0.000000 1.717710 
# 
# From -- ./inp_files/291216.got.cif
#   From: 2010.06.25/outbox.cif.g09.slc.cpg/sg15_146_cif.got.tgz:291216.got - 2010.06.28 07:06:18.
