data_PCOD8131879
_publ_section_title
;
Structure prediction by ZEFSAII (Michael W. Deem and Ramdas Pophale) SiO2 
 PCOD8131879
Probable space group: C 2/C
;
_chemical_formula_sum "Si O2"
_cell_formula_units_Z 52
_cell_length_a 21.089478
_cell_length_b 7.821551
_cell_length_c 20.957885
_cell_angle_alpha 90.000000
_cell_angle_beta 141.186110
_cell_angle_gamma 90.000000
_cell_volume 2166.856304
_symmetry_space_group_name_H-M "C 2/C"
_symmetry_group_IT_number 15
_symmetry_cell_setting 'monoclinic'
loop_
_space_group_symop_operation_xyz
x,y,z
-x,y,1/2-z
-x,-y,-z
x,-y,1/2+z
1/2+x,1/2+y,z
1/2-x,1/2+y,1/2-z
1/2-x,1/2-y,-z
1/2+x,1/2-y,1/2+z
loop_
_atom_site_type_symbol
_atom_site_label
_atom_site_fract_x
_atom_site_fract_y
_atom_site_fract_z
Si Si1 0.608669 0.579162 0.826638
Si Si2 0.412926 0.060583 0.884186
Si Si3 0.871673 0.418126 0.718852
Si Si4 0.308622 0.998621 0.921203
Si Si5 0.951635 0.803833 0.574516
Si Si6 0.000000 0.684180 0.750000
Si Si7 0.151955 0.144585 0.000139
O O1 0.500000 0.479851 0.750000
O O2 0.572407 0.746595 0.760060
O O3 0.690459 0.475981 0.848268
O O4 0.667987 0.625831 0.937188
O O5 0.311544 0.051730 0.848003
O O6 0.444017 0.246935 0.879348
O O7 0.399474 0.934193 0.814535
O O8 0.500000 0.000000 0.000000
O O9 0.752656 0.400180 0.617312
O O10 0.907140 0.574476 0.703322
O O11 0.370520 0.154658 0.004557
O O12 0.362202 0.819895 0.978882
O O13 0.955175 0.789583 0.654154
O O14 0.931084 0.004075 0.541798
#
# Coordination Sequence:
#
# PCOD8131879 Si02
#       7
#     8   8   8   8   8   4   8
#     4  11  23  39  68 101 130 172 223 279 333 387
#     4   9  21  42  69  94 130 182 219 261 335 399
#     4  10  20  40  66  95 129 175 219 264 336 395
#     4  10  22  45  66  92 136 176 218 270 328 403
#     4  10  22  41  65  97 134 170 218 276 327 397
#     4  10  18  34  64  90 128 170 210 276 322 384
#     4  11  24  41  66 101 130 171 223 279 337 385
#
# _framework density 23.997899
#
# number of rings (size 3 to 8) (size 9 to 14) (size 15 to 20)
#    0.000    1.846    0.769    3.692    5.385    3.077 
#   13.846    0.000    0.000    0.000    0.000    0.000 
#    0.000    0.000    0.000    0.000    0.000    0.000 
#
# Total GULP energy -322089.310928 kJ/mol
# GULP energy per Si atom -12388.050420 kJ/mol
# Density = 2.394328 g / cm^3
# Si number density = 23.997899 Si / 1000 Ang^3
#
#
#
# Elastic Constant Matrix: (Units=GPa)
#
#
# Indices 1 2 3 4 5 6 
#
# 1 144.3999 16.6160 45.3162 0.0000 -12.5996 0.0000
# 2 16.6160 95.8093 8.2552 0.0000 -5.0062 0.0001
# 3 45.3162 8.2552 94.5327 0.0000 -20.5419 0.0000
# 4 0.0000 0.0000 0.0000 26.8565 0.0000 -27.4274
# 5 -12.5996 -5.0062 -20.5419 0.0000 41.6566 0.0000
# 6 0.0000 0.0001 0.0000 -27.4274 0.0000 -28.6311
#
#
#
# Elastic Compliance Matrix: (Units=1/GPa)
#
#
# Indices 1 2 3 4 5 6 
#
# 1 0.008275 -0.001084 -0.003759 0.000000 0.000519 0.000000
# 2 -0.001084 0.010689 -0.000231 0.000000 0.000843 0.000000
# 3 -0.003759 -0.000231 0.013605 0.000000 0.005544 0.000000
# 4 0.000000 0.000000 0.000000 0.018821 0.000000 -0.018030
# 5 0.000519 0.000843 0.005544 0.000000 0.026998 0.000000
# 6 0.000000 0.000000 0.000000 -0.018030 0.000000 -0.017655
#
#
# Mechanical properties :
#
#
# Convention : Reuss Voigt Hill
#
# Bulk Modulus (GPa) = 44.59987 52.79074 48.69531
# Shear Modulus (GPa) = 63.81090 25.61336 44.71213
#
# Velocity S-wave (km/s) = 5.16216 3.27053 4.32113
# Velocity P-wave (km/s) = 7.35906 6.02558 6.72545
#
# Compressibility (1/GPa) = 0.02242159
#
# Stress axis : x y z
#
# Youngs Moduli (GPa) = 120.84576 93.55125 73.50010
#
# Poissons Ratio (x) = 0.10142 0.27632
# Poissons Ratio (y) = 0.13101 0.01695
# Poissons Ratio (z) = 0.45431 0.02157
#
# Static dielectric constant tensor:
#      x y z
#    x 5.007720 0.000000 -0.248980 
#    y 0.000000 4.649730 0.000000 
#    z -0.248980 0.000000 4.223720 
# 
# 
# High freq. dielectric constant tensor:
#      x y z
#    x 1.950030 0.000000 -0.011210 
#    y 0.000000 1.958440 0.000000 
#    z -0.011210 0.000000 1.950860 
# 
# From -- ./inp_files/255094.got.cif
#   From: 2010.06.25/outbox.cif.g09.slc.cpg/sg15_128_cif.got.tgz:255094.got - 2010.06.28 07:06:18.
