data_PCOD8131446
_publ_section_title
;
Structure prediction by ZEFSAII (Michael W. Deem and Ramdas Pophale) SiO2 
 PCOD8131446
Probable space group: C 2/C
;
_chemical_formula_sum "Si O2"
_cell_formula_units_Z 60
_cell_length_a 24.702566
_cell_length_b 14.650308
_cell_length_c 11.737917
_cell_angle_alpha 90.000000
_cell_angle_beta 51.910468
_cell_angle_gamma 90.000000
_cell_volume 3343.343008
_symmetry_space_group_name_H-M "C 2/C"
_symmetry_group_IT_number 15
_symmetry_cell_setting 'monoclinic'
loop_
_space_group_symop_operation_xyz
x,y,z
-x,y,1/2-z
-x,-y,-z
x,-y,1/2+z
1/2+x,1/2+y,z
1/2-x,1/2+y,1/2-z
1/2-x,1/2-y,-z
1/2+x,1/2-y,1/2+z
loop_
_atom_site_type_symbol
_atom_site_label
_atom_site_fract_x
_atom_site_fract_y
_atom_site_fract_z
Si Si1 0.563302 0.679889 0.599832
Si Si2 0.394158 0.519093 0.445239
Si Si3 0.909586 0.759978 0.675463
Si Si4 0.262886 0.540154 0.227175
Si Si5 0.000000 0.833519 0.750000
Si Si6 0.795982 0.888381 0.910333
Si Si7 0.784333 0.227015 0.075636
Si Si8 0.797770 0.361070 0.261263
O O1 0.500000 0.724772 0.750000
O O2 0.562178 0.572102 0.626178
O O3 0.550063 0.698080 0.483572
O O4 0.633774 0.725197 0.550624
O O5 0.339471 0.506427 0.619508
O O6 0.447437 0.603623 0.391806
O O7 0.349216 0.537437 0.390651
O O8 0.838260 0.813877 0.784776
O O9 0.878235 0.659744 0.687747
O O10 0.958812 0.765259 0.720516
O O11 0.247956 0.562955 0.378603
O O12 0.257748 0.628569 0.152821
O O13 0.205050 0.468660 0.262885
O O14 0.751168 0.840844 0.066625
O O15 0.768492 0.303465 0.191786
O O16 0.750000 0.250000 0.000000
#
# Coordination Sequence:
#
# PCOD8131446 Si02
#       8
#     8   8   8   8   4   8   8   8
#     4  10  19  35  52  77 113 154 179 230 296 344
#     4   9  18  29  47  81 112 145 176 220 280 362
#     4  10  20  36  50  75 116 145 188 237 276 344
#     4  10  20  34  55  85 114 148 183 234 291 342
#     4  10  20  32  52  78 108 154 190 230 292 346
#     4  10  18  33  53  78 114 142 188 222 282 340
#     4  10  22  39  55  88 123 148 194 238 284 360
#     4  10  21  34  57  78 117 154 181 240 287 332
#
# _framework density 17.946110000000001
#
# number of rings (size 3 to 8) (size 9 to 14) (size 15 to 20)
#    0.000    2.133    4.667    0.400    5.600    1.600 
#    4.800    0.000    0.000    0.000    1.733    2.800 
#    0.000    0.000    0.000    0.000    0.000    0.000 
#
# Total GULP energy -371819.670892 kJ/mol
# GULP energy per Si atom -12393.989030 kJ/mol
# Density = 1.790526 g / cm^3
# Si number density = 17.946110 Si / 1000 Ang^3
#
#
#
# Elastic Constant Matrix: (Units=GPa)
#
#
# Indices 1 2 3 4 5 6 
#
# 1 113.1173 50.3035 47.9295 0.0000 14.4319 0.0000
# 2 50.3035 88.9619 41.1956 0.0000 2.5762 0.0000
# 3 47.9295 41.1956 109.9745 0.0000 13.8459 0.0000
# 4 0.0000 0.0000 0.0000 25.1535 0.0000 1.5281
# 5 14.4319 2.5762 13.8459 0.0000 23.4152 0.0000
# 6 0.0000 0.0000 0.0000 1.5281 0.0000 24.3862
#
#
#
# Elastic Compliance Matrix: (Units=1/GPa)
#
#
# Indices 1 2 3 4 5 6 
#
# 1 0.013555 -0.006176 -0.002839 0.000000 -0.005996 0.000000
# 2 -0.006176 0.016472 -0.004030 0.000000 0.004377 0.000000
# 3 -0.002839 -0.004030 0.012494 0.000000 -0.005195 0.000000
# 4 0.000000 0.000000 0.000000 0.039908 0.000000 -0.002501
# 5 -0.005996 0.004377 -0.005195 0.000000 0.048993 0.000000
# 6 0.000000 0.000000 0.000000 -0.002501 0.000000 0.041163
#
#
# Mechanical properties :
#
#
# Convention : Reuss Voigt Hill
#
# Bulk Modulus (GPa) = 60.86049 65.65676 63.25863
# Shear Modulus (GPa) = 24.49144 26.09934 25.29539
#
# Velocity S-wave (km/s) = 3.69822 3.81769 3.75843
# Velocity P-wave (km/s) = 7.22650 7.48986 7.35936
#
# Compressibility (1/GPa) = 0.01643102
#
# Stress axis : x y z
#
# Youngs Moduli (GPa) = 73.77361 60.70727 80.03927
#
# Poissons Ratio (x) = 0.37495 0.22723
# Poissons Ratio (y) = 0.45565 0.32254
# Poissons Ratio (z) = 0.20945 0.24464
#
# Static dielectric constant tensor:
#      x y z
#    x 3.177940 0.000000 0.081620 
#    y 0.000000 3.318300 0.000000 
#    z 0.081620 0.000000 3.339810 
# 
# 
# High freq. dielectric constant tensor:
#      x y z
#    x 1.680760 0.000000 0.015110 
#    y 0.000000 1.676640 0.000000 
#    z 0.015110 0.000000 1.691140 
# 
# From -- ./inp_files/118787.got.cif
#   From: 2010.06.25/outbox.cif.g09.slc.cpg/sg15_60_cif.got.tgz:118787.got - 2010.06.28 07:06:18.
