data_PCOD8131119
_publ_section_title
;
Structure prediction by ZEFSAII (Michael W. Deem and Ramdas Pophale) SiO2 
 PCOD8131119
Probable space group: C 2/C
;
_chemical_formula_sum "Si O2"
_cell_formula_units_Z 64
_cell_length_a 14.322446
_cell_length_b 11.853715
_cell_length_c 20.889983
_cell_angle_alpha 90.000000
_cell_angle_beta 66.823137
_cell_angle_gamma 90.000000
_cell_volume 3260.350942
_symmetry_space_group_name_H-M "C 2/C"
_symmetry_group_IT_number 15
_symmetry_cell_setting 'monoclinic'
loop_
_space_group_symop_operation_xyz
x,y,z
-x,y,1/2-z
-x,-y,-z
x,-y,1/2+z
1/2+x,1/2+y,z
1/2-x,1/2+y,1/2-z
1/2-x,1/2-y,-z
1/2+x,1/2-y,1/2+z
loop_
_atom_site_type_symbol
_atom_site_label
_atom_site_fract_x
_atom_site_fract_y
_atom_site_fract_z
Si Si1 0.191113 0.012791 0.155701
Si Si2 0.168450 0.352556 0.314485
Si Si3 0.721877 0.739128 0.080671
Si Si4 0.037134 0.168221 0.668329
Si Si5 0.392751 0.889524 0.811575
Si Si6 0.957080 0.383197 0.330034
Si Si7 0.332140 0.628036 0.656550
Si Si8 0.190900 0.895083 0.797649
O O1 0.231767 0.108107 0.097380
O O2 0.165429 0.070407 0.231272
O O3 0.273761 0.913412 0.142989
O O4 0.095718 0.951055 0.147021
O O5 0.239244 0.356759 0.231916
O O6 0.139434 0.221373 0.333258
O O7 0.059747 0.414288 0.340790
O O8 0.606560 0.779928 0.123261
O O9 0.802795 0.812175 0.098896
O O10 0.750000 0.750000 0.000000
O O11 0.108742 0.280284 0.640339
O O12 0.000000 0.179024 0.750000
O O13 0.940160 0.178647 0.648751
O O14 0.500000 0.906332 0.750000
O O15 0.311479 0.877756 0.776281
O O16 0.379993 0.008870 0.852278
O O17 0.000000 0.342902 0.250000
O O18 0.348754 0.493304 0.644162
#
# Coordination Sequence:
#
# PCOD8131119 Si02
#       8
#     8   8   8   8   8   8   8   8
#     4  11  22  36  58  90 127 168 204 255 321 381
#     4  11  20  34  61  99 123 151 204 274 318 361
#     4  12  27  45  62  88 133 178 215 259 321 392
#     4  11  20  32  59  99 134 157 198 263 335 370
#     4  10  18  31  54  91 129 151 192 257 323 369
#     4  11  20  37  64  93 119 157 215 266 315 365
#     4  11  21  37  59  93 129 168 201 258 322 376
#     4  11  18  33  57  91 131 149 199 267 317 357
#
# _framework density 19.629788999999999
#
# number of rings (size 3 to 8) (size 9 to 14) (size 15 to 20)
#    0.000    1.000    7.500    3.000    3.500    0.500 
#    0.000    1.250    0.000    1.500    0.000    0.000 
#    0.000    0.000    0.000    0.000    0.000    0.000 
#
# Total GULP energy -396528.973160 kJ/mol
# GULP energy per Si atom -12391.530411 kJ/mol
# Density = 1.958511 g / cm^3
# Si number density = 19.629789 Si / 1000 Ang^3
#
#
#
# Elastic Constant Matrix: (Units=GPa)
#
#
# Indices 1 2 3 4 5 6 
#
# 1 111.3394 20.5962 37.9591 0.0000 15.4159 0.0000
# 2 20.5962 136.6593 44.2902 0.0000 7.2149 0.0000
# 3 37.9591 44.2902 73.8145 0.0000 12.1446 0.0000
# 4 0.0000 0.0000 0.0000 25.4976 0.0000 -18.3244
# 5 15.4159 7.2149 12.1446 0.0000 16.5671 0.0000
# 6 0.0000 0.0000 0.0000 -18.3244 0.0000 73.7733
#
#
#
# Elastic Compliance Matrix: (Units=1/GPa)
#
#
# Indices 1 2 3 4 5 6 
#
# 1 0.011627 0.000225 -0.004911 0.000000 -0.007318 0.000000
# 2 0.000225 0.009088 -0.005553 0.000000 -0.000097 0.000000
# 3 -0.004911 -0.005553 0.020759 0.000000 -0.008230 0.000000
# 4 0.000000 0.000000 0.000000 0.047742 0.000000 0.011858
# 5 -0.007318 -0.000097 -0.008230 0.000000 0.073245 0.000000
# 6 0.000000 0.000000 0.000000 0.011858 0.000000 0.016501
#
#
# Mechanical properties :
#
#
# Convention : Reuss Voigt Hill
#
# Bulk Modulus (GPa) = 47.62429 58.61157 53.11793
# Shear Modulus (GPa) = 24.22043 37.76545 30.99294
#
# Velocity S-wave (km/s) = 3.51645 4.39097 3.97781
# Velocity P-wave (km/s) = 6.38757 7.45860 6.94377
#
# Compressibility (1/GPa) = 0.02099769
#
# Stress axis : x y z
#
# Youngs Moduli (GPa) = 86.00504 110.03092 48.17247
#
# Poissons Ratio (x) = -0.02481 0.23656
# Poissons Ratio (y) = -0.01939 0.26751
# Poissons Ratio (z) = 0.42234 0.61102
#
# Static dielectric constant tensor:
#      x y z
#    x 0.894660 0.000000 0.014570 
#    y 0.000000 4.823760 0.000000 
#    z 0.014570 0.000000 2.780660 
# 
# 
# High freq. dielectric constant tensor:
#      x y z
#    x 1.786070 0.000000 0.013990 
#    y 0.000000 1.797220 0.000000 
#    z 0.013990 0.000000 1.661660 
# 
# From -- ./inp_files/243715.got.cif
#   From: 2010.06.25/outbox.cif.g09.slc.cpg/sg15_122_cif.got.tgz:243715.got - 2010.06.28 07:06:18.
