data_PCOD8131229
_publ_section_title
;
Structure prediction by ZEFSAII (Michael W. Deem and Ramdas Pophale) SiO2 
 PCOD8131229
Probable space group: C 2/C
;
_chemical_formula_sum "Si O2"
_cell_formula_units_Z 48
_cell_length_a 31.027638
_cell_length_b 18.570335
_cell_length_c 16.605561
_cell_angle_alpha 90.000000
_cell_angle_beta 17.171224
_cell_angle_gamma 90.000000
_cell_volume 2824.749240
_symmetry_space_group_name_H-M "C 2/C"
_symmetry_group_IT_number 15
_symmetry_cell_setting 'monoclinic'
loop_
_space_group_symop_operation_xyz
x,y,z
-x,y,1/2-z
-x,-y,-z
x,-y,1/2+z
1/2+x,1/2+y,z
1/2-x,1/2+y,1/2-z
1/2-x,1/2-y,-z
1/2+x,1/2-y,1/2+z
loop_
_atom_site_type_symbol
_atom_site_label
_atom_site_fract_x
_atom_site_fract_y
_atom_site_fract_z
Si Si1 0.442064 0.575708 0.067887
Si Si2 0.150496 0.580004 0.025212
Si Si3 0.149614 0.455089 0.156172
Si Si4 0.784063 0.831609 0.419221
Si Si5 0.862693 0.989977 0.546620
Si Si6 0.666173 0.934084 0.761820
O O1 0.288361 0.594431 0.385958
O O2 0.421893 0.564472 0.008804
O O3 0.500000 0.500000 0.000000
O O4 0.547806 0.643625 0.895756
O O5 0.195794 0.649923 0.995576
O O6 0.277528 0.558836 0.735175
O O7 0.128845 0.515341 0.125549
O O8 0.000000 0.598326 0.250000
O O9 0.172719 0.489863 0.202869
O O10 0.000482 0.409557 0.422710
O O11 0.750000 0.750000 0.500000
O O12 0.736111 0.872819 0.584055
O O13 0.752363 0.942508 0.690772
O O14 0.000000 0.019049 0.250000
#
# Coordination Sequence:
#
# PCOD8131229 Si02
#       6
#     8   8   8   8   8   8
#     4  11  18  34  54  80 108 142 183 234 276 321
#     4  10  19  34  54  82 109 139 179 234 284 324
#     4   9  18  30  55  80 109 135 178 234 281 314
#     4  11  23  39  53  76 119 158 183 219 289 354
#     4  11  18  28  56  88 106 127 182 244 284 310
#     4  10  18  32  52  83 108 137 182 233 275 329
#
# _framework density 16.992657999999999
#
# number of rings (size 3 to 8) (size 9 to 14) (size 15 to 20)
#    0.000    1.667    8.333    0.000    0.000    0.000 
#    3.000    0.833    0.000    0.000    0.000    0.000 
#    0.000    0.000    0.000    0.000    0.000    0.000 
#
# Total GULP energy -297498.581877 kJ/mol
# GULP energy per Si atom -12395.774245 kJ/mol
# Density = 1.695398 g / cm^3
# Si number density = 16.992658 Si / 1000 Ang^3
#
#
#
# Elastic Constant Matrix: (Units=GPa)
#
#
# Indices 1 2 3 4 5 6 
#
# 1 112.3600 24.5911 36.3224 0.0090 -18.6479 0.0005
# 2 24.5911 64.9893 33.9687 0.0164 -12.6760 -0.0029
# 3 36.3224 33.9687 130.9874 0.0108 -4.9000 0.0009
# 4 0.0090 0.0164 0.0108 19.8345 -0.0041 1.2294
# 5 -18.6479 -12.6760 -4.9000 -0.0041 31.9137 -0.0002
# 6 0.0005 -0.0029 0.0009 1.2294 -0.0002 11.3261
#
#
#
# Elastic Compliance Matrix: (Units=1/GPa)
#
#
# Indices 1 2 3 4 5 6 
#
# 1 0.010950 -0.001883 -0.002350 -0.000001 0.005289 -0.000001
# 2 -0.001883 0.019525 -0.004317 -0.000012 0.005992 0.000007
# 3 -0.002350 -0.004317 0.009344 -0.000001 -0.001653 -0.000002
# 4 -0.000001 -0.000012 -0.000001 0.050759 0.000001 -0.005509
# 5 0.005289 0.005992 -0.001653 0.000001 0.036551 0.000002
# 6 -0.000001 0.000007 -0.000002 -0.005509 0.000002 0.088890
#
#
# Mechanical properties :
#
#
# Convention : Reuss Voigt Hill
#
# Bulk Modulus (GPa) = 44.01866 55.34458 49.68162
# Shear Modulus (GPa) = 20.77351 26.84516 23.80933
#
# Velocity S-wave (km/s) = 3.50022 3.97899 3.74726
# Velocity P-wave (km/s) = 6.50355 7.33146 6.92988
#
# Compressibility (1/GPa) = 0.02271764
#
# Stress axis : x y z
#
# Youngs Moduli (GPa) = 91.32691 51.21680 107.02437
#
# Poissons Ratio (x) = 0.09645 0.25152
# Poissons Ratio (y) = 0.17199 0.46202
# Poissons Ratio (z) = 0.21463 0.22110
#
# Static dielectric constant tensor:
#      x y z
#    x 0.330970 0.001410 0.589970 
#    y 0.001410 4.108460 -0.000300 
#    z 0.589970 -0.000300 3.604130 
# 
# 
# High freq. dielectric constant tensor:
#      x y z
#    x 1.675350 0.000000 -0.002710 
#    y 0.000000 1.580140 0.000000 
#    z -0.002710 0.000000 1.681110 
# 
# From -- ./inp_files/178899.got.cif
#   From: 2010.06.25/outbox.cif.g09.slc.cpg/sg15_90_cif.got.tgz:178899.got - 2010.06.28 07:06:18.
