data_PCOD8131526
_publ_section_title
;
Structure prediction by ZEFSAII (Michael W. Deem and Ramdas Pophale) SiO2 
 PCOD8131526
Probable space group: C 2/C
;
_chemical_formula_sum "Si O2"
_cell_formula_units_Z 48
_cell_length_a 16.655597
_cell_length_b 9.633792
_cell_length_c 14.204691
_cell_angle_alpha 90.000000
_cell_angle_beta 98.546965
_cell_angle_gamma 90.000000
_cell_volume 2253.923469
_symmetry_space_group_name_H-M "C 2/C"
_symmetry_group_IT_number 15
_symmetry_cell_setting 'monoclinic'
loop_
_space_group_symop_operation_xyz
x,y,z
-x,y,1/2-z
-x,-y,-z
x,-y,1/2+z
1/2+x,1/2+y,z
1/2-x,1/2+y,1/2-z
1/2-x,1/2-y,-z
1/2+x,1/2-y,1/2+z
loop_
_atom_site_type_symbol
_atom_site_label
_atom_site_fract_x
_atom_site_fract_y
_atom_site_fract_z
Si Si1 0.987460 0.877866 0.135693
Si Si2 0.801982 0.292111 0.389283
Si Si3 0.175768 0.390845 0.312733
Si Si4 0.650611 0.496694 0.141246
Si Si5 0.585703 0.626319 0.311111
Si Si6 0.858798 0.338267 0.593647
O O1 0.945303 0.737194 0.094515
O O2 0.000000 0.871901 0.250000
O O3 0.073626 0.901477 0.098408
O O4 0.932806 0.017165 0.107443
O O5 0.833486 0.369751 0.301594
O O6 0.825539 0.383707 0.484738
O O7 0.704849 0.266577 0.366673
O O8 0.843840 0.140973 0.415838
O O9 0.269573 0.403031 0.358992
O O10 0.134251 0.260129 0.358081
O O11 0.128261 0.528558 0.337467
O O12 0.644332 0.547117 0.248050
O O13 0.500000 0.674887 0.250000
#
# Coordination Sequence:
#
# PCOD8131526 Si02
#       6
#     8   8   8   8   8   8
#     4   9  17  32  52  78 105 141 184 218 261 317
#     4   9  18  34  53  81 114 143 178 219 275 328
#     4  10  18  33  57  80 106 142 178 219 272 321
#     4   8  16  30  54  78 104 143 181 217 261 317
#     4   8  16  31  51  72 102 141 174 210 265 316
#     4  10  20  32  56  83 108 142 180 227 271 314
#
# _framework density 21.296199000000001
#
# number of rings (size 3 to 8) (size 9 to 14) (size 15 to 20)
#    0.000    3.333    0.000    2.000    0.000    1.333 
#    0.000    0.000    0.000   58.000    0.000    2.333 
#    0.000    0.000    0.000    0.000    0.000    0.000 
#
# Total GULP energy -297379.219744 kJ/mol
# GULP energy per Si atom -12390.800823 kJ/mol
# Density = 2.124773 g / cm^3
# Si number density = 21.296199 Si / 1000 Ang^3
#
#
#
# Elastic Constant Matrix: (Units=GPa)
#
#
# Indices 1 2 3 4 5 6 
#
# 1 115.1986 71.3879 -0.7107 0.0000 -7.6670 0.0000
# 2 71.3879 124.7442 30.0322 0.0000 7.6320 0.0000
# 3 -0.7107 30.0322 50.8500 0.0000 -3.1690 0.0000
# 4 0.0000 0.0000 0.0000 19.0248 0.0000 -2.4317
# 5 -7.6670 7.6320 -3.1690 0.0000 9.4461 0.0000
# 6 0.0000 0.0000 0.0000 -2.4317 0.0000 43.2613
#
#
#
# Elastic Compliance Matrix: (Units=1/GPa)
#
#
# Indices 1 2 3 4 5 6 
#
# 1 0.023050 -0.018899 0.013892 0.000000 0.038639 0.000000
# 2 -0.018899 0.025780 -0.018123 0.000000 -0.042249 0.000000
# 3 0.013892 -0.018123 0.032866 0.000000 0.036944 0.000000
# 4 0.000000 0.000000 0.000000 0.052943 0.000000 0.002976
# 5 0.038639 -0.042249 0.036944 0.000000 0.183754 0.000000
# 6 0.000000 0.000000 0.000000 0.002976 0.000000 0.023283
#
#
# Mechanical properties :
#
#
# Convention : Reuss Voigt Hill
#
# Bulk Modulus (GPa) = 28.22038 54.69019 41.45529
# Shear Modulus (GPa) = 12.50791 27.01866 19.76329
#
# Velocity S-wave (km/s) = 2.42612 3.56576 3.04965
# Velocity P-wave (km/s) = 4.59654 6.53371 5.64878
#
# Compressibility (1/GPa) = 0.03543538
#
# Stress axis : x y z
#
# Youngs Moduli (GPa) = 43.38444 38.78990 30.42687
#
# Poissons Ratio (x) = 0.73310 -0.42270
# Poissons Ratio (y) = 0.81994 0.55142
# Poissons Ratio (z) = -0.60270 0.70298
#
# Static dielectric constant tensor:
#      x y z
#    x 3.992030 0.000000 -0.258710 
#    y 0.000000 3.812180 0.000000 
#    z -0.258710 0.000000 3.399040 
# 
# 
# High freq. dielectric constant tensor:
#      x y z
#    x 1.836120 0.000000 -0.015740 
#    y 0.000000 1.815520 0.000000 
#    z -0.015740 0.000000 1.799550 
# 
# From -- ./inp_files/159745.got.cif
#   From: 2010.06.25/outbox.cif.g09.slc.cpg/sg15_80_cif.got.tgz:159745.got - 2010.06.28 07:06:18.
