data_PCOD8131237
_publ_section_title
;
Structure prediction by ZEFSAII (Michael W. Deem and Ramdas Pophale) SiO2 
 PCOD8131237
Probable space group: C 2/C
;
_chemical_formula_sum "Si O2"
_cell_formula_units_Z 56
_cell_length_a 18.155072
_cell_length_b 20.027544
_cell_length_c 12.762028
_cell_angle_alpha 90.000000
_cell_angle_beta 136.557185
_cell_angle_gamma 90.000000
_cell_volume 3190.805589
_symmetry_space_group_name_H-M "C 2/C"
_symmetry_group_IT_number 15
_symmetry_cell_setting 'monoclinic'
loop_
_space_group_symop_operation_xyz
x,y,z
-x,y,1/2-z
-x,-y,-z
x,-y,1/2+z
1/2+x,1/2+y,z
1/2-x,1/2+y,1/2-z
1/2-x,1/2-y,-z
1/2+x,1/2-y,1/2+z
loop_
_atom_site_type_symbol
_atom_site_label
_atom_site_fract_x
_atom_site_fract_y
_atom_site_fract_z
Si Si1 0.480979 0.684136 0.611196
Si Si2 0.887373 0.931378 0.577825
Si Si3 0.278834 0.627557 0.160645
Si Si4 0.139390 0.737413 0.665642
Si Si5 0.553898 0.813857 0.414769
Si Si6 0.136232 0.812936 0.088253
Si Si7 0.909413 0.954359 0.960599
O O1 0.500000 0.703670 0.750000
O O2 0.381208 0.729253 0.469112
O O3 0.581010 0.704511 0.641392
O O4 0.461510 0.605756 0.579022
O O5 0.799271 0.900645 0.564893
O O6 0.905935 0.883011 0.497705
O O7 0.000000 0.942554 0.750000
O O8 0.848657 0.001044 0.486211
O O9 0.339199 0.699152 0.234425
O O10 0.323200 0.573070 0.288292
O O11 0.149860 0.634482 0.042856
O O12 0.237683 0.686917 0.760410
O O13 0.041187 0.689986 0.598555
O O14 0.500000 0.833419 0.250000
O O15 0.608205 0.740838 0.468911
O O16 0.000000 0.000000 0.000000
#
# Coordination Sequence:
#
# PCOD8131237 Si02
#       7
#     8   8   8   8   8   8   8
#     4  10  20  33  50  75 105 137 176 214 259 311
#     4  12  19  29  53  77 106 133 167 212 266 319
#     4  10  21  33  51  82 107 137 174 213 271 314
#     4   9  19  35  52  76 110 137 170 218 259 315
#     4  10  18  32  53  77 108 135 171 216 266 315
#     4  10  19  31  51  79 106 138 172 209 269 319
#     4  11  20  34  49  75 108 134 168 220 264 312
#
# _framework density 17.550426999999999
#
# number of rings (size 3 to 8) (size 9 to 14) (size 15 to 20)
#    0.000    1.714    2.857    4.286    0.000    2.857 
#    0.000    0.000    0.000    3.429    0.000    0.000 
#    0.000    0.000    0.000    0.000    0.000    0.000 
#
# Total GULP energy -347021.522573 kJ/mol
# GULP energy per Si atom -12393.625806 kJ/mol
# Density = 1.751048 g / cm^3
# Si number density = 17.550427 Si / 1000 Ang^3
#
#
#
# Elastic Constant Matrix: (Units=GPa)
#
#
# Indices 1 2 3 4 5 6 
#
# 1 66.4518 21.8750 47.7369 0.0000 1.4762 0.0000
# 2 21.8750 60.1296 39.1782 0.0000 1.7411 0.0000
# 3 47.7369 39.1782 112.9355 0.0000 -0.0127 0.0000
# 4 0.0000 0.0000 0.0000 20.2086 0.0000 1.8754
# 5 1.4762 1.7411 -0.0127 0.0000 34.4251 0.0000
# 6 0.0000 0.0000 0.0000 1.8754 0.0000 20.0010
#
#
#
# Elastic Compliance Matrix: (Units=1/GPa)
#
#
# Indices 1 2 3 4 5 6 
#
# 1 0.021921 -0.002473 -0.008408 0.000000 -0.000818 0.000000
# 2 -0.002473 0.021808 -0.006520 0.000000 -0.000999 0.000000
# 3 -0.008408 -0.006520 0.014671 0.000000 0.000696 0.000000
# 4 0.000000 0.000000 0.000000 0.049918 0.000000 -0.004681
# 5 -0.000818 -0.000999 0.000696 0.000000 0.029134 0.000000
# 6 0.000000 0.000000 0.000000 -0.004681 0.000000 0.050436
#
#
# Mechanical properties :
#
#
# Convention : Reuss Voigt Hill
#
# Bulk Modulus (GPa) = 42.37795 50.78856 46.58325
# Shear Modulus (GPa) = 21.68678 23.64205 22.66442
#
# Velocity S-wave (km/s) = 3.51904 3.67426 3.59749
# Velocity P-wave (km/s) = 6.38047 6.85578 6.62239
#
# Compressibility (1/GPa) = 0.02359718
#
# Stress axis : x y z
#
# Youngs Moduli (GPa) = 45.61903 45.85575 68.16371
#
# Poissons Ratio (x) = 0.11339 0.57312
# Poissons Ratio (y) = 0.11280 0.44444
# Poissons Ratio (z) = 0.38356 0.29899
#
# Static dielectric constant tensor:
#      x y z
#    x 3.196110 0.000000 0.013000 
#    y 0.000000 3.191960 0.000000 
#    z 0.013000 0.000000 3.357980 
# 
# 
# High freq. dielectric constant tensor:
#      x y z
#    x 1.663420 0.000000 -0.001530 
#    y 0.000000 1.659290 0.000000 
#    z -0.001530 0.000000 1.678660 
# 
# From -- ./inp_files/106747.got.cif
#   From: 2010.06.25/outbox.cif.g09.slc.cpg/sg15_54_cif.got.tgz:106747.got - 2010.06.28 07:06:18.
