data_PCOD8131313
_publ_section_title
;
Structure prediction by ZEFSAII (Michael W. Deem and Ramdas Pophale) SiO2 
 PCOD8131313
Probable space group: C 2/C
;
_chemical_formula_sum "Si O2"
_cell_formula_units_Z 52
_cell_length_a 14.265531
_cell_length_b 21.672122
_cell_length_c 25.445444
_cell_angle_alpha 90.000000
_cell_angle_beta 158.374970
_cell_angle_gamma 90.000000
_cell_volume 2899.165976
_symmetry_space_group_name_H-M "C 2/C"
_symmetry_group_IT_number 15
_symmetry_cell_setting 'monoclinic'
loop_
_space_group_symop_operation_xyz
x,y,z
-x,y,1/2-z
-x,-y,-z
x,-y,1/2+z
1/2+x,1/2+y,z
1/2-x,1/2+y,1/2-z
1/2-x,1/2-y,-z
1/2+x,1/2-y,1/2+z
loop_
_atom_site_type_symbol
_atom_site_label
_atom_site_fract_x
_atom_site_fract_y
_atom_site_fract_z
Si Si1 0.500000 0.144818 0.250000
Si Si2 0.611707 0.859877 0.208139
Si Si3 0.548195 0.432453 0.470004
Si Si4 0.221348 0.226406 0.301917
Si Si5 0.852844 0.291571 0.982615
Si Si6 0.851649 0.068991 0.982632
Si Si7 0.818982 0.179065 0.324364
O O1 0.689142 0.102277 0.382005
O O2 0.643999 0.189527 0.284248
O O3 0.687805 0.800225 0.282648
O O4 0.873964 0.897491 0.336307
O O5 0.512757 0.842406 0.098160
O O6 0.411881 0.901864 0.135686
O O7 0.617345 0.498879 0.481559
O O8 0.369862 0.433875 0.428967
O O9 0.397245 0.205924 0.442622
O O10 0.341976 0.197425 0.311617
O O11 0.941877 0.196657 0.160408
O O12 0.933600 0.223510 0.044495
O O13 0.086567 0.108598 0.128190
#
# Coordination Sequence:
#
# PCOD8131313 Si02
#       7
#     4   8   8   8   8   8   8
#     4  10  22  36  48  78 114 146 178 200 268 348
#     4  11  19  34  55  80 108 137 174 230 265 314
#     4  10  23  31  49  75 110 144 175 210 267 325
#     4  10  18  32  56  85 108 131 177 231 274 304
#     4  10  19  32  54  85 103 135 182 221 275 311
#     4  10  19  32  49  78 105 138 174 216 270 310
#     4  10  18  35  50  78 112 141 169 220 264 326
#
# _framework density 17.936191999999998
#
# number of rings (size 3 to 8) (size 9 to 14) (size 15 to 20)
#    0.000    1.846    3.077    3.231    8.615    0.000 
#    0.000    6.923    0.000    0.923    4.000    0.000 
#    0.000    0.000    0.000    0.000    0.000    0.000 
#
# Total GULP energy -322281.494500 kJ/mol
# GULP energy per Si atom -12395.442096 kJ/mol
# Density = 1.789537 g / cm^3
# Si number density = 17.936192 Si / 1000 Ang^3
#
#
#
# Elastic Constant Matrix: (Units=GPa)
#
#
# Indices 1 2 3 4 5 6 
#
# 1 71.0474 34.8887 25.0295 -0.0186 -13.9046 -0.0049
# 2 34.8887 96.6001 41.3626 -0.0150 -8.8252 0.0014
# 3 25.0295 41.3626 86.7978 0.0539 -13.3585 0.0186
# 4 -0.0186 -0.0150 0.0539 17.6147 -0.0167 -1.0448
# 5 -13.9046 -8.8252 -13.3585 -0.0167 30.3278 -0.0107
# 6 -0.0049 0.0014 0.0186 -1.0448 -0.0107 24.1653
#
#
#
# Elastic Compliance Matrix: (Units=1/GPa)
#
#
# Indices 1 2 3 4 5 6 
#
# 1 0.018555 -0.005345 -0.001860 0.000027 0.006133 0.000009
# 2 -0.005345 0.014582 -0.005505 0.000023 -0.000632 0.000003
# 3 -0.001860 -0.005505 0.015343 -0.000050 0.004304 -0.000012
# 4 0.000027 0.000023 -0.000050 0.056917 0.000029 0.002461
# 5 0.006133 -0.000632 0.004304 0.000029 0.037496 0.000016
# 6 0.000009 0.000003 -0.000012 0.002461 0.000016 0.041488
#
#
# Mechanical properties :
#
#
# Convention : Reuss Voigt Hill
#
# Bulk Modulus (GPa) = 43.36345 50.77854 47.07100
# Shear Modulus (GPa) = 22.98984 24.63251 23.81118
#
# Velocity S-wave (km/s) = 3.58405 3.70988 3.64751
# Velocity P-wave (km/s) = 6.43088 6.83543 6.63624
#
# Compressibility (1/GPa) = 0.02306089
#
# Stress axis : x y z
#
# Youngs Moduli (GPa) = 53.89318 68.57925 65.17661
#
# Poissons Ratio (x) = 0.36655 0.12122
# Poissons Ratio (y) = 0.28805 0.35878
# Poissons Ratio (z) = 0.10023 0.37751
#
# Static dielectric constant tensor:
#      x y z
#    x 3.368930 0.000050 -0.161760 
#    y 0.000050 3.279690 -0.000210 
#    z -0.161760 -0.000210 3.336560 
# 
# 
# High freq. dielectric constant tensor:
#      x y z
#    x 1.670350 0.000000 -0.005830 
#    y 0.000000 1.677960 -0.000020 
#    z -0.005830 -0.000020 1.689380 
# 
# From -- ./inp_files/296976.got.cif
#   From: 2010.06.25/outbox.cif.g09.slc.cpg/sg15_149_cif.got.tgz:296976.got - 2010.06.28 07:06:18.
