data_PCOD8131533
_publ_section_title
;
Structure prediction by ZEFSAII (Michael W. Deem and Ramdas Pophale) SiO2 
 PCOD8131533
Probable space group: C 2/C
;
_chemical_formula_sum "Si O2"
_cell_formula_units_Z 48
_cell_length_a 12.631056
_cell_length_b 20.260508
_cell_length_c 10.233815
_cell_angle_alpha 90.000000
_cell_angle_beta 72.166537
_cell_angle_gamma 90.000000
_cell_volume 2493.113250
_symmetry_space_group_name_H-M "C 2/C"
_symmetry_group_IT_number 15
_symmetry_cell_setting 'monoclinic'
loop_
_space_group_symop_operation_xyz
x,y,z
-x,y,1/2-z
-x,-y,-z
x,-y,1/2+z
1/2+x,1/2+y,z
1/2-x,1/2+y,1/2-z
1/2-x,1/2-y,-z
1/2+x,1/2-y,1/2+z
loop_
_atom_site_type_symbol
_atom_site_label
_atom_site_fract_x
_atom_site_fract_y
_atom_site_fract_z
Si Si1 0.976887 0.660436 0.478929
Si Si2 0.182006 0.296047 0.238604
Si Si3 0.901371 0.170995 0.381749
Si Si4 0.430943 0.712760 0.660965
Si Si5 0.069939 0.526086 0.093281
Si Si6 0.808254 0.598186 0.972552
O O1 0.013185 0.715166 0.362709
O O2 0.086086 0.624276 0.489116
O O3 0.910437 0.699449 0.615933
O O4 0.900990 0.603822 0.437914
O O5 0.146199 0.242037 0.144289
O O6 0.302451 0.278484 0.252196
O O7 0.192941 0.367072 0.167539
O O8 0.942251 0.176555 0.516398
O O9 0.804922 0.115730 0.407168
O O10 0.000000 0.147265 0.250000
O O11 0.500000 0.674554 0.750000
O O12 0.181768 0.480865 0.055773
O O13 0.000000 0.514802 0.250000
O O14 0.000000 0.500000 0.000000
#
# Coordination Sequence:
#
# PCOD8131533 Si02
#       6
#     8   8   8   8   8   8
#     4  11  19  34  56  83 117 150 192 242 298 339
#     4  11  19  35  60  82 116 162 193 240 293 366
#     4  11  19  36  60  84 114 161 200 237 288 364
#     4  11  22  34  52  86 124 147 189 248 306 348
#     4  10  21  35  55  84 114 149 192 243 285 342
#     4  10  18  33  57  84 113 151 203 240 281 348
#
# _framework density 19.253036000000002
#
# number of rings (size 3 to 8) (size 9 to 14) (size 15 to 20)
#    0.000    1.333    5.000    4.000    0.000    0.667 
#    0.000    0.000    0.000    1.000    0.000    9.333 
#    0.000    0.000    0.000    0.000    0.000    0.000 
#
# Total GULP energy -297472.317855 kJ/mol
# GULP energy per Si atom -12394.679911 kJ/mol
# Density = 1.920921 g / cm^3
# Si number density = 19.253036 Si / 1000 Ang^3
#
#
#
# Elastic Constant Matrix: (Units=GPa)
#
#
# Indices 1 2 3 4 5 6 
#
# 1 101.9935 30.2727 58.8012 0.0000 -8.8214 0.0000
# 2 30.2727 92.9016 28.3817 0.0000 -8.9398 0.0000
# 3 58.8012 28.3817 106.3727 0.0000 -2.0900 0.0000
# 4 0.0000 0.0000 0.0000 12.8687 0.0000 -4.5885
# 5 -8.8214 -8.9398 -2.0900 0.0000 33.8190 0.0000
# 6 0.0000 0.0000 0.0000 -4.5885 0.0000 28.3912
#
#
#
# Elastic Compliance Matrix: (Units=1/GPa)
#
#
# Indices 1 2 3 4 5 6 
#
# 1 0.015194 -0.002314 -0.007725 0.000000 0.002874 0.000000
# 2 -0.002314 0.012365 -0.001970 0.000000 0.002543 0.000000
# 3 -0.007725 -0.001970 0.014164 0.000000 -0.001660 0.000000
# 4 0.000000 0.000000 0.000000 0.082460 0.000000 0.013327
# 5 0.002874 0.002543 -0.001660 0.000000 0.030888 0.000000
# 6 0.000000 0.000000 0.000000 0.013327 0.000000 0.037376
#
#
# Mechanical properties :
#
#
# Convention : Reuss Voigt Hill
#
# Bulk Modulus (GPa) = 56.48320 59.57544 58.02932
# Shear Modulus (GPa) = 22.48546 27.26992 24.87769
#
# Velocity S-wave (km/s) = 3.42115 3.76759 3.59854
# Velocity P-wave (km/s) = 6.70870 7.06660 6.88998
#
# Compressibility (1/GPa) = 0.01770438
#
# Stress axis : x y z
#
# Youngs Moduli (GPa) = 65.81749 80.87520 70.60167
#
# Poissons Ratio (x) = 0.18718 0.54538
# Poissons Ratio (y) = 0.15233 0.13907
# Poissons Ratio (z) = 0.50842 0.15930
#
# Static dielectric constant tensor:
#      x y z
#    x 3.649970 0.000000 -0.073820 
#    y 0.000000 3.953720 0.000000 
#    z -0.073820 0.000000 3.484530 
# 
# 
# High freq. dielectric constant tensor:
#      x y z
#    x 1.731440 0.000000 -0.002990 
#    y 0.000000 1.725590 0.000000 
#    z -0.002990 0.000000 1.756100 
# 
# From -- ./inp_files/40657.got.cif
#   From: 2010.06.25/outbox.cif.g09.slc.cpg/sg15_21_cif.got.tgz:40657.got - 2010.06.28 07:06:18.
