data_PCOD8131835
_publ_section_title
;
Structure prediction by ZEFSAII (Michael W. Deem and Ramdas Pophale) SiO2 
 PCOD8131835
Probable space group: C 2/C
;
_chemical_formula_sum "Si O2"
_cell_formula_units_Z 60
_cell_length_a 30.074144
_cell_length_b 9.998588
_cell_length_c 18.535075
_cell_angle_alpha 90.000000
_cell_angle_beta 33.944339
_cell_angle_gamma 90.000000
_cell_volume 3112.159123
_symmetry_space_group_name_H-M "C 2/C"
_symmetry_group_IT_number 15
_symmetry_cell_setting 'monoclinic'
loop_
_space_group_symop_operation_xyz
x,y,z
-x,y,1/2-z
-x,-y,-z
x,-y,1/2+z
1/2+x,1/2+y,z
1/2-x,1/2+y,1/2-z
1/2-x,1/2-y,-z
1/2+x,1/2-y,1/2+z
loop_
_atom_site_type_symbol
_atom_site_label
_atom_site_fract_x
_atom_site_fract_y
_atom_site_fract_z
Si Si1 0.201846 0.952639 0.771244
Si Si2 0.704431 0.431586 0.419293
Si Si3 0.567513 0.591212 0.873039
Si Si4 0.000000 0.733527 0.750000
Si Si5 0.348821 0.769025 0.257598
Si Si6 0.365577 0.150102 0.024565
Si Si7 0.108021 0.923553 0.687322
Si Si8 0.980765 0.355228 0.498160
O O1 0.160991 0.811299 0.804839
O O2 0.292535 0.955192 0.617226
O O3 0.205394 0.959562 0.853898
O O4 0.150563 0.072166 0.804996
O O5 0.792685 0.399462 0.331682
O O6 0.668621 0.298609 0.433241
O O7 0.651140 0.481971 0.558091
O O8 0.577366 0.548184 0.776347
O O9 0.543309 0.747334 0.907841
O O10 0.500000 0.500000 0.000000
O O11 0.069886 0.635734 0.626654
O O12 0.032534 0.831329 0.768666
O O13 0.329445 0.666720 0.349856
O O14 0.439878 0.807198 0.148614
O O15 0.407198 0.129224 0.044341
O O16 0.000000 0.500000 0.500000
#
# Coordination Sequence:
#
# PCOD8131835 Si02
#       8
#     8   8   8   4   8   8   8   8
#     4  10  20  35  60  84 120 160 203 258 300 365
#     4  10  20  34  58  93 122 153 210 263 304 362
#     4  11  20  39  59  87 124 157 206 256 306 362
#     4  10  18  34  60  94 122 154 212 266 312 364
#     4  10  20  36  56  89 121 156 201 255 311 363
#     4  10  20  35  56  89 117 158 201 255 308 360
#     4  10  20  32  61  89 119 157 202 270 308 354
#     4  12  22  36  61  86 123 162 202 244 305 374
#
# _framework density 19.279219999999999
#
# number of rings (size 3 to 8) (size 9 to 14) (size 15 to 20)
#    0.000    1.600    5.333    1.200    1.867    1.067 
#    0.000    0.000    0.000    8.800    0.000    0.000 
#    0.000    0.000    0.000    0.000    0.000    0.000 
#
# Total GULP energy -371780.314930 kJ/mol
# GULP energy per Si atom -12392.677164 kJ/mol
# Density = 1.923534 g / cm^3
# Si number density = 19.279220 Si / 1000 Ang^3
#
#
#
# Elastic Constant Matrix: (Units=GPa)
#
#
# Indices 1 2 3 4 5 6 
#
# 1 105.2115 36.6017 51.5711 0.0016 0.9895 -0.0012
# 2 36.6017 84.7663 43.9464 0.0015 7.1454 -0.0028
# 3 51.5711 43.9464 125.4720 0.0032 -1.7635 -0.0019
# 4 0.0016 0.0015 0.0032 21.9122 -0.0023 -0.9085
# 5 0.9895 7.1454 -1.7635 -0.0023 37.6221 0.0016
# 6 -0.0012 -0.0028 -0.0019 -0.9085 0.0016 25.7757
#
#
#
# Elastic Compliance Matrix: (Units=1/GPa)
#
#
# Indices 1 2 3 4 5 6 
#
# 1 0.012649 -0.003394 -0.004008 0.000000 0.000124 0.000000
# 2 -0.003394 0.015666 -0.004135 0.000000 -0.003080 0.000001
# 3 -0.004008 -0.004135 0.011086 -0.000001 0.001410 0.000000
# 4 0.000000 0.000000 -0.000001 0.045704 0.000003 0.001611
# 5 0.000124 -0.003080 0.001410 0.000003 0.027228 -0.000002
# 6 0.000000 0.000001 0.000000 0.001611 -0.000002 0.038853
#
#
# Mechanical properties :
#
#
# Convention : Reuss Voigt Hill
#
# Bulk Modulus (GPa) = 61.25506 64.40982 62.83244
# Shear Modulus (GPa) = 27.82367 29.28403 28.55385
#
# Velocity S-wave (km/s) = 3.80306 3.90159 3.85264
# Velocity P-wave (km/s) = 7.15024 7.33335 7.24237
#
# Compressibility (1/GPa) = 0.01632518
#
# Stress axis : x y z
#
# Youngs Moduli (GPa) = 79.05722 63.83140 90.20657
#
# Poissons Ratio (x) = 0.21665 0.36159
# Poissons Ratio (y) = 0.26833 0.37304
# Poissons Ratio (z) = 0.31690 0.26397
#
# Static dielectric constant tensor:
#      x y z
#    x 3.795860 -0.000010 -0.295430 
#    y -0.000010 3.370120 0.000010 
#    z -0.295430 0.000010 3.848270 
# 
# 
# High freq. dielectric constant tensor:
#      x y z
#    x 1.764460 0.000000 -0.016870 
#    y 0.000000 1.702630 0.000000 
#    z -0.016870 0.000000 1.750360 
# 
# From -- ./inp_files/225008.got.cif
#   From: 2010.06.25/outbox.cif.g09.slc.cpg/sg15_113_cif.got.tgz:225008.got - 2010.06.28 07:06:18.
