data_PCOD8131883
_publ_section_title
;
Structure prediction by ZEFSAII (Michael W. Deem and Ramdas Pophale) SiO2 
 PCOD8131883
Probable space group: C 2/C
;
_chemical_formula_sum "Si O2"
_cell_formula_units_Z 44
_cell_length_a 16.716182
_cell_length_b 8.236836
_cell_length_c 14.323176
_cell_angle_alpha 90.000000
_cell_angle_beta 99.925059
_cell_angle_gamma 90.000000
_cell_volume 1942.620984
_symmetry_space_group_name_H-M "C 2/C"
_symmetry_group_IT_number 15
_symmetry_cell_setting 'monoclinic'
loop_
_space_group_symop_operation_xyz
x,y,z
-x,y,1/2-z
-x,-y,-z
x,-y,1/2+z
1/2+x,1/2+y,z
1/2-x,1/2+y,1/2-z
1/2-x,1/2-y,-z
1/2+x,1/2-y,1/2+z
loop_
_atom_site_type_symbol
_atom_site_label
_atom_site_fract_x
_atom_site_fract_y
_atom_site_fract_z
Si Si1 0.360270 0.843372 0.335910
Si Si2 0.724803 0.610164 0.562912
Si Si3 0.758637 0.637322 0.289383
Si Si4 0.333253 0.163105 0.038464
Si Si5 0.876553 0.017060 0.609534
Si Si6 0.000000 0.181323 0.250000
O O1 0.293879 0.694658 0.311423
O O2 0.378844 0.873161 0.448968
O O3 0.440353 0.796335 0.295512
O O4 0.330794 0.012147 0.281519
O O5 0.750000 0.750000 0.500000
O O6 0.707031 0.692918 0.659731
O O7 0.806966 0.499720 0.587637
O O8 0.643254 0.525796 0.504043
O O9 0.702105 0.538140 0.349300
O O10 0.386566 0.285625 0.114312
O O11 0.250000 0.250000 0.000000
O O12 0.956605 0.932466 0.664743
#
# Coordination Sequence:
#
# PCOD8131883 Si02
#       6
#     8   8   8   8   8   4
#     4  11  22  38  63  94 128 172 214 273 325 391
#     4   9  16  34  61  93 116 152 211 276 309 363
#     4  10  21  35  63  93 123 166 220 267 322 374
#     4  10  18  34  64  96 118 157 224 274 312 376
#     4   9  19  37  60  89 127 171 208 268 317 391
#     4  10  24  42  58  92 148 176 206 260 346 382
#
# _framework density 22.649813000000002
#
# number of rings (size 3 to 8) (size 9 to 14) (size 15 to 20)
#    0.000    2.182    5.455    0.000    5.091    0.727 
#    0.000    0.909    0.000   14.182    0.000    0.000 
#    0.000    0.000    0.000    0.000    0.000    0.000 
#
# Total GULP energy -272554.386196 kJ/mol
# GULP energy per Si atom -12388.835736 kJ/mol
# Density = 2.259826 g / cm^3
# Si number density = 22.649813 Si / 1000 Ang^3
#
#
#
# Elastic Constant Matrix: (Units=GPa)
#
#
# Indices 1 2 3 4 5 6 
#
# 1 93.6722 56.7900 36.7884 0.0000 8.8169 0.0000
# 2 56.7900 151.7647 39.3382 0.0000 7.8461 0.0000
# 3 36.7884 39.3382 99.7511 0.0000 8.3689 0.0000
# 4 0.0000 0.0000 0.0000 28.4801 0.0000 -2.6277
# 5 8.8169 7.8461 8.3689 0.0000 22.2319 0.0000
# 6 0.0000 0.0000 0.0000 -2.6277 0.0000 35.0532
#
#
#
# Elastic Compliance Matrix: (Units=1/GPa)
#
#
# Indices 1 2 3 4 5 6 
#
# 1 0.015126 -0.004592 -0.003511 0.000000 -0.003057 0.000000
# 2 -0.004592 0.008786 -0.001718 0.000000 -0.000633 0.000000
# 3 -0.003511 -0.001718 0.012216 0.000000 -0.002600 0.000000
# 4 0.000000 0.000000 0.000000 0.035357 0.000000 0.002650
# 5 -0.003057 -0.000633 -0.002600 0.000000 0.047394 0.000000
# 6 0.000000 0.000000 0.000000 0.002650 0.000000 0.028727
#
#
# Mechanical properties :
#
#
# Convention : Reuss Voigt Hill
#
# Bulk Modulus (GPa) = 60.66254 67.89124 64.27689
# Shear Modulus (GPa) = 28.94478 31.30446 30.12462
#
# Velocity S-wave (km/s) = 3.57869 3.72170 3.65090
# Velocity P-wave (km/s) = 6.62699 6.96473 6.79796
#
# Compressibility (1/GPa) = 0.01648464
#
# Stress axis : x y z
#
# Youngs Moduli (GPa) = 66.11048 113.82362 81.86312
#
# Poissons Ratio (x) = 0.52268 0.28744
# Poissons Ratio (y) = 0.30358 0.14064
# Poissons Ratio (z) = 0.23213 0.19555
#
# Static dielectric constant tensor:
#      x y z
#    x 3.618530 0.000000 -0.212710 
#    y 0.000000 5.821750 0.000000 
#    z -0.212710 0.000000 5.596250 
# 
# 
# High freq. dielectric constant tensor:
#      x y z
#    x 1.825500 0.000000 -0.018390 
#    y 0.000000 1.917760 0.000000 
#    z -0.018390 0.000000 1.897720 
# 
# From -- ./inp_files/202788.got.cif
#   From: 2010.06.25/outbox.cif.g09.slc.cpg/sg15_102_cif.got.tgz:202788.got - 2010.06.28 07:06:18.
