data_PCOD8131711
_publ_section_title
;
Structure prediction by ZEFSAII (Michael W. Deem and Ramdas Pophale) SiO2 
 PCOD8131711
Probable space group: C 2/C
;
_chemical_formula_sum "Si O2"
_cell_formula_units_Z 52
_cell_length_a 20.393251
_cell_length_b 19.209723
_cell_length_c 9.367875
_cell_angle_alpha 90.000000
_cell_angle_beta 47.159315
_cell_angle_gamma 90.000000
_cell_volume 2690.909410
_symmetry_space_group_name_H-M "C 2/C"
_symmetry_group_IT_number 15
_symmetry_cell_setting 'monoclinic'
loop_
_space_group_symop_operation_xyz
x,y,z
-x,y,1/2-z
-x,-y,-z
x,-y,1/2+z
1/2+x,1/2+y,z
1/2-x,1/2+y,1/2-z
1/2-x,1/2-y,-z
1/2+x,1/2-y,1/2+z
loop_
_atom_site_type_symbol
_atom_site_label
_atom_site_fract_x
_atom_site_fract_y
_atom_site_fract_z
Si Si1 0.096848 0.638048 0.156762
Si Si2 0.166990 0.155974 0.163369
Si Si3 0.894474 0.505583 0.183295
Si Si4 0.379745 0.215718 0.103763
Si Si5 0.290243 0.785774 0.238094
Si Si6 0.822826 0.578964 0.032353
Si Si7 0.500000 0.682710 0.250000
O O1 0.137887 0.571548 0.175371
O O2 0.090545 0.701031 0.278622
O O3 0.000000 0.614957 0.250000
O O4 0.152894 0.659235 0.935502
O O5 0.147585 0.224128 0.289149
O O6 0.214782 0.093635 0.182499
O O7 0.072992 0.134837 0.226775
O O8 0.243247 0.174058 0.936114
O O9 0.842805 0.513709 0.108365
O O10 0.861903 0.437578 0.316935
O O11 0.000000 0.500000 0.000000
O O12 0.282838 0.250946 0.256652
O O13 0.375627 0.146812 0.011131
O O14 0.450305 0.269106 0.936148
#
# Coordination Sequence:
#
# PCOD8131711 Si02
#       7
#     8   8   8   8   8   8   4
#     4  11  21  30  50  79 113 148 182 229 275 336
#     4   9  19  34  58  77 109 146 183 243 277 350
#     4  11  24  37  51  83 111 155 193 223 272 340
#     4   9  20  33  54  78 111 146 177 240 274 345
#     4   9  18  34  50  80 108 145 188 220 298 333
#     4  10  22  37  55  78 114 150 185 230 279 328
#     4  10  18  34  56  86 100 140 194 222 298 334
#
# _framework density 19.324321999999999
#
# number of rings (size 3 to 8) (size 9 to 14) (size 15 to 20)
#    0.000    2.154    0.000    3.692    8.615    0.000 
#    0.000    0.000    0.000    0.923    0.000    0.000 
#    0.000    0.000    0.000    0.000    0.000    0.000 
#
# Total GULP energy -322280.609038 kJ/mol
# GULP energy per Si atom -12395.408040 kJ/mol
# Density = 1.928034 g / cm^3
# Si number density = 19.324322 Si / 1000 Ang^3
#
#
#
# Elastic Constant Matrix: (Units=GPa)
#
#
# Indices 1 2 3 4 5 6 
#
# 1 123.0735 16.6223 22.8420 0.0000 -8.6724 0.0000
# 2 16.6223 38.0019 25.5368 0.0000 -0.8658 0.0000
# 3 22.8420 25.5368 76.5173 0.0000 2.1013 0.0000
# 4 0.0000 0.0000 0.0000 8.9993 0.0000 3.2035
# 5 -8.6724 -0.8658 2.1013 0.0000 29.5094 0.0000
# 6 0.0000 0.0000 0.0000 3.2035 0.0000 33.9170
#
#
#
# Elastic Compliance Matrix: (Units=1/GPa)
#
#
# Indices 1 2 3 4 5 6 
#
# 1 0.009021 -0.002610 -0.001896 0.000000 0.002709 0.000000
# 2 -0.002610 0.034773 -0.010854 0.000000 0.001026 0.000000
# 3 -0.001896 -0.010854 0.017315 0.000000 -0.002109 0.000000
# 4 0.000000 0.000000 0.000000 0.114985 0.000000 -0.010861
# 5 0.002709 0.001026 -0.002109 0.000000 0.034864 0.000000
# 6 0.000000 0.000000 0.000000 -0.010861 0.000000 0.030510
#
#
# Mechanical properties :
#
#
# Convention : Reuss Voigt Hill
#
# Bulk Modulus (GPa) = 32.90694 40.84388 36.87541
# Shear Modulus (GPa) = 17.71050 25.99126 21.85088
#
# Velocity S-wave (km/s) = 3.03064 3.67141 3.36630
# Velocity P-wave (km/s) = 5.41406 6.25733 5.85091
#
# Compressibility (1/GPa) = 0.03038873
#
# Stress axis : x y z
#
# Youngs Moduli (GPa) = 110.85804 28.75770 57.75183
#
# Poissons Ratio (x) = 0.07505 0.10951
# Poissons Ratio (y) = 0.28930 0.62686
# Poissons Ratio (z) = 0.21022 0.31215
#
# Static dielectric constant tensor:
#      x y z
#    x 3.908440 0.000000 0.168570 
#    y 0.000000 3.385160 0.000000 
#    z 0.168570 0.000000 3.332520 
# 
# 
# High freq. dielectric constant tensor:
#      x y z
#    x 1.766730 0.000000 0.017730 
#    y 0.000000 1.725260 0.000000 
#    z 0.017730 0.000000 1.732790 
# 
# From -- ./inp_files/40882.got.cif
#   From: 2010.06.25/outbox.cif.g09.slc.cpg/sg15_21_cif.got.tgz:40882.got - 2010.06.28 07:06:18.
