data_PCOD8131556
_publ_section_title
;
Structure prediction by ZEFSAII (Michael W. Deem and Ramdas Pophale) SiO2 
 PCOD8131556
Probable space group: C 2/C
;
_chemical_formula_sum "Si O2"
_cell_formula_units_Z 52
_cell_length_a 10.588863
_cell_length_b 16.239999
_cell_length_c 21.375597
_cell_angle_alpha 90.000000
_cell_angle_beta 47.675751
_cell_angle_gamma 90.000000
_cell_volume 2717.699419
_symmetry_space_group_name_H-M "C 2/C"
_symmetry_group_IT_number 15
_symmetry_cell_setting 'monoclinic'
loop_
_space_group_symop_operation_xyz
x,y,z
-x,y,1/2-z
-x,-y,-z
x,-y,1/2+z
1/2+x,1/2+y,z
1/2-x,1/2+y,1/2-z
1/2-x,1/2-y,-z
1/2+x,1/2-y,1/2+z
loop_
_atom_site_type_symbol
_atom_site_label
_atom_site_fract_x
_atom_site_fract_y
_atom_site_fract_z
Si Si1 0.906312 0.017150 0.896711
Si Si2 0.928235 0.179243 0.704396
Si Si3 0.088977 0.395785 0.279240
Si Si4 0.169637 0.350975 0.799095
Si Si5 0.893735 0.520983 0.415512
Si Si6 0.775060 0.048489 0.153218
Si Si7 0.500000 0.593012 0.250000
O O1 0.922292 0.968841 0.826861
O O2 0.023402 0.970201 0.908820
O O3 0.962965 0.112045 0.869660
O O4 0.711423 0.014922 0.985131
O O5 0.726387 0.156868 0.771846
O O6 0.935330 0.265685 0.664842
O O7 0.000000 0.187906 0.750000
O O8 0.174960 0.474415 0.218772
O O9 0.000000 0.347141 0.250000
O O10 0.951743 0.429039 0.375705
O O11 0.215389 0.370979 0.711452
O O12 0.349794 0.347694 0.775721
O O13 0.056208 0.420238 0.871196
O O14 0.772639 0.561423 0.402809
#
# Coordination Sequence:
#
# PCOD8131556 Si02
#       7
#     8   8   8   8   8   8   4
#     4  10  20  34  59  82 113 144 190 240 278 328
#     4  11  21  35  55  83 114 150 184 236 284 338
#     4   8  17  33  55  81 105 143 191 223 274 336
#     4  10  21  35  57  77 114 150 186 229 290 337
#     4  10  18  33  58  86 107 142 192 239 276 336
#     4   8  16  34  55  79 107 143 181 226 278 342
#     4  10  22  42  54  80 112 156 194 226 282 346
#
# _framework density 19.13383
#
# number of rings (size 3 to 8) (size 9 to 14) (size 15 to 20)
#    0.000    2.462    0.769    3.692    1.077    1.231 
#    0.000    0.000    0.000    1.846    0.000    0.000 
#    0.000    0.000    0.000    0.000    0.000    0.000 
#
# Total GULP energy -322283.500042 kJ/mol
# GULP energy per Si atom -12395.519232 kJ/mol
# Density = 1.909028 g / cm^3
# Si number density = 19.133830 Si / 1000 Ang^3
#
#
#
# Elastic Constant Matrix: (Units=GPa)
#
#
# Indices 1 2 3 4 5 6 
#
# 1 121.1025 23.5235 33.7697 0.0003 2.0936 -0.0001
# 2 23.5235 57.9106 16.9428 0.0004 -0.3239 -0.0003
# 3 33.7697 16.9428 101.0175 0.0004 -12.1594 -0.0004
# 4 0.0003 0.0004 0.0004 13.4798 -0.0002 -4.2942
# 5 2.0936 -0.3239 -12.1594 -0.0002 23.5668 0.0002
# 6 -0.0001 -0.0003 -0.0004 -4.2942 0.0002 27.0178
#
#
#
# Elastic Compliance Matrix: (Units=1/GPa)
#
#
# Indices 1 2 3 4 5 6 
#
# 1 0.009747 -0.003084 -0.003039 0.000000 -0.002476 0.000000
# 2 -0.003084 0.019179 -0.002262 0.000000 -0.000629 0.000000
# 3 -0.003039 -0.002262 0.012073 0.000000 0.006468 0.000000
# 4 0.000000 0.000000 0.000000 0.078141 0.000000 0.012420
# 5 -0.002476 -0.000629 0.006468 0.000000 0.045981 0.000000
# 6 0.000000 0.000000 0.000000 0.012420 0.000000 0.038987
#
#
# Mechanical properties :
#
#
# Convention : Reuss Voigt Hill
#
# Bulk Modulus (GPa) = 41.27183 47.61141 44.44162
# Shear Modulus (GPa) = 21.83850 26.53252 24.18551
#
# Velocity S-wave (km/s) = 3.38206 3.72786 3.55916
# Velocity P-wave (km/s) = 6.07190 6.59292 6.33777
#
# Compressibility (1/GPa) = 0.02422960
#
# Stress axis : x y z
#
# Youngs Moduli (GPa) = 102.59802 52.14092 82.82874
#
# Poissons Ratio (x) = 0.16080 0.25173
# Poissons Ratio (y) = 0.31640 0.18732
# Poissons Ratio (z) = 0.31181 0.11792
#
# Static dielectric constant tensor:
#      x y z
#    x 4.019960 0.000000 -0.148060 
#    y 0.000000 3.274790 0.000000 
#    z -0.148060 0.000000 3.203970 
# 
# 
# High freq. dielectric constant tensor:
#      x y z
#    x 1.764170 0.000000 -0.004940 
#    y 0.000000 1.719010 0.000000 
#    z -0.004940 0.000000 1.713050 
# 
# From -- ./inp_files/238643.got.cif
#   From: 2010.06.25/outbox.cif.g09.slc.cpg/sg15_120_cif.got.tgz:238643.got - 2010.06.28 07:06:18.
