data_PCOD8131173
_publ_section_title
;
Structure prediction by ZEFSAII (Michael W. Deem and Ramdas Pophale) SiO2 
 PCOD8131173
Probable space group: C 2/C
;
_chemical_formula_sum "Si O2"
_cell_formula_units_Z 64
_cell_length_a 26.650413
_cell_length_b 14.466321
_cell_length_c 9.960603
_cell_angle_alpha 90.000000
_cell_angle_beta 78.985818
_cell_angle_gamma 90.000000
_cell_volume 3769.409661
_symmetry_space_group_name_H-M "C 2/C"
_symmetry_group_IT_number 15
_symmetry_cell_setting 'monoclinic'
loop_
_space_group_symop_operation_xyz
x,y,z
-x,y,1/2-z
-x,-y,-z
x,-y,1/2+z
1/2+x,1/2+y,z
1/2-x,1/2+y,1/2-z
1/2-x,1/2-y,-z
1/2+x,1/2-y,1/2+z
loop_
_atom_site_type_symbol
_atom_site_label
_atom_site_fract_x
_atom_site_fract_y
_atom_site_fract_z
Si Si1 0.305403 0.108741 0.112074
Si Si2 0.439532 0.579939 0.631008
Si Si3 0.647986 0.280277 0.327278
Si Si4 0.764874 0.099717 0.095985
Si Si5 0.809536 0.599778 0.602575
Si Si6 0.643345 0.724759 0.513752
Si Si7 0.056610 0.912163 0.062323
Si Si8 0.242736 0.108844 0.888160
O O1 0.353777 0.177989 0.104542
O O2 0.273874 0.117740 0.264570
O O3 0.327593 0.006256 0.070832
O O4 0.266102 0.140736 0.017385
O O5 0.403001 0.664380 0.607254
O O6 0.425284 0.491600 0.548756
O O7 0.432198 0.553617 0.791343
O O8 0.497257 0.612241 0.572080
O O9 0.654799 0.274018 0.165078
O O10 0.698045 0.325213 0.364898
O O11 0.782061 0.993013 0.088172
O O12 0.737522 0.124514 0.970427
O O13 0.814589 0.163284 0.084739
O O14 0.855636 0.671164 0.547180
O O15 0.790667 0.611371 0.763258
O O16 0.587758 0.681111 0.514002
#
# Coordination Sequence:
#
# PCOD8131173 Si02
#       8
#     8   8   8   8   8   8   8   8
#     4  10  21  32  47  70 103 131 164 203 244 277
#     4   9  19  36  56  75 103 126 159 201 252 293
#     4  11  19  32  51  74  96 130 166 203 240 289
#     4  10  18  32  49  70  98 136 161 197 241 290
#     4  10  19  33  48  67  98 135 165 197 240 288
#     4  11  19  31  54  72  94 131 173 195 237 298
#     4   9  19  36  55  78  99 128 159 203 247 296
#     4  10  20  31  46  73 103 128 163 202 239 287
#
# _framework density 16.978785999999999
#
# number of rings (size 3 to 8) (size 9 to 14) (size 15 to 20)
#    0.000    2.000    2.500    2.250    0.000    0.000 
#    4.500    0.000    0.000    0.750    0.000    0.000 
#    0.000    0.000    0.000    0.000    0.000    0.000 
#
# Total GULP energy -396764.471661 kJ/mol
# GULP energy per Si atom -12398.889739 kJ/mol
# Density = 1.694014 g / cm^3
# Si number density = 16.978786 Si / 1000 Ang^3
#
#
#
# Elastic Constant Matrix: (Units=GPa)
#
#
# Indices 1 2 3 4 5 6 
#
# 1 72.9161 67.2435 26.0243 0.0000 1.0023 0.0000
# 2 67.2435 116.5009 42.7688 0.0000 0.7575 0.0000
# 3 26.0243 42.7688 51.4415 0.0000 0.8431 0.0000
# 4 0.0000 0.0000 0.0000 27.5152 0.0000 -0.2454
# 5 1.0023 0.7575 0.8431 0.0000 17.0065 0.0000
# 6 0.0000 0.0000 0.0000 -0.2454 0.0000 26.6798
#
#
#
# Elastic Compliance Matrix: (Units=1/GPa)
#
#
# Indices 1 2 3 4 5 6 
#
# 1 0.029381 -0.016554 -0.001085 0.000000 -0.000940 0.000000
# 2 -0.016554 0.021681 -0.009659 0.000000 0.000489 0.000000
# 3 -0.001085 -0.009659 0.028034 0.000000 -0.000895 0.000000
# 4 0.000000 0.000000 0.000000 0.036347 0.000000 0.000334
# 5 -0.000940 0.000489 -0.000895 0.000000 0.058879 0.000000
# 6 0.000000 0.000000 0.000000 0.000334 0.000000 0.037485
#
#
# Mechanical properties :
#
#
# Convention : Reuss Voigt Hill
#
# Bulk Modulus (GPa) = 40.81788 56.99242 48.90515
# Shear Modulus (GPa) = 18.21031 21.22842 19.71937
#
# Velocity S-wave (km/s) = 3.27851 3.53978 3.41165
# Velocity P-wave (km/s) = 6.19873 7.09552 6.66223
#
# Compressibility (1/GPa) = 0.02449907
#
# Stress axis : x y z
#
# Youngs Moduli (GPa) = 34.03605 46.12287 35.67071
#
# Poissons Ratio (x) = 0.76351 0.03872
# Poissons Ratio (y) = 0.56342 0.34456
# Poissons Ratio (z) = 0.03694 0.44552
#
# Static dielectric constant tensor:
#      x y z
#    x 2.944400 0.000000 0.089860 
#    y 0.000000 3.455520 0.000000 
#    z 0.089860 0.000000 3.284700 
# 
# 
# High freq. dielectric constant tensor:
#      x y z
#    x 1.618550 0.000000 0.009690 
#    y 0.000000 1.660410 0.000000 
#    z 0.009690 0.000000 1.663070 
# 
# From -- ./inp_files/66230.got.cif
#   From: 2010.06.25/outbox.cif.g09.slc.cpg/sg15_34_cif.got.tgz:66230.got - 2010.06.28 07:06:18.
