data_PCOD8131003
_publ_section_title
;
Structure prediction by ZEFSAII (Michael W. Deem and Ramdas Pophale) SiO2 
 PCOD8131003
Probable space group: C 2/C
;
_chemical_formula_sum "Si O2"
_cell_formula_units_Z 56
_cell_length_a 10.845590
_cell_length_b 26.772549
_cell_length_c 11.252530
_cell_angle_alpha 90.000000
_cell_angle_beta 125.193934
_cell_angle_gamma 90.000000
_cell_volume 2670.081939
_symmetry_space_group_name_H-M "C 2/C"
_symmetry_group_IT_number 15
_symmetry_cell_setting 'monoclinic'
loop_
_space_group_symop_operation_xyz
x,y,z
-x,y,1/2-z
-x,-y,-z
x,-y,1/2+z
1/2+x,1/2+y,z
1/2-x,1/2+y,1/2-z
1/2-x,1/2-y,-z
1/2+x,1/2-y,1/2+z
loop_
_atom_site_type_symbol
_atom_site_label
_atom_site_fract_x
_atom_site_fract_y
_atom_site_fract_z
Si Si1 0.167760 0.418146 0.317027
Si Si2 0.095557 0.659377 0.139741
Si Si3 0.666702 0.747389 0.827220
Si Si4 0.037193 0.559468 0.398640
Si Si5 0.411848 0.812144 0.320727
Si Si6 0.272748 0.003250 0.837227
Si Si7 0.335719 0.593443 0.156376
O O1 0.151225 0.368125 0.229840
O O2 0.251690 0.462429 0.291954
O O3 0.261633 0.405271 0.485420
O O4 0.000000 0.438244 0.250000
O O5 0.134862 0.696119 0.268617
O O6 0.244528 0.627773 0.196275
O O7 0.964646 0.619813 0.103785
O O8 0.037503 0.690126 0.993511
O O9 0.500000 0.721397 0.750000
O O10 0.768889 0.721302 0.782001
O O11 0.750000 0.750000 0.000000
O O12 0.200213 0.540130 0.534956
O O13 0.000000 0.537132 0.250000
O O14 0.911993 0.536716 0.417146
O O15 0.500000 0.793425 0.250000
O O16 0.137927 0.964152 0.783042
O O17 0.500000 0.618228 0.250000
#
# Coordination Sequence:
#
# PCOD8131003 Si02
#       7
#     8   8   8   8   8   8   8
#     4  11  19  39  66  91 130 175 239 287 331 416
#     4  11  22  43  68  94 134 180 234 284 347 428
#     4  12  27  47  71 103 143 178 229 303 366 420
#     4  10  18  30  60  93 117 162 224 270 323 403
#     4  11  23  44  74 102 129 187 239 291 342 421
#     4  10  19  33  57  90 125 172 216 274 337 396
#     4  11  24  39  60  98 142 177 224 296 352 407
#
# _framework density 20.973137999999999
#
# number of rings (size 3 to 8) (size 9 to 14) (size 15 to 20)
#    0.000    1.143    5.714    3.429    0.000    2.857 
#    0.000    0.714    0.000    0.000    0.000    0.000 
#    0.000    0.000    0.000    0.000    0.000    0.000 
#
# Total GULP energy -346959.588882 kJ/mol
# GULP energy per Si atom -12391.413889 kJ/mol
# Density = 2.092540 g / cm^3
# Si number density = 20.973138 Si / 1000 Ang^3
#
#
#
# Elastic Constant Matrix: (Units=GPa)
#
#
# Indices 1 2 3 4 5 6 
#
# 1 98.0705 39.6551 31.7665 0.0000 6.9885 0.0000
# 2 39.6551 102.5917 22.7129 0.0000 -4.9252 0.0000
# 3 31.7665 22.7129 117.7827 0.0000 -8.4001 0.0000
# 4 0.0000 0.0000 0.0000 31.5171 0.0000 -12.8356
# 5 6.9885 -4.9252 -8.4001 0.0000 33.2317 0.0000
# 6 0.0000 0.0000 0.0000 -12.8356 0.0000 29.2326
#
#
#
# Elastic Compliance Matrix: (Units=1/GPa)
#
#
# Indices 1 2 3 4 5 6 
#
# 1 0.013379 -0.004711 -0.003005 0.000000 -0.004271 0.000000
# 2 -0.004711 0.011876 -0.000838 0.000000 0.002539 0.000000
# 3 -0.003005 -0.000838 0.009673 0.000000 0.002953 0.000000
# 4 0.000000 0.000000 0.000000 0.038638 0.000000 0.016965
# 5 -0.004271 0.002539 0.002953 0.000000 0.032113 0.000000
# 6 0.000000 0.000000 0.000000 0.016965 0.000000 0.041658
#
#
# Mechanical properties :
#
#
# Convention : Reuss Voigt Hill
#
# Bulk Modulus (GPa) = 56.11845 56.30154 56.20999
# Shear Modulus (GPa) = 29.34526 33.75031 31.54779
#
# Velocity S-wave (km/s) = 3.74462 4.01586 3.88261
# Velocity P-wave (km/s) = 6.74623 6.95742 6.85264
#
# Compressibility (1/GPa) = 0.01781945
#
# Stress axis : x y z
#
# Youngs Moduli (GPa) = 74.74144 84.20328 103.38271
#
# Poissons Ratio (x) = 0.39672 0.31062
# Poissons Ratio (y) = 0.35214 0.08667
# Poissons Ratio (z) = 0.22457 0.07059
#
# Static dielectric constant tensor:
#      x y z
#    x 3.816490 0.000000 -0.097220 
#    y 0.000000 3.884780 0.000000 
#    z -0.097220 0.000000 3.707060 
# 
# 
# High freq. dielectric constant tensor:
#      x y z
#    x 1.800360 0.000000 -0.021950 
#    y 0.000000 1.822730 0.000000 
#    z -0.021950 0.000000 1.819780 
# 
# From -- ./inp_files/92104.got.cif
#   From: 2010.06.25/outbox.cif.g09.slc.cpg/sg15_47_cif.got.tgz:92104.got - 2010.06.28 07:06:18.
