data_PCOD8131412
_publ_section_title
;
Structure prediction by ZEFSAII (Michael W. Deem and Ramdas Pophale) SiO2 
 PCOD8131412
Probable space group: C 2/C
;
_chemical_formula_sum "Si O2"
_cell_formula_units_Z 56
_cell_length_a 26.694695
_cell_length_b 12.060426
_cell_length_c 28.522315
_cell_angle_alpha 90.000000
_cell_angle_beta 20.156194
_cell_angle_gamma 90.000000
_cell_volume 3164.194433
_symmetry_space_group_name_H-M "C 2/C"
_symmetry_group_IT_number 15
_symmetry_cell_setting 'monoclinic'
loop_
_space_group_symop_operation_xyz
x,y,z
-x,y,1/2-z
-x,-y,-z
x,-y,1/2+z
1/2+x,1/2+y,z
1/2-x,1/2+y,1/2-z
1/2-x,1/2-y,-z
1/2+x,1/2-y,1/2+z
loop_
_atom_site_type_symbol
_atom_site_label
_atom_site_fract_x
_atom_site_fract_y
_atom_site_fract_z
Si Si1 0.884305 0.341772 0.730662
Si Si2 0.053339 0.283296 0.395438
Si Si3 0.435465 0.347034 0.457676
Si Si4 0.092513 0.900519 0.532073
Si Si5 0.914323 0.238367 0.370145
Si Si6 0.074281 0.414699 0.285384
Si Si7 0.625280 0.233116 0.359450
O O1 0.952097 0.453433 0.692754
O O2 0.858366 0.357297 0.697009
O O3 0.994302 0.238188 0.642268
O O4 0.732418 0.314187 0.888948
O O5 0.025003 0.370944 0.379286
O O6 0.220451 0.284741 0.263196
O O7 0.007684 0.160682 0.418155
O O8 0.951714 0.321617 0.527899
O O9 0.454311 0.472025 0.423844
O O10 0.521563 0.332782 0.431392
O O11 0.064235 0.850795 0.607969
O O12 0.258456 0.884320 0.370764
O O13 0.750000 0.250000 0.500000
O O14 0.000000 0.193301 0.250000
O O15 0.975790 0.358386 0.331976
#
# Coordination Sequence:
#
# PCOD8131412 Si02
#       7
#     8   8   8   8   8   8   8
#     4   9  19  37  52  76 109 154 188 218 262 309
#     4  11  20  32  49  82 114 141 196 225 267 304
#     4   9  19  37  53  75 109 153 189 218 262 311
#     4  10  21  36  59  80 108 148 176 226 276 326
#     4  11  22  41  62  89 108 128 173 224 288 341
#     4  10  21  36  58  80 111 146 175 228 276 322
#     4  10  18  33  49  78 110 154 187 227 251 306
#
# _framework density 17.698028000000001
#
# number of rings (size 3 to 8) (size 9 to 14) (size 15 to 20)
#    0.857    1.143    4.286    0.000    0.000    2.286 
#    5.143    0.000    0.000    1.714    0.000    0.000 
#    0.000    0.000    0.000    0.000    0.000    0.000 
#
# Total GULP energy -347099.651019 kJ/mol
# GULP energy per Si atom -12396.416108 kJ/mol
# Density = 1.765775 g / cm^3
# Si number density = 17.698028 Si / 1000 Ang^3
#
#
#
# Elastic Constant Matrix: (Units=GPa)
#
#
# Indices 1 2 3 4 5 6 
#
# 1 60.9669 31.5966 21.8564 0.0010 1.7579 0.0024
# 2 31.5966 119.5709 52.9655 -0.0057 -5.3182 0.0036
# 3 21.8564 52.9655 100.7124 -0.0053 -0.9213 0.0029
# 4 0.0010 -0.0057 -0.0053 27.0559 0.0006 -1.8659
# 5 1.7579 -5.3182 -0.9213 0.0006 29.8783 0.0007
# 6 0.0024 0.0036 0.0029 -1.8659 0.0007 14.1956
#
#
#
# Elastic Compliance Matrix: (Units=1/GPa)
#
#
# Indices 1 2 3 4 5 6 
#
# 1 0.019414 -0.004359 -0.001939 -0.000002 -0.001978 -0.000002
# 2 -0.004359 0.011976 -0.005332 0.000002 0.002224 -0.000001
# 3 -0.001939 -0.005332 0.013150 0.000001 -0.000429 -0.000001
# 4 -0.000002 0.000002 0.000001 0.037299 0.000000 0.004903
# 5 -0.001978 0.002224 -0.000429 0.000000 0.033968 -0.000002
# 6 -0.000002 -0.000001 -0.000001 0.004903 -0.000002 0.071089
#
#
# Mechanical properties :
#
#
# Convention : Reuss Voigt Hill
#
# Bulk Modulus (GPa) = 46.99221 54.89860 50.94540
# Shear Modulus (GPa) = 23.01519 25.88142 24.44831
#
# Velocity S-wave (km/s) = 3.61007 3.82827 3.72077
# Velocity P-wave (km/s) = 6.63225 7.11532 6.87803
#
# Compressibility (1/GPa) = 0.02128012
#
# Stress axis : x y z
#
# Youngs Moduli (GPa) = 51.51033 83.50115 76.04503
#
# Poissons Ratio (x) = 0.36400 0.14742
# Poissons Ratio (y) = 0.22455 0.40546
# Poissons Ratio (z) = 0.09986 0.44521
#
# Static dielectric constant tensor:
#      x y z
#    x 3.190130 0.000000 0.054000 
#    y 0.000000 3.073650 0.000010 
#    z 0.054000 0.000010 3.362960 
# 
# 
# High freq. dielectric constant tensor:
#      x y z
#    x 1.667520 0.000000 0.004780 
#    y 0.000000 1.665880 0.000000 
#    z 0.004780 0.000000 1.698730 
# 
# From -- ./inp_files/319519.got.cif
#   From: 2010.06.25/outbox.cif.g09.slc.cpg/sg15_160_cif.got.tgz:319519.got - 2010.06.28 07:06:18.
