data_PCOD8131363
_publ_section_title
;
Structure prediction by ZEFSAII (Michael W. Deem and Ramdas Pophale) SiO2 
 PCOD8131363
Probable space group: C 2/C
;
_chemical_formula_sum "Si O2"
_cell_formula_units_Z 60
_cell_length_a 19.128063
_cell_length_b 18.028688
_cell_length_c 11.841852
_cell_angle_alpha 90.000000
_cell_angle_beta 44.626922
_cell_angle_gamma 90.000000
_cell_volume 2868.754416
_symmetry_space_group_name_H-M "C 2/C"
_symmetry_group_IT_number 15
_symmetry_cell_setting 'monoclinic'
loop_
_space_group_symop_operation_xyz
x,y,z
-x,y,1/2-z
-x,-y,-z
x,-y,1/2+z
1/2+x,1/2+y,z
1/2-x,1/2+y,1/2-z
1/2-x,1/2-y,-z
1/2+x,1/2-y,1/2+z
loop_
_atom_site_type_symbol
_atom_site_label
_atom_site_fract_x
_atom_site_fract_y
_atom_site_fract_z
Si Si1 0.500000 0.767867 0.250000
Si Si2 0.737297 0.723528 0.387086
Si Si3 0.676927 0.313229 0.624642
Si Si4 0.343827 0.146212 0.085668
Si Si5 0.612784 0.993610 0.084515
Si Si6 0.223928 0.050576 0.932539
Si Si7 0.258060 0.115005 0.654455
Si Si8 0.383085 0.401463 0.386715
O O1 0.434726 0.719317 0.236553
O O2 0.425932 0.815252 0.412449
O O3 0.750000 0.750000 0.500000
O O4 0.836518 0.681400 0.220675
O O5 0.714637 0.799614 0.343597
O O6 0.647364 0.664696 0.492653
O O7 0.750000 0.250000 0.500000
O O8 0.727512 0.342571 0.681406
O O9 0.665220 0.379278 0.548529
O O10 0.370742 0.058761 0.046297
O O11 0.500000 0.998935 0.250000
O O12 0.671985 0.956816 0.120518
O O13 0.650896 0.076832 0.017702
O O14 0.242573 0.065167 0.780790
O O15 0.157442 0.978039 0.017817
O O16 0.159371 0.112741 0.690389
O O17 0.500000 0.405775 0.250000
#
# Coordination Sequence:
#
# PCOD8131363 Si02
#       8
#     4   8   8   8   8   8   8   8
#     4  10  18  32  58  90 120 154 194 244 314 374
#     4  10  22  43  62  84 125 169 210 258 309 370
#     4   9  19  33  55  88 126 151 194 252 304 367
#     4  10  19  38  60  86 124 160 193 260 314 364
#     4  10  21  38  62  94 125 159 208 261 326 385
#     4  10  21  39  62  90 125 163 208 264 318 375
#     4  10  21  40  64  86 124 167 206 264 313 371
#     4  10  23  42  61  87 126 168 214 256 309 384
#
# _framework density 20.914999999999999
#
# number of rings (size 3 to 8) (size 9 to 14) (size 15 to 20)
#    0.000    2.133    0.667    2.400    0.933    1.600 
#    7.200    0.000    0.000    0.000    0.000    0.000 
#    0.000    0.000    0.000    0.000    0.000    0.000 
#
# Total GULP energy -371716.054918 kJ/mol
# GULP energy per Si atom -12390.535164 kJ/mol
# Density = 2.086740 g / cm^3
# Si number density = 20.915000 Si / 1000 Ang^3
#
#
#
# Elastic Constant Matrix: (Units=GPa)
#
#
# Indices 1 2 3 4 5 6 
#
# 1 68.4365 38.5173 56.7351 0.0000 -17.8937 0.0000
# 2 38.5173 153.8969 53.9597 0.0000 -13.1695 0.0000
# 3 56.7351 53.9597 118.4830 0.0000 -6.4034 0.0000
# 4 0.0000 0.0000 0.0000 6.5120 0.0000 5.0163
# 5 -17.8937 -13.1695 -6.4034 0.0000 39.0321 0.0000
# 6 0.0000 0.0000 0.0000 5.0163 0.0000 17.6356
#
#
#
# Elastic Compliance Matrix: (Units=1/GPa)
#
#
# Indices 1 2 3 4 5 6 
#
# 1 0.028587 -0.001975 -0.012225 0.000000 0.010433 0.000000
# 2 -0.001975 0.008035 -0.002639 0.000000 0.001372 0.000000
# 3 -0.012225 -0.002639 0.015280 0.000000 -0.003988 0.000000
# 4 0.000000 0.000000 0.000000 0.196650 0.000000 -0.055936
# 5 0.010433 0.001372 -0.003988 0.000000 0.030212 0.000000
# 6 0.000000 0.000000 0.000000 -0.055936 0.000000 0.072614
#
#
# Mechanical properties :
#
#
# Convention : Reuss Voigt Hill
#
# Bulk Modulus (GPa) = 54.87717 71.02673 62.95195
# Shear Modulus (GPa) = 12.78343 25.40955 19.09649
#
# Velocity S-wave (km/s) = 2.47495 3.48932 3.02495
# Velocity P-wave (km/s) = 5.87046 7.08994 6.50882
#
# Compressibility (1/GPa) = 0.01822252
#
# Stress axis : x y z
#
# Youngs Moduli (GPa) = 34.98152 124.45398 65.44348
#
# Poissons Ratio (x) = 0.24586 0.80005
# Poissons Ratio (y) = 0.06911 0.17272
# Poissons Ratio (z) = 0.42765 0.32846
#
# Static dielectric constant tensor:
#      x y z
#    x 3.837700 0.000000 0.003080 
#    y 0.000000 4.456170 0.000000 
#    z 0.003080 0.000000 3.710260 
# 
# 
# High freq. dielectric constant tensor:
#      x y z
#    x 1.793970 0.000000 0.005790 
#    y 0.000000 1.845630 0.000000 
#    z 0.005790 0.000000 1.809780 
# 
# From -- ./inp_files/113770.got.cif
#   From: 2010.06.25/outbox.cif.g09.slc.cpg/sg15_57_cif.got.tgz:113770.got - 2010.06.28 07:06:18.
