data_PCOD8131970
_publ_section_title
;
Structure prediction by ZEFSAII (Michael W. Deem and Ramdas Pophale) SiO2 
 PCOD8131970
Probable space group: C 2/C
;
_chemical_formula_sum "Si O2"
_cell_formula_units_Z 64
_cell_length_a 8.992154
_cell_length_b 18.667152
_cell_length_c 21.357857
_cell_angle_alpha 90.000000
_cell_angle_beta 114.317933
_cell_angle_gamma 90.000000
_cell_volume 3266.996428
_symmetry_space_group_name_H-M "C 2/C"
_symmetry_group_IT_number 15
_symmetry_cell_setting 'monoclinic'
loop_
_space_group_symop_operation_xyz
x,y,z
-x,y,1/2-z
-x,-y,-z
x,-y,1/2+z
1/2+x,1/2+y,z
1/2-x,1/2+y,1/2-z
1/2-x,1/2-y,-z
1/2+x,1/2-y,1/2+z
loop_
_atom_site_type_symbol
_atom_site_label
_atom_site_fract_x
_atom_site_fract_y
_atom_site_fract_z
Si Si1 0.807961 0.667984 0.894616
Si Si2 0.455106 0.324274 0.377638
Si Si3 0.925817 0.229780 0.008288
Si Si4 0.020066 0.487505 0.188480
Si Si5 0.163571 0.035710 0.592331
Si Si6 0.918179 0.075827 0.057616
Si Si7 0.155798 0.339081 0.239197
Si Si8 0.862179 0.500152 0.922884
O O1 0.631175 0.697993 0.882434
O O2 0.844275 0.692710 0.830373
O O3 0.809401 0.582574 0.905262
O O4 0.944804 0.706993 0.959442
O O5 0.415347 0.278891 0.432175
O O6 0.457653 0.407064 0.397965
O O7 0.319479 0.312033 0.301159
O O8 0.963992 0.158416 0.054953
O O9 0.750000 0.250000 0.000000
O O10 0.148190 0.425503 0.230374
O O11 0.074252 0.528636 0.134647
O O12 0.000000 0.534957 0.250000
O O13 0.847808 0.448942 0.144420
O O14 0.160519 0.039735 0.517071
O O15 0.094339 0.959271 0.603323
O O16 0.784973 0.055240 0.087660
O O17 0.000000 0.308993 0.250000
O O18 0.000000 0.500000 0.000000
#
# Coordination Sequence:
#
# PCOD8131970 Si02
#       8
#     8   8   8   8   8   8   8   8
#     4  11  23  37  58  93 119 157 206 260 307 366
#     4  11  20  37  59  90 122 153 203 258 308 364
#     4  11  24  39  60  86 124 163 211 254 311 383
#     4  10  19  32  56  89 123 150 194 253 309 362
#     4  10  18  35  57  86 118 153 195 243 317 358
#     4  10  21  36  58  86 119 157 193 255 307 365
#     4  10  19  34  60  89 119 154 198 258 302 363
#     4  11  20  33  58  88 119 150 205 252 303 357
#
# _framework density 19.589858
#
# number of rings (size 3 to 8) (size 9 to 14) (size 15 to 20)
#    0.000    1.500    5.000    2.250    3.500    0.000 
#    0.000    0.625    0.000    7.500    0.000    0.000 
#    0.000    0.000    0.000    0.000    0.000    0.000 
#
# Total GULP energy -396523.561546 kJ/mol
# GULP energy per Si atom -12391.361298 kJ/mol
# Density = 1.954527 g / cm^3
# Si number density = 19.589858 Si / 1000 Ang^3
#
#
#
# Elastic Constant Matrix: (Units=GPa)
#
#
# Indices 1 2 3 4 5 6 
#
# 1 120.1432 6.8228 36.3386 0.0000 -9.1274 0.0000
# 2 6.8228 39.0721 6.7229 0.0000 -1.0317 0.0000
# 3 36.3386 6.7229 105.7932 0.0000 -12.0903 0.0000
# 4 0.0000 0.0000 0.0000 23.1909 0.0000 1.8766
# 5 -9.1274 -1.0317 -12.0903 0.0000 41.5672 0.0000
# 6 0.0000 0.0000 0.0000 1.8766 0.0000 28.8349
#
#
#
# Elastic Compliance Matrix: (Units=1/GPa)
#
#
# Indices 1 2 3 4 5 6 
#
# 1 0.009387 -0.001089 -0.003023 0.000000 0.001155 0.000000
# 2 -0.001089 0.026004 -0.001275 0.000000 0.000036 0.000000
# 3 -0.003023 -0.001275 0.010853 0.000000 0.002461 0.000000
# 4 0.000000 0.000000 0.000000 0.043349 0.000000 -0.002821
# 5 0.001155 0.000036 0.002461 0.000000 0.025028 0.000000
# 6 0.000000 0.000000 0.000000 -0.002821 0.000000 0.034864
#
#
# Mechanical properties :
#
#
# Convention : Reuss Voigt Hill
#
# Bulk Modulus (GPa) = 28.19138 40.53081 34.36110
# Shear Modulus (GPa) = 29.05601 33.06021 31.05811
#
# Velocity S-wave (km/s) = 3.85543 4.11252 3.98605
# Velocity P-wave (km/s) = 5.85160 6.57914 6.22600
#
# Compressibility (1/GPa) = 0.03547183
#
# Stress axis : x y z
#
# Youngs Moduli (GPa) = 106.52596 38.45562 92.13931
#
# Poissons Ratio (x) = 0.04186 0.27856
# Poissons Ratio (y) = 0.11596 0.11743
# Poissons Ratio (z) = 0.32206 0.04901
#
# Static dielectric constant tensor:
#      x y z
#    x 3.768480 0.000000 -0.245260 
#    y 0.000000 3.145490 0.000000 
#    z -0.245260 0.000000 3.791200 
# 
# 
# High freq. dielectric constant tensor:
#      x y z
#    x 1.781070 0.000000 -0.009430 
#    y 0.000000 1.713890 0.000000 
#    z -0.009430 0.000000 1.769510 
# 
# From -- ./inp_files/233882.got.cif
#   From: 2010.06.25/outbox.cif.g09.slc.cpg/sg15_117_cif.got.tgz:233882.got - 2010.06.28 07:06:18.
