data_PCOD8131671
_publ_section_title
;
Structure prediction by ZEFSAII (Michael W. Deem and Ramdas Pophale) SiO2 
 PCOD8131671
Probable space group: C 2/C
;
_chemical_formula_sum "Si O2"
_cell_formula_units_Z 44
_cell_length_a 12.836635
_cell_length_b 22.082294
_cell_length_c 9.334928
_cell_angle_alpha 90.000000
_cell_angle_beta 109.301576
_cell_angle_gamma 90.000000
_cell_volume 2497.368216
_symmetry_space_group_name_H-M "C 2/C"
_symmetry_group_IT_number 15
_symmetry_cell_setting 'monoclinic'
loop_
_space_group_symop_operation_xyz
x,y,z
-x,y,1/2-z
-x,-y,-z
x,-y,1/2+z
1/2+x,1/2+y,z
1/2-x,1/2+y,1/2-z
1/2-x,1/2-y,-z
1/2+x,1/2-y,1/2+z
loop_
_atom_site_type_symbol
_atom_site_label
_atom_site_fract_x
_atom_site_fract_y
_atom_site_fract_z
Si Si1 0.061339 0.696730 0.543501
Si Si2 0.000000 0.213001 0.250000
Si Si3 0.500000 0.732602 0.750000
Si Si4 0.914863 0.421065 0.962034
Si Si5 0.711572 0.707212 0.698292
Si Si6 0.730400 0.332820 0.896112
Si Si7 0.000000 0.501869 0.750000
O O1 0.187530 0.692575 0.651037
O O2 0.988710 0.742447 0.608732
O O3 0.065032 0.723843 0.387431
O O4 0.007902 0.630551 0.519002
O O5 0.104841 0.169041 0.283214
O O6 0.594356 0.690839 0.719344
O O7 0.918653 0.458382 0.112766
O O8 0.792859 0.393946 0.881760
O O9 0.929930 0.461374 0.827781
O O10 0.731694 0.667297 0.568072
O O11 0.704216 0.777383 0.647062
#
# Coordination Sequence:
#
# PCOD8131671 Si02
#       7
#     8   4   4   8   8   8   4
#     4  11  20  32  55  78 115 147 171 212 266 322
#     4  10  19  34  54  85 109 144 179 194 258 354
#     4  12  19  32  44  83 119 142 174 213 234 328
#     4  11  20  38  57  76 107 139 180 229 274 302
#     4  10  20  31  49  81 112 149 176 202 255 334
#     4  10  18  34  55  75 108 144 178 211 264 325
#     4  10  24  36  54  82  98 132 193 237 262 306
#
# _framework density 17.618548000000001
#
# number of rings (size 3 to 8) (size 9 to 14) (size 15 to 20)
#    0.000    1.455    3.636    4.909    0.000    0.000 
#    0.000    0.000    0.000    1.091    0.000    5.091 
#    0.000    0.000    0.000    0.000    0.000    0.000 
#
# Total GULP energy -272759.364328 kJ/mol
# GULP energy per Si atom -12398.152924 kJ/mol
# Density = 1.757845 g / cm^3
# Si number density = 17.618548 Si / 1000 Ang^3
#
#
#
# Elastic Constant Matrix: (Units=GPa)
#
#
# Indices 1 2 3 4 5 6 
#
# 1 102.3393 27.1504 11.2854 0.0000 3.4732 0.0000
# 2 27.1504 71.3006 19.7719 0.0000 2.3029 0.0000
# 3 11.2854 19.7719 85.7263 0.0000 -2.5363 0.0000
# 4 0.0000 0.0000 0.0000 15.2174 0.0000 -1.5266
# 5 3.4732 2.3029 -2.5363 0.0000 26.1318 0.0000
# 6 0.0000 0.0000 0.0000 -1.5266 0.0000 21.0310
#
#
#
# Elastic Compliance Matrix: (Units=1/GPa)
#
#
# Indices 1 2 3 4 5 6 
#
# 1 0.010925 -0.003968 -0.000557 0.000000 -0.001156 0.000000
# 2 -0.003968 0.016497 -0.003319 0.000000 -0.001249 0.000000
# 3 -0.000557 -0.003319 0.012551 0.000000 0.001585 0.000000
# 4 0.000000 0.000000 0.000000 0.066196 0.000000 0.004805
# 5 -0.001156 -0.001249 0.001585 0.000000 0.038685 0.000000
# 6 0.000000 0.000000 0.000000 0.004805 0.000000 0.047898
#
#
# Mechanical properties :
#
#
# Convention : Reuss Voigt Hill
#
# Bulk Modulus (GPa) = 41.18089 41.75352 41.46720
# Shear Modulus (GPa) = 23.09087 25.88660 24.48874
#
# Velocity S-wave (km/s) = 3.62415 3.83728 3.73224
# Velocity P-wave (km/s) = 6.39820 6.58658 6.49307
#
# Compressibility (1/GPa) = 0.02428311
#
# Stress axis : x y z
#
# Youngs Moduli (GPa) = 91.53442 60.61722 79.67582
#
# Poissons Ratio (x) = 0.24054 0.04440
# Poissons Ratio (y) = 0.36322 0.26448
# Poissons Ratio (z) = 0.05100 0.20121
#
# Static dielectric constant tensor:
#      x y z
#    x 3.248740 0.000000 -0.034220 
#    y 0.000000 2.995480 0.000000 
#    z -0.034220 0.000000 3.463140 
# 
# 
# High freq. dielectric constant tensor:
#      x y z
#    x 1.684000 0.000000 -0.001340 
#    y 0.000000 1.635260 0.000000 
#    z -0.001340 0.000000 1.702320 
# 
# From -- ./inp_files/30889.got.cif
#   From: 2010.06.25/outbox.cif.g09.slc.cpg/sg15_16_cif.got.tgz:30889.got - 2010.06.28 07:06:18.
