data_PCOD8131837
_publ_section_title
;
Structure prediction by ZEFSAII (Michael W. Deem and Ramdas Pophale) SiO2 
 PCOD8131837
Probable space group: C 2/C
;
_chemical_formula_sum "Si O2"
_cell_formula_units_Z 60
_cell_length_a 11.293817
_cell_length_b 15.604390
_cell_length_c 21.362948
_cell_angle_alpha 90.000000
_cell_angle_beta 55.391757
_cell_angle_gamma 90.000000
_cell_volume 3098.684837
_symmetry_space_group_name_H-M "C 2/C"
_symmetry_group_IT_number 15
_symmetry_cell_setting 'monoclinic'
loop_
_space_group_symop_operation_xyz
x,y,z
-x,y,1/2-z
-x,-y,-z
x,-y,1/2+z
1/2+x,1/2+y,z
1/2-x,1/2+y,1/2-z
1/2-x,1/2-y,-z
1/2+x,1/2-y,1/2+z
loop_
_atom_site_type_symbol
_atom_site_label
_atom_site_fract_x
_atom_site_fract_y
_atom_site_fract_z
Si Si1 0.522959 0.527493 0.677472
Si Si2 0.779327 0.088730 0.210592
Si Si3 0.500000 0.008065 0.250000
Si Si4 0.327148 0.526957 0.988248
Si Si5 0.027176 0.131512 0.450567
Si Si6 0.122724 0.701491 0.502895
Si Si7 0.021902 0.541091 0.603396
Si Si8 0.276343 0.914608 0.639518
O O1 0.500000 0.581625 0.750000
O O2 0.366580 0.499819 0.698681
O O3 0.612521 0.571916 0.593997
O O4 0.617307 0.444553 0.668478
O O5 0.883227 0.150050 0.139749
O O6 0.733021 0.132639 0.290032
O O7 0.640190 0.067381 0.211172
O O8 0.487764 0.953011 0.317859
O O9 0.393334 0.431544 0.976539
O O10 0.365965 0.588281 0.032884
O O11 0.156359 0.515275 0.038032
O O12 0.980836 0.223212 0.490540
O O13 0.250000 0.750000 0.500000
O O14 0.036918 0.638154 0.574853
O O15 0.172485 0.652630 0.426490
O O16 0.882721 0.496335 0.614641
#
# Coordination Sequence:
#
# PCOD8131837 Si02
#       8
#     8   8   4   8   8   8   8   8
#     4   9  17  31  55  87 107 148 199 240 284 347
#     4   9  18  35  59  84 115 154 198 237 294 360
#     4  10  20  36  62  92 110 152 206 250 280 354
#     4  10  18  34  61  82 112 159 195 231 286 359
#     4  10  20  35  57  87 117 153 196 239 292 354
#     4  12  22  37  56  91 121 148 196 251 296 343
#     4  11  21  38  62  88 118 153 199 244 294 350
#     4  10  21  36  61  84 119 156 198 242 296 354
#
# _framework density 19.363054000000002
#
# number of rings (size 3 to 8) (size 9 to 14) (size 15 to 20)
#    0.000    1.867    4.000    1.200    0.000    0.000 
#    2.400    0.667    0.000    0.000    1.733    0.000 
#    0.000    0.000    0.000    0.000    0.000    0.000 
#
# Total GULP energy -371733.390590 kJ/mol
# GULP energy per Si atom -12391.113020 kJ/mol
# Density = 1.931898 g / cm^3
# Si number density = 19.363054 Si / 1000 Ang^3
#
#
#
# Elastic Constant Matrix: (Units=GPa)
#
#
# Indices 1 2 3 4 5 6 
#
# 1 90.3343 28.2500 26.5963 0.0000 -5.8530 0.0000
# 2 28.2500 80.9226 38.9442 0.0000 5.2405 0.0000
# 3 26.5963 38.9442 130.3954 0.0000 16.5228 0.0000
# 4 0.0000 0.0000 0.0000 20.3519 0.0000 -0.9326
# 5 -5.8530 5.2405 16.5228 0.0000 38.7624 0.0000
# 6 0.0000 0.0000 0.0000 -0.9326 0.0000 15.2680
#
#
#
# Elastic Compliance Matrix: (Units=1/GPa)
#
#
# Indices 1 2 3 4 5 6 
#
# 1 0.013056 -0.003841 -0.001936 0.000000 0.003316 0.000000
# 2 -0.003841 0.015562 -0.003726 0.000000 -0.001096 0.000000
# 3 -0.001936 -0.003726 0.009672 0.000000 -0.003912 0.000000
# 4 0.000000 0.000000 0.000000 0.049273 0.000000 0.003010
# 5 0.003316 -0.001096 -0.003912 0.000000 0.028114 0.000000
# 6 0.000000 0.000000 0.000000 0.003010 0.000000 0.065680
#
#
# Mechanical properties :
#
#
# Convention : Reuss Voigt Hill
#
# Bulk Modulus (GPa) = 51.85251 54.35925 53.10588
# Shear Modulus (GPa) = 24.17890 28.73391 26.45640
#
# Velocity S-wave (km/s) = 3.53755 3.85639 3.70041
# Velocity P-wave (km/s) = 6.59719 6.92558 6.76338
#
# Compressibility (1/GPa) = 0.01928547
#
# Stress axis : x y z
#
# Youngs Moduli (GPa) = 76.59317 64.25814 103.38903
#
# Poissons Ratio (x) = 0.24681 0.20017
# Poissons Ratio (y) = 0.29418 0.38519
# Poissons Ratio (z) = 0.14829 0.23940
#
# Static dielectric constant tensor:
#      x y z
#    x 3.703910 0.000000 0.139270 
#    y 0.000000 3.109740 0.000000 
#    z 0.139270 0.000000 4.102930 
# 
# 
# High freq. dielectric constant tensor:
#      x y z
#    x 1.768730 0.000000 0.003420 
#    y 0.000000 1.680090 0.000000 
#    z 0.003420 0.000000 1.786790 
# 
# From -- ./inp_files/197862.got.cif
#   From: 2010.06.25/outbox.cif.g09.slc.cpg/sg15_99_cif.got.tgz:197862.got - 2010.06.28 07:06:18.
