data_PCOD8131546
_publ_section_title
;
Structure prediction by ZEFSAII (Michael W. Deem and Ramdas Pophale) SiO2 
 PCOD8131546
Probable space group: C 2/C
;
_chemical_formula_sum "Si O2"
_cell_formula_units_Z 48
_cell_length_a 15.520312
_cell_length_b 12.227978
_cell_length_c 23.220600
_cell_angle_alpha 90.000000
_cell_angle_beta 147.642390
_cell_angle_gamma 90.000000
_cell_volume 2358.556271
_symmetry_space_group_name_H-M "C 2/C"
_symmetry_group_IT_number 15
_symmetry_cell_setting 'monoclinic'
loop_
_space_group_symop_operation_xyz
x,y,z
-x,y,1/2-z
-x,-y,-z
x,-y,1/2+z
1/2+x,1/2+y,z
1/2-x,1/2+y,1/2-z
1/2-x,1/2-y,-z
1/2+x,1/2-y,1/2+z
loop_
_atom_site_type_symbol
_atom_site_label
_atom_site_fract_x
_atom_site_fract_y
_atom_site_fract_z
Si Si1 0.677946 0.552667 0.545779
Si Si2 0.166641 0.419033 0.658198
Si Si3 0.135845 0.647110 0.945048
Si Si4 0.132906 0.267977 0.280024
Si Si5 0.932978 0.640701 0.936379
Si Si6 0.176069 0.883424 0.639440
O O1 0.776690 0.548889 0.540987
O O2 0.729217 0.657604 0.613357
O O3 0.716034 0.440576 0.601055
O O4 0.488158 0.565360 0.426966
O O5 0.306362 0.343748 0.712318
O O6 0.190201 0.544937 0.651769
O O7 0.178159 0.409449 0.734104
O O8 0.993654 0.376374 0.536478
O O9 0.954713 0.662948 0.819196
O O10 0.100196 0.628126 0.992475
O O11 0.250000 0.750000 0.000000
O O12 0.000000 0.230817 0.250000
O O13 0.839779 0.754060 0.878285
#
# Coordination Sequence:
#
# PCOD8131546 Si02
#       6
#     8   8   8   8   8   8
#     4  10  21  34  58  88 115 147 199 245 300 349
#     4  11  22  35  55  85 118 158 193 250 304 358
#     4  11  18  35  57  88 116 147 195 254 295 344
#     4  10  18  33  58  83 113 147 198 250 296 341
#     4  11  22  36  57  85 122 154 200 247 303 356
#     4  11  21  36  57  87 120 157 195 247 300 363
#
# _framework density 20.351434000000001
#
# number of rings (size 3 to 8) (size 9 to 14) (size 15 to 20)
#    0.000    1.333    5.000    2.000    0.000    0.000 
#    0.000    0.000    0.000    9.000    0.000    0.000 
#    0.000    0.000    0.000    0.000    0.000    0.000 
#
# Total GULP energy -297470.778099 kJ/mol
# GULP energy per Si atom -12394.615754 kJ/mol
# Density = 2.030511 g / cm^3
# Si number density = 20.351434 Si / 1000 Ang^3
#
#
#
# Elastic Constant Matrix: (Units=GPa)
#
#
# Indices 1 2 3 4 5 6 
#
# 1 61.1105 37.0622 10.5946 0.0002 -0.3302 0.0000
# 2 37.0622 121.4296 19.0711 0.0007 -8.5122 0.0001
# 3 10.5946 19.0711 87.4919 0.0032 -22.9107 0.0006
# 4 0.0002 0.0007 0.0032 20.9178 0.0005 3.9205
# 5 -0.3302 -8.5122 -22.9107 0.0005 29.4332 0.0000
# 6 0.0000 0.0001 0.0006 3.9205 0.0000 35.6442
#
#
#
# Elastic Compliance Matrix: (Units=1/GPa)
#
#
# Indices 1 2 3 4 5 6 
#
# 1 0.020405 -0.006138 -0.001931 0.000000 -0.003050 0.000000
# 2 -0.006138 0.010412 -0.000949 0.000000 0.002203 0.000000
# 3 -0.001931 -0.000949 0.014812 -0.000003 0.011233 0.000000
# 4 0.000000 0.000000 -0.000003 0.048812 -0.000003 -0.005369
# 5 -0.003050 0.002203 0.011233 -0.000003 0.043322 0.000000
# 6 0.000000 0.000000 0.000000 -0.005369 0.000000 0.028646
#
#
# Mechanical properties :
#
#
# Convention : Reuss Voigt Hill
#
# Bulk Modulus (GPa) = 36.24374 44.83197 40.53785
# Shear Modulus (GPa) = 25.82045 30.75265 28.28655
#
# Velocity S-wave (km/s) = 3.56579 3.89148 3.73219
# Velocity P-wave (km/s) = 5.89921 6.50140 6.20761
#
# Compressibility (1/GPa) = 0.02759097
#
# Stress axis : x y z
#
# Youngs Moduli (GPa) = 49.00776 96.04030 67.51263
#
# Poissons Ratio (x) = 0.58953 0.13040
# Poissons Ratio (y) = 0.30083 0.06409
# Poissons Ratio (z) = 0.09466 0.09117
#
# Static dielectric constant tensor:
#      x y z
#    x 3.781350 0.000000 -0.432370 
#    y 0.000000 3.664600 0.000000 
#    z -0.432370 0.000000 4.128930 
# 
# 
# High freq. dielectric constant tensor:
#      x y z
#    x 1.765750 0.000000 -0.027500 
#    y 0.000000 1.785790 0.000000 
#    z -0.027500 0.000000 1.806300 
# 
# From -- ./inp_files/151842.got.cif
#   From: 2010.06.25/outbox.cif.g09.slc.cpg/sg15_76_cif.got.tgz:151842.got - 2010.06.28 07:06:18.
