data_PCOD8131302
_publ_section_title
;
Structure prediction by ZEFSAII (Michael W. Deem and Ramdas Pophale) SiO2 
 PCOD8131302
Probable space group: C 2/C
;
_chemical_formula_sum "Si O2"
_cell_formula_units_Z 64
_cell_length_a 9.218690
_cell_length_b 14.916145
_cell_length_c 25.805504
_cell_angle_alpha 90.000000
_cell_angle_beta 109.775602
_cell_angle_gamma 90.000000
_cell_volume 3339.175773
_symmetry_space_group_name_H-M "C 2/C"
_symmetry_group_IT_number 15
_symmetry_cell_setting 'monoclinic'
loop_
_space_group_symop_operation_xyz
x,y,z
-x,y,1/2-z
-x,-y,-z
x,-y,1/2+z
1/2+x,1/2+y,z
1/2-x,1/2+y,1/2-z
1/2-x,1/2-y,-z
1/2+x,1/2-y,1/2+z
loop_
_atom_site_type_symbol
_atom_site_label
_atom_site_fract_x
_atom_site_fract_y
_atom_site_fract_z
Si Si1 0.163155 0.846757 0.079236
Si Si2 0.860553 0.088533 0.032394
Si Si3 0.749654 0.158232 0.123704
Si Si4 0.352145 0.353970 0.104066
Si Si5 0.677681 0.529945 0.122013
Si Si6 0.531938 0.511301 0.312971
Si Si7 0.641581 0.064160 0.501899
Si Si8 0.914745 0.343892 0.611655
O O1 0.263183 0.765671 0.116021
O O2 0.990592 0.856045 0.079697
O O3 0.244731 0.938761 0.105359
O O4 0.148738 0.838602 0.014935
O O5 0.747691 0.116809 0.065782
O O6 0.034772 0.073184 0.072782
O O7 0.790505 0.994922 0.003316
O O8 0.884540 0.108644 0.171932
O O9 0.597417 0.143106 0.139806
O O10 0.370959 0.428254 0.151514
O O11 0.351406 0.252214 0.123578
O O12 0.188989 0.376106 0.057277
O O13 0.629140 0.516238 0.175768
O O14 0.826666 0.591899 0.140067
O O15 0.500000 0.488819 0.250000
O O16 0.613479 0.134158 0.452276
O O17 0.500000 0.000000 0.500000
#
# Coordination Sequence:
#
# PCOD8131302 Si02
#       8
#     8   8   8   8   8   8   8   8
#     4  10  18  32  56  77 113 153 181 224 271 331
#     4  11  18  33  51  80 120 161 189 210 263 343
#     4  10  21  36  53  85 114 146 192 230 276 339
#     4  10  21  37  54  83 114 150 197 227 276 343
#     4  10  20  36  56  81 111 146 193 224 273 338
#     4  10  21  44  65  75 102 148 191 242 290 336
#     4  12  19  32  52  84 125 162 184 222 277 330
#     4  11  21  34  57  87 119 149 179 234 280 334
#
# _framework density 19.166405999999998
#
# number of rings (size 3 to 8) (size 9 to 14) (size 15 to 20)
#    0.000    1.500    6.250    1.875    0.000    1.000 
#    4.500    4.375    0.000    0.000    0.000    0.000 
#    0.000    0.000    0.000    0.000    0.000    0.000 
#
# Total GULP energy -396495.263428 kJ/mol
# GULP energy per Si atom -12390.476982 kJ/mol
# Density = 1.912278 g / cm^3
# Si number density = 19.166406 Si / 1000 Ang^3
#
#
#
# Elastic Constant Matrix: (Units=GPa)
#
#
# Indices 1 2 3 4 5 6 
#
# 1 53.1821 30.2243 14.8250 0.0000 -9.2468 0.0000
# 2 30.2243 115.4785 21.0230 0.0000 -3.0741 0.0000
# 3 14.8250 21.0230 79.3576 0.0000 -17.0378 0.0000
# 4 0.0000 0.0000 0.0000 16.5431 0.0000 -1.6376
# 5 -9.2468 -3.0741 -17.0378 0.0000 16.5633 0.0000
# 6 0.0000 0.0000 0.0000 -1.6376 0.0000 33.2886
#
#
#
# Elastic Compliance Matrix: (Units=1/GPa)
#
#
# Indices 1 2 3 4 5 6 
#
# 1 0.024430 -0.006004 -0.000365 0.000000 0.012149 0.000000
# 2 -0.006004 0.010587 -0.002542 0.000000 -0.004002 0.000000
# 3 -0.000365 -0.002542 0.016939 0.000000 0.016748 0.000000
# 4 0.000000 0.000000 0.000000 0.060744 0.000000 0.002988
# 5 0.012149 -0.004002 0.016748 0.000000 0.083642 0.000000
# 6 0.000000 0.000000 0.000000 0.002988 0.000000 0.030187
#
#
# Mechanical properties :
#
#
# Convention : Reuss Voigt Hill
#
# Bulk Modulus (GPa) = 29.29730 42.24030 35.76880
# Shear Modulus (GPa) = 19.55191 25.40871 22.48031
#
# Velocity S-wave (km/s) = 3.19739 3.64495 3.42848
# Velocity P-wave (km/s) = 5.38052 6.30879 5.86305
#
# Compressibility (1/GPa) = 0.03413283
#
# Stress axis : x y z
#
# Youngs Moduli (GPa) = 40.93394 94.45202 59.03659
#
# Poissons Ratio (x) = 0.56710 0.02154
# Poissons Ratio (y) = 0.24577 0.15009
# Poissons Ratio (z) = 0.01494 0.24013
#
# Static dielectric constant tensor:
#      x y z
#    x 3.498270 0.000000 -0.108760 
#    y 0.000000 4.111300 0.000000 
#    z -0.108760 0.000000 3.060430 
# 
# 
# High freq. dielectric constant tensor:
#      x y z
#    x 1.742150 0.000000 -0.012000 
#    y 0.000000 1.758070 0.000000 
#    z -0.012000 0.000000 1.695080 
# 
# From -- ./inp_files/288810.got.cif
#   From: 2010.06.25/outbox.cif.g09.slc.cpg/sg15_145_cif.got.tgz:288810.got - 2010.06.28 07:06:18.
