data_PCOD8131978
_publ_section_title
;
Structure prediction by ZEFSAII (Michael W. Deem and Ramdas Pophale) SiO2 
 PCOD8131978
Probable space group: C 2/C
;
_chemical_formula_sum "Si O2"
_cell_formula_units_Z 48
_cell_length_a 15.841270
_cell_length_b 9.710415
_cell_length_c 18.052121
_cell_angle_alpha 90.000000
_cell_angle_beta 113.346181
_cell_angle_gamma 90.000000
_cell_volume 2549.522855
_symmetry_space_group_name_H-M "C 2/C"
_symmetry_group_IT_number 15
_symmetry_cell_setting 'monoclinic'
loop_
_space_group_symop_operation_xyz
x,y,z
-x,y,1/2-z
-x,-y,-z
x,-y,1/2+z
1/2+x,1/2+y,z
1/2-x,1/2+y,1/2-z
1/2-x,1/2-y,-z
1/2+x,1/2-y,1/2+z
loop_
_atom_site_type_symbol
_atom_site_label
_atom_site_fract_x
_atom_site_fract_y
_atom_site_fract_z
Si Si1 0.059042 0.791843 0.706539
Si Si2 0.782197 0.005967 0.747133
Si Si3 0.854799 0.538350 0.683910
Si Si4 0.410264 0.258032 0.255930
Si Si5 0.942326 0.375174 0.068917
Si Si6 0.900956 0.601036 0.392460
O O1 0.083637 0.639282 0.744677
O O2 0.000000 0.868883 0.750000
O O3 0.994264 0.765208 0.612465
O O4 0.147852 0.879850 0.717116
O O5 0.748732 0.047730 0.818685
O O6 0.827507 0.133598 0.720111
O O7 0.696152 0.961388 0.667298
O O8 0.889085 0.382338 0.705076
O O9 0.863310 0.581244 0.600938
O O10 0.500000 0.325553 0.250000
O O11 0.426548 0.229778 0.348866
O O12 0.017465 0.493002 0.085646
O O13 0.891222 0.346979 0.973547
#
# Coordination Sequence:
#
# PCOD8131978 Si02
#       6
#     8   8   8   8   8   8
#     4  10  19  37  57  80 108 151 185 219 267 332
#     4  11  22  33  56  87 114 136 182 234 275 316
#     4  10  18  35  58  78 103 148 192 215 258 331
#     4  11  19  36  56  83 109 145 181 225 275 327
#     4  10  19  37  58  81 106 148 187 224 262 327
#     4  10  21  35  57  84 109 141 186 230 267 314
#
# _framework density 18.827051999999998
#
# number of rings (size 3 to 8) (size 9 to 14) (size 15 to 20)
#    0.000    1.667    5.000    3.000    0.000    0.000 
#    0.000   10.833    0.000    0.000    0.000    0.000 
#    0.000    0.000    0.000    0.000    0.000    0.000 
#
# Total GULP energy -297438.494254 kJ/mol
# GULP energy per Si atom -12393.270594 kJ/mol
# Density = 1.878420 g / cm^3
# Si number density = 18.827052 Si / 1000 Ang^3
#
#
#
# Elastic Constant Matrix: (Units=GPa)
#
#
# Indices 1 2 3 4 5 6 
#
# 1 156.0819 41.1505 57.9459 0.0000 -13.2204 0.0000
# 2 41.1505 66.6172 29.2315 0.0000 -0.4325 0.0000
# 3 57.9459 29.2315 130.2318 0.0000 -24.0644 0.0000
# 4 0.0000 0.0000 0.0000 12.2744 0.0000 3.0444
# 5 -13.2204 -0.4325 -24.0644 0.0000 26.4754 0.0000
# 6 0.0000 0.0000 0.0000 3.0444 0.0000 30.8723
#
#
#
# Elastic Compliance Matrix: (Units=1/GPa)
#
#
# Indices 1 2 3 4 5 6 
#
# 1 0.008619 -0.004199 -0.002536 0.000000 0.001930 0.000000
# 2 -0.004199 0.019013 -0.003280 0.000000 -0.004768 0.000000
# 3 -0.002536 -0.003280 0.011176 0.000000 0.008839 0.000000
# 4 0.000000 0.000000 0.000000 0.083513 0.000000 -0.008235
# 5 0.001930 -0.004768 0.008839 0.000000 0.046691 0.000000
# 6 0.000000 0.000000 0.000000 -0.008235 0.000000 0.033204
#
#
# Mechanical properties :
#
#
# Convention : Reuss Voigt Hill
#
# Bulk Modulus (GPa) = 53.25204 67.73185 60.49195
# Shear Modulus (GPa) = 21.88132 28.89796 25.38964
#
# Velocity S-wave (km/s) = 3.41284 3.92205 3.67627
# Velocity P-wave (km/s) = 6.62392 7.52090 7.08661
#
# Compressibility (1/GPa) = 0.01877862
#
# Stress axis : x y z
#
# Youngs Moduli (GPa) = 116.02560 52.59483 89.47365
#
# Poissons Ratio (x) = 0.22083 0.22688
# Poissons Ratio (y) = 0.48716 0.29351
# Poissons Ratio (z) = 0.29421 0.17254
#
# Static dielectric constant tensor:
#      x y z
#    x 3.894420 0.000000 -0.354960 
#    y 0.000000 3.279310 0.000000 
#    z -0.354960 0.000000 3.515890 
# 
# 
# High freq. dielectric constant tensor:
#      x y z
#    x 1.752150 0.000000 -0.016980 
#    y 0.000000 1.718800 0.000000 
#    z -0.016980 0.000000 1.698730 
# 
# From -- ./inp_files/242585.got.cif
#   From: 2010.06.25/outbox.cif.g09.slc.cpg/sg15_122_cif.got.tgz:242585.got - 2010.06.28 07:06:18.
