data_PCOD8131242
_publ_section_title
;
Structure prediction by ZEFSAII (Michael W. Deem and Ramdas Pophale) SiO2 
 PCOD8131242
Probable space group: C 2/C
;
_chemical_formula_sum "Si O2"
_cell_formula_units_Z 56
_cell_length_a 13.422926
_cell_length_b 25.784532
_cell_length_c 8.177065
_cell_angle_alpha 90.000000
_cell_angle_beta 105.054698
_cell_angle_gamma 90.000000
_cell_volume 2732.979489
_symmetry_space_group_name_H-M "C 2/C"
_symmetry_group_IT_number 15
_symmetry_cell_setting 'monoclinic'
loop_
_space_group_symop_operation_xyz
x,y,z
-x,y,1/2-z
-x,-y,-z
x,-y,1/2+z
1/2+x,1/2+y,z
1/2-x,1/2+y,1/2-z
1/2-x,1/2-y,-z
1/2+x,1/2-y,1/2+z
loop_
_atom_site_type_symbol
_atom_site_label
_atom_site_fract_x
_atom_site_fract_y
_atom_site_fract_z
Si Si1 0.684331 0.120904 0.134942
Si Si2 0.378411 0.561333 0.688867
Si Si3 0.348942 0.782610 0.086680
Si Si4 0.064678 0.734823 0.533047
Si Si5 0.632235 0.347230 0.551199
Si Si6 0.684946 0.541741 0.475772
Si Si7 0.000000 0.102008 0.250000
Si Si8 0.000000 0.654427 0.250000
O O1 0.769836 0.145592 0.290331
O O2 0.576433 0.116271 0.185152
O O3 0.668147 0.158763 0.975588
O O4 0.712779 0.065207 0.067547
O O5 0.500000 0.549065 0.750000
O O6 0.358119 0.618161 0.607251
O O7 0.323094 0.558045 0.839717
O O8 0.321670 0.520416 0.543752
O O9 0.366068 0.784736 0.287455
O O10 0.446380 0.756540 0.037077
O O11 0.250000 0.750000 0.000000
O O12 0.115374 0.788017 0.487390
O O13 0.069822 0.691408 0.394768
O O14 0.529311 0.362656 0.607859
O O15 0.592714 0.564775 0.332103
#
# Coordination Sequence:
#
# PCOD8131242 Si02
#       8
#     8   8   8   8   8   8   4   4
#     4  10  23  41  63  87 120 173 215 275 316 380
#     4  12  23  38  60  96 134 169 203 259 324 409
#     4  10  19  38  60  88 127 172 218 258 322 375
#     4  10  22  37  60  89 131 169 215 268 316 393
#     4  11  22  35  58  94 128 168 206 257 322 385
#     4  11  22  38  60  86 125 166 208 254 322 381
#     4  10  18  32  53  80 124 158 203 238 306 376
#     4  10  24  44  59  88 128 166 229 274 324 372
#
# _framework density 20.490458
#
# number of rings (size 3 to 8) (size 9 to 14) (size 15 to 20)
#    0.000    1.429    3.571    3.000    3.000    1.714 
#    2.571    0.000    0.000    3.429    0.000    2.000 
#    0.000    0.000    0.000    0.000    0.000    0.000 
#
# Total GULP energy -347230.341855 kJ/mol
# GULP energy per Si atom -12401.083638 kJ/mol
# Density = 2.044382 g / cm^3
# Si number density = 20.490458 Si / 1000 Ang^3
#
#
#
# Elastic Constant Matrix: (Units=GPa)
#
#
# Indices 1 2 3 4 5 6 
#
# 1 90.8848 43.0372 40.4058 0.0000 -8.4165 0.0000
# 2 43.0372 94.7737 43.7482 0.0000 -6.3824 0.0000
# 3 40.4058 43.7482 121.0507 0.0000 -9.8399 0.0000
# 4 0.0000 0.0000 0.0000 30.8949 0.0000 -0.6358
# 5 -8.4165 -6.3824 -9.8399 0.0000 33.3017 0.0000
# 6 0.0000 0.0000 0.0000 -0.6358 0.0000 22.3367
#
#
#
# Elastic Compliance Matrix: (Units=1/GPa)
#
#
# Indices 1 2 3 4 5 6 
#
# 1 0.015007 -0.005336 -0.002926 0.000000 0.001906 0.000000
# 2 -0.005336 0.014601 -0.003461 0.000000 0.000427 0.000000
# 3 -0.002926 -0.003461 0.010630 0.000000 0.001738 0.000000
# 4 0.000000 0.000000 0.000000 0.032387 0.000000 0.000922
# 5 0.001906 0.000427 0.001738 0.000000 0.031106 0.000000
# 6 0.000000 0.000000 0.000000 0.000922 0.000000 0.044796
#
#
# Mechanical properties :
#
#
# Convention : Reuss Voigt Hill
#
# Bulk Modulus (GPa) = 59.55194 62.34353 60.94773
# Shear Modulus (GPa) = 28.15818 29.27453 28.71636
#
# Velocity S-wave (km/s) = 3.71105 3.78390 3.74766
# Velocity P-wave (km/s) = 6.89122 7.04147 6.96675
#
# Compressibility (1/GPa) = 0.01679206
#
# Stress axis : x y z
#
# Youngs Moduli (GPa) = 66.63605 68.48911 94.07543
#
# Poissons Ratio (x) = 0.36544 0.27526
# Poissons Ratio (y) = 0.35555 0.32560
# Poissons Ratio (z) = 0.19497 0.23704
#
# Static dielectric constant tensor:
#      x y z
#    x 3.749910 0.000000 -0.030180 
#    y 0.000000 3.733540 0.000000 
#    z -0.030180 0.000000 3.830610 
# 
# 
# High freq. dielectric constant tensor:
#      x y z
#    x 1.788130 0.000000 -0.007040 
#    y 0.000000 1.787140 0.000000 
#    z -0.007040 0.000000 1.808390 
# 
# From -- ./inp_files/42298.got.cif
#   From: 2010.06.25/outbox.cif.g09.slc.cpg/sg15_22_cif.got.tgz:42298.got - 2010.06.28 07:06:18.
