data_PCOD8131325
_publ_section_title
;
Structure prediction by ZEFSAII (Michael W. Deem and Ramdas Pophale) SiO2 
 PCOD8131325
Probable space group: C 2/C
;
_chemical_formula_sum "Si O2"
_cell_formula_units_Z 48
_cell_length_a 16.769070
_cell_length_b 8.046515
_cell_length_c 18.736690
_cell_angle_alpha 90.000000
_cell_angle_beta 89.579617
_cell_angle_gamma 90.000000
_cell_volume 2528.121747
_symmetry_space_group_name_H-M "C 2/C"
_symmetry_group_IT_number 15
_symmetry_cell_setting 'monoclinic'
loop_
_space_group_symop_operation_xyz
x,y,z
-x,y,1/2-z
-x,-y,-z
x,-y,1/2+z
1/2+x,1/2+y,z
1/2-x,1/2+y,1/2-z
1/2-x,1/2-y,-z
1/2+x,1/2-y,1/2+z
loop_
_atom_site_type_symbol
_atom_site_label
_atom_site_fract_x
_atom_site_fract_y
_atom_site_fract_z
Si Si1 0.097931 0.955752 0.676857
Si Si2 0.169998 0.368396 0.803769
Si Si3 0.284006 0.549227 0.072117
Si Si4 0.814940 0.363581 0.315176
Si Si5 0.422172 0.563329 0.667140
Si Si6 0.258940 0.426591 0.411849
O O1 0.113516 0.760056 0.661419
O O2 0.106546 0.968936 0.761877
O O3 0.162647 0.072025 0.638100
O O4 0.013101 0.019031 0.648905
O O5 0.154311 0.502322 0.742102
O O6 0.242580 0.244323 0.781279
O O7 0.089778 0.260953 0.817889
O O8 0.191251 0.457313 0.877988
O O9 0.213299 0.454856 0.113167
O O10 0.369936 0.494473 0.100707
O O11 0.275937 0.744168 0.082988
O O12 0.279974 0.500554 0.989278
#
# Coordination Sequence:
#
# PCOD8131325 Si02
#       6
#     8   8   8   8   8   8
#     4  10  21  36  53  77 108 138 174 217 265 314
#     4  10  18  32  57  81 105 136 178 222 261 311
#     4  10  20  35  55  78 105 139 179 218 259 312
#     4  10  18  32  57  81 105 136 178 222 261 311
#     4  10  21  36  53  77 108 138 174 217 265 314
#     4  10  20  35  55  78 105 139 179 218 259 312
#
# _framework density 18.986426999999999
#
# number of rings (size 3 to 8) (size 9 to 14) (size 15 to 20)
#    0.000    2.000    0.000    7.000    0.000    6.667 
#    0.000   11.667    0.000    4.000    0.000    0.000 
#    0.000    0.000    0.000    0.000    0.000    0.000 
#
# Total GULP energy -297597.263613 kJ/mol
# GULP energy per Si atom -12399.885984 kJ/mol
# Density = 1.894321 g / cm^3
# Si number density = 18.986427 Si / 1000 Ang^3
#
#
#
# Elastic Constant Matrix: (Units=GPa)
#
#
# Indices 1 2 3 4 5 6 
#
# 1 81.7591 36.6321 15.9629 0.0000 8.7483 0.0000
# 2 36.6321 92.4579 4.0802 0.0000 6.0919 0.0000
# 3 15.9629 4.0802 50.7915 0.0000 -0.5589 0.0000
# 4 0.0000 0.0000 0.0000 32.7800 0.0000 -0.9736
# 5 8.7483 6.0919 -0.5589 0.0000 11.8899 0.0000
# 6 0.0000 0.0000 0.0000 -0.9736 0.0000 31.1200
#
#
#
# Elastic Compliance Matrix: (Units=1/GPa)
#
#
# Indices 1 2 3 4 5 6 
#
# 1 0.016830 -0.005816 -0.004928 0.000000 -0.009635 0.000000
# 2 -0.005816 0.013251 0.000736 0.000000 -0.002475 0.000000
# 3 -0.004928 0.000736 0.021225 0.000000 0.004247 0.000000
# 4 0.000000 0.000000 0.000000 0.030535 0.000000 0.000955
# 5 -0.009635 -0.002475 0.004247 0.000000 0.092662 0.000000
# 6 0.000000 0.000000 0.000000 0.000955 0.000000 0.032164
#
#
# Mechanical properties :
#
#
# Convention : Reuss Voigt Hill
#
# Bulk Modulus (GPa) = 31.95949 37.59542 34.77746
# Shear Modulus (GPa) = 21.08717 26.38021 23.73369
#
# Velocity S-wave (km/s) = 3.33625 3.73154 3.53942
# Velocity P-wave (km/s) = 5.63117 6.19759 5.92116
#
# Compressibility (1/GPa) = 0.03128961
#
# Stress axis : x y z
#
# Youngs Moduli (GPa) = 59.41791 75.46849 47.11478
#
# Poissons Ratio (x) = 0.43891 0.23219
# Poissons Ratio (y) = 0.34556 -0.03468
# Poissons Ratio (z) = 0.29282 -0.05555
#
# Static dielectric constant tensor:
#      x y z
#    x 3.277930 0.000000 -0.008790 
#    y 0.000000 3.723850 0.000000 
#    z -0.008790 0.000000 3.519000 
# 
# 
# High freq. dielectric constant tensor:
#      x y z
#    x 1.710160 0.000000 -0.000130 
#    y 0.000000 1.753260 0.000000 
#    z -0.000130 0.000000 1.735550 
# 
# From -- ./inp_files/208705.got.cif
#   From: 2010.06.25/outbox.cif.g09.slc.cpg/sg15_105_cif.got.tgz:208705.got - 2010.06.28 07:06:18.
