data_PCOD8131049
_publ_section_title
;
Structure prediction by ZEFSAII (Michael W. Deem and Ramdas Pophale) SiO2 
 PCOD8131049
Probable space group: C 2/C
;
_chemical_formula_sum "Si O2"
_cell_formula_units_Z 48
_cell_length_a 18.583381
_cell_length_b 13.987375
_cell_length_c 20.735416
_cell_angle_alpha 90.000000
_cell_angle_beta 27.659312
_cell_angle_gamma 90.000000
_cell_volume 2502.022234
_symmetry_space_group_name_H-M "C 2/C"
_symmetry_group_IT_number 15
_symmetry_cell_setting 'monoclinic'
loop_
_space_group_symop_operation_xyz
x,y,z
-x,y,1/2-z
-x,-y,-z
x,-y,1/2+z
1/2+x,1/2+y,z
1/2-x,1/2+y,1/2-z
1/2-x,1/2-y,-z
1/2+x,1/2-y,1/2+z
loop_
_atom_site_type_symbol
_atom_site_label
_atom_site_fract_x
_atom_site_fract_y
_atom_site_fract_z
Si Si1 0.871809 0.174398 0.715939
Si Si2 0.484202 0.066268 0.095510
Si Si3 0.312938 0.280253 0.744046
Si Si4 0.641381 0.521915 0.341797
Si Si5 0.170314 0.273345 0.496544
Si Si6 0.552811 0.864285 0.017840
O O1 0.805286 0.252488 0.719133
O O2 0.803247 0.200707 0.840019
O O3 0.059532 0.183908 0.565717
O O4 0.831507 0.065347 0.729202
O O5 0.303876 0.039361 0.249994
O O6 0.513150 0.116801 0.002496
O O7 0.551218 0.136333 0.097164
O O8 0.583193 0.968166 0.023845
O O9 0.402913 0.379077 0.658086
O O10 0.433042 0.194105 0.657680
O O11 0.209775 0.300824 0.889676
O O12 0.500000 0.500000 0.500000
O O13 0.250000 0.250000 0.500000
#
# Coordination Sequence:
#
# PCOD8131049 Si02
#       6
#     8   8   8   8   8   8
#     4  12  21  37  54  80 119 150 203 243 294 362
#     4  10  19  34  52  75 110 152 193 229 300 352
#     4  11  18  30  52  77 109 141 179 233 305 349
#     4  11  21  31  54  83 112 147 188 252 303 360
#     4  12  24  38  55  78 116 168 202 239 289 360
#     4  10  18  31  51  77 109 145 177 235 295 359
#
# _framework density 19.184481999999999
#
# number of rings (size 3 to 8) (size 9 to 14) (size 15 to 20)
#    0.000    1.000    6.667    4.500    0.000    0.000 
#    0.000    0.000    0.000    0.000    0.000    1.167 
#    0.000    6.000    0.000    0.667    0.000    0.333 
#
# Total GULP energy -297396.264599 kJ/mol
# GULP energy per Si atom -12391.511025 kJ/mol
# Density = 1.914082 g / cm^3
# Si number density = 19.184482 Si / 1000 Ang^3
#
#
#
# Elastic Constant Matrix: (Units=GPa)
#
#
# Indices 1 2 3 4 5 6 
#
# 1 51.4726 28.9561 13.7883 -0.0007 -7.8576 -0.0001
# 2 28.9561 131.6601 30.4921 0.0044 -9.3270 -0.0003
# 3 13.7883 30.4921 102.7463 0.0077 -5.9612 -0.0002
# 4 -0.0007 0.0044 0.0077 43.1454 0.0003 -2.6676
# 5 -7.8576 -9.3270 -5.9612 0.0003 16.2635 -0.0005
# 6 -0.0001 -0.0003 -0.0002 -2.6676 -0.0005 21.8307
#
#
#
# Elastic Compliance Matrix: (Units=1/GPa)
#
#
# Indices 1 2 3 4 5 6 
#
# 1 0.023472 -0.004242 -0.001404 0.000001 0.008393 0.000000
# 2 -0.004242 0.009169 -0.002008 -0.000001 0.002472 0.000000
# 3 -0.001404 -0.002008 0.010637 -0.000002 0.002069 0.000000
# 4 0.000001 -0.000001 -0.000002 0.023354 -0.000001 0.002854
# 5 0.008393 0.002472 0.002069 -0.000001 0.067718 0.000001
# 6 0.000000 0.000000 0.000000 0.002854 0.000001 0.046156
#
#
# Mechanical properties :
#
#
# Convention : Reuss Voigt Hill
#
# Bulk Modulus (GPa) = 35.75479 48.03913 41.89696
# Shear Modulus (GPa) = 24.37394 30.42410 27.39902
#
# Velocity S-wave (km/s) = 3.56828 3.98662 3.78324
# Velocity P-wave (km/s) = 5.97115 6.80337 6.40080
#
# Compressibility (1/GPa) = 0.02796828
#
# Stress axis : x y z
#
# Youngs Moduli (GPa) = 42.60457 109.06786 94.01042
#
# Poissons Ratio (x) = 0.46272 0.13198
# Poissons Ratio (y) = 0.18075 0.18879
# Poissons Ratio (z) = 0.05981 0.21903
#
# Static dielectric constant tensor:
#      x y z
#    x 2.807680 0.000000 -0.111500 
#    y 0.000000 3.953110 0.000000 
#    z -0.111500 0.000000 3.782670 
# 
# 
# High freq. dielectric constant tensor:
#      x y z
#    x 1.646270 0.000000 -0.011230 
#    y 0.000000 1.773730 0.000000 
#    z -0.011230 0.000000 1.771970 
# 
# From -- ./inp_files/248940.got.cif
#   From: 2010.06.25/outbox.cif.g09.slc.cpg/sg15_125_cif.got.tgz:248940.got - 2010.06.28 07:06:18.
