data_PCOD8131355
_publ_section_title
;
Structure prediction by ZEFSAII (Michael W. Deem and Ramdas Pophale) SiO2 
 PCOD8131355
Probable space group: C 2/C
;
_chemical_formula_sum "Si O2"
_cell_formula_units_Z 44
_cell_length_a 26.869026
_cell_length_b 9.147512
_cell_length_c 11.921043
_cell_angle_alpha 90.000000
_cell_angle_beta 44.029500
_cell_angle_gamma 90.000000
_cell_volume 2036.441181
_symmetry_space_group_name_H-M "C 2/C"
_symmetry_group_IT_number 15
_symmetry_cell_setting 'monoclinic'
loop_
_space_group_symop_operation_xyz
x,y,z
-x,y,1/2-z
-x,-y,-z
x,-y,1/2+z
1/2+x,1/2+y,z
1/2-x,1/2+y,1/2-z
1/2-x,1/2-y,-z
1/2+x,1/2-y,1/2+z
loop_
_atom_site_type_symbol
_atom_site_label
_atom_site_fract_x
_atom_site_fract_y
_atom_site_fract_z
Si Si1 0.707360 0.769758 0.429505
Si Si2 0.500000 0.846037 0.250000
Si Si3 0.471976 0.746836 0.537257
Si Si4 0.390330 0.992566 0.790758
Si Si5 0.335013 0.420218 0.312143
Si Si6 0.133415 0.234158 0.313396
O O1 0.694203 0.615612 0.514865
O O2 0.790384 0.821973 0.293176
O O3 0.673838 0.764278 0.362913
O O4 0.672239 0.890993 0.565813
O O5 0.480870 0.745150 0.387912
O O6 0.566901 0.948896 0.170852
O O7 0.418408 0.620745 0.663474
O O8 0.548451 0.712866 0.471308
O O9 0.444178 0.906049 0.621060
O O10 0.353370 0.127092 0.786813
O O11 0.329187 0.593003 0.302582
#
# Coordination Sequence:
#
# PCOD8131355 Si02
#       6
#     8   4   8   8   8   8
#     4  10  23  42  60  85 126 162 194 254 306 350
#     4  10  18  32  58  86 114 152 196 250 292 342
#     4  10  21  38  59  90 123 154 200 251 301 361
#     4  10  20  36  60  89 120 158 203 242 297 365
#     4  10  24  41  59  88 122 157 202 248 304 364
#     4  11  22  38  65  90 116 162 207 244 300 364
#
# _framework density 21.60632
#
# number of rings (size 3 to 8) (size 9 to 14) (size 15 to 20)
#    0.000    1.818    0.000    4.909    0.000   11.636 
#    0.000    0.000    0.000    0.000    0.000    0.000 
#    0.000    0.000    0.000    0.000    0.000    0.000 
#
# Total GULP energy -272779.568086 kJ/mol
# GULP energy per Si atom -12399.071277 kJ/mol
# Density = 2.155714 g / cm^3
# Si number density = 21.606320 Si / 1000 Ang^3
#
#
#
# Elastic Constant Matrix: (Units=GPa)
#
#
# Indices 1 2 3 4 5 6 
#
# 1 145.6117 35.0128 9.7473 0.0000 16.0245 0.0000
# 2 35.0128 125.1965 29.2437 0.0000 9.5936 0.0000
# 3 9.7473 29.2437 29.0247 0.0000 -4.3813 0.0000
# 4 0.0000 0.0000 0.0000 22.0491 0.0000 -3.8063
# 5 16.0245 9.5936 -4.3813 0.0000 31.0353 0.0000
# 6 0.0000 0.0000 0.0000 -3.8063 0.0000 21.9109
#
#
#
# Elastic Compliance Matrix: (Units=1/GPa)
#
#
# Indices 1 2 3 4 5 6 
#
# 1 0.007753 -0.001487 -0.001676 0.000000 -0.003780 0.000000
# 2 -0.001487 0.011487 -0.011745 0.000000 -0.004441 0.000000
# 3 -0.001676 -0.011745 0.048563 0.000000 0.011352 0.000000
# 4 0.000000 0.000000 0.000000 0.046756 0.000000 0.008122
# 5 -0.003780 -0.004441 0.011352 0.000000 0.037148 0.000000
# 6 0.000000 0.000000 0.000000 0.008122 0.000000 0.047050
#
#
# Mechanical properties :
#
#
# Convention : Reuss Voigt Hill
#
# Bulk Modulus (GPa) = 26.32423 49.76004 38.04214
# Shear Modulus (GPa) = 20.72660 30.05433 25.39047
#
# Velocity S-wave (km/s) = 3.10059 3.73365 3.43175
# Velocity P-wave (km/s) = 5.00282 6.45501 5.77475
#
# Compressibility (1/GPa) = 0.03798781
#
# Stress axis : x y z
#
# Youngs Moduli (GPa) = 128.97599 87.05508 20.59181
#
# Poissons Ratio (x) = 0.12947 0.03451
# Poissons Ratio (y) = 0.19181 0.24184
# Poissons Ratio (z) = 0.21617 1.02243
#
# Static dielectric constant tensor:
#      x y z
#    x 4.001510 0.000000 -0.132490 
#    y 0.000000 3.873260 0.000000 
#    z -0.132490 0.000000 3.790140 
# 
# 
# High freq. dielectric constant tensor:
#      x y z
#    x 1.862320 0.000000 -0.011420 
#    y 0.000000 1.847740 0.000000 
#    z -0.011420 0.000000 1.833970 
# 
# From -- ./inp_files/110120.got.cif
#   From: 2010.06.25/outbox.cif.g09.slc.cpg/sg15_56_cif.got.tgz:110120.got - 2010.06.28 07:06:18.
