data_PCOD8131013
_publ_section_title
;
Structure prediction by ZEFSAII (Michael W. Deem and Ramdas Pophale) SiO2 
 PCOD8131013
Probable space group: C 2/C
;
_chemical_formula_sum "Si O2"
_cell_formula_units_Z 56
_cell_length_a 13.111363
_cell_length_b 32.190148
_cell_length_c 5.319697
_cell_angle_alpha 90.000000
_cell_angle_beta 94.978703
_cell_angle_gamma 90.000000
_cell_volume 2236.742708
_symmetry_space_group_name_H-M "C 2/C"
_symmetry_group_IT_number 15
_symmetry_cell_setting 'monoclinic'
loop_
_space_group_symop_operation_xyz
x,y,z
-x,y,1/2-z
-x,-y,-z
x,-y,1/2+z
1/2+x,1/2+y,z
1/2-x,1/2+y,1/2-z
1/2-x,1/2-y,-z
1/2+x,1/2-y,1/2+z
loop_
_atom_site_type_symbol
_atom_site_label
_atom_site_fract_x
_atom_site_fract_y
_atom_site_fract_z
Si Si1 0.151256 0.980779 0.835273
Si Si2 0.817176 0.253018 0.766598
Si Si3 0.088507 0.182566 0.444408
Si Si4 0.620690 0.015486 0.642247
Si Si5 0.810970 0.658768 0.333920
Si Si6 0.408593 0.593831 0.882560
Si Si7 0.689435 0.892199 0.162015
O O1 0.126710 0.932239 0.878299
O O2 0.101340 0.005816 0.060917
O O3 0.271856 0.990065 0.844837
O O4 0.750000 0.250000 0.500000
O O5 0.873478 0.298111 0.798080
O O6 0.750000 0.250000 0.000000
O O7 0.894723 0.213940 0.813835
O O8 0.192042 0.172922 0.309889
O O9 0.047607 0.138555 0.533093
O O10 0.000000 0.202343 0.250000
O O11 0.627822 0.065035 0.657651
O O12 0.561643 0.999897 0.879620
O O13 0.840278 0.636520 0.603787
O O14 0.838153 0.629526 0.105852
O O15 0.500000 0.571247 0.750000
O O16 0.309596 0.597467 0.683552
#
# Coordination Sequence:
#
# PCOD8131013 Si02
#       7
#     8   8   8   8   8   8   8
#     4  10  21  34  46  61  88 126 176 217 265 308
#     4  10  20  39  58  80 103 134 171 221 266 338
#     4  10  22  36  56  79 106 135 175 228 275 315
#     4  10  18  31  47  66  92 124 174 214 264 304
#     4  10  21  34  55  75  98 132 172 215 268 321
#     4  11  22  33  47  68  97 131 175 225 270 307
#     4  11  20  33  51  69  96 128 171 222 259 312
#
# _framework density 25.036408000000002
#
# number of rings (size 3 to 8) (size 9 to 14) (size 15 to 20)
#    0.000    1.714    2.857    4.286    6.000    2.857 
#    0.000    0.000    0.000    0.000    0.000    0.000 
#    0.000    0.000    0.000    0.000    0.000   14.286 
#
# Total GULP energy -346980.971083 kJ/mol
# GULP energy per Si atom -12392.177539 kJ/mol
# Density = 2.497942 g / cm^3
# Si number density = 25.036408 Si / 1000 Ang^3
#
#
#
# Elastic Constant Matrix: (Units=GPa)
#
#
# Indices 1 2 3 4 5 6 
#
# 1 39.6142 48.8266 43.0322 0.0000 -4.5857 0.0000
# 2 48.8266 178.3497 74.3589 0.0000 -10.3022 0.0000
# 3 43.0322 74.3589 199.6058 0.0000 -19.4426 0.0000
# 4 0.0000 0.0000 0.0000 45.5450 0.0000 -12.8734
# 5 -4.5857 -10.3022 -19.4426 0.0000 39.7570 0.0000
# 6 0.0000 0.0000 0.0000 -12.8734 0.0000 -6.7761
#
#
#
# Elastic Compliance Matrix: (Units=1/GPa)
#
#
# Indices 1 2 3 4 5 6 
#
# 1 0.043112 -0.009392 -0.005826 0.000000 -0.000310 0.000000
# 2 -0.009392 0.008695 -0.001155 0.000000 0.000605 0.000000
# 3 -0.005826 -0.001155 0.006932 0.000000 0.002419 0.000000
# 4 0.000000 0.000000 0.000000 0.014285 0.000000 -0.027140
# 5 -0.000310 0.000605 0.002419 0.000000 0.026457 0.000000
# 6 0.000000 0.000000 0.000000 -0.027140 0.000000 -0.096018
#
#
# Mechanical properties :
#
#
# Convention : Reuss Voigt Hill
#
# Bulk Modulus (GPa) = 38.47250 83.33391 60.90321
# Shear Modulus (GPa) = 111.42668 32.46198 71.94433
#
# Velocity S-wave (km/s) = 6.67851 3.60473 5.36640
# Velocity P-wave (km/s) = 8.65274 7.11918 7.92315
#
# Compressibility (1/GPa) = 0.02599259
#
# Stress axis : x y z
#
# Youngs Moduli (GPa) = 23.19552 115.01183 144.26141
#
# Poissons Ratio (x) = 1.08015 0.84045
# Poissons Ratio (y) = 0.21784 0.16669
# Poissons Ratio (z) = 0.13513 0.13289
#
# Static dielectric constant tensor:
#      x y z
#    x 4.276490 0.000000 -0.367690 
#    y 0.000000 5.333120 0.000000 
#    z -0.367690 0.000000 5.442460 
# 
# 
# High freq. dielectric constant tensor:
#      x y z
#    x 1.971430 0.000000 -0.011960 
#    y 0.000000 2.013020 0.000000 
#    z -0.011960 0.000000 2.014960 
# 
# From -- ./inp_files/12053.got.cif
#   From: 2010.06.25/outbox.cif.g09.slc.cpg/sg15_7_cif.got.tgz:12053.got - 2010.06.28 07:06:18.
