data_PCOD8131988
_publ_section_title
;
Structure prediction by ZEFSAII (Michael W. Deem and Ramdas Pophale) SiO2 
 PCOD8131988
Probable space group: C 2/C
;
_chemical_formula_sum "Si O2"
_cell_formula_units_Z 52
_cell_length_a 18.002153
_cell_length_b 10.712791
_cell_length_c 27.826676
_cell_angle_alpha 90.000000
_cell_angle_beta 29.671093
_cell_angle_gamma 90.000000
_cell_volume 2656.510121
_symmetry_space_group_name_H-M "C 2/C"
_symmetry_group_IT_number 15
_symmetry_cell_setting 'monoclinic'
loop_
_space_group_symop_operation_xyz
x,y,z
-x,y,1/2-z
-x,-y,-z
x,-y,1/2+z
1/2+x,1/2+y,z
1/2-x,1/2+y,1/2-z
1/2-x,1/2-y,-z
1/2+x,1/2-y,1/2+z
loop_
_atom_site_type_symbol
_atom_site_label
_atom_site_fract_x
_atom_site_fract_y
_atom_site_fract_z
Si Si1 0.684239 0.134547 0.405021
Si Si2 0.421363 0.285805 0.443593
Si Si3 0.000000 0.241619 0.250000
Si Si4 0.895505 0.899299 0.082521
Si Si5 0.474708 0.983885 0.589579
Si Si6 0.062486 0.447579 0.286372
Si Si7 0.411869 0.206956 0.346278
O O1 0.858113 0.152015 0.320739
O O2 0.599180 0.266813 0.447854
O O3 0.664457 0.051048 0.367468
O O4 0.604766 0.062599 0.492113
O O5 0.549450 0.374307 0.393836
O O6 0.449368 0.140684 0.434711
O O7 0.425188 0.304798 0.383550
O O8 0.266269 0.317239 0.558830
O O9 0.022661 0.329496 0.190044
O O10 0.730357 0.954127 0.172379
O O11 0.000000 0.000000 0.000000
O O12 0.424079 0.066656 0.663604
O O13 0.983482 0.573223 0.315346
O O14 0.500000 0.263624 0.250000
#
# Coordination Sequence:
#
# PCOD8131988 Si02
#       7
#     8   8   4   8   8   8   8
#     4   9  20  39  59  81 121 155 190 242 297 351
#     4   9  20  35  56  85 116 143 200 237 280 359
#     4  10  20  36  60  92 116 152 200 248 292 354
#     4  10  20  37  56  87 115 148 193 239 285 357
#     4   9  19  41  56  80 119 161 189 237 295 352
#     4  10  20  35  61  84 117 151 194 241 292 346
#     4  10  18  35  58  84 112 152 184 245 296 331
#
# _framework density 19.574553999999999
#
# number of rings (size 3 to 8) (size 9 to 14) (size 15 to 20)
#    0.000    2.462    0.769    0.923    2.154    0.615 
#   20.769    3.077    0.000    0.000    0.000    0.000 
#    0.000    0.000    0.000    0.000    0.000    0.000 
#
# Total GULP energy -322207.264416 kJ/mol
# GULP energy per Si atom -12392.587093 kJ/mol
# Density = 1.953000 g / cm^3
# Si number density = 19.574554 Si / 1000 Ang^3
#
#
#
# Elastic Constant Matrix: (Units=GPa)
#
#
# Indices 1 2 3 4 5 6 
#
# 1 115.5131 35.5369 55.3092 0.0000 1.7491 0.0001
# 2 35.5369 51.4512 27.2995 -0.0001 1.9664 0.0000
# 3 55.3092 27.2995 93.5532 -0.0005 10.8256 0.0002
# 4 0.0000 -0.0001 -0.0005 31.7770 0.0001 -5.2539
# 5 1.7491 1.9664 10.8256 0.0001 40.7136 -0.0001
# 6 0.0001 0.0000 0.0002 -5.2539 -0.0001 15.3090
#
#
#
# Elastic Compliance Matrix: (Units=1/GPa)
#
#
# Indices 1 2 3 4 5 6 
#
# 1 0.013563 -0.006011 -0.006428 0.000000 0.001417 0.000000
# 2 -0.006011 0.025680 -0.003948 0.000000 0.000068 0.000000
# 3 -0.006428 -0.003948 0.016082 0.000000 -0.003809 0.000000
# 4 0.000000 0.000000 0.000000 0.033362 0.000000 0.011450
# 5 0.001417 0.000068 -0.003809 0.000000 0.025511 0.000000
# 6 0.000000 0.000000 0.000000 0.011450 0.000000 0.069250
#
#
# Mechanical properties :
#
#
# Convention : Reuss Voigt Hill
#
# Bulk Modulus (GPa) = 44.34417 55.20100 49.77259
# Shear Modulus (GPa) = 22.34750 27.05138 24.69944
#
# Velocity S-wave (km/s) = 3.38251 3.72151 3.55606
# Velocity P-wave (km/s) = 6.16104 6.83578 6.50716
#
# Compressibility (1/GPa) = 0.02255088
#
# Stress axis : x y z
#
# Youngs Moduli (GPa) = 73.73118 38.94140 62.18027
#
# Poissons Ratio (x) = 0.23408 0.39971
# Poissons Ratio (y) = 0.44320 0.24546
# Poissons Ratio (z) = 0.47397 0.15372
#
# Static dielectric constant tensor:
#      x y z
#    x 4.296460 0.000000 0.123310 
#    y 0.000000 3.545530 0.000000 
#    z 0.123310 0.000000 3.636140 
# 
# 
# High freq. dielectric constant tensor:
#      x y z
#    x 1.781980 0.000000 -0.003620 
#    y 0.000000 1.748550 0.000000 
#    z -0.003620 0.000000 1.749480 
# 
# From -- ./inp_files/298862.got.cif
#   From: 2010.06.25/outbox.cif.g09.slc.cpg/sg15_150_cif.got.tgz:298862.got - 2010.06.28 07:06:18.
