data_PCOD8131208
_publ_section_title
;
Structure prediction by ZEFSAII (Michael W. Deem and Ramdas Pophale) SiO2 
 PCOD8131208
Probable space group: C 2/C
;
_chemical_formula_sum "Si O2"
_cell_formula_units_Z 60
_cell_length_a 8.109564
_cell_length_b 18.987493
_cell_length_c 22.471993
_cell_angle_alpha 90.000000
_cell_angle_beta 75.449897
_cell_angle_gamma 90.000000
_cell_volume 3349.268162
_symmetry_space_group_name_H-M "C 2/C"
_symmetry_group_IT_number 15
_symmetry_cell_setting 'monoclinic'
loop_
_space_group_symop_operation_xyz
x,y,z
-x,y,1/2-z
-x,-y,-z
x,-y,1/2+z
1/2+x,1/2+y,z
1/2-x,1/2+y,1/2-z
1/2-x,1/2-y,-z
1/2+x,1/2-y,1/2+z
loop_
_atom_site_type_symbol
_atom_site_label
_atom_site_fract_x
_atom_site_fract_y
_atom_site_fract_z
Si Si1 0.212477 0.327794 0.127295
Si Si2 0.898921 0.171260 0.891343
Si Si3 0.174760 0.418454 0.013378
Si Si4 0.500000 0.202230 0.750000
Si Si5 0.313126 0.246836 0.293425
Si Si6 0.795490 0.425400 0.006822
Si Si7 0.759729 0.189852 0.080874
Si Si8 0.149791 0.796333 0.555497
O O1 0.400237 0.330416 0.136646
O O2 0.201978 0.381716 0.074185
O O3 0.163462 0.246147 0.116061
O O4 0.076715 0.347651 0.191101
O O5 0.817847 0.179929 0.832233
O O6 0.839316 0.240411 0.934938
O O7 0.839273 0.102615 0.932387
O O8 0.259563 0.495691 0.006023
O O9 0.263892 0.373732 0.952083
O O10 0.975486 0.424680 0.022437
O O11 0.339311 0.249326 0.740952
O O12 0.500000 0.231461 0.250000
O O13 0.272877 0.183816 0.344609
O O14 0.807146 0.379404 0.945980
O O15 0.958880 0.197251 0.049578
O O16 0.250000 0.750000 0.500000
#
# Coordination Sequence:
#
# PCOD8131208 Si02
#       8
#     8   8   8   4   8   8   8   8
#     4  11  20  34  56  83 110 144 184 233 273 326
#     4  10  20  33  56  83 110 142 182 228 283 328
#     4  10  23  34  53  82 110 149 182 222 285 337
#     4  12  18  36  58  80 114 142 186 240 270 324
#     4  10  21  35  54  87 107 146 189 230 281 320
#     4  11  20  37  53  78 116 146 179 229 281 339
#     4  10  20  33  54  80 110 141 178 229 275 326
#     4  10  18  32  51  81 110 133 178 221 278 331
#
# _framework density 17.914362000000001
#
# number of rings (size 3 to 8) (size 9 to 14) (size 15 to 20)
#    0.800    0.800    2.667    5.200    0.000    2.133 
#    0.000    0.000    1.467    0.000    5.200    0.000 
#    0.000    0.000    0.000    0.000    0.000    0.000 
#
# Total GULP energy -371722.654655 kJ/mol
# GULP energy per Si atom -12390.755155 kJ/mol
# Density = 1.787359 g / cm^3
# Si number density = 17.914362 Si / 1000 Ang^3
#
#
#
# Elastic Constant Matrix: (Units=GPa)
#
#
# Indices 1 2 3 4 5 6 
#
# 1 98.8236 28.2154 26.9788 0.0000 -6.0731 0.0000
# 2 28.2154 109.6469 38.1679 0.0000 -5.0616 0.0000
# 3 26.9788 38.1679 85.5071 0.0000 -8.6641 0.0000
# 4 0.0000 0.0000 0.0000 11.8629 0.0000 1.4044
# 5 -6.0731 -5.0616 -8.6641 0.0000 36.6255 0.0000
# 6 0.0000 0.0000 0.0000 1.4044 0.0000 21.6708
#
#
#
# Elastic Compliance Matrix: (Units=1/GPa)
#
#
# Indices 1 2 3 4 5 6 
#
# 1 0.011466 -0.001989 -0.002628 0.000000 0.001005 0.000000
# 2 -0.001989 0.011148 -0.004329 0.000000 0.000187 0.000000
# 3 -0.002628 -0.004329 0.014704 0.000000 0.002444 0.000000
# 4 0.000000 0.000000 0.000000 0.084948 0.000000 -0.005505
# 5 0.001005 0.000187 0.002444 0.000000 0.028074 0.000000
# 6 0.000000 0.000000 0.000000 -0.005505 0.000000 0.046502
#
#
# Mechanical properties :
#
#
# Convention : Reuss Voigt Hill
#
# Bulk Modulus (GPa) = 51.48095 53.41134 52.44614
# Shear Modulus (GPa) = 22.60285 27.40620 25.00452
#
# Velocity S-wave (km/s) = 3.55592 3.91557 3.74007
# Velocity P-wave (km/s) = 6.75715 7.09378 6.92751
#
# Compressibility (1/GPa) = 0.01942466
#
# Stress axis : x y z
#
# Youngs Moduli (GPa) = 87.21269 89.70370 68.00730
#
# Poissons Ratio (x) = 0.17846 0.17872
# Poissons Ratio (y) = 0.17350 0.29443
# Poissons Ratio (z) = 0.22919 0.38837
#
# Static dielectric constant tensor:
#      x y z
#    x 3.367540 0.000000 -0.133530 
#    y 0.000000 3.450890 0.000000 
#    z -0.133530 0.000000 3.467230 
# 
# 
# High freq. dielectric constant tensor:
#      x y z
#    x 1.714170 0.000000 -0.008340 
#    y 0.000000 1.650120 0.000000 
#    z -0.008340 0.000000 1.691940 
# 
# From -- ./inp_files/289262.got.cif
#   From: 2010.06.25/outbox.cif.g09.slc.cpg/sg15_145_cif.got.tgz:289262.got - 2010.06.28 07:06:18.
