data_PCOD8131090
_publ_section_title
;
Structure prediction by ZEFSAII (Michael W. Deem and Ramdas Pophale) SiO2 
 PCOD8131090
Probable space group: C 2/C
;
_chemical_formula_sum "Si O2"
_cell_formula_units_Z 48
_cell_length_a 15.647291
_cell_length_b 9.421108
_cell_length_c 23.751635
_cell_angle_alpha 90.000000
_cell_angle_beta 132.442621
_cell_angle_gamma 90.000000
_cell_volume 2583.828427
_symmetry_space_group_name_H-M "C 2/C"
_symmetry_group_IT_number 15
_symmetry_cell_setting 'monoclinic'
loop_
_space_group_symop_operation_xyz
x,y,z
-x,y,1/2-z
-x,-y,-z
x,-y,1/2+z
1/2+x,1/2+y,z
1/2-x,1/2+y,1/2-z
1/2-x,1/2-y,-z
1/2+x,1/2-y,1/2+z
loop_
_atom_site_type_symbol
_atom_site_label
_atom_site_fract_x
_atom_site_fract_y
_atom_site_fract_z
Si Si1 0.269711 0.771686 0.678967
Si Si2 0.909033 0.768243 0.812898
Si Si3 0.759707 0.053921 0.160145
Si Si4 0.173398 0.231942 0.411387
Si Si5 0.891443 0.475363 0.658636
Si Si6 0.084419 0.444665 0.672205
O O1 0.140918 0.800263 0.646512
O O2 0.295694 0.609879 0.675293
O O3 0.293396 0.863715 0.633518
O O4 0.356276 0.819227 0.766698
O O5 0.849968 0.862535 0.738990
O O6 0.882468 0.601767 0.788574
O O7 0.043878 0.808410 0.872795
O O8 0.766630 0.110686 0.099806
O O9 0.628265 0.069132 0.127069
O O10 0.250000 0.250000 0.500000
O O11 0.171283 0.373828 0.372958
O O12 0.000000 0.479339 0.750000
O O13 0.945185 0.432026 0.620667
#
# Coordination Sequence:
#
# PCOD8131090 Si02
#       6
#     8   8   8   8   8   8
#     4   9  17  30  54  83 101 120 159 209 253 291
#     4   9  18  34  53  75 102 130 161 201 247 298
#     4  10  18  31  53  78  98 121 163 212 246 281
#     4  11  22  35  49  69  99 140 175 199 237 293
#     4   9  17  34  55  73  98 131 160 197 250 305
#     4   8  16  30  50  76 100 126 156 192 248 302
#
# _framework density 18.577085
#
# number of rings (size 3 to 8) (size 9 to 14) (size 15 to 20)
#    0.000    2.667    0.000    3.500    0.000    5.333 
#    0.000    9.167    0.000    0.000    0.000    0.000 
#    0.000    0.000    0.000    0.000    0.000    0.000 
#
# Total GULP energy -297333.571738 kJ/mol
# GULP energy per Si atom -12388.898822 kJ/mol
# Density = 1.853480 g / cm^3
# Si number density = 18.577085 Si / 1000 Ang^3
#
#
#
# Elastic Constant Matrix: (Units=GPa)
#
#
# Indices 1 2 3 4 5 6 
#
# 1 154.4399 64.4548 26.3704 0.0000 -18.2558 0.0000
# 2 64.4548 105.7621 21.3196 0.0000 -17.0649 0.0000
# 3 26.3704 21.3196 47.7877 0.0000 -6.3091 0.0000
# 4 0.0000 0.0000 0.0000 7.4177 0.0000 -6.1786
# 5 -18.2558 -17.0649 -6.3091 0.0000 10.5571 0.0000
# 6 0.0000 0.0000 0.0000 -6.1786 0.0000 36.4003
#
#
#
# Elastic Compliance Matrix: (Units=1/GPa)
#
#
# Indices 1 2 3 4 5 6 
#
# 1 0.009555 -0.003935 -0.002362 0.000000 0.008750 0.000000
# 2 -0.003935 0.014889 -0.002380 0.000000 0.015840 0.000000
# 3 -0.002362 -0.002380 0.024149 0.000000 0.006501 0.000000
# 4 0.000000 0.000000 0.000000 0.157012 0.000000 0.026651
# 5 0.008750 0.015840 0.006501 0.000000 0.139344 0.000000
# 6 0.000000 0.000000 0.000000 0.026651 0.000000 0.031996
#
#
# Mechanical properties :
#
#
# Convention : Reuss Voigt Hill
#
# Bulk Modulus (GPa) = 32.01038 59.14214 45.57626
# Shear Modulus (GPa) = 12.35446 23.93134 18.14290
#
# Velocity S-wave (km/s) = 2.58163 3.59307 3.12849
# Velocity P-wave (km/s) = 5.11419 7.00847 6.13489
#
# Compressibility (1/GPa) = 0.03123986
#
# Stress axis : x y z
#
# Youngs Moduli (GPa) = 104.65788 67.16415 41.40930
#
# Poissons Ratio (x) = 0.26430 0.09780
# Poissons Ratio (y) = 0.41184 0.09854
# Poissons Ratio (z) = 0.24718 0.15983
#
# Static dielectric constant tensor:
#      x y z
#    x 4.317550 0.000000 -0.171030 
#    y 0.000000 3.513090 0.000000 
#    z -0.171030 0.000000 2.762490 
# 
# 
# High freq. dielectric constant tensor:
#      x y z
#    x 1.755570 0.000000 -0.015250 
#    y 0.000000 1.724970 0.000000 
#    z -0.015250 0.000000 1.645770 
# 
# From -- ./inp_files/276394.got.cif
#   From: 2010.06.25/outbox.cif.g09.slc.cpg/sg15_139_cif.got.tgz:276394.got - 2010.06.28 07:06:18.
