data_PCOD8131138
_publ_section_title
;
Structure prediction by ZEFSAII (Michael W. Deem and Ramdas Pophale) SiO2 
 PCOD8131138
Probable space group: C 2/C
;
_chemical_formula_sum "Si O2"
_cell_formula_units_Z 52
_cell_length_a 12.453261
_cell_length_b 29.090801
_cell_length_c 8.866353
_cell_angle_alpha 90.000000
_cell_angle_beta 125.953730
_cell_angle_gamma 90.000000
_cell_volume 2600.135792
_symmetry_space_group_name_H-M "C 2/C"
_symmetry_group_IT_number 15
_symmetry_cell_setting 'monoclinic'
loop_
_space_group_symop_operation_xyz
x,y,z
-x,y,1/2-z
-x,-y,-z
x,-y,1/2+z
1/2+x,1/2+y,z
1/2-x,1/2+y,1/2-z
1/2-x,1/2-y,-z
1/2+x,1/2-y,1/2+z
loop_
_atom_site_type_symbol
_atom_site_label
_atom_site_fract_x
_atom_site_fract_y
_atom_site_fract_z
Si Si1 0.223773 0.702923 0.646089
Si Si2 0.526862 0.646473 0.601364
Si Si3 0.500000 0.499303 0.750000
Si Si4 0.264205 0.695928 0.329731
Si Si5 0.514107 0.140796 0.082157
Si Si6 0.645414 0.554427 0.612183
Si Si7 0.542903 0.952921 0.113924
O O1 0.369011 0.687857 0.818339
O O2 0.217362 0.704500 0.460913
O O3 0.201567 0.752998 0.704303
O O4 0.109578 0.666851 0.599377
O O5 0.500000 0.630035 0.750000
O O6 0.391311 0.663544 0.414761
O O7 0.586720 0.605415 0.553422
O O8 0.577595 0.529673 0.695742
O O9 0.388786 0.469088 0.574577
O O10 0.144297 0.670393 0.145162
O O11 0.500000 0.135395 0.250000
O O12 0.529255 0.089880 0.026389
O O13 0.800678 0.554475 0.770360
O O14 0.500000 0.955042 0.250000
O O15 0.500000 0.000000 0.000000
#
# Coordination Sequence:
#
# PCOD8131138 Si02
#       7
#     8   8   4   8   8   8   8
#     4   9  16  32  51  86 124 158 194 250 299 353
#     4  10  18  31  56  84 120 153 191 243 301 348
#     4  10  24  38  66  86 118 150 200 250 308 360
#     4   9  18  28  54  89 122 153 199 246 304 355
#     4  10  20  35  59  89 123 159 204 256 306 362
#     4  11  22  42  60  90 117 157 196 254 302 369
#     4  12  26  43  63  87 122 165 208 255 309 374
#
# _framework density 19.998956
#
# number of rings (size 3 to 8) (size 9 to 14) (size 15 to 20)
#    0.000    1.846    2.308    2.308    0.000    7.385 
#    0.000    0.000    0.000    0.923    4.000    0.000 
#    0.000    0.000    0.000    0.000    0.000    0.000 
#
# Total GULP energy -322391.263132 kJ/mol
# GULP energy per Si atom -12399.663967 kJ/mol
# Density = 1.995344 g / cm^3
# Si number density = 19.998956 Si / 1000 Ang^3
#
#
#
# Elastic Constant Matrix: (Units=GPa)
#
#
# Indices 1 2 3 4 5 6 
#
# 1 72.7140 39.3579 34.0422 0.0000 23.8718 0.0000
# 2 39.3579 156.4120 41.5054 0.0000 9.7205 0.0000
# 3 34.0422 41.5054 70.4005 0.0000 14.6837 0.0000
# 4 0.0000 0.0000 0.0000 18.5350 0.0000 2.7888
# 5 23.8718 9.7205 14.6837 0.0000 35.1716 0.0000
# 6 0.0000 0.0000 0.0000 2.7888 0.0000 26.1586
#
#
#
# Elastic Compliance Matrix: (Units=1/GPa)
#
#
# Indices 1 2 3 4 5 6 
#
# 1 0.022305 -0.003168 -0.006510 0.000000 -0.011546 0.000000
# 2 -0.003168 0.008031 -0.003493 0.000000 0.001389 0.000000
# 3 -0.006510 -0.003493 0.020033 0.000000 -0.002980 0.000000
# 4 0.000000 0.000000 0.000000 0.054832 0.000000 -0.005846
# 5 -0.011546 0.001389 -0.002980 0.000000 0.037129 0.000000
# 6 0.000000 0.000000 0.000000 -0.005846 0.000000 0.038852
#
#
# Mechanical properties :
#
#
# Convention : Reuss Voigt Hill
#
# Bulk Modulus (GPa) = 41.61713 58.81529 50.21621
# Shear Modulus (GPa) = 23.19846 28.28108 25.73977
#
# Velocity S-wave (km/s) = 3.40955 3.76457 3.59145
# Velocity P-wave (km/s) = 6.02950 6.95478 6.50860
#
# Compressibility (1/GPa) = 0.02402857
#
# Stress axis : x y z
#
# Youngs Moduli (GPa) = 44.83236 124.51814 49.91762
#
# Poissons Ratio (x) = 0.39443 0.32497
# Poissons Ratio (y) = 0.14201 0.17434
# Poissons Ratio (z) = 0.29186 0.43490
#
# Static dielectric constant tensor:
#      x y z
#    x 3.494380 0.000000 0.239750 
#    y 0.000000 3.848000 0.000000 
#    z 0.239750 0.000000 3.504630 
# 
# 
# High freq. dielectric constant tensor:
#      x y z
#    x 1.767990 0.000000 0.030550 
#    y 0.000000 1.799190 0.000000 
#    z 0.030550 0.000000 1.760010 
# 
# From -- ./inp_files/34418.got.cif
#   From: 2010.06.25/outbox.cif.g09.slc.cpg/sg15_18_cif.got.tgz:34418.got - 2010.06.28 07:06:18.
