data_PCOD8131210
_publ_section_title
;
Structure prediction by ZEFSAII (Michael W. Deem and Ramdas Pophale) SiO2 
 PCOD8131210
Probable space group: C 2/C
;
_chemical_formula_sum "Si O2"
_cell_formula_units_Z 48
_cell_length_a 15.637132
_cell_length_b 26.807557
_cell_length_c 9.449846
_cell_angle_alpha 90.000000
_cell_angle_beta 38.909363
_cell_angle_gamma 90.000000
_cell_volume 2488.061474
_symmetry_space_group_name_H-M "C 2/C"
_symmetry_group_IT_number 15
_symmetry_cell_setting 'monoclinic'
loop_
_space_group_symop_operation_xyz
x,y,z
-x,y,1/2-z
-x,-y,-z
x,-y,1/2+z
1/2+x,1/2+y,z
1/2-x,1/2+y,1/2-z
1/2-x,1/2-y,-z
1/2+x,1/2-y,1/2+z
loop_
_atom_site_type_symbol
_atom_site_label
_atom_site_fract_x
_atom_site_fract_y
_atom_site_fract_z
Si Si1 0.104131 0.800773 0.945524
Si Si2 0.500000 0.612915 0.750000
Si Si3 0.128662 0.030164 0.777433
Si Si4 0.000000 0.304749 0.250000
Si Si5 0.843467 0.767946 0.153641
Si Si6 0.840535 0.050220 0.461475
Si Si7 0.227318 0.839179 0.502775
O O1 0.203039 0.758483 0.887064
O O2 0.149319 0.807846 0.724078
O O3 0.109720 0.852457 0.025260
O O4 0.943846 0.783973 0.153448
O O5 0.584527 0.579570 0.750479
O O6 0.221339 0.993933 0.558437
O O7 0.214999 0.046487 0.805536
O O8 0.000000 0.000000 0.000000
O O9 0.110510 0.338680 0.186768
O O10 0.926294 0.272591 0.461356
O O11 0.811634 0.816264 0.098694
O O12 0.814553 0.103854 0.429606
O O13 0.000000 0.039483 0.250000
#
# Coordination Sequence:
#
# PCOD8131210 Si02
#       7
#     8   4   8   4   8   8   8
#     4  11  22  32  56  79 118 153 192 230 282 337
#     4  12  22  34  51  86 116 151 184 234 292 344
#     4  10  18  34  53  78 116 137 183 238 296 331
#     4  10  18  32  51  84 104 145 188 244 272 328
#     4  11  18  37  54  81 113 150 192 238 276 330
#     4  10  19  31  54  81 107 140 177 240 293 336
#     4  11  19  32  58  81 109 145 196 234 287 331
#
# _framework density 19.292127000000001
#
# number of rings (size 3 to 8) (size 9 to 14) (size 15 to 20)
#    0.000    1.333    5.833    5.000    0.000    0.667 
#    0.000    0.000    0.000    1.000    0.000    0.000 
#    0.000    0.000    0.000    0.000    0.000    0.000 
#
# Total GULP energy -297462.969523 kJ/mol
# GULP energy per Si atom -12394.290397 kJ/mol
# Density = 1.924822 g / cm^3
# Si number density = 19.292127 Si / 1000 Ang^3
#
#
#
# Elastic Constant Matrix: (Units=GPa)
#
#
# Indices 1 2 3 4 5 6 
#
# 1 78.3288 33.0267 31.4692 0.0000 -6.3752 0.0000
# 2 33.0267 108.4820 29.8747 0.0000 2.9451 0.0000
# 3 31.4692 29.8747 49.7534 0.0000 -1.5650 0.0000
# 4 0.0000 0.0000 0.0000 -76.9365 0.0000 93.4030
# 5 -6.3752 2.9451 -1.5650 0.0000 20.8160 0.0000
# 6 0.0000 0.0000 0.0000 93.4030 0.0000 -29.3976
#
#
#
# Elastic Compliance Matrix: (Units=1/GPa)
#
#
# Indices 1 2 3 4 5 6 
#
# 1 0.018357 -0.003094 -0.009585 0.000000 0.005339 0.000000
# 2 -0.003094 0.011655 -0.005135 0.000000 -0.002983 0.000000
# 3 -0.009585 -0.005135 0.029245 0.000000 -0.000010 0.000000
# 4 0.000000 0.000000 0.000000 0.004549 0.000000 0.014453
# 5 0.005339 -0.002983 -0.000010 0.000000 0.050096 0.000000
# 6 0.000000 0.000000 0.000000 0.014453 0.000000 0.011905
#
#
# Mechanical properties :
#
#
# Convention : Reuss Voigt Hill
#
# Bulk Modulus (GPa) = 42.32214 47.25618 44.78916
# Shear Modulus (GPa) = 29.53132 -7.62405 10.95364
#
# Velocity S-wave (km/s) = 3.91672 -1.99009 2.38539
# Velocity P-wave (km/s) = 6.51455 4.38949 5.55459
#
# Compressibility (1/GPa) = 0.02362829
#
# Stress axis : x y z
#
# Youngs Moduli (GPa) = 54.47642 85.79835 34.19412
#
# Poissons Ratio (x) = 0.26545 0.32775
# Poissons Ratio (y) = 0.16855 0.17560
# Poissons Ratio (z) = 0.52215 0.44060
#
# Static dielectric constant tensor:
#      x y z
#    x 4.313920 0.000000 0.291030 
#    y 0.000000 3.641610 0.000000 
#    z 0.291030 0.000000 3.634890 
# 
# 
# High freq. dielectric constant tensor:
#      x y z
#    x 1.744570 0.000000 0.026510 
#    y 0.000000 1.756930 0.000000 
#    z 0.026510 0.000000 1.715100 
# 
# From -- ./inp_files/44469.got.cif
#   From: 2010.06.25/outbox.cif.g09.slc.cpg/sg15_23_cif.got.tgz:44469.got - 2010.06.28 07:06:18.
