data_PCOD8131095
_publ_section_title
;
Structure prediction by ZEFSAII (Michael W. Deem and Ramdas Pophale) SiO2 
 PCOD8131095
Probable space group: C 2/C
;
_chemical_formula_sum "Si O2"
_cell_formula_units_Z 64
_cell_length_a 8.775767
_cell_length_b 21.812886
_cell_length_c 21.059145
_cell_angle_alpha 90.000000
_cell_angle_beta 120.883247
_cell_angle_gamma 90.000000
_cell_volume 3459.673082
_symmetry_space_group_name_H-M "C 2/C"
_symmetry_group_IT_number 15
_symmetry_cell_setting 'monoclinic'
loop_
_space_group_symop_operation_xyz
x,y,z
-x,y,1/2-z
-x,-y,-z
x,-y,1/2+z
1/2+x,1/2+y,z
1/2-x,1/2+y,1/2-z
1/2-x,1/2-y,-z
1/2+x,1/2-y,1/2+z
loop_
_atom_site_type_symbol
_atom_site_label
_atom_site_fract_x
_atom_site_fract_y
_atom_site_fract_z
Si Si1 0.388874 0.625601 0.825831
Si Si2 0.428299 0.807518 0.480085
Si Si3 0.242398 0.872769 0.332007
Si Si4 0.455124 0.017264 0.895299
Si Si5 0.345956 0.082441 0.455811
Si Si6 0.019033 0.057146 0.052149
Si Si7 0.321573 0.007782 0.673197
Si Si8 0.572721 0.324517 0.479949
O O1 0.306312 0.659545 0.745918
O O2 0.581836 0.604018 0.842648
O O3 0.260797 0.571482 0.821386
O O4 0.423898 0.670988 0.892320
O O5 0.370338 0.825718 0.396155
O O6 0.602716 0.845798 0.539578
O O7 0.477767 0.735797 0.490650
O O8 0.270965 0.820124 0.495744
O O9 0.327584 0.937482 0.328564
O O10 0.630949 0.009595 0.891312
O O11 0.358813 0.952449 0.890517
O O12 0.496081 0.053259 0.968804
O O13 0.158334 0.072038 0.447697
O O14 0.166191 0.043493 0.138755
O O15 0.071679 0.116488 0.023875
O O16 0.000000 0.000000 0.000000
O O17 0.500000 0.988634 0.750000
#
# Coordination Sequence:
#
# PCOD8131095 Si02
#       8
#     8   8   8   8   8   8   8   8
#     4  10  18  32  55  82 111 146 190 241 288 340
#     4   9  20  36  58  85 114 154 196 236 284 348
#     4   9  18  31  53  83 114 144 186 237 291 345
#     4  10  18  31  53  81 113 143 177 232 285 346
#     4  10  20  33  56  84 111 148 187 232 288 345
#     4  12  22  35  56  86 116 148 188 243 293 344
#     4  12  22  34  52  84 116 148 186 238 301 348
#     4  10  20  37  60  84 116 154 198 242 281 343
#
# _framework density 18.498857999999998
#
# number of rings (size 3 to 8) (size 9 to 14) (size 15 to 20)
#    0.000    1.750    3.750    1.500    3.500    0.500 
#    0.000    0.000   11.000    0.000    0.000    0.000 
#    0.000    0.000    0.000    0.000    0.000    0.000 
#
# Total GULP energy -396487.154351 kJ/mol
# GULP energy per Si atom -12390.223573 kJ/mol
# Density = 1.845675 g / cm^3
# Si number density = 18.498858 Si / 1000 Ang^3
#
#
#
# Elastic Constant Matrix: (Units=GPa)
#
#
# Indices 1 2 3 4 5 6 
#
# 1 78.5212 43.2872 30.3753 0.0000 3.5963 0.0000
# 2 43.2872 132.9318 55.9954 0.0000 2.9996 0.0000
# 3 30.3753 55.9954 96.6582 0.0000 8.7289 0.0000
# 4 0.0000 0.0000 0.0000 20.1724 0.0000 -0.1785
# 5 3.5963 2.9996 8.7289 0.0000 28.4901 0.0000
# 6 0.0000 0.0000 0.0000 -0.1785 0.0000 26.8545
#
#
#
# Elastic Compliance Matrix: (Units=1/GPa)
#
#
# Indices 1 2 3 4 5 6 
#
# 1 0.016041 -0.004117 -0.002584 0.000000 -0.000800 0.000000
# 2 -0.004117 0.011023 -0.005177 0.000000 0.000945 0.000000
# 3 -0.002584 -0.005177 0.014479 0.000000 -0.003565 0.000000
# 4 0.000000 0.000000 0.000000 0.049576 0.000000 0.000330
# 5 -0.000800 0.000945 -0.003565 0.000000 0.036194 0.000000
# 6 0.000000 0.000000 0.000000 0.000330 0.000000 0.037240
#
#
# Mechanical properties :
#
#
# Convention : Reuss Voigt Hill
#
# Bulk Modulus (GPa) = 56.22158 63.04745 59.63451
# Shear Modulus (GPa) = 25.74175 27.00029 26.37102
#
# Velocity S-wave (km/s) = 3.73437 3.82457 3.77974
# Velocity P-wave (km/s) = 7.00371 7.32522 7.16627
#
# Compressibility (1/GPa) = 0.01778676
#
# Stress axis : x y z
#
# Youngs Moduli (GPa) = 62.33924 90.72071 69.06647
#
# Poissons Ratio (x) = 0.37352 0.17844
# Poissons Ratio (y) = 0.25666 0.35757
# Poissons Ratio (z) = 0.16106 0.46968
#
# Static dielectric constant tensor:
#      x y z
#    x 3.413860 0.000000 0.041870 
#    y 0.000000 3.341990 0.000000 
#    z 0.041870 0.000000 3.565940 
# 
# 
# High freq. dielectric constant tensor:
#      x y z
#    x 1.726990 0.000000 -0.000010 
#    y 0.000000 1.687190 0.000000 
#    z -0.000010 0.000000 1.711070 
# 
# From -- ./inp_files/234293.got.cif
#   From: 2010.06.25/outbox.cif.g09.slc.cpg/sg15_118_cif.got.tgz:234293.got - 2010.06.28 07:06:18.
