data_PCOD8131081
_publ_section_title
;
Structure prediction by ZEFSAII (Michael W. Deem and Ramdas Pophale) SiO2 
 PCOD8131081
Probable space group: C 2/C
;
_chemical_formula_sum "Si O2"
_cell_formula_units_Z 56
_cell_length_a 11.129648
_cell_length_b 29.443765
_cell_length_c 9.565226
_cell_angle_alpha 90.000000
_cell_angle_beta 62.061168
_cell_angle_gamma 90.000000
_cell_volume 2769.179716
_symmetry_space_group_name_H-M "C 2/C"
_symmetry_group_IT_number 15
_symmetry_cell_setting 'monoclinic'
loop_
_space_group_symop_operation_xyz
x,y,z
-x,y,1/2-z
-x,-y,-z
x,-y,1/2+z
1/2+x,1/2+y,z
1/2-x,1/2+y,1/2-z
1/2-x,1/2-y,-z
1/2+x,1/2-y,1/2+z
loop_
_atom_site_type_symbol
_atom_site_label
_atom_site_fract_x
_atom_site_fract_y
_atom_site_fract_z
Si Si1 0.426285 0.130763 0.015944
Si Si2 0.863751 0.034260 0.395862
Si Si3 0.053527 0.276946 0.370344
Si Si4 0.000000 0.438731 0.250000
Si Si5 0.707099 0.988369 0.710894
Si Si6 0.136179 0.861178 0.598568
Si Si7 0.000000 0.583882 0.250000
Si Si8 0.320734 0.724609 0.590467
O O1 0.268712 0.145313 0.126988
O O2 0.499997 0.115875 0.116055
O O3 0.519357 0.170391 0.904929
O O4 0.417338 0.090794 0.906369
O O5 0.745016 0.028495 0.345125
O O6 0.881330 0.086336 0.436323
O O7 0.000000 0.015937 0.250000
O O8 0.835419 0.003059 0.546292
O O9 0.218773 0.270537 0.280563
O O10 0.000000 0.259574 0.250000
O O11 0.970239 0.247705 0.533471
O O12 0.105829 0.469042 0.279751
O O13 0.634944 0.946725 0.671533
O O14 0.159376 0.829099 0.451128
O O15 0.000000 0.844125 0.750000
O O16 0.250000 0.750000 0.500000
#
# Coordination Sequence:
#
# PCOD8131081 Si02
#       8
#     8   8   8   4   8   8   4   8
#     4  12  20  37  55  85 115 150 190 232 290 341
#     4  11  23  37  56  79 115 149 192 233 288 339
#     4  10  19  31  57  86 116 138 185 242 289 335
#     4  11  20  34  60  78 112 144 196 242 276 329
#     4  11  21  38  55  82 108 152 192 240 281 334
#     4  11  20  33  53  80 114 147 186 236 284 339
#     4  11  24  36  56  80 118 152 190 236 286 341
#     4  10  18  31  52  90 112 139 179 240 291 330
#
# _framework density 20.222595999999999
#
# number of rings (size 3 to 8) (size 9 to 14) (size 15 to 20)
#    0.000    1.143    6.429    2.571    0.000    2.286 
#    0.000    0.000    0.000    0.857    0.000    0.000 
#    0.000    0.000    0.000    0.000    0.000    0.000 
#
# Total GULP energy -347075.764190 kJ/mol
# GULP energy per Si atom -12395.563007 kJ/mol
# Density = 2.017657 g / cm^3
# Si number density = 20.222596 Si / 1000 Ang^3
#
#
#
# Elastic Constant Matrix: (Units=GPa)
#
#
# Indices 1 2 3 4 5 6 
#
# 1 63.6764 29.7761 39.7394 0.0000 -21.7472 0.0000
# 2 29.7761 89.3152 36.8670 0.0000 -16.3810 0.0000
# 3 39.7394 36.8670 87.6626 0.0000 -36.6200 0.0000
# 4 0.0000 0.0000 0.0000 24.1318 0.0000 -11.6067
# 5 -21.7472 -16.3810 -36.6200 0.0000 46.4146 0.0000
# 6 0.0000 0.0000 0.0000 -11.6067 0.0000 14.3876
#
#
#
# Elastic Compliance Matrix: (Units=1/GPa)
#
#
# Indices 1 2 3 4 5 6 
#
# 1 0.023499 -0.004109 -0.007355 0.000000 0.003757 0.000000
# 2 -0.004109 0.014272 -0.004236 0.000000 -0.000230 0.000000
# 3 -0.007355 -0.004236 0.021567 0.000000 0.012075 0.000000
# 4 0.000000 0.000000 0.000000 0.067711 0.000000 0.054624
# 5 0.003757 -0.000230 0.012075 0.000000 0.032751 0.000000
# 6 0.000000 0.000000 0.000000 0.054624 0.000000 0.113570
#
#
# Mechanical properties :
#
#
# Convention : Reuss Voigt Hill
#
# Bulk Modulus (GPa) = 35.79239 50.37992 43.08616
# Shear Modulus (GPa) = 15.91933 25.93826 20.92879
#
# Velocity S-wave (km/s) = 2.80876 3.58528 3.22051
# Velocity P-wave (km/s) = 5.31568 6.48889 5.93137
#
# Compressibility (1/GPa) = 0.02793890
#
# Stress axis : x y z
#
# Youngs Moduli (GPa) = 42.55451 70.06530 46.36708
#
# Poissons Ratio (x) = 0.28791 0.34103
# Poissons Ratio (y) = 0.17486 0.19639
# Poissons Ratio (z) = 0.31299 0.29677
#
# Static dielectric constant tensor:
#      x y z
#    x 3.673830 0.000000 -0.637030 
#    y 0.000000 3.780620 0.000000 
#    z -0.637030 0.000000 3.856130 
# 
# 
# High freq. dielectric constant tensor:
#      x y z
#    x 1.759700 0.000000 -0.049240 
#    y 0.000000 1.801280 0.000000 
#    z -0.049240 0.000000 1.772680 
# 
# From -- ./inp_files/35628.got.cif
#   From: 2010.06.25/outbox.cif.g09.slc.cpg/sg15_18_cif.got.tgz:35628.got - 2010.06.28 07:06:18.
