data_PCOD8131346
_publ_section_title
;
Structure prediction by ZEFSAII (Michael W. Deem and Ramdas Pophale) SiO2 
 PCOD8131346
Probable space group: C 2/C
;
_chemical_formula_sum "Si O2"
_cell_formula_units_Z 52
_cell_length_a 9.636890
_cell_length_b 29.635774
_cell_length_c 14.650337
_cell_angle_alpha 90.000000
_cell_angle_beta 135.395339
_cell_angle_gamma 90.000000
_cell_volume 2938.112379
_symmetry_space_group_name_H-M "C 2/C"
_symmetry_group_IT_number 15
_symmetry_cell_setting 'monoclinic'
loop_
_space_group_symop_operation_xyz
x,y,z
-x,y,1/2-z
-x,-y,-z
x,-y,1/2+z
1/2+x,1/2+y,z
1/2-x,1/2+y,1/2-z
1/2-x,1/2-y,-z
1/2+x,1/2-y,1/2+z
loop_
_atom_site_type_symbol
_atom_site_label
_atom_site_fract_x
_atom_site_fract_y
_atom_site_fract_z
Si Si1 0.500000 0.887218 0.750000
Si Si2 0.483227 0.527761 0.849805
Si Si3 0.056625 0.868894 0.172835
Si Si4 0.092771 0.750238 0.551531
Si Si5 0.823028 0.319637 0.550885
Si Si6 0.195142 0.708899 0.783877
Si Si7 0.284204 0.026929 0.145185
O O1 0.496954 0.853586 0.661938
O O2 0.693089 0.919031 0.828864
O O3 0.500000 0.516987 0.750000
O O4 0.403113 0.578449 0.828546
O O5 0.334085 0.492734 0.825168
O O6 0.689010 0.519734 0.000201
O O7 0.245672 0.839210 0.232543
O O8 0.000000 0.860878 0.250000
O O9 0.869367 0.850725 0.031551
O O10 0.112742 0.700532 0.515979
O O11 0.277697 0.779055 0.600170
O O12 0.131937 0.745099 0.677261
O O13 0.876352 0.771009 0.428703
O O14 0.000000 0.699470 0.750000
O O15 0.500000 0.003432 0.250000
#
# Coordination Sequence:
#
# PCOD8131346 Si02
#       7
#     4   8   8   8   8   8   8
#     4  10  18  34  56  84 112 144 178 234 272 326
#     4  10  20  36  59  83 110 146 183 235 277 330
#     4  10  18  33  55  77 102 134 187 225 261 316
#     4  10  21  34  55  82 109 144 185 227 268 324
#     4  10  18  32  58  82 104 137 188 232 262 303
#     4  11  22  35  52  77 115 145 177 218 280 331
#     4   9  20  36  56  82 113 143 183 225 282 338
#
# _framework density 17.698436999999998
#
# number of rings (size 3 to 8) (size 9 to 14) (size 15 to 20)
#    0.462    1.538    3.077    1.385    0.000    1.231 
#    0.000    0.000    6.769    0.923    0.000    0.000 
#    0.000    0.000    0.000    0.000    0.000    0.000 
#
# Total GULP energy -322107.347413 kJ/mol
# GULP energy per Si atom -12388.744131 kJ/mol
# Density = 1.765816 g / cm^3
# Si number density = 17.698437 Si / 1000 Ang^3
#
#
#
# Elastic Constant Matrix: (Units=GPa)
#
#
# Indices 1 2 3 4 5 6 
#
# 1 84.7434 37.3309 45.1231 0.0000 0.7819 0.0000
# 2 37.3309 89.1265 36.8655 0.0000 -2.7996 0.0000
# 3 45.1231 36.8655 105.3699 0.0000 -1.5261 0.0000
# 4 0.0000 0.0000 0.0000 63.2728 0.0000 -10.8048
# 5 0.7819 -2.7996 -1.5261 0.0000 28.8196 0.0000
# 6 0.0000 0.0000 0.0000 -10.8048 0.0000 26.7500
#
#
#
# Elastic Compliance Matrix: (Units=1/GPa)
#
#
# Indices 1 2 3 4 5 6 
#
# 1 0.016897 -0.004812 -0.005570 0.000000 -0.001221 0.000000
# 2 -0.004812 0.014519 -0.002999 0.000000 0.001382 0.000000
# 3 -0.005570 -0.002999 0.012933 0.000000 0.000545 0.000000
# 4 0.000000 0.000000 0.000000 0.016975 0.000000 0.006857
# 5 -0.001221 0.001382 0.000545 0.000000 0.034895 0.000000
# 6 0.000000 0.000000 0.000000 0.006857 0.000000 0.040153
#
#
# Mechanical properties :
#
#
# Convention : Reuss Voigt Hill
#
# Bulk Modulus (GPa) = 56.85977 57.54206 57.20092
# Shear Modulus (GPa) = 29.58623 34.42982 32.00803
#
# Velocity S-wave (km/s) = 4.09306 4.41541 4.25729
# Velocity P-wave (km/s) = 7.38473 7.65360 7.52037
#
# Compressibility (1/GPa) = 0.01758713
#
# Stress axis : x y z
#
# Youngs Moduli (GPa) = 59.18141 68.87309 77.32186
#
# Poissons Ratio (x) = 0.33140 0.43070
# Poissons Ratio (y) = 0.28477 0.23191
# Poissons Ratio (z) = 0.32965 0.20657
#
# Static dielectric constant tensor:
#      x y z
#    x 2.980850 0.000000 0.033980 
#    y 0.000000 3.339140 0.000000 
#    z 0.033980 0.000000 3.442370 
# 
# 
# High freq. dielectric constant tensor:
#      x y z
#    x 1.651170 0.000000 -0.000490 
#    y 0.000000 1.685980 0.000000 
#    z -0.000490 0.000000 1.698960 
# 
# From -- ./inp_files/139313.got.cif
#   From: 2010.06.25/outbox.cif.g09.slc.cpg/sg15_70_cif.got.tgz:139313.got - 2010.06.28 07:06:18.
