data_PCOD8131547
_publ_section_title
;
Structure prediction by ZEFSAII (Michael W. Deem and Ramdas Pophale) SiO2 
 PCOD8131547
Probable space group: C 2/C
;
_chemical_formula_sum "Si O2"
_cell_formula_units_Z 64
_cell_length_a 17.838478
_cell_length_b 25.732206
_cell_length_c 13.899807
_cell_angle_alpha 90.000000
_cell_angle_beta 149.399973
_cell_angle_gamma 90.000000
_cell_volume 3247.858132
_symmetry_space_group_name_H-M "C 2/C"
_symmetry_group_IT_number 15
_symmetry_cell_setting 'monoclinic'
loop_
_space_group_symop_operation_xyz
x,y,z
-x,y,1/2-z
-x,-y,-z
x,-y,1/2+z
1/2+x,1/2+y,z
1/2-x,1/2+y,1/2-z
1/2-x,1/2-y,-z
1/2+x,1/2-y,1/2+z
loop_
_atom_site_type_symbol
_atom_site_label
_atom_site_fract_x
_atom_site_fract_y
_atom_site_fract_z
Si Si1 0.117656 0.904639 0.610856
Si Si2 0.702619 0.587698 0.774936
Si Si3 0.325993 0.994226 0.788843
Si Si4 0.825933 0.169528 0.070443
Si Si5 0.362840 0.705869 0.315067
Si Si6 0.669315 0.975488 0.927125
Si Si7 0.627249 0.437193 0.822675
Si Si8 0.705516 0.695430 0.672494
O O1 0.257909 0.941781 0.757176
O O2 0.172611 0.845370 0.659860
O O3 0.051441 0.910981 0.645751
O O4 0.970806 0.916915 0.386498
O O5 0.746727 0.545222 0.742686
O O6 0.743108 0.644847 0.778521
O O7 0.791158 0.578623 0.973997
O O8 0.285595 0.983706 0.632997
O O9 0.500000 0.000000 0.000000
O O10 0.784144 0.200988 0.122050
O O11 0.778571 0.108839 0.023857
O O12 0.000000 0.170810 0.250000
O O13 0.746815 0.189572 0.887015
O O14 0.536965 0.711335 0.496315
O O15 0.302482 0.754605 0.310041
O O16 0.500000 0.987732 0.750000
O O17 0.762533 0.017656 0.090103
O O18 0.500000 0.460373 0.750000
#
# Coordination Sequence:
#
# PCOD8131547 Si02
#       8
#     8   8   8   8   8   8   8   8
#     4  10  21  38  57  87 118 153 204 237 290 351
#     4  11  23  39  59  86 121 157 196 241 292 360
#     4  12  23  39  60  86 121 153 190 247 296 350
#     4   8  15  30  52  81 116 150 190 231 283 345
#     4   9  19  33  56  82 113 155 193 243 284 352
#     4  12  24  38  54  84 118 154 195 239 303 352
#     4  10  18  33  58  83 117 157 194 235 282 348
#     4  10  19  35  54  83 114 150 196 239 296 343
#
# _framework density 19.705293999999999
#
# number of rings (size 3 to 8) (size 9 to 14) (size 15 to 20)
#    0.000    1.750    2.500    4.500    1.750    1.000 
#    0.000    2.500    0.000    1.500    0.000    0.000 
#    0.000    0.000    0.000    0.000    0.000    0.000 
#
# Total GULP energy -396426.598690 kJ/mol
# GULP energy per Si atom -12388.331209 kJ/mol
# Density = 1.966044 g / cm^3
# Si number density = 19.705294 Si / 1000 Ang^3
#
#
#
# Elastic Constant Matrix: (Units=GPa)
#
#
# Indices 1 2 3 4 5 6 
#
# 1 60.8760 47.0197 30.5481 0.0000 -4.5948 0.0000
# 2 47.0197 150.8857 51.8609 0.0000 13.6333 0.0000
# 3 30.5481 51.8609 72.7214 0.0000 1.2885 0.0000
# 4 0.0000 0.0000 0.0000 21.5733 0.0000 7.5535
# 5 -4.5948 13.6333 1.2885 0.0000 30.6316 0.0000
# 6 0.0000 0.0000 0.0000 7.5535 0.0000 32.5596
#
#
#
# Elastic Compliance Matrix: (Units=1/GPa)
#
#
# Indices 1 2 3 4 5 6 
#
# 1 0.024822 -0.006254 -0.006087 0.000000 0.006763 0.000000
# 2 -0.006254 0.010782 -0.004964 0.000000 -0.005528 0.000000
# 3 -0.006087 -0.004964 0.019840 0.000000 0.000462 0.000000
# 4 0.000000 0.000000 0.000000 0.050452 0.000000 -0.011704
# 5 0.006763 -0.005528 0.000462 0.000000 0.036101 0.000000
# 6 0.000000 0.000000 0.000000 -0.011704 0.000000 0.033428
#
#
# Mechanical properties :
#
#
# Convention : Reuss Voigt Hill
#
# Bulk Modulus (GPa) = 47.99790 60.37116 54.18453
# Shear Modulus (GPa) = 23.04352 27.28988 25.16670
#
# Velocity S-wave (km/s) = 3.42337 3.72546 3.57761
# Velocity P-wave (km/s) = 6.32746 7.01491 6.68003
#
# Compressibility (1/GPa) = 0.02083425
#
# Stress axis : x y z
#
# Youngs Moduli (GPa) = 40.28629 92.74520 50.40334
#
# Poissons Ratio (x) = 0.58005 0.30679
# Poissons Ratio (y) = 0.25196 0.25021
# Poissons Ratio (z) = 0.24521 0.46040
#
# Static dielectric constant tensor:
#      x y z
#    x 3.612730 0.000000 -0.185770 
#    y 0.000000 3.685740 0.000000 
#    z -0.185770 0.000000 3.463120 
# 
# 
# High freq. dielectric constant tensor:
#      x y z
#    x 1.752460 0.000000 0.001010 
#    y 0.000000 1.768530 0.000000 
#    z 0.001010 0.000000 1.747460 
# 
# From -- ./inp_files/164285.got.cif
#   From: 2010.06.25/outbox.cif.g09.slc.cpg/sg15_83_cif.got.tgz:164285.got - 2010.06.28 07:06:18.
