data_PCOD8131181
_publ_section_title
;
Structure prediction by ZEFSAII (Michael W. Deem and Ramdas Pophale) SiO2 
 PCOD8131181
Probable space group: C 2/C
;
_chemical_formula_sum "Si O2"
_cell_formula_units_Z 48
_cell_length_a 13.702398
_cell_length_b 27.375968
_cell_length_c 5.339952
_cell_angle_alpha 90.000000
_cell_angle_beta 84.248132
_cell_angle_gamma 90.000000
_cell_volume 1993.018496
_symmetry_space_group_name_H-M "C 2/C"
_symmetry_group_IT_number 15
_symmetry_cell_setting 'monoclinic'
loop_
_space_group_symop_operation_xyz
x,y,z
-x,y,1/2-z
-x,-y,-z
x,-y,1/2+z
1/2+x,1/2+y,z
1/2-x,1/2+y,1/2-z
1/2-x,1/2-y,-z
1/2+x,1/2-y,1/2+z
loop_
_atom_site_type_symbol
_atom_site_label
_atom_site_fract_x
_atom_site_fract_y
_atom_site_fract_z
Si Si1 0.886231 0.513121 0.150738
Si Si2 0.287119 0.891245 0.676175
Si Si3 0.852289 0.282859 0.707081
Si Si4 0.500000 0.352097 0.750000
Si Si5 0.212650 0.065950 0.705863
Si Si6 0.000000 0.084138 0.750000
Si Si7 0.629770 0.737936 0.293546
O O1 0.944482 0.508505 0.397766
O O2 0.872341 0.569690 0.107906
O O3 0.782848 0.481901 0.213501
O O4 0.342512 0.840675 0.691152
O O5 0.221134 0.896664 0.441528
O O6 0.231283 0.903592 0.947505
O O7 0.746323 0.257797 0.750041
O O8 0.911550 0.264928 0.445037
O O9 0.908913 0.265292 0.944386
O O10 0.511807 0.383423 0.496680
O O11 0.404521 0.318263 0.719058
O O12 0.097882 0.050158 0.715609
#
# Coordination Sequence:
#
# PCOD8131181 Si02
#       7
#     8   8   8   4   8   4   8
#     4   8  16  29  44  64  92 125 155 194 249 284
#     4  10  18  32  50  67  93 127 161 203 254 293
#     4  10  19  33  52  73  94 123 167 209 251 301
#     4  12  24  38  52  73 104 138 174 213 258 302
#     4  10  19  31  46  70  97 130 169 207 241 283
#     4  12  22  32  50  69  94 138 182 203 236 300
#     4  10  21  34  50  72  96 124 162 212 256 297
#
# _framework density 24.084071999999999
#
# number of rings (size 3 to 8) (size 9 to 14) (size 15 to 20)
#    0.000    2.000    0.000    5.000    0.000    2.667 
#    0.000    7.500    0.000    0.000    0.000    0.000 
#    0.000    0.000    0.000  135.000    0.000    0.000 
#
# Total GULP energy -297343.311179 kJ/mol
# GULP energy per Si atom -12389.304632 kJ/mol
# Density = 2.402926 g / cm^3
# Si number density = 24.084072 Si / 1000 Ang^3
#
#
#
# Elastic Constant Matrix: (Units=GPa)
#
#
# Indices 1 2 3 4 5 6 
#
# 1 74.9561 4.7802 14.3202 0.0000 17.0434 0.0000
# 2 4.7802 100.6131 34.1333 0.0000 2.4934 0.0000
# 3 14.3202 34.1333 219.6605 0.0000 11.1438 0.0000
# 4 0.0000 0.0000 0.0000 56.4234 0.0000 10.4815
# 5 17.0434 2.4934 11.1438 0.0000 18.8658 0.0000
# 6 0.0000 0.0000 0.0000 10.4815 0.0000 17.9646
#
#
#
# Elastic Compliance Matrix: (Units=1/GPa)
#
#
# Indices 1 2 3 4 5 6 
#
# 1 0.016824 -0.000331 -0.000285 0.000000 -0.014987 0.000000
# 2 -0.000331 0.010502 -0.001603 0.000000 -0.000142 0.000000
# 3 -0.000285 -0.001603 0.004945 0.000000 -0.002451 0.000000
# 4 0.000000 0.000000 0.000000 0.019878 0.000000 -0.011598
# 5 -0.014987 -0.000142 -0.002451 0.000000 0.068012 0.000000
# 6 0.000000 0.000000 0.000000 -0.011598 0.000000 0.062432
#
#
# Mechanical properties :
#
#
# Convention : Reuss Voigt Hill
#
# Bulk Modulus (GPa) = 35.92944 55.74414 45.83679
# Shear Modulus (GPa) = 25.47009 41.45051 33.46030
#
# Velocity S-wave (km/s) = 3.25553 4.15309 3.73139
# Velocity P-wave (km/s) = 5.39277 6.79657 6.13496
#
# Compressibility (1/GPa) = 0.02783233
#
# Stress axis : x y z
#
# Youngs Moduli (GPa) = 59.43720 95.21826 202.24339
#
# Poissons Ratio (x) = 0.03154 0.05765
# Poissons Ratio (y) = 0.01969 0.32423
# Poissons Ratio (z) = 0.01694 0.15265
#
# Static dielectric constant tensor:
#      x y z
#    x 4.237990 0.000000 0.209130 
#    y 0.000000 3.942110 0.000000 
#    z 0.209130 0.000000 5.397390 
# 
# 
# High freq. dielectric constant tensor:
#      x y z
#    x 1.964080 0.000000 0.007880 
#    y 0.000000 1.928410 0.000000 
#    z 0.007880 0.000000 2.003810 
# 
# From -- ./inp_files/8262.got.cif
#   From: 2010.06.25/outbox.cif.g09.slc.cpg/sg15_5_cif.got.tgz:8262.got - 2010.06.28 07:06:18.
