data_PCOD8131444
_publ_section_title
;
Structure prediction by ZEFSAII (Michael W. Deem and Ramdas Pophale) SiO2 
 PCOD8131444
Probable space group: C 2/C
;
_chemical_formula_sum "Si O2"
_cell_formula_units_Z 64
_cell_length_a 8.657083
_cell_length_b 27.233432
_cell_length_c 14.786455
_cell_angle_alpha 90.000000
_cell_angle_beta 75.769923
_cell_angle_gamma 90.000000
_cell_volume 3379.119908
_symmetry_space_group_name_H-M "C 2/C"
_symmetry_group_IT_number 15
_symmetry_cell_setting 'monoclinic'
loop_
_space_group_symop_operation_xyz
x,y,z
-x,y,1/2-z
-x,-y,-z
x,-y,1/2+z
1/2+x,1/2+y,z
1/2-x,1/2+y,1/2-z
1/2-x,1/2-y,-z
1/2+x,1/2-y,1/2+z
loop_
_atom_site_type_symbol
_atom_site_label
_atom_site_fract_x
_atom_site_fract_y
_atom_site_fract_z
Si Si1 0.173507 0.781980 0.712117
Si Si2 0.208891 0.694189 0.111268
Si Si3 0.528559 0.725338 0.851510
Si Si4 0.186744 0.117796 0.110627
Si Si5 0.967266 0.018387 0.354932
Si Si6 0.011170 0.141301 0.519963
Si Si7 0.692984 0.541218 0.478898
Si Si8 0.021216 0.405787 0.641207
O O1 0.265880 0.794144 0.788987
O O2 0.297365 0.746273 0.642762
O O3 0.141393 0.833034 0.668098
O O4 0.000000 0.756194 0.750000
O O5 0.098158 0.646984 0.120690
O O6 0.110756 0.740402 0.082688
O O7 0.380011 0.682717 0.044390
O O8 0.500000 0.724424 0.750000
O O9 0.527941 0.668271 0.880849
O O10 0.063044 0.075807 0.158010
O O11 0.359422 0.096699 0.107822
O O12 0.153466 0.129949 0.009780
O O13 0.000000 0.994782 0.250000
O O14 0.116702 0.013841 0.402248
O O15 0.817980 0.992876 0.429398
O O16 0.103925 0.090955 0.520984
O O17 0.873743 0.552771 0.424276
O O18 0.000000 0.420098 0.750000
#
# Coordination Sequence:
#
# PCOD8131444 Si02
#       8
#     8   8   8   8   8   8   8   8
#     4  11  19  33  51  80 111 143 177 223 273 333
#     4  10  18  33  53  78 108 140 182 223 265 328
#     4  10  21  36  52  76 107 147 186 223 272 332
#     4  11  20  32  55  82 111 141 177 227 286 327
#     4  10  20  37  59  81 109 144 187 233 288 330
#     4  10  21  35  54  77 108 143 183 228 272 322
#     4   9  22  37  54  85 110 142 192 233 271 348
#     4  11  18  32  55  83 116 146 177 226 287 331
#
# _framework density 18.939841999999999
#
# number of rings (size 3 to 8) (size 9 to 14) (size 15 to 20)
#    0.000    1.750    3.750    1.875    1.750    1.500 
#    0.000    1.250    0.000    0.000    0.000    5.250 
#    0.000    0.000    0.000    0.000    0.000    0.000 
#
# Total GULP energy -396470.697971 kJ/mol
# GULP energy per Si atom -12389.709312 kJ/mol
# Density = 1.889673 g / cm^3
# Si number density = 18.939842 Si / 1000 Ang^3
#
#
#
# Elastic Constant Matrix: (Units=GPa)
#
#
# Indices 1 2 3 4 5 6 
#
# 1 82.5316 6.8624 28.5661 0.0000 6.4416 0.0000
# 2 6.8624 58.2690 34.9603 0.0000 0.0996 0.0000
# 3 28.5661 34.9603 80.3979 0.0000 1.6690 0.0000
# 4 0.0000 0.0000 0.0000 29.7099 0.0000 0.8525
# 5 6.4416 0.0996 1.6690 0.0000 14.1759 0.0000
# 6 0.0000 0.0000 0.0000 0.8525 0.0000 18.7852
#
#
#
# Elastic Compliance Matrix: (Units=1/GPa)
#
#
# Indices 1 2 3 4 5 6 
#
# 1 0.014428 0.001777 -0.005777 0.000000 -0.005888 0.000000
# 2 0.001777 0.023454 -0.010836 0.000000 0.000304 0.000000
# 3 -0.005777 -0.010836 0.019194 0.000000 0.000441 0.000000
# 4 0.000000 0.000000 0.000000 0.033703 0.000000 -0.001530
# 5 -0.005888 0.000304 0.000441 0.000000 0.073164 0.000000
# 6 0.000000 0.000000 0.000000 -0.001530 0.000000 0.053303
#
#
# Mechanical properties :
#
#
# Convention : Reuss Voigt Hill
#
# Bulk Modulus (GPa) = 36.49272 40.21956 38.35614
# Shear Modulus (GPa) = 19.52738 22.58819 21.05779
#
# Velocity S-wave (km/s) = 3.21444 3.45719 3.33802
# Velocity P-wave (km/s) = 5.75207 6.10064 5.92892
#
# Compressibility (1/GPa) = 0.02740273
#
# Stress axis : x y z
#
# Youngs Moduli (GPa) = 69.31014 42.63753 52.10087
#
# Poissons Ratio (x) = -0.07576 0.30098
# Poissons Ratio (y) = -0.12315 0.56457
# Poissons Ratio (z) = 0.40039 0.46203
#
# Static dielectric constant tensor:
#      x y z
#    x 3.711920 0.000000 -0.071610 
#    y 0.000000 3.501200 0.000000 
#    z -0.071610 0.000000 3.388380 
# 
# 
# High freq. dielectric constant tensor:
#      x y z
#    x 1.736860 0.000000 0.002290 
#    y 0.000000 1.723960 0.000000 
#    z 0.002290 0.000000 1.718190 
# 
# From -- ./inp_files/139275.got.cif
#   From: 2010.06.25/outbox.cif.g09.slc.cpg/sg15_70_cif.got.tgz:139275.got - 2010.06.28 07:06:18.
