data_PCOD8131771
_publ_section_title
;
Structure prediction by ZEFSAII (Michael W. Deem and Ramdas Pophale) SiO2 
 PCOD8131771
Probable space group: C 2/C
;
_chemical_formula_sum "Si O2"
_cell_formula_units_Z 52
_cell_length_a 13.267455
_cell_length_b 13.164469
_cell_length_c 15.898864
_cell_angle_alpha 90.000000
_cell_angle_beta 77.639977
_cell_angle_gamma 90.000000
_cell_volume 2712.516804
_symmetry_space_group_name_H-M "C 2/C"
_symmetry_group_IT_number 15
_symmetry_cell_setting 'monoclinic'
loop_
_space_group_symop_operation_xyz
x,y,z
-x,y,1/2-z
-x,-y,-z
x,-y,1/2+z
1/2+x,1/2+y,z
1/2-x,1/2+y,1/2-z
1/2-x,1/2-y,-z
1/2+x,1/2-y,1/2+z
loop_
_atom_site_type_symbol
_atom_site_label
_atom_site_fract_x
_atom_site_fract_y
_atom_site_fract_z
Si Si1 0.675683 0.881682 0.364629
Si Si2 0.000000 0.131823 0.750000
Si Si3 0.378032 0.600087 0.926871
Si Si4 0.804497 0.802110 0.193692
Si Si5 0.836069 0.894145 0.009076
Si Si6 0.005746 0.737840 0.987181
Si Si7 0.838167 0.390211 0.595699
O O1 0.762700 0.868875 0.420410
O O2 0.712326 0.843975 0.267083
O O3 0.576139 0.814135 0.404068
O O4 0.648025 0.000660 0.363900
O O5 0.055798 0.064985 0.667428
O O6 0.087589 0.201471 0.775922
O O7 0.381969 0.507174 0.991465
O O8 0.425330 0.698976 0.960438
O O9 0.813132 0.874960 0.111028
O O10 0.782797 0.685810 0.171465
O O11 0.731298 0.888932 0.975394
O O12 0.919027 0.810953 0.960952
O O13 0.951268 0.649259 0.050585
#
# Coordination Sequence:
#
# PCOD8131771 Si02
#       7
#     8   4   8   8   8   8   8
#     4  10  23  36  57  89 115 145 194 243 279 335
#     4  10  18  34  58  86 112 144 190 242 282 332
#     4  10  20  36  59  88 113 149 192 236 284 341
#     4  10  20  37  60  80 119 146 194 234 292 328
#     4  10  21  38  61  83 113 156 193 228 287 344
#     4  11  19  36  60  82 118 151 191 228 288 345
#     4  10  21  41  60  78 116 161 184 228 290 351
#
# _framework density 19.170389
#
# number of rings (size 3 to 8) (size 9 to 14) (size 15 to 20)
#    0.000    1.846    3.077    3.231    0.000    1.231 
#    5.538    3.846    3.385    0.000    0.000    0.000 
#    0.000    0.000    0.000    0.000    0.000    0.000 
#
# Total GULP energy -322325.346732 kJ/mol
# GULP energy per Si atom -12397.128720 kJ/mol
# Density = 1.912676 g / cm^3
# Si number density = 19.170389 Si / 1000 Ang^3
#
#
#
# Elastic Constant Matrix: (Units=GPa)
#
#
# Indices 1 2 3 4 5 6 
#
# 1 65.5420 54.8218 45.0906 0.0000 -17.6017 0.0000
# 2 54.8218 117.0372 82.4728 0.0000 -15.6715 0.0000
# 3 45.0906 82.4728 134.1093 0.0000 -17.4041 0.0000
# 4 0.0000 0.0000 0.0000 27.7540 0.0000 -1.0962
# 5 -17.6017 -15.6715 -17.4041 0.0000 30.9913 0.0000
# 6 0.0000 0.0000 0.0000 -1.0962 0.0000 30.2875
#
#
#
# Elastic Compliance Matrix: (Units=1/GPa)
#
#
# Indices 1 2 3 4 5 6 
#
# 1 0.027792 -0.010640 -0.001565 0.000000 0.009525 0.000000
# 2 -0.010640 0.019350 -0.008453 0.000000 -0.001005 0.000000
# 3 -0.001565 -0.008453 0.013494 0.000000 0.002415 0.000000
# 4 0.000000 0.000000 0.000000 0.036082 0.000000 0.001306
# 5 0.009525 -0.001005 0.002415 0.000000 0.038525 0.000000
# 6 0.000000 0.000000 0.000000 0.001306 0.000000 0.033064
#
#
# Mechanical properties :
#
#
# Convention : Reuss Voigt Hill
#
# Bulk Modulus (GPa) = 51.75688 75.71767 63.73728
# Shear Modulus (GPa) = 23.14148 26.76010 24.95079
#
# Velocity S-wave (km/s) = 3.47817 3.74024 3.61158
# Velocity P-wave (km/s) = 6.57170 7.63122 7.12119
#
# Compressibility (1/GPa) = 0.01932110
#
# Stress axis : x y z
#
# Youngs Moduli (GPa) = 35.98217 51.68009 74.10566
#
# Poissons Ratio (x) = 0.54986 0.11597
# Poissons Ratio (y) = 0.38284 0.62639
# Poissons Ratio (z) = 0.05631 0.43683
#
# Static dielectric constant tensor:
#      x y z
#    x 3.586410 0.000000 -0.094380 
#    y 0.000000 3.533040 0.000000 
#    z -0.094380 0.000000 3.517630 
# 
# 
# High freq. dielectric constant tensor:
#      x y z
#    x 1.752020 0.000000 -0.004500 
#    y 0.000000 1.741270 0.000000 
#    z -0.004500 0.000000 1.737350 
# 
# From -- ./inp_files/153364.got.cif
#   From: 2010.06.25/outbox.cif.g09.slc.cpg/sg15_77_cif.got.tgz:153364.got - 2010.06.28 07:06:18.
