data_PCOD8131024
_publ_section_title
;
Structure prediction by ZEFSAII (Michael W. Deem and Ramdas Pophale) SiO2 
 PCOD8131024
Probable space group: C 2/C
;
_chemical_formula_sum "Si O2"
_cell_formula_units_Z 60
_cell_length_a 20.061497
_cell_length_b 8.341753
_cell_length_c 17.390311
_cell_angle_alpha 90.000000
_cell_angle_beta 93.072263
_cell_angle_gamma 90.000000
_cell_volume 2906.051899
_symmetry_space_group_name_H-M "C 2/C"
_symmetry_group_IT_number 15
_symmetry_cell_setting 'monoclinic'
loop_
_space_group_symop_operation_xyz
x,y,z
-x,y,1/2-z
-x,-y,-z
x,-y,1/2+z
1/2+x,1/2+y,z
1/2-x,1/2+y,1/2-z
1/2-x,1/2-y,-z
1/2+x,1/2-y,1/2+z
loop_
_atom_site_type_symbol
_atom_site_label
_atom_site_fract_x
_atom_site_fract_y
_atom_site_fract_z
Si Si1 0.147915 0.271848 0.506932
Si Si2 0.757973 0.994160 0.988218
Si Si3 0.793172 0.769143 0.117189
Si Si4 0.600186 0.298020 0.162672
Si Si5 0.500000 0.497469 0.250000
Si Si6 0.714100 0.486217 0.249649
Si Si7 0.861655 0.554543 0.215289
Si Si8 0.614331 0.706514 0.330980
O O1 0.181912 0.449749 0.506156
O O2 0.093767 0.253033 0.572326
O O3 0.117306 0.219005 0.423623
O O4 0.205656 0.151533 0.539241
O O5 0.757218 0.859961 0.922270
O O6 0.801626 0.918402 0.059992
O O7 0.761793 0.843878 0.192534
O O8 0.865173 0.685649 0.144658
O O9 0.533893 0.386399 0.187458
O O10 0.662526 0.415309 0.184029
O O11 0.606590 0.127420 0.206433
O O12 0.550800 0.605388 0.301344
O O13 0.780733 0.543513 0.212440
O O14 0.680714 0.628703 0.298484
O O15 0.896118 0.386811 0.200647
#
# Coordination Sequence:
#
# PCOD8131024 Si02
#       8
#     8   8   8   8   4   8   8   8
#     4  11  21  36  61  95 123 163 198 257 309 365
#     4  10  20  30  54  90 137 156 187 239 318 376
#     4  10  18  31  48  83 130 170 184 230 289 380
#     4  10  23  39  64  89 122 162 209 253 304 362
#     4  10  26  48  64  82 114 172 222 252 298 362
#     4  10  20  35  57  94 127 166 197 241 312 383
#     4  11  21  35  62  92 126 162 201 250 313 375
#     4  11  22  41  64  87 123 166 210 257 302 357
#
# _framework density 20.646567999999998
#
# number of rings (size 3 to 8) (size 9 to 14) (size 15 to 20)
#    0.000    1.600    2.667    3.200    3.733    2.133 
#    0.000    0.000    0.000    1.600    0.000    0.000 
#    0.000    0.000    0.000    0.000    0.000    0.000 
#
# Total GULP energy -371693.446423 kJ/mol
# GULP energy per Si atom -12389.781547 kJ/mol
# Density = 2.059958 g / cm^3
# Si number density = 20.646568 Si / 1000 Ang^3
#
#
#
# Elastic Constant Matrix: (Units=GPa)
#
#
# Indices 1 2 3 4 5 6 
#
# 1 74.3442 28.2797 29.1737 0.0000 -8.8950 0.0000
# 2 28.2797 107.3279 38.8852 0.0000 -4.6322 0.0000
# 3 29.1737 38.8852 125.7336 0.0000 -5.7428 0.0000
# 4 0.0000 0.0000 0.0000 26.8609 0.0000 2.0195
# 5 -8.8950 -4.6322 -5.7428 0.0000 15.7482 0.0000
# 6 0.0000 0.0000 0.0000 2.0195 0.0000 19.2697
#
#
#
# Elastic Compliance Matrix: (Units=1/GPa)
#
#
# Indices 1 2 3 4 5 6 
#
# 1 0.016525 -0.003114 -0.002529 0.000000 0.007495 0.000000
# 2 -0.003114 0.011138 -0.002698 0.000000 0.000533 0.000000
# 3 -0.002529 -0.002698 0.009430 0.000000 0.001217 0.000000
# 4 0.000000 0.000000 0.000000 0.037525 0.000000 -0.003933
# 5 0.007495 0.000533 0.001217 0.000000 0.068334 0.000000
# 6 0.000000 0.000000 0.000000 -0.003933 0.000000 0.052307
#
#
# Mechanical properties :
#
#
# Convention : Reuss Voigt Hill
#
# Bulk Modulus (GPa) = 48.99237 55.56476 52.27856
# Shear Modulus (GPa) = 22.85780 26.44689 24.65235
#
# Velocity S-wave (km/s) = 3.33092 3.58290 3.45920
# Velocity P-wave (km/s) = 6.21079 6.63980 6.42888
#
# Compressibility (1/GPa) = 0.02041134
#
# Stress axis : x y z
#
# Youngs Moduli (GPa) = 60.51533 89.78062 106.04529
#
# Poissons Ratio (x) = 0.27962 0.26815
# Poissons Ratio (y) = 0.18847 0.28608
# Poissons Ratio (z) = 0.15302 0.24220
#
# Static dielectric constant tensor:
#      x y z
#    x 3.246140 0.000000 0.020090 
#    y 0.000000 4.145140 0.000000 
#    z 0.020090 0.000000 3.825250 
# 
# 
# High freq. dielectric constant tensor:
#      x y z
#    x 1.743570 0.000000 0.010690 
#    y 0.000000 1.835800 0.000000 
#    z 0.010690 0.000000 1.819610 
# 
# From -- ./inp_files/209607.got.cif
#   From: 2010.06.25/outbox.cif.g09.slc.cpg/sg15_105_cif.got.tgz:209607.got - 2010.06.28 07:06:18.
