data_PCOD8131510
_publ_section_title
;
Structure prediction by ZEFSAII (Michael W. Deem and Ramdas Pophale) SiO2 
 PCOD8131510
Probable space group: C 2/C
;
_chemical_formula_sum "Si O2"
_cell_formula_units_Z 56
_cell_length_a 21.644195
_cell_length_b 18.976913
_cell_length_c 9.529486
_cell_angle_alpha 90.000000
_cell_angle_beta 52.636855
_cell_angle_gamma 90.000000
_cell_volume 3110.979511
_symmetry_space_group_name_H-M "C 2/C"
_symmetry_group_IT_number 15
_symmetry_cell_setting 'monoclinic'
loop_
_space_group_symop_operation_xyz
x,y,z
-x,y,1/2-z
-x,-y,-z
x,-y,1/2+z
1/2+x,1/2+y,z
1/2-x,1/2+y,1/2-z
1/2-x,1/2-y,-z
1/2+x,1/2-y,1/2+z
loop_
_atom_site_type_symbol
_atom_site_label
_atom_site_fract_x
_atom_site_fract_y
_atom_site_fract_z
Si Si1 0.410745 0.484330 0.623277
Si Si2 0.807131 0.778115 0.214547
Si Si3 0.295756 0.338306 0.520627
Si Si4 0.807731 0.007171 0.007685
Si Si5 0.871481 0.827798 0.691963
Si Si6 0.414031 0.214810 0.836607
Si Si7 0.769245 0.640933 0.925638
O O1 0.500000 0.500000 0.500000
O O2 0.359932 0.526967 0.803188
O O3 0.372064 0.509961 0.534006
O O4 0.407219 0.403205 0.672805
O O5 0.776986 0.709583 0.338144
O O6 0.826911 0.830173 0.317789
O O7 0.743282 0.817493 0.203995
O O8 0.881491 0.756539 0.018325
O O9 0.265184 0.418295 0.596222
O O10 0.365459 0.317472 0.532209
O O11 0.747145 0.942791 0.071110
O O12 0.924552 0.769253 0.692671
O O13 0.785501 0.823885 0.880863
O O14 0.500000 0.183975 0.750000
O O15 0.356953 0.152024 0.862497
#
# Coordination Sequence:
#
# PCOD8131510 Si02
#       7
#     8   8   8   8   8   8   8
#     4  10  20  33  48  78 115 143 169 212 266 330
#     4  10  19  34  58  78 107 135 176 225 272 324
#     4  10  18  33  56  83 104 135 176 222 271 322
#     4  10  21  32  53  78 106 146 178 213 263 322
#     4   9  18  34  54  75 106 142 179 218 260 327
#     4  11  21  35  55  79 105 144 187 234 269 312
#     4  10  18  36  55  76 106 143 192 223 253 323
#
# _framework density 18.000761000000001
#
# number of rings (size 3 to 8) (size 9 to 14) (size 15 to 20)
#    0.000    2.000    2.857    2.143    0.000    4.571 
#    0.000    2.143    0.000    0.857    0.000    0.000 
#    0.000    0.000    0.000    0.000    0.000    0.000 
#
# Total GULP energy -346922.601534 kJ/mol
# GULP energy per Si atom -12390.092912 kJ/mol
# Density = 1.795979 g / cm^3
# Si number density = 18.000761 Si / 1000 Ang^3
#
#
#
# Elastic Constant Matrix: (Units=GPa)
#
#
# Indices 1 2 3 4 5 6 
#
# 1 122.8818 49.2613 52.2297 0.0000 2.1128 0.0000
# 2 49.2613 85.5053 23.2391 0.0000 -1.3717 0.0000
# 3 52.2297 23.2391 86.0798 0.0000 20.6708 0.0000
# 4 0.0000 0.0000 0.0000 23.2177 0.0000 4.1778
# 5 2.1128 -1.3717 20.6708 0.0000 36.2296 0.0000
# 6 0.0000 0.0000 0.0000 4.1778 0.0000 20.6500
#
#
#
# Elastic Compliance Matrix: (Units=1/GPa)
#
#
# Indices 1 2 3 4 5 6 
#
# 1 0.013545 -0.005726 -0.007452 0.000000 0.003245 0.000000
# 2 -0.005726 0.015293 -0.001012 0.000000 0.001490 0.000000
# 3 -0.007452 -0.001012 0.018907 0.000000 -0.010391 0.000000
# 4 0.000000 0.000000 0.000000 0.044698 0.000000 -0.009043
# 5 0.003245 0.001490 -0.010391 0.000000 0.033398 0.000000
# 6 0.000000 0.000000 0.000000 -0.009043 0.000000 0.050256
#
#
# Mechanical properties :
#
#
# Convention : Reuss Voigt Hill
#
# Bulk Modulus (GPa) = 51.64006 60.43635 56.03821
# Shear Modulus (GPa) = 23.70434 27.33526 25.51980
#
# Velocity S-wave (km/s) = 3.63278 3.90110 3.76933
# Velocity P-wave (km/s) = 6.80780 7.34429 7.08113
#
# Compressibility (1/GPa) = 0.01936481
#
# Stress axis : x y z
#
# Youngs Moduli (GPa) = 73.82801 65.38871 52.88983
#
# Poissons Ratio (x) = 0.37443 0.39413
# Poissons Ratio (y) = 0.42275 0.05354
# Poissons Ratio (z) = 0.55016 0.06619
#
# Static dielectric constant tensor:
#      x y z
#    x 3.195300 0.000000 0.423290 
#    y 0.000000 3.443950 0.000000 
#    z 0.423290 0.000000 3.676830 
# 
# 
# High freq. dielectric constant tensor:
#      x y z
#    x 1.677640 0.000000 0.036230 
#    y 0.000000 1.697260 0.000000 
#    z 0.036230 0.000000 1.690790 
# 
# From -- ./inp_files/49795.got.cif
#   From: 2010.06.25/outbox.cif.g09.slc.cpg/sg15_25_cif.got.tgz:49795.got - 2010.06.28 07:06:18.
