data_PCOD8131280
_publ_section_title
;
Structure prediction by ZEFSAII (Michael W. Deem and Ramdas Pophale) SiO2 
 PCOD8131280
Probable space group: C 2/C
;
_chemical_formula_sum "Si O2"
_cell_formula_units_Z 60
_cell_length_a 8.532895
_cell_length_b 18.896999
_cell_length_c 18.183179
_cell_angle_alpha 90.000000
_cell_angle_beta 68.633366
_cell_angle_gamma 90.000000
_cell_volume 2730.447323
_symmetry_space_group_name_H-M "C 2/C"
_symmetry_group_IT_number 15
_symmetry_cell_setting 'monoclinic'
loop_
_space_group_symop_operation_xyz
x,y,z
-x,y,1/2-z
-x,-y,-z
x,-y,1/2+z
1/2+x,1/2+y,z
1/2-x,1/2+y,1/2-z
1/2-x,1/2-y,-z
1/2+x,1/2-y,1/2+z
loop_
_atom_site_type_symbol
_atom_site_label
_atom_site_fract_x
_atom_site_fract_y
_atom_site_fract_z
Si Si1 0.634480 0.458235 0.089525
Si Si2 0.755954 0.954483 0.189311
Si Si3 0.147792 0.685573 0.780969
Si Si4 0.584972 0.139450 0.945584
Si Si5 0.623569 0.990167 0.065090
Si Si6 0.486560 0.854563 0.615500
Si Si7 0.185261 0.067140 0.208114
Si Si8 0.500000 0.235268 0.250000
O O1 0.439551 0.441657 0.124485
O O2 0.718476 0.380087 0.079682
O O3 0.689727 0.503836 0.149737
O O4 0.695704 0.500021 0.005941
O O5 0.697121 0.894944 0.255646
O O6 0.635998 0.948811 0.139776
O O7 0.745709 0.031941 0.228366
O O8 0.060624 0.686945 0.877079
O O9 0.330665 0.724573 0.750555
O O10 0.000000 0.713905 0.750000
O O11 0.497400 0.060537 0.962570
O O12 0.518604 0.181796 0.029637
O O13 0.556322 0.066507 0.098925
O O14 0.288677 0.863544 0.666846
O O15 0.567095 0.810226 0.668623
O O16 0.000000 0.098126 0.250000
#
# Coordination Sequence:
#
# PCOD8131280 Si02
#       8
#     8   8   8   8   8   8   8   4
#     4  10  18  32  54  99 137 157 191 251 334 405
#     4  11  21  33  60  93 131 165 211 265 319 386
#     4  12  25  45  68  92 124 179 241 276 307 370
#     4  11  20  38  70  94 127 164 211 268 332 391
#     4  11  19  35  64 102 127 161 198 259 347 402
#     4  11  22  42  64  94 133 166 205 263 335 410
#     4  10  19  32  60  97 129 162 196 255 331 397
#     4  12  30  46  66  88 128 182 230 272 316 378
#
# _framework density 21.974422000000001
#
# number of rings (size 3 to 8) (size 9 to 14) (size 15 to 20)
#    0.000    1.067    5.333    2.800    0.933    1.067 
#    0.000    0.667    2.933    0.000    0.000    0.000 
#    0.000    0.000    0.000    0.000    0.000    0.000 
#
# Total GULP energy -371721.265664 kJ/mol
# GULP energy per Si atom -12390.708855 kJ/mol
# Density = 2.192441 g / cm^3
# Si number density = 21.974422 Si / 1000 Ang^3
#
#
#
# Elastic Constant Matrix: (Units=GPa)
#
#
# Indices 1 2 3 4 5 6 
#
# 1 98.6247 26.4913 42.4885 0.0000 -5.3528 0.0000
# 2 26.4913 35.3813 24.9013 0.0000 5.7366 0.0000
# 3 42.4885 24.9013 159.0843 0.0000 6.5680 0.0000
# 4 0.0000 0.0000 0.0000 20.9179 0.0000 3.6749
# 5 -5.3528 5.7366 6.5680 0.0000 36.0611 0.0000
# 6 0.0000 0.0000 0.0000 3.6749 0.0000 11.9793
#
#
#
# Elastic Compliance Matrix: (Units=1/GPa)
#
#
# Indices 1 2 3 4 5 6 
#
# 1 0.013912 -0.009365 -0.002415 0.000000 0.003995 0.000000
# 2 -0.009365 0.038704 -0.003270 0.000000 -0.006951 0.000000
# 3 -0.002415 -0.003270 0.007492 0.000000 -0.001203 0.000000
# 4 0.000000 0.000000 0.000000 0.050529 0.000000 -0.015501
# 5 0.003995 -0.006951 -0.001203 0.000000 0.029649 0.000000
# 6 0.000000 0.000000 0.000000 -0.015501 0.000000 0.088233
#
#
# Mechanical properties :
#
#
# Convention : Reuss Voigt Hill
#
# Bulk Modulus (GPa) = 33.32311 53.42807 43.37559
# Shear Modulus (GPa) = 18.61363 27.07228 22.84295
#
# Velocity S-wave (km/s) = 2.91358 3.51378 3.22766
# Velocity P-wave (km/s) = 5.14937 6.38974 5.80279
#
# Compressibility (1/GPa) = 0.03000920
#
# Stress axis : x y z
#
# Youngs Moduli (GPa) = 71.88082 25.83732 133.46798
#
# Poissons Ratio (x) = 0.24196 0.32229
# Poissons Ratio (y) = 0.67313 0.43646
# Poissons Ratio (z) = 0.17357 0.08449
#
# Static dielectric constant tensor:
#      x y z
#    x 4.564840 0.000000 -0.304470 
#    y 0.000000 3.434760 0.000000 
#    z -0.304470 0.000000 4.705570 
# 
# 
# High freq. dielectric constant tensor:
#      x y z
#    x 1.862980 0.000000 -0.004560 
#    y 0.000000 1.812690 0.000000 
#    z -0.004560 0.000000 1.893790 
# 
# From -- ./inp_files/192086.got.cif
#   From: 2010.06.25/outbox.cif.g09.slc.cpg/sg15_97_cif.got.tgz:192086.got - 2010.06.28 07:06:18.
