data_PCOD8131315
_publ_section_title
;
Structure prediction by ZEFSAII (Michael W. Deem and Ramdas Pophale) SiO2 
 PCOD8131315
Probable space group: C 2/C
;
_chemical_formula_sum "Si O2"
_cell_formula_units_Z 40
_cell_length_a 21.194326
_cell_length_b 14.146903
_cell_length_c 9.008880
_cell_angle_alpha 90.000000
_cell_angle_beta 132.817537
_cell_angle_gamma 90.000000
_cell_volume 1981.366672
_symmetry_space_group_name_H-M "C 2/C"
_symmetry_group_IT_number 15
_symmetry_cell_setting 'monoclinic'
loop_
_space_group_symop_operation_xyz
x,y,z
-x,y,1/2-z
-x,-y,-z
x,-y,1/2+z
1/2+x,1/2+y,z
1/2-x,1/2+y,1/2-z
1/2-x,1/2-y,-z
1/2+x,1/2-y,1/2+z
loop_
_atom_site_type_symbol
_atom_site_label
_atom_site_fract_x
_atom_site_fract_y
_atom_site_fract_z
Si Si1 0.458027 0.297123 0.033688
Si Si2 0.452732 0.576788 0.021798
Si Si3 0.192814 0.476746 0.868595
Si Si4 0.914596 0.414064 0.541451
Si Si5 0.693272 0.439584 0.714039
O O1 0.500000 0.337157 0.250000
O O2 0.437374 0.187249 0.009542
O O3 0.531442 0.319816 0.026964
O O4 0.370585 0.353174 0.859528
O O5 0.500000 0.579786 0.250000
O O6 0.500000 0.500000 0.000000
O O7 0.353665 0.542937 0.876342
O O8 0.153072 0.406314 0.929637
O O9 0.119274 0.523806 0.649071
O O10 0.256271 0.420305 0.859571
O O11 0.243633 0.557311 0.042916
O O12 0.000000 0.460870 0.750000
#
# Coordination Sequence:
#
# PCOD8131315 Si02
#       5
#     8   8   8   8   8
#     4  10  20  35  56  83 116 149 185 231 275 333
#     4  10  18  32  56  85 120 152 176 216 274 341
#     4  10  21  36  58  78 107 151 183 233 284 328
#     4  10  22  40  57  76 105 147 197 236 276 333
#     4  10  18  33  56  86 114 141 182 223 287 344
#
# _framework density 20.188085000000001
#
# number of rings (size 3 to 8) (size 9 to 14) (size 15 to 20)
#    0.000    2.000    0.000    6.600    0.000    1.600 
#    0.000   11.000    0.000    0.000    0.000    0.000 
#    0.000    0.000    0.000    0.000    0.000    0.000 
#
# Total GULP energy -247826.988660 kJ/mol
# GULP energy per Si atom -12391.349433 kJ/mol
# Density = 2.014214 g / cm^3
# Si number density = 20.188085 Si / 1000 Ang^3
#
#
#
# Elastic Constant Matrix: (Units=GPa)
#
#
# Indices 1 2 3 4 5 6 
#
# 1 81.0453 21.9590 15.0960 0.0000 -10.4045 0.0000
# 2 21.9590 69.8713 19.4138 0.0000 -1.2919 0.0000
# 3 15.0960 19.4138 130.0095 0.0000 -5.5001 0.0000
# 4 0.0000 0.0000 0.0000 -15.0841 0.0000 13.2869
# 5 -10.4045 -1.2919 -5.5001 0.0000 39.6825 0.0000
# 6 0.0000 0.0000 0.0000 13.2869 0.0000 25.0207
#
#
#
# Elastic Compliance Matrix: (Units=1/GPa)
#
#
# Indices 1 2 3 4 5 6 
#
# 1 0.014056 -0.004111 -0.000873 0.000000 0.003430 0.000000
# 2 -0.004111 0.016135 -0.001967 0.000000 -0.000825 0.000000
# 3 -0.000873 -0.001967 0.008122 0.000000 0.000833 0.000000
# 4 0.000000 0.000000 0.000000 -0.045167 0.000000 0.023985
# 5 0.003430 -0.000825 0.000833 0.000000 0.026188 0.000000
# 6 0.000000 0.000000 0.000000 0.023985 0.000000 0.027230
#
#
# Mechanical properties :
#
#
# Convention : Reuss Voigt Hill
#
# Bulk Modulus (GPa) = 40.96600 43.76260 42.36430
# Shear Modulus (GPa) = 72.88276 24.88764 48.88520
#
# Velocity S-wave (km/s) = 6.01500 3.51492 4.92620
# Velocity P-wave (km/s) = 8.28110 6.18040 7.30664
#
# Compressibility (1/GPa) = 0.02441049
#
# Stress axis : x y z
#
# Youngs Moduli (GPa) = 71.14518 61.97550 123.12140
#
# Poissons Ratio (x) = 0.25481 0.10749
# Poissons Ratio (y) = 0.29251 0.24217
# Poissons Ratio (z) = 0.06211 0.12190
#
# Static dielectric constant tensor:
#      x y z
#    x 4.259390 0.000000 0.012680 
#    y 0.000000 3.349530 0.000000 
#    z 0.012680 0.000000 3.986690 
# 
# 
# High freq. dielectric constant tensor:
#      x y z
#    x 1.799680 0.000000 -0.005410 
#    y 0.000000 1.740720 0.000000 
#    z -0.005410 0.000000 1.811190 
# 
# From -- ./inp_files/37858.got.cif
#   From: 2010.06.25/outbox.cif.g09.slc.cpg/sg15_19_cif.got.tgz:37858.got - 2010.06.28 07:06:18.
