data_PCOD8131504
_publ_section_title
;
Structure prediction by ZEFSAII (Michael W. Deem and Ramdas Pophale) SiO2 
 PCOD8131504
Probable space group: C 2/C
;
_chemical_formula_sum "Si O2"
_cell_formula_units_Z 64
_cell_length_a 10.664142
_cell_length_b 21.227502
_cell_length_c 17.150757
_cell_angle_alpha 90.000000
_cell_angle_beta 108.686481
_cell_angle_gamma 90.000000
_cell_volume 3677.809046
_symmetry_space_group_name_H-M "C 2/C"
_symmetry_group_IT_number 15
_symmetry_cell_setting 'monoclinic'
loop_
_space_group_symop_operation_xyz
x,y,z
-x,y,1/2-z
-x,-y,-z
x,-y,1/2+z
1/2+x,1/2+y,z
1/2-x,1/2+y,1/2-z
1/2-x,1/2-y,-z
1/2+x,1/2-y,1/2+z
loop_
_atom_site_type_symbol
_atom_site_label
_atom_site_fract_x
_atom_site_fract_y
_atom_site_fract_z
Si Si1 0.421237 0.819359 0.540980
Si Si2 0.385731 0.512218 0.359747
Si Si3 0.864890 0.187673 0.458499
Si Si4 0.605099 0.948228 0.050416
Si Si5 0.121746 0.508204 0.722141
Si Si6 0.619252 0.561151 0.966190
Si Si7 0.896472 0.361376 0.796405
Si Si8 0.401318 0.355303 0.798005
O O1 0.295276 0.818878 0.574832
O O2 0.420260 0.755137 0.492994
O O3 0.427043 0.877446 0.482372
O O4 0.554700 0.825131 0.617214
O O5 0.253100 0.480395 0.299916
O O6 0.368696 0.535285 0.444244
O O7 0.503686 0.462246 0.385945
O O8 0.422426 0.569867 0.310321
O O9 0.906386 0.136090 0.531982
O O10 0.931003 0.175989 0.387530
O O11 0.618468 0.947578 0.146152
O O12 0.748033 0.964907 0.045513
O O13 0.500000 0.000000 0.000000
O O14 0.104987 0.436289 0.690872
O O15 0.000000 0.529959 0.750000
O O16 0.749123 0.336837 0.751877
O O17 0.000000 0.343715 0.750000
O O18 0.500000 0.330200 0.750000
#
# Coordination Sequence:
#
# PCOD8131504 Si02
#       8
#     8   8   8   8   8   8   8   8
#     4  10  19  35  58  78 103 143 189 228 266 320
#     4   9  19  33  52  76 107 141 171 217 274 325
#     4   9  19  37  55  76 107 143 184 225 269 321
#     4  11  20  31  52  81 107 134 178 227 271 323
#     4  10  20  32  51  78 110 137 172 224 277 323
#     4   9  19  34  53  78 106 140 177 221 272 328
#     4  10  18  33  56  80 102 137 186 230 264 321
#     4  10  20  32  54  82 110 139 177 225 275 325
#
# _framework density 17.401665000000001
#
# number of rings (size 3 to 8) (size 9 to 14) (size 15 to 20)
#    0.000    2.250    2.500    0.750    7.000    0.000 
#    0.000    2.500    0.000    0.000    0.000    0.000 
#    0.000    0.000    0.000    0.000    0.000    0.000 
#
# Total GULP energy -396610.569789 kJ/mol
# GULP energy per Si atom -12394.080306 kJ/mol
# Density = 1.736206 g / cm^3
# Si number density = 17.401665 Si / 1000 Ang^3
#
#
#
# Elastic Constant Matrix: (Units=GPa)
#
#
# Indices 1 2 3 4 5 6 
#
# 1 119.4448 49.1899 56.1758 0.0000 4.4022 0.0000
# 2 49.1899 89.3365 40.6718 0.0000 12.1749 0.0000
# 3 56.1758 40.6718 96.9239 0.0000 14.1885 0.0000
# 4 0.0000 0.0000 0.0000 18.4554 0.0000 4.4424
# 5 4.4022 12.1749 14.1885 0.0000 38.1821 0.0000
# 6 0.0000 0.0000 0.0000 4.4424 0.0000 17.3093
#
#
#
# Elastic Compliance Matrix: (Units=1/GPa)
#
#
# Indices 1 2 3 4 5 6 
#
# 1 0.013023 -0.004806 -0.005854 0.000000 0.002207 0.000000
# 2 -0.004806 0.015819 -0.003379 0.000000 -0.003234 0.000000
# 3 -0.005854 -0.003379 0.015727 0.000000 -0.004092 0.000000
# 4 0.000000 0.000000 0.000000 0.057753 0.000000 -0.014822
# 5 0.002207 -0.003234 -0.004092 0.000000 0.028488 0.000000
# 6 0.000000 0.000000 0.000000 -0.014822 0.000000 0.061577
#
#
# Mechanical properties :
#
#
# Convention : Reuss Voigt Hill
#
# Bulk Modulus (GPa) = 60.64028 66.42002 63.53015
# Shear Modulus (GPa) = 22.12749 25.43387 23.78068
#
# Velocity S-wave (km/s) = 3.56978 3.82720 3.70073
# Velocity P-wave (km/s) = 7.20515 7.60142 7.40594
#
# Compressibility (1/GPa) = 0.01649069
#
# Stress axis : x y z
#
# Youngs Moduli (GPa) = 76.78474 63.21440 63.58330
#
# Poissons Ratio (x) = 0.30383 0.37224
# Poissons Ratio (y) = 0.36905 0.21485
# Poissons Ratio (z) = 0.44953 0.21360
#
# Static dielectric constant tensor:
#      x y z
#    x 3.253790 0.000000 0.075530 
#    y 0.000000 3.072770 0.000000 
#    z 0.075530 0.000000 3.255390 
# 
# 
# High freq. dielectric constant tensor:
#      x y z
#    x 1.670280 0.000000 0.002820 
#    y 0.000000 1.644130 0.000000 
#    z 0.002820 0.000000 1.678410 
# 
# From -- ./inp_files/147148.got.cif
#   From: 2010.06.25/outbox.cif.g09.slc.cpg/sg15_74_cif.got.tgz:147148.got - 2010.06.28 07:06:18.
