data_PCOD8131987
_publ_section_title
;
Structure prediction by ZEFSAII (Michael W. Deem and Ramdas Pophale) SiO2 
 PCOD8131987
Probable space group: C 2/C
;
_chemical_formula_sum "Si O2"
_cell_formula_units_Z 60
_cell_length_a 21.488994
_cell_length_b 11.887550
_cell_length_c 19.774083
_cell_angle_alpha 90.000000
_cell_angle_beta 141.371294
_cell_angle_gamma 90.000000
_cell_volume 3153.392310
_symmetry_space_group_name_H-M "C 2/C"
_symmetry_group_IT_number 15
_symmetry_cell_setting 'monoclinic'
loop_
_space_group_symop_operation_xyz
x,y,z
-x,y,1/2-z
-x,-y,-z
x,-y,1/2+z
1/2+x,1/2+y,z
1/2-x,1/2+y,1/2-z
1/2-x,1/2-y,-z
1/2+x,1/2-y,1/2+z
loop_
_atom_site_type_symbol
_atom_site_label
_atom_site_fract_x
_atom_site_fract_y
_atom_site_fract_z
Si Si1 0.500000 0.730146 0.750000
Si Si2 0.898016 0.104099 0.476024
Si Si3 0.338410 0.591898 0.666794
Si Si4 0.873901 0.324800 0.528458
Si Si5 0.413692 0.449170 0.842102
Si Si6 0.962193 0.792661 0.642961
Si Si7 0.420351 0.042587 0.628012
Si Si8 0.702982 0.463991 0.999749
O O1 0.442847 0.659295 0.759520
O O2 0.411093 0.795304 0.635999
O O3 0.914996 0.236708 0.508262
O O4 0.862967 0.093392 0.368317
O O5 0.812254 0.049459 0.450222
O O6 0.001428 0.040426 0.571929
O O7 0.245389 0.676347 0.581078
O O8 0.329919 0.510917 0.725086
O O9 0.349679 0.518698 0.609193
O O10 0.909600 0.455878 0.555159
O O11 0.457148 0.340603 0.840873
O O12 0.953861 0.659720 0.623687
O O13 0.854020 0.846700 0.535603
O O14 0.000000 0.819989 0.750000
O O15 0.500000 0.997525 0.750000
O O16 0.318527 0.058554 0.584054
#
# Coordination Sequence:
#
# PCOD8131987 Si02
#       8
#     4   8   8   8   8   8   8   8
#     4  12  18  34  56  90 124 146 184 244 304 352
#     4  10  21  36  60  86 113 159 196 251 307 356
#     4  11  20  33  60  90 114 151 199 255 291 347
#     4  11  22  34  56  91 126 150 192 239 313 359
#     4  10  20  38  61  84 114 152 213 250 291 359
#     4  10  18  35  58  84 108 151 200 250 292 339
#     4  10  22  33  53  88 121 153 188 246 300 356
#     4  10  19  34  59  87 114 146 205 252 294 347
#
# _framework density 19.027128000000001
#
# number of rings (size 3 to 8) (size 9 to 14) (size 15 to 20)
#    0.000    1.600    4.667    1.600    1.867    0.000 
#    0.000    3.333   11.733    0.000    0.000    0.000 
#    0.000    0.000    0.000    0.000    0.000    0.000 
#
# Total GULP energy -371802.934444 kJ/mol
# GULP energy per Si atom -12393.431148 kJ/mol
# Density = 1.898382 g / cm^3
# Si number density = 19.027128 Si / 1000 Ang^3
#
#
#
# Elastic Constant Matrix: (Units=GPa)
#
#
# Indices 1 2 3 4 5 6 
#
# 1 72.5514 49.3547 53.8165 0.0000 -23.5736 0.0000
# 2 49.3547 110.3548 43.4715 0.0000 -8.4494 0.0000
# 3 53.8165 43.4715 93.8147 0.0000 -3.4383 0.0000
# 4 0.0000 0.0000 0.0000 30.7334 0.0000 -0.5367
# 5 -23.5736 -8.4494 -3.4383 0.0000 36.4797 0.0000
# 6 0.0000 0.0000 0.0000 -0.5367 0.0000 16.4708
#
#
#
# Elastic Compliance Matrix: (Units=1/GPa)
#
#
# Indices 1 2 3 4 5 6 
#
# 1 0.041339 -0.009458 -0.018497 0.000000 0.022780 0.000000
# 2 -0.009458 0.013410 -0.000902 0.000000 -0.003091 0.000000
# 3 -0.018497 -0.000902 0.021316 0.000000 -0.010153 0.000000
# 4 0.000000 0.000000 0.000000 0.032556 0.000000 0.001061
# 5 0.022780 -0.003091 -0.010153 0.000000 0.040460 0.000000
# 6 0.000000 0.000000 0.000000 0.001061 0.000000 0.060748
#
#
# Mechanical properties :
#
#
# Convention : Reuss Voigt Hill
#
# Bulk Modulus (GPa) = 54.48881 63.33404 58.91143
# Shear Modulus (GPa) = 18.27085 25.40867 21.83976
#
# Velocity S-wave (km/s) = 3.10216 3.65827 3.39163
# Velocity P-wave (km/s) = 6.44444 7.15558 6.80930
#
# Compressibility (1/GPa) = 0.01835239
#
# Stress axis : x y z
#
# Youngs Moduli (GPa) = 24.19005 74.57016 46.91404
#
# Poissons Ratio (x) = 0.70528 0.86775
# Poissons Ratio (y) = 0.22879 0.04230
# Poissons Ratio (z) = 0.44744 0.06724
#
# Static dielectric constant tensor:
#      x y z
#    x 3.281410 0.000000 -0.084990 
#    y 0.000000 3.648780 0.000000 
#    z -0.084990 0.000000 3.502350 
# 
# 
# High freq. dielectric constant tensor:
#      x y z
#    x 1.702400 0.000000 0.005980 
#    y 0.000000 1.749220 0.000000 
#    z 0.005980 0.000000 1.738280 
# 
# From -- ./inp_files/215233.got.cif
#   From: 2010.06.25/outbox.cif.g09.slc.cpg/sg15_108_cif.got.tgz:215233.got - 2010.06.28 07:06:18.
