data_PCOD8131913
_publ_section_title
;
Structure prediction by ZEFSAII (Michael W. Deem and Ramdas Pophale) SiO2 
 PCOD8131913
Probable space group: C 2/C
;
_chemical_formula_sum "Si O2"
_cell_formula_units_Z 64
_cell_length_a 20.971720
_cell_length_b 18.375776
_cell_length_c 16.804193
_cell_angle_alpha 90.000000
_cell_angle_beta 30.908496
_cell_angle_gamma 90.000000
_cell_volume 3326.444787
_symmetry_space_group_name_H-M "C 2/C"
_symmetry_group_IT_number 15
_symmetry_cell_setting 'monoclinic'
loop_
_space_group_symop_operation_xyz
x,y,z
-x,y,1/2-z
-x,-y,-z
x,-y,1/2+z
1/2+x,1/2+y,z
1/2-x,1/2+y,1/2-z
1/2-x,1/2-y,-z
1/2+x,1/2-y,1/2+z
loop_
_atom_site_type_symbol
_atom_site_label
_atom_site_fract_x
_atom_site_fract_y
_atom_site_fract_z
Si Si1 0.381458 0.518365 0.220747
Si Si2 0.845662 0.047624 0.589298
Si Si3 0.448621 0.700280 0.654725
Si Si4 0.751450 0.809089 0.235786
Si Si5 0.191720 0.420597 0.696283
Si Si6 0.220101 0.100043 0.568339
Si Si7 0.177504 0.156088 0.307923
Si Si8 0.441101 0.146881 0.438205
O O1 0.360278 0.464941 0.168369
O O2 0.305229 0.483119 0.375231
O O3 0.332237 0.599380 0.254161
O O4 0.526500 0.523715 0.089547
O O5 0.819750 0.133954 0.603999
O O6 0.730613 0.002864 0.676536
O O7 0.336736 0.720190 0.715770
O O8 0.396368 0.649102 0.780496
O O9 0.550760 0.656465 0.494433
O O10 0.499465 0.773665 0.640567
O O11 0.707503 0.735448 0.237964
O O12 0.633719 0.851540 0.398707
O O13 0.273493 0.395622 0.533340
O O14 0.215913 0.368405 0.745234
O O15 0.045715 0.415803 0.832628
O O16 0.351878 0.128078 0.460408
#
# Coordination Sequence:
#
# PCOD8131913 Si02
#       8
#     8   8   8   8   8   8   8   8
#     4  10  18  35  57  77 102 143 181 225 274 309
#     4  10  19  35  58  77 104 138 184 233 265 315
#     4  10  18  35  53  77 107 146 178 217 268 318
#     4  10  18  36  56  80 108 137 180 228 269 321
#     4  11  23  34  51  81 108 145 185 218 267 322
#     4  11  22  38  51  76 114 150 183 220 265 324
#     4  10  20  34  56  80 108 135 178 230 271 323
#     4  10  21  36  51  75 113 151 175 212 267 333
#
# _framework density 19.239761000000001
#
# number of rings (size 3 to 8) (size 9 to 14) (size 15 to 20)
#    0.000    1.750    5.000    1.875    0.000    3.000 
#    4.500    0.000    0.000    0.750    0.000    0.000 
#    0.000    0.000    0.000    0.000    0.000    0.000 
#
# Total GULP energy -396759.302049 kJ/mol
# GULP energy per Si atom -12398.728189 kJ/mol
# Density = 1.919597 g / cm^3
# Si number density = 19.239761 Si / 1000 Ang^3
#
#
#
# Elastic Constant Matrix: (Units=GPa)
#
#
# Indices 1 2 3 4 5 6 
#
# 1 34.0423 32.6847 18.8771 0.0001 -7.8652 0.0000
# 2 32.6847 134.6889 35.3076 0.0000 -11.8539 0.0000
# 3 18.8771 35.3076 65.4378 -0.0001 -16.2089 0.0001
# 4 0.0001 0.0000 -0.0001 35.6479 0.0000 -8.8464
# 5 -7.8652 -11.8539 -16.2089 0.0000 17.2254 0.0000
# 6 0.0000 0.0000 0.0001 -8.8464 0.0000 15.7054
#
#
#
# Elastic Compliance Matrix: (Units=1/GPa)
#
#
# Indices 1 2 3 4 5 6 
#
# 1 0.042176 -0.007983 -0.005803 0.000000 0.008304 0.000000
# 2 -0.007983 0.010214 -0.003090 0.000000 0.000476 0.000000
# 3 -0.005803 -0.003090 0.022740 0.000000 0.016622 0.000000
# 4 0.000000 0.000000 0.000000 0.032611 0.000000 0.018369
# 5 0.008304 0.000476 0.016622 0.000000 0.077815 0.000000
# 6 0.000000 0.000000 0.000000 0.018369 0.000000 0.074019
#
#
# Mechanical properties :
#
#
# Convention : Reuss Voigt Hill
#
# Bulk Modulus (GPa) = 24.16696 45.32310 34.74503
# Shear Modulus (GPa) = 16.28038 23.53570 19.90804
#
# Velocity S-wave (km/s) = 2.91208 3.50134 3.22022
# Velocity P-wave (km/s) = 4.88827 6.32092 5.65018
#
# Compressibility (1/GPa) = 0.04137880
#
# Stress axis : x y z
#
# Youngs Moduli (GPa) = 23.71019 97.90833 43.97494
#
# Poissons Ratio (x) = 0.78159 0.25517
# Poissons Ratio (y) = 0.18927 0.13589
# Poissons Ratio (z) = 0.13758 0.30255
#
# Static dielectric constant tensor:
#      x y z
#    x 3.183980 0.000000 -0.326330 
#    y 0.000000 3.540840 0.000000 
#    z -0.326330 0.000000 3.489150 
# 
# 
# High freq. dielectric constant tensor:
#      x y z
#    x 1.709850 0.000000 -0.034610 
#    y 0.000000 1.751710 0.000000 
#    z -0.034610 0.000000 1.737420 
# 
# From -- ./inp_files/216138.got.cif
#   From: 2010.06.25/outbox.cif.g09.slc.cpg/sg15_109_cif.got.tgz:216138.got - 2010.06.28 07:06:18.
