data_PCOD8131400
_publ_section_title
;
Structure prediction by ZEFSAII (Michael W. Deem and Ramdas Pophale) SiO2 
 PCOD8131400
Probable space group: C 2/C
;
_chemical_formula_sum "Si O2"
_cell_formula_units_Z 36
_cell_length_a 21.590027
_cell_length_b 7.671091
_cell_length_c 15.487625
_cell_angle_alpha 90.000000
_cell_angle_beta 135.202990
_cell_angle_gamma 90.000000
_cell_volume 1807.324123
_symmetry_space_group_name_H-M "C 2/C"
_symmetry_group_IT_number 15
_symmetry_cell_setting 'monoclinic'
loop_
_space_group_symop_operation_xyz
x,y,z
-x,y,1/2-z
-x,-y,-z
x,-y,1/2+z
1/2+x,1/2+y,z
1/2-x,1/2+y,1/2-z
1/2-x,1/2-y,-z
1/2+x,1/2-y,1/2+z
loop_
_atom_site_type_symbol
_atom_site_label
_atom_site_fract_x
_atom_site_fract_y
_atom_site_fract_z
Si Si1 0.165330 0.370173 0.917420
Si Si2 0.500000 0.368047 0.250000
Si Si3 0.098638 0.568757 0.004674
Si Si4 0.506808 0.392147 0.594075
Si Si5 0.402671 0.950867 0.314166
O O1 0.083564 0.247187 0.852522
O O2 0.159104 0.482896 0.823913
O O3 0.250000 0.250000 0.000000
O O4 0.166372 0.506134 0.998352
O O5 0.478447 0.483553 0.311311
O O6 0.138864 0.522410 0.137983
O O7 0.082672 0.777753 0.981811
O O8 0.002445 0.473065 0.900070
O O9 0.500000 0.500000 0.500000
O O10 0.590870 0.260284 0.675177
#
# Coordination Sequence:
#
# PCOD8131400 Si02
#       5
#     8   4   8   8   8
#     4  12  23  39  61  91 127 176 208 270 336 384
#     4  12  20  36  58  86 114 154 220 260 310 414
#     4   9  18  38  64  85 122 162 212 259 332 375
#     4  10  18  32  64  94 112 160 212 266 320 384
#     4   9  18  38  64  85 122 162 212 259 332 375
#
# _framework density 19.918949000000001
#
# number of rings (size 3 to 8) (size 9 to 14) (size 15 to 20)
#    1.333    0.444    2.222    4.000    0.000    0.000 
#    0.000   11.111    0.000    0.000    0.000    0.000 
#    0.000    0.000    0.000    0.000    0.000    0.000 
#
# Total GULP energy -223091.884140 kJ/mol
# GULP energy per Si atom -12393.993563 kJ/mol
# Density = 1.987361 g / cm^3
# Si number density = 19.918949 Si / 1000 Ang^3
#
#
#
# Elastic Constant Matrix: (Units=GPa)
#
#
# Indices 1 2 3 4 5 6 
#
# 1 84.2069 33.1242 53.8604 0.0000 -26.1405 0.0000
# 2 33.1242 105.7601 39.5687 0.0000 -10.9923 0.0000
# 3 53.8604 39.5687 86.7203 0.0000 -27.1235 0.0000
# 4 0.0000 0.0000 0.0000 38.9588 0.0000 -7.9756
# 5 -26.1405 -10.9923 -27.1235 0.0000 46.8097 0.0000
# 6 0.0000 0.0000 0.0000 -7.9756 0.0000 43.5970
#
#
#
# Elastic Compliance Matrix: (Units=1/GPa)
#
#
# Indices 1 2 3 4 5 6 
#
# 1 0.021008 -0.002129 -0.010459 0.000000 0.005172 0.000000
# 2 -0.002129 0.011624 -0.004274 0.000000 -0.000936 0.000000
# 3 -0.010459 -0.004274 0.021785 0.000000 0.005779 0.000000
# 4 0.000000 0.000000 0.000000 0.026667 0.000000 0.004878
# 5 0.005172 -0.000936 0.005779 0.000000 0.027380 0.000000
# 6 0.000000 0.000000 0.000000 0.004878 0.000000 0.023830
#
#
# Mechanical properties :
#
#
# Convention : Reuss Voigt Hill
#
# Bulk Modulus (GPa) = 48.32643 58.86599 53.59621
# Shear Modulus (GPa) = 28.91596 35.88205 32.39900
#
# Velocity S-wave (km/s) = 3.81423 4.24890 4.03742
# Velocity P-wave (km/s) = 6.61150 7.32719 6.97853
#
# Compressibility (1/GPa) = 0.02069261
#
# Stress axis : x y z
#
# Youngs Moduli (GPa) = 47.60065 86.02838 45.90392
#
# Poissons Ratio (x) = 0.18318 0.48010
# Poissons Ratio (y) = 0.10136 0.19620
# Poissons Ratio (z) = 0.49784 0.36770
#
# Static dielectric constant tensor:
#      x y z
#    x 3.212120 0.000000 -0.333950 
#    y 0.000000 3.687170 0.000000 
#    z -0.333950 0.000000 3.291730 
# 
# 
# High freq. dielectric constant tensor:
#      x y z
#    x 1.758740 0.000000 -0.041660 
#    y 0.000000 1.784380 0.000000 
#    z -0.041660 0.000000 1.754110 
# 
# From -- ./inp_files/166734.got.cif
#   From: 2010.06.25/outbox.cif.g09.slc.cpg/sg15_84_cif.got.tgz:166734.got - 2010.06.28 07:06:18.
