data_PCOD8131190
_publ_section_title
;
Structure prediction by ZEFSAII (Michael W. Deem and Ramdas Pophale) SiO2 
 PCOD8131190
Probable space group: C 2/C
;
_chemical_formula_sum "Si O2"
_cell_formula_units_Z 64
_cell_length_a 24.561036
_cell_length_b 13.822661
_cell_length_c 10.669270
_cell_angle_alpha 90.000000
_cell_angle_beta 78.467307
_cell_angle_gamma 90.000000
_cell_volume 3549.075680
_symmetry_space_group_name_H-M "C 2/C"
_symmetry_group_IT_number 15
_symmetry_cell_setting 'monoclinic'
loop_
_space_group_symop_operation_xyz
x,y,z
-x,y,1/2-z
-x,-y,-z
x,-y,1/2+z
1/2+x,1/2+y,z
1/2-x,1/2+y,1/2-z
1/2-x,1/2-y,-z
1/2+x,1/2-y,1/2+z
loop_
_atom_site_type_symbol
_atom_site_label
_atom_site_fract_x
_atom_site_fract_y
_atom_site_fract_z
Si Si1 0.288300 0.102070 0.068087
Si Si2 0.838409 0.888003 0.485916
Si Si3 0.300438 0.414807 0.086972
Si Si4 0.975984 0.134027 0.398073
Si Si5 0.459527 0.411923 0.386920
Si Si6 0.803129 0.789568 0.745275
Si Si7 0.244368 0.397902 0.351951
Si Si8 0.631648 0.745056 0.032435
O O1 0.254892 0.155637 0.196235
O O2 0.294209 0.985684 0.079797
O O3 0.255032 0.124704 0.955901
O O4 0.350410 0.146643 0.019853
O O5 0.897960 0.866892 0.392380
O O6 0.838021 0.847975 0.626231
O O7 0.785077 0.846972 0.434953
O O8 0.829648 0.003325 0.491662
O O9 0.284316 0.450570 0.232372
O O10 0.341993 0.325583 0.083548
O O11 0.933651 0.223335 0.439716
O O12 0.000000 0.154862 0.250000
O O13 0.018832 0.137173 0.494534
O O14 0.949976 0.026534 0.410373
O O15 0.500000 0.389769 0.250000
O O16 0.793039 0.683584 0.692885
O O17 0.843744 0.782747 0.844032
#
# Coordination Sequence:
#
# PCOD8131190 Si02
#       8
#     8   8   8   8   8   8   8   8
#     4  10  20  32  52  76 104 146 181 221 269 332
#     4  11  22  32  51  77 108 154 173 215 284 324
#     4  10  18  32  50  77 107 142 182 212 264 327
#     4  10  21  35  54  79 105 140 192 232 264 322
#     4  10  22  35  50  77 113 144 184 228 271 324
#     4  11  20  34  51  78 109 140 187 224 265 337
#     4  11  21  33  51  77 115 141 181 223 269 335
#     4  11  19  34  57  74 104 147 185 224 273 318
#
# _framework density 18.032865000000001
#
# number of rings (size 3 to 8) (size 9 to 14) (size 15 to 20)
#    0.000    1.500    5.000    1.875    1.750    1.000 
#    0.000    0.000    0.000    0.000    0.000    4.375 
#    0.000    0.000    0.000    0.000    0.000    0.000 
#
# Total GULP energy -396532.324717 kJ/mol
# GULP energy per Si atom -12391.635147 kJ/mol
# Density = 1.799182 g / cm^3
# Si number density = 18.032865 Si / 1000 Ang^3
#
#
#
# Elastic Constant Matrix: (Units=GPa)
#
#
# Indices 1 2 3 4 5 6 
#
# 1 77.0941 39.1224 30.8616 0.0000 -12.8449 0.0000
# 2 39.1224 62.8690 18.2964 0.0000 -5.5865 0.0000
# 3 30.8616 18.2964 86.5429 0.0000 -5.4746 0.0000
# 4 0.0000 0.0000 0.0000 26.3334 0.0000 -1.5895
# 5 -12.8449 -5.5865 -5.4746 0.0000 22.8261 0.0000
# 6 0.0000 0.0000 0.0000 -1.5895 0.0000 20.1257
#
#
#
# Elastic Compliance Matrix: (Units=1/GPa)
#
#
# Indices 1 2 3 4 5 6 
#
# 1 0.022293 -0.011678 -0.004943 0.000000 0.008501 0.000000
# 2 -0.011678 0.023321 -0.000833 0.000000 -0.001064 0.000000
# 3 -0.004943 -0.000833 0.013510 0.000000 0.000255 0.000000
# 4 0.000000 0.000000 0.000000 0.038156 0.000000 0.003013
# 5 0.008501 -0.001064 0.000255 0.000000 0.048394 0.000000
# 6 0.000000 0.000000 0.000000 0.003013 0.000000 0.049926
#
#
# Mechanical properties :
#
#
# Convention : Reuss Voigt Hill
#
# Bulk Modulus (GPa) = 41.29705 44.78519 43.04112
# Shear Modulus (GPa) = 20.95726 23.07207 22.01467
#
# Velocity S-wave (km/s) = 3.41276 3.58081 3.49780
# Velocity P-wave (km/s) = 6.20322 6.47963 6.34293
#
# Compressibility (1/GPa) = 0.02421480
#
# Stress axis : x y z
#
# Youngs Moduli (GPa) = 44.85782 42.87913 74.01984
#
# Poissons Ratio (x) = 0.50076 0.36587
# Poissons Ratio (y) = 0.52387 0.06167
# Poissons Ratio (z) = 0.22173 0.03573
#
# Static dielectric constant tensor:
#      x y z
#    x 3.119140 0.000000 0.078930 
#    y 0.000000 3.094410 0.000000 
#    z 0.078930 0.000000 3.492220 
# 
# 
# High freq. dielectric constant tensor:
#      x y z
#    x 1.666550 0.000000 0.007780 
#    y 0.000000 1.672790 0.000000 
#    z 0.007780 0.000000 1.710870 
# 
# From -- ./inp_files/112719.got.cif
#   From: 2010.06.25/outbox.cif.g09.slc.cpg/sg15_57_cif.got.tgz:112719.got - 2010.06.28 07:06:18.
