data_PCOD8131673
_publ_section_title
;
Structure prediction by ZEFSAII (Michael W. Deem and Ramdas Pophale) SiO2 
 PCOD8131673
Probable space group: C 2/C
;
_chemical_formula_sum "Si O2"
_cell_formula_units_Z 64
_cell_length_a 21.926928
_cell_length_b 11.790215
_cell_length_c 21.343124
_cell_angle_alpha 90.000000
_cell_angle_beta 141.823177
_cell_angle_gamma 90.000000
_cell_volume 3410.433134
_symmetry_space_group_name_H-M "C 2/C"
_symmetry_group_IT_number 15
_symmetry_cell_setting 'monoclinic'
loop_
_space_group_symop_operation_xyz
x,y,z
-x,y,1/2-z
-x,-y,-z
x,-y,1/2+z
1/2+x,1/2+y,z
1/2-x,1/2+y,1/2-z
1/2-x,1/2-y,-z
1/2+x,1/2-y,1/2+z
loop_
_atom_site_type_symbol
_atom_site_label
_atom_site_fract_x
_atom_site_fract_y
_atom_site_fract_z
Si Si1 0.698680 0.250176 0.524822
Si Si2 0.761307 0.348789 0.205732
Si Si3 0.058605 0.456157 0.488411
Si Si4 0.458762 0.280636 0.490171
Si Si5 0.352428 0.374933 0.802658
Si Si6 0.748229 0.567567 0.831282
Si Si7 0.216057 0.406978 0.811666
Si Si8 0.491951 0.828354 0.881905
O O1 0.750000 0.250000 0.500000
O O2 0.748987 0.150280 0.606959
O O3 0.717421 0.369338 0.575656
O O4 0.580472 0.237411 0.417867
O O5 0.824318 0.236595 0.238711
O O6 0.774131 0.358370 0.291192
O O7 0.805657 0.457492 0.204288
O O8 0.646198 0.341933 0.094954
O O9 0.038796 0.324064 0.458265
O O10 0.173579 0.467099 0.596276
O O11 0.025495 0.539623 0.406325
O O12 0.000000 0.500000 0.500000
O O13 0.539759 0.370072 0.579125
O O14 0.486736 0.228441 0.445826
O O15 0.351302 0.491906 0.760216
O O16 0.269119 0.385082 0.788743
O O17 0.116474 0.328845 0.736391
#
# Coordination Sequence:
#
# PCOD8131673 Si02
#       8
#     8   8   8   8   8   8   8   8
#     4  11  23  40  57  77 110 150 198 234 269 328
#     4  11  19  32  53  83 119 142 177 233 286 349
#     4   9  15  27  47  74 106 144 179 214 270 338
#     4  11  17  28  50  83 116 146 173 220 299 346
#     4  11  18  31  52  83 113 144 174 228 292 347
#     4  10  19  32  50  75 111 144 179 229 279 330
#     4  11  21  35  52  81 115 146 186 230 281 334
#     4  10  18  34  55  77 108 150 189 229 272 332
#
# _framework density 18.765946
#
# number of rings (size 3 to 8) (size 9 to 14) (size 15 to 20)
#    0.000    1.500    5.000    4.500    0.000    2.500 
#    2.250    0.000    0.000    0.750    0.000    0.000 
#    0.000    0.000    0.000    0.000    0.000    0.000 
#
# Total GULP energy -396444.712241 kJ/mol
# GULP energy per Si atom -12388.897258 kJ/mol
# Density = 1.872323 g / cm^3
# Si number density = 18.765946 Si / 1000 Ang^3
#
#
#
# Elastic Constant Matrix: (Units=GPa)
#
#
# Indices 1 2 3 4 5 6 
#
# 1 54.9163 11.7131 28.5874 0.0000 0.0023 0.0000
# 2 11.7131 60.2210 10.3192 0.0000 -13.3269 0.0000
# 3 28.5874 10.3192 73.7372 0.0000 17.4200 0.0000
# 4 0.0000 0.0000 0.0000 35.3658 0.0000 5.9303
# 5 0.0023 -13.3269 17.4200 0.0000 23.8030 0.0000
# 6 0.0000 0.0000 0.0000 5.9303 0.0000 15.1324
#
#
#
# Elastic Compliance Matrix: (Units=1/GPa)
#
#
# Indices 1 2 3 4 5 6 
#
# 1 0.024153 -0.001207 -0.010923 0.000000 0.007316 0.000000
# 2 -0.001207 0.021727 -0.006585 0.000000 0.016984 0.000000
# 3 -0.010923 -0.006585 0.023684 0.000000 -0.021018 0.000000
# 4 0.000000 0.000000 0.000000 0.030265 0.000000 -0.011861
# 5 0.007316 0.016984 -0.021018 0.000000 0.066902 0.000000
# 6 0.000000 0.000000 0.000000 -0.011861 0.000000 0.070732
#
#
# Mechanical properties :
#
#
# Convention : Reuss Voigt Hill
#
# Bulk Modulus (GPa) = 31.12072 32.23487 31.67779
# Shear Modulus (GPa) = 17.50675 24.07723 20.79199
#
# Velocity S-wave (km/s) = 3.05766 3.58582 3.33222
# Velocity P-wave (km/s) = 5.39308 5.86164 5.63223
#
# Compressibility (1/GPa) = 0.03213294
#
# Stress axis : x y z
#
# Youngs Moduli (GPa) = 41.40272 46.02525 42.22316
#
# Poissons Ratio (x) = 0.05555 0.46122
# Poissons Ratio (y) = 0.04997 0.27804
# Poissons Ratio (z) = 0.45226 0.30308
#
# Static dielectric constant tensor:
#      x y z
#    x 2.863300 0.000000 0.300660 
#    y 0.000000 3.977470 0.000000 
#    z 0.300660 0.000000 3.583320 
# 
# 
# High freq. dielectric constant tensor:
#      x y z
#    x 1.647030 0.000000 0.036560 
#    y 0.000000 1.744340 0.000000 
#    z 0.036560 0.000000 1.735120 
# 
# From -- ./inp_files/252596.got.cif
#   From: 2010.06.25/outbox.cif.g09.slc.cpg/sg15_127_cif.got.tgz:252596.got - 2010.06.28 07:06:18.
