data_PCOD8131712
_publ_section_title
;
Structure prediction by ZEFSAII (Michael W. Deem and Ramdas Pophale) SiO2 
 PCOD8131712
Probable space group: C 2/C
;
_chemical_formula_sum "Si O2"
_cell_formula_units_Z 64
_cell_length_a 15.535104
_cell_length_b 11.964156
_cell_length_c 26.092612
_cell_angle_alpha 90.000000
_cell_angle_beta 43.865311
_cell_angle_gamma 90.000000
_cell_volume 3360.666154
_symmetry_space_group_name_H-M "C 2/C"
_symmetry_group_IT_number 15
_symmetry_cell_setting 'monoclinic'
loop_
_space_group_symop_operation_xyz
x,y,z
-x,y,1/2-z
-x,-y,-z
x,-y,1/2+z
1/2+x,1/2+y,z
1/2-x,1/2+y,1/2-z
1/2-x,1/2-y,-z
1/2+x,1/2-y,1/2+z
loop_
_atom_site_type_symbol
_atom_site_label
_atom_site_fract_x
_atom_site_fract_y
_atom_site_fract_z
Si Si1 0.461356 0.255966 0.324730
Si Si2 0.606391 0.109257 0.664487
Si Si3 0.736945 0.605350 0.423327
Si Si4 0.121039 0.123512 0.365496
Si Si5 0.789454 0.790962 0.160939
Si Si6 0.976783 0.082269 0.908730
Si Si7 0.089787 0.652030 0.828456
Si Si8 0.354622 0.905463 0.695355
O O1 0.500000 0.282295 0.250000
O O2 0.318259 0.217873 0.386653
O O3 0.476992 0.369134 0.350952
O O4 0.543480 0.158279 0.314449
O O5 0.500000 0.069126 0.750000
O O6 0.706761 0.194645 0.645525
O O7 0.536643 0.174298 0.648927
O O8 0.672945 0.000547 0.614515
O O9 0.646050 0.599968 0.413958
O O10 0.656248 0.607103 0.509386
O O11 0.092530 0.255611 0.371955
O O12 0.235947 0.079744 0.282574
O O13 0.002551 0.050898 0.397561
O O14 0.915775 0.861291 0.102519
O O15 0.713423 0.834251 0.242259
O O16 0.821427 0.660967 0.157383
O O17 0.092529 0.524266 0.847044
#
# Coordination Sequence:
#
# PCOD8131712 Si02
#       8
#     8   8   8   8   8   8   8   8
#     4  11  22  38  62  87 111 153 198 243 281 336
#     4  10  18  34  56  86 111 147 203 235 275 338
#     4  12  21  35  61  86 114 155 196 234 280 350
#     4  11  21  35  57  89 119 152 186 238 296 339
#     4   9  19  32  56  81 115 146 189 239 284 329
#     4  11  23  37  55  90 123 145 187 243 296 336
#     4  10  19  34  58  84 112 147 194 241 278 341
#     4  10  18  34  58  85 112 146 197 245 280 328
#
# _framework density 19.043844
#
# number of rings (size 3 to 8) (size 9 to 14) (size 15 to 20)
#    0.000    1.500    5.000    1.875    0.000    0.000 
#    0.000    5.000    0.000    3.000    0.000    0.000 
#    0.000    0.000    0.000    0.000    0.000    0.000 
#
# Total GULP energy -396774.567029 kJ/mol
# GULP energy per Si atom -12399.205220 kJ/mol
# Density = 1.900050 g / cm^3
# Si number density = 19.043844 Si / 1000 Ang^3
#
#
#
# Elastic Constant Matrix: (Units=GPa)
#
#
# Indices 1 2 3 4 5 6 
#
# 1 83.4542 47.9558 37.5389 0.0000 -8.5186 0.0000
# 2 47.9558 112.1855 27.9950 0.0000 4.5971 0.0000
# 3 37.5389 27.9950 84.6225 0.0000 -6.7233 0.0000
# 4 0.0000 0.0000 0.0000 9.3563 0.0000 0.3497
# 5 -8.5186 4.5971 -6.7233 0.0000 17.5736 0.0000
# 6 0.0000 0.0000 0.0000 0.3497 0.0000 28.6664
#
#
#
# Elastic Compliance Matrix: (Units=1/GPa)
#
#
# Indices 1 2 3 4 5 6 
#
# 1 0.019694 -0.007421 -0.005537 0.000000 0.009369 0.000000
# 2 -0.007421 0.012777 -0.001533 0.000000 -0.007526 0.000000
# 3 -0.005537 -0.001533 0.015057 0.000000 0.003477 0.000000
# 4 0.000000 0.000000 0.000000 0.106928 0.000000 -0.001304
# 5 0.009369 -0.007526 0.003477 0.000000 0.064744 0.000000
# 6 0.000000 0.000000 0.000000 -0.001304 0.000000 0.034900
#
#
# Mechanical properties :
#
#
# Convention : Reuss Voigt Hill
#
# Bulk Modulus (GPa) = 53.91910 56.36017 55.13964
# Shear Modulus (GPa) = 17.28530 22.23743 19.76137
#
# Velocity S-wave (km/s) = 3.01601 3.42086 3.22479
# Velocity P-wave (km/s) = 6.36420 6.72773 6.54848
#
# Compressibility (1/GPa) = 0.01854630
#
# Stress axis : x y z
#
# Youngs Moduli (GPa) = 50.77740 78.26648 66.41507
#
# Poissons Ratio (x) = 0.58079 0.36774
# Poissons Ratio (y) = 0.37680 0.10181
# Poissons Ratio (z) = 0.28115 0.11998
#
# Static dielectric constant tensor:
#      x y z
#    x 3.566330 0.000000 -0.229040 
#    y 0.000000 3.589300 0.000000 
#    z -0.229040 0.000000 3.281950 
# 
# 
# High freq. dielectric constant tensor:
#      x y z
#    x 1.737930 0.000000 -0.022570 
#    y 0.000000 1.733900 0.000000 
#    z -0.022570 0.000000 1.716530 
# 
# From -- ./inp_files/296134.got.cif
#   From: 2010.06.25/outbox.cif.g09.slc.cpg/sg15_149_cif.got.tgz:296134.got - 2010.06.28 07:06:18.
