data_PCOD8131087
_publ_section_title
;
Structure prediction by ZEFSAII (Michael W. Deem and Ramdas Pophale) SiO2 
 PCOD8131087
Probable space group: C 2/C
;
_chemical_formula_sum "Si O2"
_cell_formula_units_Z 48
_cell_length_a 15.082430
_cell_length_b 9.310836
_cell_length_c 18.965459
_cell_angle_alpha 90.000000
_cell_angle_beta 88.195682
_cell_angle_gamma 90.000000
_cell_volume 2661.999518
_symmetry_space_group_name_H-M "C 2/C"
_symmetry_group_IT_number 15
_symmetry_cell_setting 'monoclinic'
loop_
_space_group_symop_operation_xyz
x,y,z
-x,y,1/2-z
-x,-y,-z
x,-y,1/2+z
1/2+x,1/2+y,z
1/2-x,1/2+y,1/2-z
1/2-x,1/2-y,-z
1/2+x,1/2-y,1/2+z
loop_
_atom_site_type_symbol
_atom_site_label
_atom_site_fract_x
_atom_site_fract_y
_atom_site_fract_z
Si Si1 0.936211 0.153337 0.689337
Si Si2 0.457579 0.098398 0.376368
Si Si3 0.671504 0.103175 0.246592
Si Si4 0.628686 0.923424 0.379550
Si Si5 0.296641 0.897318 0.980901
Si Si6 0.672842 0.403706 0.862938
O O1 0.851164 0.239643 0.721678
O O2 0.000000 0.101005 0.750000
O O3 0.988545 0.254352 0.633870
O O4 0.906684 0.012657 0.648365
O O5 0.405464 0.058500 0.306154
O O6 0.392443 0.124690 0.442915
O O7 0.526175 0.969549 0.389380
O O8 0.766882 0.110675 0.208183
O O9 0.674285 0.985589 0.308477
O O10 0.685391 0.981535 0.446134
O O11 0.631167 0.750895 0.380809
O O12 0.230591 0.971768 0.926216
O O13 0.250000 0.750000 0.000000
#
# Coordination Sequence:
#
# PCOD8131087 Si02
#       6
#     8   8   8   8   8   8
#     4   9  18  32  50  73 100 130 162 203 252 292
#     4   9  18  34  53  71  98 132 165 201 245 294
#     4   9  18  33  52  72  99 133 165 199 243 294
#     4  10  18  31  53  76  97 129 168 202 238 290
#     4   9  19  34  52  72  98 133 167 199 244 296
#     4  10  19  32  51  76 101 127 164 206 243 288
#
# _framework density 18.031559000000001
#
# number of rings (size 3 to 8) (size 9 to 14) (size 15 to 20)
#    0.000    2.667    0.000    3.000    0.000    2.667 
#    0.000    6.667    0.000    4.000    0.000    0.000 
#    0.000    0.000    0.000    0.000    0.000    0.000 
#
# Total GULP energy -297485.148769 kJ/mol
# GULP energy per Si atom -12395.214532 kJ/mol
# Density = 1.799052 g / cm^3
# Si number density = 18.031559 Si / 1000 Ang^3
#
#
#
# Elastic Constant Matrix: (Units=GPa)
#
#
# Indices 1 2 3 4 5 6 
#
# 1 97.9259 50.4106 45.6461 0.0000 0.9232 0.0000
# 2 50.4106 87.5300 45.8491 0.0000 15.4968 0.0000
# 3 45.6461 45.8491 116.8431 0.0000 8.1705 0.0000
# 4 0.0000 0.0000 0.0000 20.4892 0.0000 6.7783
# 5 0.9232 15.4968 8.1705 0.0000 26.1567 0.0000
# 6 0.0000 0.0000 0.0000 6.7783 0.0000 28.7169
#
#
#
# Elastic Compliance Matrix: (Units=1/GPa)
#
#
# Indices 1 2 3 4 5 6 
#
# 1 0.016087 -0.008491 -0.003338 0.000000 0.005505 0.000000
# 2 -0.008491 0.020197 -0.003877 0.000000 -0.010455 0.000000
# 3 -0.003338 -0.003877 0.011465 0.000000 -0.001167 0.000000
# 4 0.000000 0.000000 0.000000 0.052940 0.000000 -0.012496
# 5 0.005505 -0.010455 -0.001167 0.000000 0.044595 0.000000
# 6 0.000000 0.000000 0.000000 -0.012496 0.000000 0.037772
#
#
# Mechanical properties :
#
#
# Convention : Reuss Voigt Hill
#
# Bulk Modulus (GPa) = 61.20916 65.12339 63.16628
# Shear Modulus (GPa) = 22.73618 25.76542 24.25080
#
# Velocity S-wave (km/s) = 3.55478 3.78419 3.67128
# Velocity P-wave (km/s) = 7.13217 7.43560 7.28547
#
# Compressibility (1/GPa) = 0.01633742
#
# Stress axis : x y z
#
# Youngs Moduli (GPa) = 62.16294 49.51291 87.22051
#
# Poissons Ratio (x) = 0.42043 0.29110
# Poissons Ratio (y) = 0.52784 0.33814
# Poissons Ratio (z) = 0.20747 0.19196
#
# Static dielectric constant tensor:
#      x y z
#    x 3.399070 0.000000 0.134080 
#    y 0.000000 3.013100 0.000000 
#    z 0.134080 0.000000 3.751930 
# 
# 
# High freq. dielectric constant tensor:
#      x y z
#    x 1.699600 0.000000 0.003430 
#    y 0.000000 1.668360 0.000000 
#    z 0.003430 0.000000 1.711720 
# 
# From -- ./inp_files/202968.got.cif
#   From: 2010.06.25/outbox.cif.g09.slc.cpg/sg15_102_cif.got.tgz:202968.got - 2010.06.28 07:06:18.
