data_PCOD8131774
_publ_section_title
;
Structure prediction by ZEFSAII (Michael W. Deem and Ramdas Pophale) SiO2 
 PCOD8131774
Probable space group: C 2/C
;
_chemical_formula_sum "Si O2"
_cell_formula_units_Z 52
_cell_length_a 22.994674
_cell_length_b 11.279451
_cell_length_c 14.475060
_cell_angle_alpha 90.000000
_cell_angle_beta 42.590415
_cell_angle_gamma 90.000000
_cell_volume 2540.771824
_symmetry_space_group_name_H-M "C 2/C"
_symmetry_group_IT_number 15
_symmetry_cell_setting 'monoclinic'
loop_
_space_group_symop_operation_xyz
x,y,z
-x,y,1/2-z
-x,-y,-z
x,-y,1/2+z
1/2+x,1/2+y,z
1/2-x,1/2+y,1/2-z
1/2-x,1/2-y,-z
1/2+x,1/2-y,1/2+z
loop_
_atom_site_type_symbol
_atom_site_label
_atom_site_fract_x
_atom_site_fract_y
_atom_site_fract_z
Si Si1 0.809132 0.977333 0.249852
Si Si2 0.082113 0.998229 0.558684
Si Si3 0.090550 0.121291 0.234090
Si Si4 0.629458 0.979534 0.882379
Si Si5 0.000000 0.206773 0.750000
Si Si6 0.401154 0.240027 0.191238
Si Si7 0.975001 0.335225 0.096532
O O1 0.830696 0.087257 0.291716
O O2 0.706949 0.985537 0.358490
O O3 0.837900 0.853242 0.262396
O O4 0.849856 0.995312 0.101915
O O5 0.112917 0.904414 0.601297
O O6 0.986857 0.961516 0.638076
O O7 0.072228 0.129006 0.612530
O O8 0.064116 0.259765 0.273136
O O9 0.651794 0.877465 0.779420
O O10 0.603970 0.098928 0.859540
O O11 0.548373 0.932004 0.039559
O O12 0.056344 0.282495 0.757337
O O13 0.480798 0.258489 0.026686
#
# Coordination Sequence:
#
# PCOD8131774 Si02
#       7
#     8   8   8   8   4   8   8
#     4  12  20  36  62  92 118 151 196 265 297 347
#     4  10  19  33  56  95 116 145 199 253 297 355
#     4  10  19  34  62  86 115 154 202 241 301 356
#     4   9  23  37  59  87 119 158 201 234 314 365
#     4  10  18  34  58  86 118 148 200 244 284 372
#     4  10  19  38  61  84 115 155 203 239 299 351
#     4   9  19  41  60  78 115 165 196 232 296 381
#
# _framework density 20.466222999999999
#
# number of rings (size 3 to 8) (size 9 to 14) (size 15 to 20)
#    0.923    1.231    4.615    1.385    2.154    0.000 
#    0.000    4.615    3.385    0.000    0.000    0.000 
#    0.000    0.000    0.000    0.000    0.000    0.000 
#
# Total GULP energy -322140.512091 kJ/mol
# GULP energy per Si atom -12390.019696 kJ/mol
# Density = 2.041964 g / cm^3
# Si number density = 20.466223 Si / 1000 Ang^3
#
#
#
# Elastic Constant Matrix: (Units=GPa)
#
#
# Indices 1 2 3 4 5 6 
#
# 1 152.2627 34.6452 27.5083 0.0000 -9.5043 0.0000
# 2 34.6452 64.8764 -7.5313 0.0000 -2.7594 0.0000
# 3 27.5083 -7.5313 18.7750 0.0000 -2.6395 0.0000
# 4 0.0000 0.0000 0.0000 11.5657 0.0000 -1.9295
# 5 -9.5043 -2.7594 -2.6395 0.0000 23.6314 0.0000
# 6 0.0000 0.0000 0.0000 -1.9295 0.0000 26.9118
#
#
#
# Elastic Compliance Matrix: (Units=1/GPa)
#
#
# Indices 1 2 3 4 5 6 
#
# 1 0.012840 -0.009385 -0.022357 0.000000 0.001571 0.000000
# 2 -0.009385 0.023192 0.023270 0.000000 0.001532 0.000000
# 3 -0.022357 0.023270 0.095978 0.000000 0.004446 0.000000
# 4 0.000000 0.000000 0.000000 0.087509 0.000000 0.006274
# 5 0.001571 0.001532 0.004446 0.000000 0.043624 0.000000
# 6 0.000000 0.000000 0.000000 0.006274 0.000000 0.037608
#
#
# Mechanical properties :
#
#
# Convention : Reuss Voigt Hill
#
# Bulk Modulus (GPa) = 8.69067 38.35094 23.52080
# Shear Modulus (GPa) = 14.04285 24.50790 19.27538
#
# Velocity S-wave (km/s) = 2.62228 3.46422 3.07223
# Velocity P-wave (km/s) = 3.66389 5.89749 4.90940
#
# Compressibility (1/GPa) = 0.11506597
#
# Stress axis : x y z
#
# Youngs Moduli (GPa) = 77.87987 43.11742 10.41903
#
# Poissons Ratio (x) = 0.40468 0.23294
# Poissons Ratio (y) = 0.73094 -0.24245
# Poissons Ratio (z) = 1.74116 -1.00334
#
# Static dielectric constant tensor:
#      x y z
#    x 3.660430 0.000000 0.087980 
#    y 0.000000 3.578230 0.000000 
#    z 0.087980 0.000000 3.254290 
# 
# 
# High freq. dielectric constant tensor:
#      x y z
#    x 1.800690 0.000000 0.006550 
#    y 0.000000 1.793530 0.000000 
#    z 0.006550 0.000000 1.753200 
# 
# From -- ./inp_files/172925.got.cif
#   From: 2010.06.25/outbox.cif.g09.slc.cpg/sg15_87_cif.got.tgz:172925.got - 2010.06.28 07:06:18.
