data_PCOD8131046
_publ_section_title
;
Structure prediction by ZEFSAII (Michael W. Deem and Ramdas Pophale) SiO2 
 PCOD8131046
Probable space group: C 2/C
;
_chemical_formula_sum "Si O2"
_cell_formula_units_Z 64
_cell_length_a 8.604747
_cell_length_b 24.291934
_cell_length_c 16.995437
_cell_angle_alpha 90.000000
_cell_angle_beta 91.507854
_cell_angle_gamma 90.000000
_cell_volume 3551.257171
_symmetry_space_group_name_H-M "C 2/C"
_symmetry_group_IT_number 15
_symmetry_cell_setting 'monoclinic'
loop_
_space_group_symop_operation_xyz
x,y,z
-x,y,1/2-z
-x,-y,-z
x,-y,1/2+z
1/2+x,1/2+y,z
1/2-x,1/2+y,1/2-z
1/2-x,1/2-y,-z
1/2+x,1/2-y,1/2+z
loop_
_atom_site_type_symbol
_atom_site_label
_atom_site_fract_x
_atom_site_fract_y
_atom_site_fract_z
Si Si1 0.402712 0.944588 0.824317
Si Si2 0.205758 0.665455 0.962107
Si Si3 0.330426 0.643906 0.241320
Si Si4 0.649929 0.343713 0.583178
Si Si5 0.052942 0.080090 0.516621
Si Si6 0.365895 0.723365 0.102724
Si Si7 0.427871 0.898887 0.522940
Si Si8 0.222913 0.984837 0.434465
O O1 0.500000 0.965127 0.750000
O O2 0.292250 0.894539 0.801289
O O3 0.517430 0.922065 0.892506
O O4 0.293534 0.994849 0.852425
O O5 0.236498 0.695361 0.045674
O O6 0.063171 0.624261 0.970475
O O7 0.356681 0.629810 0.938008
O O8 0.163659 0.711033 0.895738
O O9 0.500000 0.615179 0.250000
O O10 0.277178 0.656643 0.328748
O O11 0.348054 0.699904 0.190491
O O12 0.539815 0.396574 0.561206
O O13 0.540766 0.289675 0.571309
O O14 0.801205 0.349064 0.529744
O O15 0.933961 0.051900 0.577120
O O16 0.181471 0.037477 0.487539
O O17 0.357066 0.951085 0.478435
#
# Coordination Sequence:
#
# PCOD8131046 Si02
#       8
#     8   8   8   8   8   8   8   8
#     4  12  21  33  51  83 113 138 171 226 281 327
#     4  10  18  31  51  76 103 135 173 223 259 312
#     4  10  18  32  52  75 107 132 171 218 270 323
#     4   9  18  32  51  80 105 136 168 225 273 316
#     4   9  18  34  55  77 108 138 184 221 266 317
#     4   9  18  31  49  74 104 135 173 207 270 325
#     4  11  20  32  52  82 111 136 177 227 270 314
#     4  10  20  34  53  78 109 143 179 220 269 321
#
# _framework density 18.021785999999999
#
# number of rings (size 3 to 8) (size 9 to 14) (size 15 to 20)
#    0.000    2.000    3.750    1.875    0.000    0.500 
#    0.000    0.000    0.000    2.250    0.000    3.500 
#    0.000    0.000    0.000    0.000    0.000    0.000 
#
# Total GULP energy -396543.964478 kJ/mol
# GULP energy per Si atom -12391.998890 kJ/mol
# Density = 1.798077 g / cm^3
# Si number density = 18.021786 Si / 1000 Ang^3
#
#
#
# Elastic Constant Matrix: (Units=GPa)
#
#
# Indices 1 2 3 4 5 6 
#
# 1 101.2730 59.6428 41.4788 0.0000 -8.3554 0.0000
# 2 59.6428 107.3781 43.4425 0.0000 -4.0240 0.0000
# 3 41.4788 43.4425 67.8377 0.0000 -7.9466 0.0000
# 4 0.0000 0.0000 0.0000 0.8724 0.0000 7.9473
# 5 -8.3554 -4.0240 -7.9466 0.0000 25.1456 0.0000
# 6 0.0000 0.0000 0.0000 7.9473 0.0000 29.9245
#
#
#
# Elastic Compliance Matrix: (Units=1/GPa)
#
#
# Indices 1 2 3 4 5 6 
#
# 1 0.016256 -0.006795 -0.005278 0.000000 0.002646 0.000000
# 2 -0.006795 0.015417 -0.005913 0.000000 -0.001659 0.000000
# 3 -0.005278 -0.005913 0.022263 0.000000 0.004335 0.000000
# 4 0.000000 0.000000 0.000000 -0.807596 0.000000 0.214480
# 5 0.002646 -0.001659 0.004335 0.000000 0.041752 0.000000
# 6 0.000000 0.000000 0.000000 0.214480 0.000000 -0.023544
#
#
# Mechanical properties :
#
#
# Convention : Reuss Voigt Hill
#
# Bulk Modulus (GPa) = 55.66603 62.84634 59.25618
# Shear Modulus (GPa) = -7.20989 19.98347 6.38679
#
# Velocity S-wave (km/s) = -2.00233 3.33355 1.88457
# Velocity P-wave (km/s) = 5.06058 7.05442 6.13899
#
# Compressibility (1/GPa) = 0.01796428
#
# Stress axis : x y z
#
# Youngs Moduli (GPa) = 61.51511 64.86381 44.91804
#
# Poissons Ratio (x) = 0.44073 0.23710
# Poissons Ratio (y) = 0.41798 0.26558
# Poissons Ratio (z) = 0.32470 0.38351
#
# Static dielectric constant tensor:
#      x y z
#    x 3.617980 0.000000 0.026850 
#    y 0.000000 3.319610 0.000000 
#    z 0.026850 0.000000 3.135070 
# 
# 
# High freq. dielectric constant tensor:
#      x y z
#    x 1.718910 0.000000 0.006160 
#    y 0.000000 1.681960 0.000000 
#    z 0.006160 0.000000 1.658290 
# 
# From -- ./inp_files/192973.got.cif
#   From: 2010.06.25/outbox.cif.g09.slc.cpg/sg15_97_cif.got.tgz:192973.got - 2010.06.28 07:06:18.
