data_PCOD8131950
_publ_section_title
;
Structure prediction by ZEFSAII (Michael W. Deem and Ramdas Pophale) SiO2 
 PCOD8131950
Probable space group: C 2/C
;
_chemical_formula_sum "Si O2"
_cell_formula_units_Z 60
_cell_length_a 13.686226
_cell_length_b 22.820537
_cell_length_c 11.140148
_cell_angle_alpha 90.000000
_cell_angle_beta 122.378376
_cell_angle_gamma 90.000000
_cell_volume 2938.432077
_symmetry_space_group_name_H-M "C 2/C"
_symmetry_group_IT_number 15
_symmetry_cell_setting 'monoclinic'
loop_
_space_group_symop_operation_xyz
x,y,z
-x,y,1/2-z
-x,-y,-z
x,-y,1/2+z
1/2+x,1/2+y,z
1/2-x,1/2+y,1/2-z
1/2-x,1/2-y,-z
1/2+x,1/2-y,1/2+z
loop_
_atom_site_type_symbol
_atom_site_label
_atom_site_fract_x
_atom_site_fract_y
_atom_site_fract_z
Si Si1 0.274247 0.307048 0.855640
Si Si2 0.874510 0.965484 0.513836
Si Si3 0.899569 0.080751 0.412003
Si Si4 0.408439 0.158809 0.450245
Si Si5 0.798253 0.541079 0.380349
Si Si6 0.650585 0.818792 0.020836
Si Si7 0.000000 0.637465 0.750000
Si Si8 0.309640 0.921832 0.284609
O O1 0.384566 0.351115 0.939479
O O2 0.207494 0.313339 0.683141
O O3 0.320945 0.241819 0.894511
O O4 0.187968 0.320777 0.907816
O O5 0.787872 0.959509 0.565079
O O6 0.812423 0.939939 0.354112
O O7 0.991418 0.926484 0.606984
O O8 0.916195 0.033617 0.530885
O O9 0.774911 0.063613 0.279631
O O10 0.399999 0.088322 0.464165
O O11 0.513024 0.172395 0.429436
O O12 0.440729 0.179491 0.608318
O O13 0.854767 0.477993 0.390438
O O14 0.714658 0.869241 0.138610
O O15 0.902684 0.596284 0.745844
#
# Coordination Sequence:
#
# PCOD8131950 Si02
#       8
#     8   8   8   8   8   8   4   8
#     4  10  21  41  60  87 116 155 198 245 295 354
#     4  10  18  35  56  84 118 152 191 245 287 346
#     4   9  20  33  57  84 115 153 198 234 293 348
#     4  10  21  39  61  86 118 158 189 245 299 351
#     4  10  19  35  58  84 118 154 191 238 296 352
#     4  10  22  38  62  86 119 148 199 250 288 353
#     4  10  20  38  56  84 126 148 192 244 284 358
#     4  10  21  36  57  88 118 155 192 241 296 349
#
# _framework density 20.419053000000002
#
# number of rings (size 3 to 8) (size 9 to 14) (size 15 to 20)
#    0.000    2.133    1.333    1.600    0.000    3.200 
#    7.200    6.000   23.467    0.000    0.000    0.000 
#    0.000    0.000    0.000    0.000    0.000    0.000 
#
# Total GULP energy -371786.964616 kJ/mol
# GULP energy per Si atom -12392.898821 kJ/mol
# Density = 2.037258 g / cm^3
# Si number density = 20.419053 Si / 1000 Ang^3
#
#
#
# Elastic Constant Matrix: (Units=GPa)
#
#
# Indices 1 2 3 4 5 6 
#
# 1 93.2249 24.5431 22.6303 0.0000 -8.1951 0.0000
# 2 24.5431 99.0123 37.8938 0.0000 -11.2390 0.0000
# 3 22.6303 37.8938 68.1384 0.0000 -3.2243 0.0000
# 4 0.0000 0.0000 0.0000 22.3370 0.0000 -3.4625
# 5 -8.1951 -11.2390 -3.2243 0.0000 26.1644 0.0000
# 6 0.0000 0.0000 0.0000 -3.4625 0.0000 25.7203
#
#
#
# Elastic Compliance Matrix: (Units=1/GPa)
#
#
# Indices 1 2 3 4 5 6 
#
# 1 0.012110 -0.001523 -0.003044 0.000000 0.002764 0.000000
# 2 -0.001523 0.013613 -0.006851 0.000000 0.004526 0.000000
# 3 -0.003044 -0.006851 0.019426 0.000000 -0.001502 0.000000
# 4 0.000000 0.000000 0.000000 0.045723 0.000000 0.006155
# 5 0.002764 0.004526 -0.001502 0.000000 0.040845 0.000000
# 6 0.000000 0.000000 0.000000 0.006155 0.000000 0.039708
#
#
# Mechanical properties :
#
#
# Convention : Reuss Voigt Hill
#
# Bulk Modulus (GPa) = 44.81703 47.83443 46.32573
# Shear Modulus (GPa) = 24.78968 26.53159 25.66064
#
# Velocity S-wave (km/s) = 3.48810 3.60857 3.54884
# Velocity P-wave (km/s) = 6.18213 6.39058 6.28722
#
# Compressibility (1/GPa) = 0.02231295
#
# Stress axis : x y z
#
# Youngs Moduli (GPa) = 82.57919 73.45990 51.47812
#
# Poissons Ratio (x) = 0.11188 0.15671
# Poissons Ratio (y) = 0.12577 0.35265
# Poissons Ratio (z) = 0.25138 0.50324
#
# Static dielectric constant tensor:
#      x y z
#    x 3.564160 0.000000 0.047860 
#    y 0.000000 3.789200 0.000000 
#    z 0.047860 0.000000 3.814690 
# 
# 
# High freq. dielectric constant tensor:
#      x y z
#    x 1.796650 0.000000 0.001630 
#    y 0.000000 1.786570 0.000000 
#    z 0.001630 0.000000 1.797030 
# 
# From -- ./inp_files/99833.got.cif
#   From: 2010.06.25/outbox.cif.g09.slc.cpg/sg15_50_cif.got.tgz:99833.got - 2010.06.28 07:06:18.
