data_PCOD8131433
_publ_section_title
;
Structure prediction by ZEFSAII (Michael W. Deem and Ramdas Pophale) SiO2 
 PCOD8131433
Probable space group: C 2/C
;
_chemical_formula_sum "Si O2"
_cell_formula_units_Z 56
_cell_length_a 23.547162
_cell_length_b 13.809510
_cell_length_c 15.196240
_cell_angle_alpha 90.000000
_cell_angle_beta 143.264041
_cell_angle_gamma 90.000000
_cell_volume 2955.611053
_symmetry_space_group_name_H-M "C 2/C"
_symmetry_group_IT_number 15
_symmetry_cell_setting 'monoclinic'
loop_
_space_group_symop_operation_xyz
x,y,z
-x,y,1/2-z
-x,-y,-z
x,-y,1/2+z
1/2+x,1/2+y,z
1/2-x,1/2+y,1/2-z
1/2-x,1/2-y,-z
1/2+x,1/2-y,1/2+z
loop_
_atom_site_type_symbol
_atom_site_label
_atom_site_fract_x
_atom_site_fract_y
_atom_site_fract_z
Si Si1 0.157592 0.547005 0.909037
Si Si2 0.741547 0.818972 0.277410
Si Si3 0.458829 0.129033 0.288870
Si Si4 0.366330 0.007622 0.930034
Si Si5 0.182311 0.837122 0.948746
Si Si6 0.116104 0.312826 0.634775
Si Si7 0.927596 0.280597 0.303589
O O1 0.126975 0.439271 0.847876
O O2 0.087282 0.622332 0.772997
O O3 0.153625 0.558367 0.009282
O O4 0.267200 0.562682 0.016984
O O5 0.719179 0.918452 0.198304
O O6 0.823680 0.836441 0.452945
O O7 0.784829 0.741597 0.262317
O O8 0.645487 0.779568 0.204487
O O9 0.500000 0.177852 0.250000
O O10 0.537811 0.068735 0.440114
O O11 0.414940 0.207445 0.302031
O O12 0.373723 0.929610 0.860534
O O13 0.084826 0.814520 0.775626
O O14 0.250000 0.750000 0.000000
O O15 0.034327 0.274218 0.468984
#
# Coordination Sequence:
#
# PCOD8131433 Si02
#       7
#     8   8   8   8   8   8   8
#     4   9  17  31  51  78 110 145 168 221 280 314
#     4  10  21  32  50  84 115 140 183 224 268 333
#     4  10  20  32  51  79 107 143 185 227 269 322
#     4  11  19  32  53  83 116 137 181 227 268 335
#     4   8  16  30  46  74 114 138 166 219 274 326
#     4  12  20  33  59  80 111 148 176 226 286 318
#     4  10  18  33  52  82 112 137 174 227 288 323
#
# _framework density 18.947013999999999
#
# number of rings (size 3 to 8) (size 9 to 14) (size 15 to 20)
#    0.000    2.286    2.857    4.714    0.000    1.714 
#    0.000    2.857    0.000    3.429    0.000    2.000 
#    0.000    0.000    0.000    0.000    0.000    0.000 
#
# Total GULP energy -346935.637142 kJ/mol
# GULP energy per Si atom -12390.558469 kJ/mol
# Density = 1.890389 g / cm^3
# Si number density = 18.947014 Si / 1000 Ang^3
#
#
#
# Elastic Constant Matrix: (Units=GPa)
#
#
# Indices 1 2 3 4 5 6 
#
# 1 109.1077 40.2376 24.9301 0.0000 -17.5379 0.0000
# 2 40.2376 41.0489 33.4844 0.0000 1.8063 0.0000
# 3 24.9301 33.4844 66.4107 0.0000 -4.2665 0.0000
# 4 0.0000 0.0000 0.0000 26.5573 0.0000 -1.6808
# 5 -17.5379 1.8063 -4.2665 0.0000 24.1886 0.0000
# 6 0.0000 0.0000 0.0000 -1.6808 0.0000 32.1429
#
#
#
# Elastic Compliance Matrix: (Units=1/GPa)
#
#
# Indices 1 2 3 4 5 6 
#
# 1 0.019973 -0.025745 0.006612 0.000000 0.017570 0.000000
# 2 -0.025745 0.075717 -0.030419 0.000000 -0.029686 0.000000
# 3 0.006612 -0.030419 0.028692 0.000000 0.012126 0.000000
# 4 0.000000 0.000000 0.000000 0.037779 0.000000 0.001976
# 5 0.017570 -0.029686 0.012126 0.000000 0.058437 0.000000
# 6 0.000000 0.000000 0.000000 0.001976 0.000000 0.031214
#
#
# Mechanical properties :
#
#
# Convention : Reuss Voigt Hill
#
# Bulk Modulus (GPa) = 39.56097 45.98574 42.77336
# Shear Modulus (GPa) = 13.91424 24.43879 19.17651
#
# Velocity S-wave (km/s) = 2.71288 3.59534 3.18482
# Velocity P-wave (km/s) = 5.54419 6.44661 6.01235
#
# Compressibility (1/GPa) = 0.02527744
#
# Stress axis : x y z
#
# Youngs Moduli (GPa) = 50.06727 13.20706 34.85236
#
# Poissons Ratio (x) = 0.34001 -0.23043
# Poissons Ratio (y) = 1.28897 1.06019
# Poissons Ratio (z) = -0.33102 0.40175
#
# Static dielectric constant tensor:
#      x y z
#    x 3.583850 0.000000 -0.187260 
#    y 0.000000 3.211470 0.000000 
#    z -0.187260 0.000000 3.796620 
# 
# 
# High freq. dielectric constant tensor:
#      x y z
#    x 1.738770 0.000000 -0.020420 
#    y 0.000000 1.680370 0.000000 
#    z -0.020420 0.000000 1.727540 
# 
# From -- ./inp_files/173507.got.cif
#   From: 2010.06.25/outbox.cif.g09.slc.cpg/sg15_87_cif.got.tgz:173507.got - 2010.06.28 07:06:18.
