data_PCOD8131568
_publ_section_title
;
Structure prediction by ZEFSAII (Michael W. Deem and Ramdas Pophale) SiO2 
 PCOD8131568
Probable space group: C 2/C
;
_chemical_formula_sum "Si O2"
_cell_formula_units_Z 64
_cell_length_a 19.803519
_cell_length_b 23.400111
_cell_length_c 8.634234
_cell_angle_alpha 90.000000
_cell_angle_beta 116.075871
_cell_angle_gamma 90.000000
_cell_volume 3593.877962
_symmetry_space_group_name_H-M "C 2/C"
_symmetry_group_IT_number 15
_symmetry_cell_setting 'monoclinic'
loop_
_space_group_symop_operation_xyz
x,y,z
-x,y,1/2-z
-x,-y,-z
x,-y,1/2+z
1/2+x,1/2+y,z
1/2-x,1/2+y,1/2-z
1/2-x,1/2-y,-z
1/2+x,1/2-y,1/2+z
loop_
_atom_site_type_symbol
_atom_site_label
_atom_site_fract_x
_atom_site_fract_y
_atom_site_fract_z
Si Si1 0.345554 0.444272 0.917731
Si Si2 0.259821 0.848055 0.662731
Si Si3 0.481156 0.617499 0.412252
Si Si4 0.699385 0.249963 0.800243
Si Si5 0.397638 0.223989 0.270241
Si Si6 0.296943 0.324828 0.224047
Si Si7 0.950423 0.758349 0.987032
Si Si8 0.876995 0.937580 0.308249
O O1 0.261998 0.414663 0.829859
O O2 0.399383 0.410122 0.853781
O O3 0.337878 0.508363 0.849028
O O4 0.378574 0.443864 0.124655
O O5 0.220565 0.810909 0.752913
O O6 0.349515 0.835325 0.734331
O O7 0.215522 0.827321 0.469053
O O8 0.500000 0.625939 0.250000
O O9 0.483564 0.677504 0.507284
O O10 0.538551 0.572550 0.547840
O O11 0.718869 0.192302 0.725696
O O12 0.607513 0.247724 0.715291
O O13 0.750000 0.250000 0.000000
O O14 0.353313 0.272777 0.319826
O O15 0.477779 0.215398 0.437897
O O16 0.407079 0.247347 0.104834
O O17 0.327944 0.384240 0.319726
#
# Coordination Sequence:
#
# PCOD8131568 Si02
#       8
#     8   8   8   8   8   8   8   8
#     4  11  23  39  58  74 110 148 200 236 272 333
#     4  10  19  37  54  76 107 148 191 229 275 329
#     4  12  24  35  51  77 117 152 190 225 276 337
#     4  11  21  31  52  80 114 142 178 230 283 334
#     4  10  18  33  59  81 108 146 192 233 270 346
#     4  10  18  35  52  74 105 144 187 223 275 330
#     4  11  20  33  55  85 114 147 187 226 286 331
#     4  11  23  37  55  76 105 150 193 235 278 320
#
# _framework density 17.808062
#
# number of rings (size 3 to 8) (size 9 to 14) (size 15 to 20)
#    0.000    1.250    5.000    3.000    3.500    1.000 
#    0.000    0.000    0.000    0.000    0.000    0.875 
#    0.000    0.000    0.000    0.375    0.000    0.000 
#
# Total GULP energy -396462.862247 kJ/mol
# GULP energy per Si atom -12389.464445 kJ/mol
# Density = 1.776753 g / cm^3
# Si number density = 17.808062 Si / 1000 Ang^3
#
#
#
# Elastic Constant Matrix: (Units=GPa)
#
#
# Indices 1 2 3 4 5 6 
#
# 1 85.3507 54.4833 38.2011 0.0000 16.8445 0.0000
# 2 54.4833 93.0511 31.6798 0.0000 5.1274 0.0000
# 3 38.2011 31.6798 95.0110 0.0000 15.0170 0.0000
# 4 0.0000 0.0000 0.0000 22.0395 0.0000 0.5866
# 5 16.8445 5.1274 15.0170 0.0000 33.5493 0.0000
# 6 0.0000 0.0000 0.0000 0.5866 0.0000 34.8811
#
#
#
# Elastic Compliance Matrix: (Units=1/GPa)
#
#
# Indices 1 2 3 4 5 6 
#
# 1 0.022143 -0.011195 -0.003964 0.000000 -0.007632 0.000000
# 2 -0.011195 0.017783 -0.002031 0.000000 0.003812 0.000000
# 3 -0.003964 -0.002031 0.013379 0.000000 -0.003688 0.000000
# 4 0.000000 0.000000 0.000000 0.045393 0.000000 -0.000763
# 5 -0.007632 0.003812 -0.003688 0.000000 0.034707 0.000000
# 6 0.000000 0.000000 0.000000 -0.000763 0.000000 0.028682
#
#
# Mechanical properties :
#
#
# Convention : Reuss Voigt Hill
#
# Bulk Modulus (GPa) = 52.83876 58.01569 55.42722
# Shear Modulus (GPa) = 24.65778 28.03056 26.34417
#
# Velocity S-wave (km/s) = 3.72511 3.97172 3.85039
# Velocity P-wave (km/s) = 6.94533 7.32679 7.13861
#
# Compressibility (1/GPa) = 0.01892550
#
# Stress axis : x y z
#
# Youngs Moduli (GPa) = 45.16048 56.23311 74.74457
#
# Poissons Ratio (x) = 0.62954 0.29628
# Poissons Ratio (y) = 0.50558 0.15179
# Poissons Ratio (z) = 0.17901 0.11419
#
# Static dielectric constant tensor:
#      x y z
#    x 3.237210 0.000000 0.382980 
#    y 0.000000 3.154430 0.000000 
#    z 0.382980 0.000000 3.482010 
# 
# 
# High freq. dielectric constant tensor:
#      x y z
#    x 1.682200 0.000000 -0.000730 
#    y 0.000000 1.660720 0.000000 
#    z -0.000730 0.000000 1.688050 
# 
# From -- ./inp_files/57839.got.cif
#   From: 2010.06.25/outbox.cif.g09.slc.cpg/sg15_29_cif.got.tgz:57839.got - 2010.06.28 07:06:18.
