data_PCOD8131880
_publ_section_title
;
Structure prediction by ZEFSAII (Michael W. Deem and Ramdas Pophale) SiO2 
 PCOD8131880
Probable space group: C 2/C
;
_chemical_formula_sum "Si O2"
_cell_formula_units_Z 44
_cell_length_a 27.132103
_cell_length_b 13.787214
_cell_length_c 15.159233
_cell_angle_alpha 90.000000
_cell_angle_beta 156.933434
_cell_angle_gamma 90.000000
_cell_volume 2221.784690
_symmetry_space_group_name_H-M "C 2/C"
_symmetry_group_IT_number 15
_symmetry_cell_setting 'monoclinic'
loop_
_space_group_symop_operation_xyz
x,y,z
-x,y,1/2-z
-x,-y,-z
x,-y,1/2+z
1/2+x,1/2+y,z
1/2-x,1/2+y,1/2-z
1/2-x,1/2-y,-z
1/2+x,1/2-y,1/2+z
loop_
_atom_site_type_symbol
_atom_site_label
_atom_site_fract_x
_atom_site_fract_y
_atom_site_fract_z
Si Si1 0.133380 0.507249 0.671785
Si Si2 0.855612 0.274455 0.354736
Si Si3 0.615898 0.831996 0.506204
Si Si4 0.705833 0.381965 0.464160
Si Si5 0.500000 0.299213 0.250000
Si Si6 0.093208 0.770603 0.140670
O O1 0.172110 0.612272 0.701653
O O2 0.140797 0.430172 0.602989
O O3 0.000000 0.500000 0.500000
O O4 0.239489 0.487099 0.921786
O O5 0.911662 0.268135 0.545229
O O6 0.949899 0.237748 0.435130
O O7 0.735908 0.202911 0.147463
O O8 0.500000 0.848955 0.250000
O O9 0.592748 0.741073 0.534769
O O10 0.587993 0.364388 0.333931
O O11 0.825439 0.312283 0.677379
O O12 0.656237 0.371246 0.281026
#
# Coordination Sequence:
#
# PCOD8131880 Si02
#       6
#     8   8   8   8   4   8
#     4  11  21  40  62  94 118 162 215 263 302 365
#     4  11  21  37  66  88 125 169 204 260 316 364
#     4  11  24  42  57  94 135 164 206 253 321 382
#     4   9  17  34  60  89 123 147 207 260 301 357
#     4  10  18  34  64  92 118 162 204 260 312 354
#     4   9  18  37  60  88 115 163 204 253 309 359
#
# _framework density 19.803899000000001
#
# number of rings (size 3 to 8) (size 9 to 14) (size 15 to 20)
#    0.000    1.818    7.273    0.000    1.273    0.727 
#    1.636    0.000    0.000    2.182    0.000    0.000 
#    0.000    0.000    0.000    0.000    0.000    0.000 
#
# Total GULP energy -272563.907781 kJ/mol
# GULP energy per Si atom -12389.268535 kJ/mol
# Density = 1.975882 g / cm^3
# Si number density = 19.803899 Si / 1000 Ang^3
#
#
#
# Elastic Constant Matrix: (Units=GPa)
#
#
# Indices 1 2 3 4 5 6 
#
# 1 51.1042 8.0156 22.4917 0.0000 8.1768 0.0000
# 2 8.0156 81.9444 44.0211 0.0000 -0.1697 0.0000
# 3 22.4917 44.0211 99.2784 0.0000 7.9070 0.0000
# 4 0.0000 0.0000 0.0000 30.2032 0.0000 -1.3093
# 5 8.1768 -0.1697 7.9070 0.0000 43.5215 0.0000
# 6 0.0000 0.0000 0.0000 -1.3093 0.0000 22.6351
#
#
#
# Elastic Compliance Matrix: (Units=1/GPa)
#
#
# Indices 1 2 3 4 5 6 
#
# 1 0.022209 0.000504 -0.004995 0.000000 -0.003263 0.000000
# 2 0.000504 0.016112 -0.007362 0.000000 0.001306 0.000000
# 3 -0.004995 -0.007362 0.014608 0.000000 -0.001744 0.000000
# 4 0.000000 0.000000 0.000000 0.033192 0.000000 0.001920
# 5 -0.003263 0.001306 -0.001744 0.000000 0.023912 0.000000
# 6 0.000000 0.000000 0.000000 0.001920 0.000000 0.044290
#
#
# Mechanical properties :
#
#
# Convention : Reuss Voigt Hill
#
# Bulk Modulus (GPa) = 34.22045 42.37598 38.29821
# Shear Modulus (GPa) = 26.62810 29.79187 28.20999
#
# Velocity S-wave (km/s) = 3.67084 3.88279 3.77830
# Velocity P-wave (km/s) = 5.94003 6.44560 6.19797
#
# Compressibility (1/GPa) = 0.02922229
#
# Stress axis : x y z
#
# Youngs Moduli (GPa) = 45.02605 62.06586 68.45624
#
# Poissons Ratio (x) = -0.03130 0.34196
# Poissons Ratio (y) = -0.02271 0.50400
# Poissons Ratio (z) = 0.22492 0.45696
#
# Static dielectric constant tensor:
#      x y z
#    x 3.836300 0.000000 -0.048670 
#    y 0.000000 3.540460 0.000000 
#    z -0.048670 0.000000 3.883490 
# 
# 
# High freq. dielectric constant tensor:
#      x y z
#    x 1.770650 0.000000 0.012250 
#    y 0.000000 1.735680 0.000000 
#    z 0.012250 0.000000 1.780970 
# 
# From -- ./inp_files/225368.got.cif
#   From: 2010.06.25/outbox.cif.g09.slc.cpg/sg15_113_cif.got.tgz:225368.got - 2010.06.28 07:06:18.
