data_PCOD8131042
_publ_section_title
;
Structure prediction by ZEFSAII (Michael W. Deem and Ramdas Pophale) SiO2 
 PCOD8131042
Probable space group: C 2/C
;
_chemical_formula_sum "Si O2"
_cell_formula_units_Z 48
_cell_length_a 22.861221
_cell_length_b 13.086997
_cell_length_c 22.917491
_cell_angle_alpha 90.000000
_cell_angle_beta 154.305617
_cell_angle_gamma 90.000000
_cell_volume 2972.805291
_symmetry_space_group_name_H-M "C 2/C"
_symmetry_group_IT_number 15
_symmetry_cell_setting 'monoclinic'
loop_
_space_group_symop_operation_xyz
x,y,z
-x,y,1/2-z
-x,-y,-z
x,-y,1/2+z
1/2+x,1/2+y,z
1/2-x,1/2+y,1/2-z
1/2-x,1/2-y,-z
1/2+x,1/2-y,1/2+z
loop_
_atom_site_type_symbol
_atom_site_label
_atom_site_fract_x
_atom_site_fract_y
_atom_site_fract_z
Si Si1 0.896510 0.549331 0.304167
Si Si2 0.645788 0.156486 0.671701
Si Si3 0.145865 0.874794 0.359797
Si Si4 0.856714 0.364621 0.646664
Si Si5 0.843057 0.664441 0.370870
Si Si6 0.197965 0.541343 0.603318
O O1 0.864868 0.431997 0.289748
O O2 0.828918 0.578027 0.182284
O O3 0.833494 0.621644 0.296885
O O4 0.056810 0.567869 0.445265
O O5 0.740039 0.242434 0.784484
O O6 0.496065 0.199422 0.522979
O O7 0.714397 0.112430 0.674914
O O8 0.152084 0.755756 0.349643
O O9 0.245441 0.902924 0.501615
O O10 0.181985 0.936735 0.333830
O O11 0.000000 0.909869 0.250000
O O12 0.000000 0.396843 0.750000
O O13 0.796877 0.577140 0.374381
#
# Coordination Sequence:
#
# PCOD8131042 Si02
#       6
#     8   8   8   8   8   8
#     4   9  17  32  53  72  94 132 164 186 237 298
#     4   9  18  33  52  73  96 126 162 198 238 285
#     4  10  20  31  47  76 101 124 158 201 242 275
#     4  10  18  31  51  70  98 130 161 193 234 295
#     4   9  18  33  52  72  97 127 159 200 240 282
#     4   9  17  33  52  69  99 132 158 192 240 292
#
# _framework density 16.146364999999999
#
# number of rings (size 3 to 8) (size 9 to 14) (size 15 to 20)
#    0.000    2.667    1.667    3.000    0.000    0.000 
#    6.000    1.667    0.000    2.000    0.000    0.000 
#    0.000    0.000    0.000    0.000    0.000    0.000 
#
# Total GULP energy -297612.390319 kJ/mol
# GULP energy per Si atom -12400.516263 kJ/mol
# Density = 1.610962 g / cm^3
# Si number density = 16.146365 Si / 1000 Ang^3
#
#
#
# Elastic Constant Matrix: (Units=GPa)
#
#
# Indices 1 2 3 4 5 6 
#
# 1 114.6158 35.5941 51.7049 -0.0006 -1.1781 -0.0003
# 2 35.5941 63.6761 41.7440 -0.0016 2.2128 -0.0006
# 3 51.7049 41.7440 97.1960 0.0005 0.3136 0.0002
# 4 -0.0006 -0.0016 0.0005 19.9039 -0.0004 -1.3881
# 5 -1.1781 2.2128 0.3136 -0.0004 27.0186 -0.0002
# 6 -0.0003 -0.0006 0.0002 -1.3881 -0.0002 21.9627
#
#
#
# Elastic Compliance Matrix: (Units=1/GPa)
#
#
# Indices 1 2 3 4 5 6 
#
# 1 0.012041 -0.003563 -0.004878 0.000000 0.000873 0.000000
# 2 -0.003563 0.022990 -0.007972 0.000002 -0.001946 0.000001
# 3 -0.004878 -0.007972 0.016306 -0.000001 0.000251 -0.000001
# 4 0.000000 0.000002 -0.000001 0.050464 0.000001 0.003189
# 5 0.000873 -0.001946 0.000251 0.000001 0.037206 0.000000
# 6 0.000000 0.000001 -0.000001 0.003189 0.000000 0.045733
#
#
# Mechanical properties :
#
#
# Convention : Reuss Voigt Hill
#
# Bulk Modulus (GPa) = 54.02161 59.28599 56.65380
# Shear Modulus (GPa) = 22.34767 23.54004 22.94386
#
# Velocity S-wave (km/s) = 3.72434 3.82241 3.77369
# Velocity P-wave (km/s) = 7.21279 7.50191 7.35877
#
# Compressibility (1/GPa) = 0.01851111
#
# Stress axis : x y z
#
# Youngs Moduli (GPa) = 83.05104 43.49682 61.32592
#
# Poissons Ratio (x) = 0.15499 0.29913
# Poissons Ratio (y) = 0.29594 0.48889
# Poissons Ratio (z) = 0.40510 0.34676
#
# Static dielectric constant tensor:
#      x y z
#    x 2.964610 0.000000 0.006040 
#    y 0.000000 2.816970 0.000000 
#    z 0.006040 0.000000 3.005990 
# 
# 
# High freq. dielectric constant tensor:
#      x y z
#    x 1.619880 0.000000 -0.001610 
#    y 0.000000 1.600320 0.000000 
#    z -0.001610 0.000000 1.617960 
# 
# From -- ./inp_files/55232.got.cif
#   From: 2010.06.25/outbox.cif.g09.slc.cpg/sg15_28_cif.got.tgz:55232.got - 2010.06.28 07:06:18.
