data_PCOD8131618
_publ_section_title
;
Structure prediction by ZEFSAII (Michael W. Deem and Ramdas Pophale) SiO2 
 PCOD8131618
Probable space group: C 2/C
;
_chemical_formula_sum "Si O2"
_cell_formula_units_Z 52
_cell_length_a 17.712105
_cell_length_b 18.512767
_cell_length_c 9.231604
_cell_angle_alpha 90.000000
_cell_angle_beta 127.833687
_cell_angle_gamma 90.000000
_cell_volume 2390.742460
_symmetry_space_group_name_H-M "C 2/C"
_symmetry_group_IT_number 15
_symmetry_cell_setting 'monoclinic'
loop_
_space_group_symop_operation_xyz
x,y,z
-x,y,1/2-z
-x,-y,-z
x,-y,1/2+z
1/2+x,1/2+y,z
1/2-x,1/2+y,1/2-z
1/2-x,1/2-y,-z
1/2+x,1/2-y,1/2+z
loop_
_atom_site_type_symbol
_atom_site_label
_atom_site_fract_x
_atom_site_fract_y
_atom_site_fract_z
Si Si1 0.144088 0.290295 0.107536
Si Si2 0.000000 0.633833 0.250000
Si Si3 0.893211 0.880031 0.613750
Si Si4 0.679531 0.959076 0.863378
Si Si5 0.772522 0.145093 0.254883
Si Si6 0.241299 0.566902 0.732848
Si Si7 0.393741 0.215326 0.608830
O O1 0.178283 0.211238 0.097019
O O2 0.214970 0.353645 0.142428
O O3 0.155054 0.287636 0.292809
O O4 0.040402 0.312073 0.921498
O O5 0.919668 0.582556 0.226250
O O6 0.841246 0.883248 0.708189
O O7 0.842696 0.930187 0.433250
O O8 0.897113 0.797972 0.558179
O O9 0.000000 0.911118 0.750000
O O10 0.755155 0.916863 0.851304
O O11 0.662975 0.034359 0.755988
O O12 0.735331 0.980034 0.078108
O O13 0.668431 0.168288 0.073724
O O14 0.500000 0.182604 0.750000
#
# Coordination Sequence:
#
# PCOD8131618 Si02
#       7
#     8   4   8   8   8   8   8
#     4  10  20  38  62  88 130 166 208 262 312 373
#     4  10  24  42  58 100 128 168 218 256 316 384
#     4  10  20  39  66  93 125 166 216 263 311 382
#     4  11  26  41  66  89 133 166 214 260 325 375
#     4  11  20  41  63  98 127 170 209 265 322 373
#     4  11  22  43  60  90 124 173 204 267 318 371
#     4  10  18  33  64  97 124 163 212 257 322 378
#
# _framework density 21.750565999999999
#
# number of rings (size 3 to 8) (size 9 to 14) (size 15 to 20)
#    0.000    1.538    3.077    2.769    0.000    4.923 
#    9.692    3.077    0.000    0.000    0.000    0.000 
#    0.000    0.000    0.000    0.000    0.000    0.000 
#
# Total GULP energy -322244.815794 kJ/mol
# GULP energy per Si atom -12394.031377 kJ/mol
# Density = 2.170106 g / cm^3
# Si number density = 21.750566 Si / 1000 Ang^3
#
#
#
# Elastic Constant Matrix: (Units=GPa)
#
#
# Indices 1 2 3 4 5 6 
#
# 1 103.4634 18.4837 46.6108 0.0000 10.8965 0.0000
# 2 18.4837 43.8840 29.8148 0.0000 3.0057 0.0000
# 3 46.6108 29.8148 146.8309 0.0000 4.8912 0.0000
# 4 0.0000 0.0000 0.0000 27.4599 0.0000 -5.0838
# 5 10.8965 3.0057 4.8912 0.0000 38.1898 0.0000
# 6 0.0000 0.0000 0.0000 -5.0838 0.0000 31.2235
#
#
#
# Elastic Compliance Matrix: (Units=1/GPa)
#
#
# Indices 1 2 3 4 5 6 
#
# 1 0.011842 -0.002676 -0.003124 0.000000 -0.002768 0.000000
# 2 -0.002676 0.027113 -0.004630 0.000000 -0.000777 0.000000
# 3 -0.003124 -0.004630 0.008738 0.000000 0.000137 0.000000
# 4 0.000000 0.000000 0.000000 0.037549 0.000000 0.006114
# 5 -0.002768 -0.000777 0.000137 0.000000 0.027019 0.000000
# 6 0.000000 0.000000 0.000000 0.006114 0.000000 0.033023
#
#
# Mechanical properties :
#
#
# Convention : Reuss Voigt Hill
#
# Bulk Modulus (GPa) = 37.26658 53.77745 45.52202
# Shear Modulus (GPa) = 28.55720 32.65923 30.60821
#
# Velocity S-wave (km/s) = 3.62738 3.87917 3.75539
# Velocity P-wave (km/s) = 5.89192 6.69643 6.30702
#
# Compressibility (1/GPa) = 0.02683369
#
# Stress axis : x y z
#
# Youngs Moduli (GPa) = 84.44467 36.88205 114.44582
#
# Poissons Ratio (x) = 0.09870 0.35748
# Poissons Ratio (y) = 0.22598 0.52990
# Poissons Ratio (z) = 0.26377 0.17077
#
# Static dielectric constant tensor:
#      x y z
#    x 3.773210 0.000000 -0.031030 
#    y 0.000000 4.093910 0.000000 
#    z -0.031030 0.000000 4.098470 
# 
# 
# High freq. dielectric constant tensor:
#      x y z
#    x 1.833320 0.000000 -0.003230 
#    y 0.000000 1.854160 0.000000 
#    z -0.003230 0.000000 1.858500 
# 
# From -- ./inp_files/50731.got.cif
#   From: 2010.06.25/outbox.cif.g09.slc.cpg/sg15_26_cif.got.tgz:50731.got - 2010.06.28 07:06:18.
