data_PCOD8131144
_publ_section_title
;
Structure prediction by ZEFSAII (Michael W. Deem and Ramdas Pophale) SiO2 
 PCOD8131144
Probable space group: C 2/C
;
_chemical_formula_sum "Si O2"
_cell_formula_units_Z 40
_cell_length_a 25.685432
_cell_length_b 7.126446
_cell_length_c 18.514733
_cell_angle_alpha 90.000000
_cell_angle_beta 144.681603
_cell_angle_gamma 90.000000
_cell_volume 1959.273458
_symmetry_space_group_name_H-M "C 2/C"
_symmetry_group_IT_number 15
_symmetry_cell_setting 'monoclinic'
loop_
_space_group_symop_operation_xyz
x,y,z
-x,y,1/2-z
-x,-y,-z
x,-y,1/2+z
1/2+x,1/2+y,z
1/2-x,1/2+y,1/2-z
1/2-x,1/2-y,-z
1/2+x,1/2-y,1/2+z
loop_
_atom_site_type_symbol
_atom_site_label
_atom_site_fract_x
_atom_site_fract_y
_atom_site_fract_z
Si Si1 0.366311 0.662809 0.259817
Si Si2 0.817448 0.226738 0.771609
Si Si3 0.282634 0.418380 0.389126
Si Si4 0.523910 0.514845 0.856105
Si Si5 0.511965 0.710306 0.983118
O O1 0.323100 0.462182 0.230825
O O2 0.445927 0.632139 0.291707
O O3 0.405313 0.781292 0.374209
O O4 0.287354 0.798663 0.140577
O O5 0.749132 0.366775 0.654793
O O6 0.918194 0.320323 0.889775
O O7 0.783448 0.183936 0.812934
O O8 0.380024 0.409630 0.536890
O O9 0.500000 0.593229 0.750000
O O10 0.532836 0.692137 0.921197
O O11 0.500000 0.500000 0.000000
#
# Coordination Sequence:
#
# PCOD8131144 Si02
#       5
#     8   8   8   8   8
#     4  10  20  37  57  83 114 139 187 234 269 325
#     4  10  18  31  57  86 106 138 182 229 274 318
#     4  12  19  33  59  86 107 145 186 226 278 324
#     4  10  20  37  55  77 118 153 175 225 283 325
#     4   8  15  35  51  77 109 137 175 223 270 313
#
# _framework density 20.415731000000001
#
# number of rings (size 3 to 8) (size 9 to 14) (size 15 to 20)
#    0.000    2.400    8.000    0.000    0.000    1.600 
#    0.000    6.000    0.000    6.000    0.000    0.000 
#    0.000    0.000    0.000    0.000    0.000    0.000 
#
# Total GULP energy -247772.104981 kJ/mol
# GULP energy per Si atom -12388.605249 kJ/mol
# Density = 2.036926 g / cm^3
# Si number density = 20.415731 Si / 1000 Ang^3
#
#
#
# Elastic Constant Matrix: (Units=GPa)
#
#
# Indices 1 2 3 4 5 6 
#
# 1 80.8082 15.5814 55.9261 0.0000 0.9638 0.0000
# 2 15.5814 54.5219 26.7379 0.0000 10.9899 -0.0001
# 3 55.9261 26.7379 86.5828 0.0001 24.6981 0.0000
# 4 0.0000 0.0000 0.0001 17.1184 0.0000 7.5097
# 5 0.9638 10.9899 24.6981 0.0000 42.0983 0.0000
# 6 0.0000 -0.0001 0.0000 7.5097 0.0000 16.1920
#
#
#
# Elastic Compliance Matrix: (Units=1/GPa)
#
#
# Indices 1 2 3 4 5 6 
#
# 1 0.026128 0.000143 -0.020104 0.000000 0.011159 0.000000
# 2 0.000143 0.021767 -0.006236 0.000000 -0.002027 0.000000
# 3 -0.020104 -0.006236 0.031064 0.000000 -0.016137 0.000000
# 4 0.000000 0.000000 0.000000 0.073338 0.000000 -0.034013
# 5 0.011159 -0.002027 -0.016137 0.000000 0.033495 0.000000
# 6 0.000000 0.000000 0.000000 -0.034013 0.000000 0.077534
#
#
# Mechanical properties :
#
#
# Convention : Reuss Voigt Hill
#
# Bulk Modulus (GPa) = 37.64363 46.48928 42.06646
# Shear Modulus (GPa) = 15.40471 23.32624 19.36547
#
# Velocity S-wave (km/s) = 2.74989 3.38385 3.08321
# Velocity P-wave (km/s) = 5.34426 6.17155 5.77274
#
# Compressibility (1/GPa) = 0.02656492
#
# Stress axis : x y z
#
# Youngs Moduli (GPa) = 38.27288 45.94066 32.19130
#
# Poissons Ratio (x) = -0.00657 0.64718
# Poissons Ratio (y) = -0.00547 0.20075
# Poissons Ratio (z) = 0.76945 0.28649
#
# Static dielectric constant tensor:
#      x y z
#    x 3.692200 0.000000 0.377350 
#    y 0.000000 3.243460 0.000000 
#    z 0.377350 0.000000 4.282580 
# 
# 
# High freq. dielectric constant tensor:
#      x y z
#    x 1.779870 0.000000 0.037390 
#    y 0.000000 1.756320 0.000000 
#    z 0.037390 0.000000 1.802990 
# 
# From -- ./inp_files/257064.got.cif
#   From: 2010.06.25/outbox.cif.g09.slc.cpg/sg15_129_cif.got.tgz:257064.got - 2010.06.28 07:06:18.
