data_PCOD8131875
_publ_section_title
;
Structure prediction by ZEFSAII (Michael W. Deem and Ramdas Pophale) SiO2 
 PCOD8131875
Probable space group: C 2/C
;
_chemical_formula_sum "Si O2"
_cell_formula_units_Z 60
_cell_length_a 19.998803
_cell_length_b 13.582415
_cell_length_c 14.815018
_cell_angle_alpha 90.000000
_cell_angle_beta 135.796159
_cell_angle_gamma 90.000000
_cell_volume 2805.748624
_symmetry_space_group_name_H-M "C 2/C"
_symmetry_group_IT_number 15
_symmetry_cell_setting 'monoclinic'
loop_
_space_group_symop_operation_xyz
x,y,z
-x,y,1/2-z
-x,-y,-z
x,-y,1/2+z
1/2+x,1/2+y,z
1/2-x,1/2+y,1/2-z
1/2-x,1/2-y,-z
1/2+x,1/2-y,1/2+z
loop_
_atom_site_type_symbol
_atom_site_label
_atom_site_fract_x
_atom_site_fract_y
_atom_site_fract_z
Si Si1 0.529506 0.765246 0.553526
Si Si2 0.500000 0.191525 0.750000
Si Si3 0.556516 0.080887 0.212660
Si Si4 0.137600 0.255557 0.236564
Si Si5 0.601200 0.549774 0.612906
Si Si6 0.287509 0.553937 0.134670
Si Si7 0.756643 0.542726 0.612547
Si Si8 0.084389 0.432243 0.477244
O O1 0.539409 0.805653 0.665659
O O2 0.418168 0.753724 0.413952
O O3 0.590239 0.666712 0.601175
O O4 0.585279 0.849955 0.554042
O O5 0.446980 0.259086 0.771584
O O6 0.422402 0.121439 0.626933
O O7 0.500000 0.066337 0.250000
O O8 0.667794 0.047531 0.323773
O O9 0.503015 0.007655 0.090244
O O10 0.207155 0.163675 0.317137
O O11 0.191830 0.357830 0.304029
O O12 0.500000 0.500000 0.500000
O O13 0.633776 0.516799 0.744611
O O14 0.675917 0.515025 0.608161
O O15 0.296874 0.556827 0.035300
O O16 0.185491 0.511224 0.070270
#
# Coordination Sequence:
#
# PCOD8131875 Si02
#       8
#     8   4   8   8   8   8   8   8
#     4  11  25  43  68  97 141 191 217 286 351 406
#     4  10  18  34  64 102 138 150 210 284 352 384
#     4  12  22  45  71 108 143 172 231 291 354 417
#     4  11  22  37  67 104 132 169 223 283 348 403
#     4  12  29  51  62  96 146 191 240 275 339 427
#     4  12  24  42  70  98 138 182 229 281 347 417
#     4  12  25  42  75 105 132 181 230 293 354 405
#     4  11  19  40  68 103 136 163 221 288 344 402
#
# _framework density 21.384667
#
# number of rings (size 3 to 8) (size 9 to 14) (size 15 to 20)
#    0.000    0.533    7.333    2.400    5.600    0.533 
#    2.400    0.667    0.000    0.000    0.000    0.000 
#    0.000    0.000    0.000    0.000    0.000    0.000 
#
# Total GULP energy -371923.295111 kJ/mol
# GULP energy per Si atom -12397.443170 kJ/mol
# Density = 2.133599 g / cm^3
# Si number density = 21.384667 Si / 1000 Ang^3
#
#
#
# Elastic Constant Matrix: (Units=GPa)
#
#
# Indices 1 2 3 4 5 6 
#
# 1 98.2459 32.2471 35.9671 0.0000 14.3156 0.0000
# 2 32.2471 78.9191 36.7147 0.0000 -1.2152 0.0000
# 3 35.9671 36.7147 129.9389 0.0000 2.8042 0.0000
# 4 0.0000 0.0000 0.0000 36.8650 0.0000 1.4254
# 5 14.3156 -1.2152 2.8042 0.0000 29.2552 0.0000
# 6 0.0000 0.0000 0.0000 1.4254 0.0000 22.5546
#
#
#
# Elastic Compliance Matrix: (Units=1/GPa)
#
#
# Indices 1 2 3 4 5 6 
#
# 1 0.013465 -0.004530 -0.002306 0.000000 -0.006556 0.000000
# 2 -0.004530 0.016143 -0.003376 0.000000 0.003211 0.000000
# 3 -0.002306 -0.003376 0.009286 0.000000 0.000098 0.000000
# 4 0.000000 0.000000 0.000000 0.027192 0.000000 -0.001719
# 5 -0.006556 0.003211 0.000098 0.000000 0.037514 0.000000
# 6 0.000000 0.000000 0.000000 -0.001719 0.000000 0.044446
#
#
# Mechanical properties :
#
#
# Convention : Reuss Voigt Hill
#
# Bulk Modulus (GPa) = 54.14503 57.44019 55.79261
# Shear Modulus (GPa) = 28.63259 31.21328 29.92294
#
# Velocity S-wave (km/s) = 3.66311 3.82463 3.74474
# Velocity P-wave (km/s) = 6.57767 6.81340 6.69657
#
# Compressibility (1/GPa) = 0.01846892
#
# Stress axis : x y z
#
# Youngs Moduli (GPa) = 74.26760 61.94811 107.68875
#
# Poissons Ratio (x) = 0.28064 0.24828
# Poissons Ratio (y) = 0.33645 0.36361
# Poissons Ratio (z) = 0.17123 0.20917
#
# Static dielectric constant tensor:
#      x y z
#    x 3.941370 0.000000 -0.146420 
#    y 0.000000 3.790750 0.000000 
#    z -0.146420 0.000000 4.235440 
# 
# 
# High freq. dielectric constant tensor:
#      x y z
#    x 1.830340 0.000000 -0.000160 
#    y 0.000000 1.819810 0.000000 
#    z -0.000160 0.000000 1.852230 
# 
# From -- ./inp_files/168646.got.cif
#   From: 2010.06.25/outbox.cif.g09.slc.cpg/sg15_85_cif.got.tgz:168646.got - 2010.06.28 07:06:18.
