data_PCOD8131807
_publ_section_title
;
Structure prediction by ZEFSAII (Michael W. Deem and Ramdas Pophale) SiO2 
 PCOD8131807
Probable space group: C 2/C
;
_chemical_formula_sum "Si O2"
_cell_formula_units_Z 40
_cell_length_a 28.933064
_cell_length_b 11.412383
_cell_length_c 17.507920
_cell_angle_alpha 90.000000
_cell_angle_beta 23.261146
_cell_angle_gamma 90.000000
_cell_volume 2283.059820
_symmetry_space_group_name_H-M "C 2/C"
_symmetry_group_IT_number 15
_symmetry_cell_setting 'monoclinic'
loop_
_space_group_symop_operation_xyz
x,y,z
-x,y,1/2-z
-x,-y,-z
x,-y,1/2+z
1/2+x,1/2+y,z
1/2-x,1/2+y,1/2-z
1/2-x,1/2-y,-z
1/2+x,1/2-y,1/2+z
loop_
_atom_site_type_symbol
_atom_site_label
_atom_site_fract_x
_atom_site_fract_y
_atom_site_fract_z
Si Si1 0.094535 0.910589 0.325887
Si Si2 0.115489 0.832701 0.123079
Si Si3 0.981851 0.484752 0.904277
Si Si4 0.154271 0.430889 0.529096
Si Si5 0.121307 0.350595 0.821446
O O1 0.088150 0.890734 0.245527
O O2 0.214335 0.974742 0.166405
O O3 0.093568 0.786650 0.370954
O O4 0.000000 0.000000 0.500000
O O5 0.000000 0.865449 0.250000
O O6 0.133444 0.693495 0.103825
O O7 0.240539 0.880827 0.901033
O O8 0.080346 0.523671 0.692636
O O9 0.037569 0.401432 0.883203
O O10 0.885140 0.416910 0.999252
O O11 0.918162 0.595935 0.037812
#
# Coordination Sequence:
#
# PCOD8131807 Si02
#       5
#     8   8   8   8   8
#     4  11  22  36  55  83 116 142 182 229 275 325
#     4  11  19  35  58  81 109 146 187 224 266 326
#     4  10  18  34  60  80 104 141 191 226 262 326
#     4  10  18  36  57  81 104 146 188 220 269 325
#     4  10  20  35  57  82 109 142 185 227 273 319
#
# _framework density 17.520346
#
# number of rings (size 3 to 8) (size 9 to 14) (size 15 to 20)
#    0.000    1.600    6.000    1.200    2.800    0.000 
#    0.000    1.000    4.400    0.000    0.000    0.000 
#    0.000    0.000    0.000    0.000    0.000    0.000 
#
# Total GULP energy -247768.322878 kJ/mol
# GULP energy per Si atom -12388.416144 kJ/mol
# Density = 1.748047 g / cm^3
# Si number density = 17.520346 Si / 1000 Ang^3
#
#
#
# Elastic Constant Matrix: (Units=GPa)
#
#
# Indices 1 2 3 4 5 6 
#
# 1 103.4171 35.4581 81.6943 0.0000 -5.5633 0.0000
# 2 35.4581 64.6853 66.8722 0.0000 10.0885 0.0000
# 3 81.6943 66.8722 160.4575 0.0000 -8.9170 0.0000
# 4 0.0000 0.0000 0.0000 36.1517 0.0000 6.5206
# 5 -5.5633 10.0885 -8.9170 0.0000 33.3171 0.0000
# 6 0.0000 0.0000 0.0000 6.5206 0.0000 22.0058
#
#
#
# Elastic Compliance Matrix: (Units=1/GPa)
#
#
# Indices 1 2 3 4 5 6 
#
# 1 0.016212 -0.000963 -0.007802 0.000000 0.000910 0.000000
# 2 -0.000963 0.032305 -0.013730 0.000000 -0.013618 0.000000
# 3 -0.007802 -0.013730 0.016328 0.000000 0.007225 0.000000
# 4 0.000000 0.000000 0.000000 0.029223 0.000000 -0.008659
# 5 0.000910 -0.013618 0.007225 0.000000 0.036224 0.000000
# 6 0.000000 0.000000 0.000000 -0.008659 0.000000 0.048008
#
#
# Mechanical properties :
#
#
# Convention : Reuss Voigt Hill
#
# Bulk Modulus (GPa) = 50.36445 77.40101 63.88273
# Shear Modulus (GPa) = 21.74768 27.93063 24.83915
#
# Velocity S-wave (km/s) = 3.52700 3.99705 3.76936
# Velocity P-wave (km/s) = 6.73758 8.09788 7.44885
#
# Compressibility (1/GPa) = 0.01985528
#
# Stress axis : x y z
#
# Youngs Moduli (GPa) = 61.68250 30.95456 61.24370
#
# Poissons Ratio (x) = 0.02980 0.47784
# Poissons Ratio (y) = 0.05939 0.84088
# Poissons Ratio (z) = 0.48126 0.42501
#
# Static dielectric constant tensor:
#      x y z
#    x 3.445780 0.000000 -0.115580 
#    y 0.000000 2.978380 0.000000 
#    z -0.115580 0.000000 3.587780 
# 
# 
# High freq. dielectric constant tensor:
#      x y z
#    x 1.695520 0.000000 -0.011480 
#    y 0.000000 1.630710 0.000000 
#    z -0.011480 0.000000 1.688890 
# 
# From -- ./inp_files/141700.got.cif
#   From: 2010.06.25/outbox.cif.g09.slc.cpg/sg15_71_cif.got.tgz:141700.got - 2010.06.28 07:06:18.
