data_PCOD8131745
_publ_section_title
;
Structure prediction by ZEFSAII (Michael W. Deem and Ramdas Pophale) SiO2 
 PCOD8131745
Probable space group: C 2/C
;
_chemical_formula_sum "Si O2"
_cell_formula_units_Z 44
_cell_length_a 10.136952
_cell_length_b 22.662367
_cell_length_c 12.008710
_cell_angle_alpha 90.000000
_cell_angle_beta 121.966036
_cell_angle_gamma 90.000000
_cell_volume 2340.400924
_symmetry_space_group_name_H-M "C 2/C"
_symmetry_group_IT_number 15
_symmetry_cell_setting 'monoclinic'
loop_
_space_group_symop_operation_xyz
x,y,z
-x,y,1/2-z
-x,-y,-z
x,-y,1/2+z
1/2+x,1/2+y,z
1/2-x,1/2+y,1/2-z
1/2-x,1/2-y,-z
1/2+x,1/2-y,1/2+z
loop_
_atom_site_type_symbol
_atom_site_label
_atom_site_fract_x
_atom_site_fract_y
_atom_site_fract_z
Si Si1 0.391768 0.209278 0.810770
Si Si2 0.409358 0.584305 0.967545
Si Si3 0.290946 0.534658 0.488611
Si Si4 0.168270 0.419118 0.165431
Si Si5 0.500000 0.996301 0.250000
Si Si6 0.864128 0.217027 0.969380
O O1 0.500000 0.203508 0.750000
O O2 0.387911 0.147841 0.875258
O O3 0.214460 0.225175 0.689322
O O4 0.463245 0.255345 0.933322
O O5 0.366781 0.531121 0.033297
O O6 0.308711 0.575863 0.813161
O O7 0.587444 0.581036 0.007746
O O8 0.375935 0.647896 0.007322
O O9 0.229058 0.554420 0.579029
O O10 0.149012 0.536699 0.338184
O O11 0.023261 0.456044 0.149955
O O12 0.750000 0.250000 0.000000
#
# Coordination Sequence:
#
# PCOD8131745 Si02
#       6
#     8   8   8   8   4   8
#     4   9  17  33  54  81 107 140 186 224 268 324
#     4   9  20  37  55  79 115 138 189 229 269 337
#     4  10  20  35  55  81 108 151 177 227 282 326
#     4  10  18  34  58  77 108 151 183 217 281 337
#     4  10  20  34  50  84 116 138 190 228 264 342
#     4   9  18  34  56  79 108 144 181 229 270 318
#
# _framework density 18.800198000000002
#
# number of rings (size 3 to 8) (size 9 to 14) (size 15 to 20)
#    0.000    2.545    0.909    1.091    2.545    0.000 
#    3.273   15.455    0.000    0.000    0.000    0.000 
#    0.000    0.000    0.000    0.000    0.000    0.000 
#
# Total GULP energy -272615.871358 kJ/mol
# GULP energy per Si atom -12391.630516 kJ/mol
# Density = 1.875741 g / cm^3
# Si number density = 18.800198 Si / 1000 Ang^3
#
#
#
# Elastic Constant Matrix: (Units=GPa)
#
#
# Indices 1 2 3 4 5 6 
#
# 1 84.6870 39.4396 24.4196 0.0000 -3.4040 0.0000
# 2 39.4396 115.0467 46.7358 0.0000 -1.8651 0.0000
# 3 24.4196 46.7358 67.9311 0.0000 8.7457 0.0000
# 4 0.0000 0.0000 0.0000 73.0558 0.0000 -3.4645
# 5 -3.4040 -1.8651 8.7457 0.0000 33.5529 0.0000
# 6 0.0000 0.0000 0.0000 -3.4645 0.0000 27.5624
#
#
#
# Elastic Compliance Matrix: (Units=1/GPa)
#
#
# Indices 1 2 3 4 5 6 
#
# 1 0.014468 -0.003761 -0.002872 0.000000 0.002007 0.000000
# 2 -0.003761 0.013327 -0.008136 0.000000 0.002480 0.000000
# 3 -0.002872 -0.008136 0.022191 0.000000 -0.006528 0.000000
# 4 0.000000 0.000000 0.000000 0.013770 0.000000 0.001731
# 5 0.002007 0.002480 -0.006528 0.000000 0.031847 0.000000
# 6 0.000000 0.000000 0.000000 0.001731 0.000000 0.036499
#
#
# Mechanical properties :
#
#
# Convention : Reuss Voigt Hill
#
# Bulk Modulus (GPa) = 48.90321 54.31720 51.61020
# Shear Modulus (GPa) = 29.68135 37.30553 33.49344
#
# Velocity S-wave (km/s) = 3.97770 4.45940 4.22542
# Velocity P-wave (km/s) = 6.86765 7.44779 7.16359
#
# Compressibility (1/GPa) = 0.02044856
#
# Stress axis : x y z
#
# Youngs Moduli (GPa) = 69.11585 75.03775 45.06300
#
# Poissons Ratio (x) = 0.28219 0.12943
# Poissons Ratio (y) = 0.25992 0.36663
# Poissons Ratio (z) = 0.19852 0.61050
#
# Static dielectric constant tensor:
#      x y z
#    x 4.581590 0.000000 1.484280 
#    y 0.000000 3.624330 0.000000 
#    z 1.484280 0.000000 4.627640 
# 
# 
# High freq. dielectric constant tensor:
#      x y z
#    x 1.713920 0.000000 0.027680 
#    y 0.000000 1.726200 0.000000 
#    z 0.027680 0.000000 1.722300 
# 
# From -- ./inp_files/78133.got.cif
#   From: 2010.06.25/outbox.cif.g09.slc.cpg/sg15_40_cif.got.tgz:78133.got - 2010.06.28 07:06:18.
