data_PCOD8131805
_publ_section_title
;
Structure prediction by ZEFSAII (Michael W. Deem and Ramdas Pophale) SiO2 
 PCOD8131805
Probable space group: C 2/C
;
_chemical_formula_sum "Si O2"
_cell_formula_units_Z 36
_cell_length_a 9.688808
_cell_length_b 22.080955
_cell_length_c 9.241598
_cell_angle_alpha 90.000000
_cell_angle_beta 58.296874
_cell_angle_gamma 90.000000
_cell_volume 1682.107676
_symmetry_space_group_name_H-M "C 2/C"
_symmetry_group_IT_number 15
_symmetry_cell_setting 'monoclinic'
loop_
_space_group_symop_operation_xyz
x,y,z
-x,y,1/2-z
-x,-y,-z
x,-y,1/2+z
1/2+x,1/2+y,z
1/2-x,1/2+y,1/2-z
1/2-x,1/2-y,-z
1/2+x,1/2-y,1/2+z
loop_
_atom_site_type_symbol
_atom_site_label
_atom_site_fract_x
_atom_site_fract_y
_atom_site_fract_z
Si Si1 0.167752 0.975820 0.347813
Si Si2 0.404025 0.275851 0.494162
Si Si3 0.500000 0.616472 0.750000
Si Si4 0.195555 0.922617 0.627905
Si Si5 0.222899 0.711386 0.372131
O O1 0.257223 0.948340 0.438384
O O2 0.142115 0.925038 0.237839
O O3 0.259355 0.031959 0.219035
O O4 0.000000 0.000000 0.500000
O O5 0.250000 0.250000 0.500000
O O6 0.432884 0.343268 0.418601
O O7 0.374850 0.278725 0.681857
O O8 0.440151 0.233537 0.119291
O O9 0.289762 0.859511 0.587830
O O10 0.000000 0.915040 0.750000
O O11 0.250000 0.750000 0.500000
#
# Coordination Sequence:
#
# PCOD8131805 Si02
#       5
#     8   8   4   8   8
#     4  10  18  34  59  96 125 171 224 273 324 399
#     4  12  25  43  65 101 131 180 223 273 338 403
#     4  12  20  38  66  94 136 172 232 272 330 406
#     4  10  20  35  60  97 130 168 223 274 330 392
#     4  12  24  43  66  99 135 173 223 280 339 398
#
# _framework density 21.401720999999998
#
# number of rings (size 3 to 8) (size 9 to 14) (size 15 to 20)
#    0.000    0.889    5.556    6.000    0.000    0.000 
#    0.000    0.000    0.000    1.333    5.778    0.000 
#    0.000    0.000    0.000    0.000    0.000    0.000 
#
# Total GULP energy -223152.462278 kJ/mol
# GULP energy per Si atom -12397.359015 kJ/mol
# Density = 2.135301 g / cm^3
# Si number density = 21.401721 Si / 1000 Ang^3
#
#
#
# Elastic Constant Matrix: (Units=GPa)
#
#
# Indices 1 2 3 4 5 6 
#
# 1 47.8426 32.8000 13.5334 0.0000 1.1375 0.0000
# 2 32.8000 187.3087 71.3373 0.0000 5.2077 0.0000
# 3 13.5334 71.3373 154.8706 0.0000 0.5631 0.0000
# 4 0.0000 0.0000 0.0000 58.9304 0.0000 8.9943
# 5 1.1375 5.2077 0.5631 0.0000 21.1044 0.0000
# 6 0.0000 0.0000 0.0000 8.9943 0.0000 22.5452
#
#
#
# Elastic Compliance Matrix: (Units=1/GPa)
#
#
# Indices 1 2 3 4 5 6 
#
# 1 0.023760 -0.004078 -0.000197 0.000000 -0.000269 0.000000
# 2 -0.004078 0.007224 -0.002966 0.000000 -0.001484 0.000000
# 3 -0.000197 -0.002966 0.007838 0.000000 0.000533 0.000000
# 4 0.000000 0.000000 0.000000 0.018069 0.000000 -0.007209
# 5 -0.000269 -0.001484 0.000533 0.000000 0.047750 0.000000
# 6 0.000000 0.000000 0.000000 -0.007209 0.000000 0.047231
#
#
# Mechanical properties :
#
#
# Convention : Reuss Voigt Hill
#
# Bulk Modulus (GPa) = 41.08359 69.48481 55.28420
# Shear Modulus (GPa) = 28.65871 38.67275 33.66573
#
# Velocity S-wave (km/s) = 3.66332 4.25549 3.97046
# Velocity P-wave (km/s) = 6.09354 7.52881 6.84888
#
# Compressibility (1/GPa) = 0.02434062
#
# Stress axis : x y z
#
# Youngs Moduli (GPa) = 42.08777 138.43427 127.57876
#
# Poissons Ratio (x) = 0.56457 0.02510
# Poissons Ratio (y) = 0.17164 0.37835
# Poissons Ratio (z) = 0.00828 0.41054
#
# Static dielectric constant tensor:
#      x y z
#    x 3.325730 0.000000 0.009760 
#    y 0.000000 4.425290 0.000000 
#    z 0.009760 0.000000 4.635350 
# 
# 
# High freq. dielectric constant tensor:
#      x y z
#    x 1.777580 0.000000 0.016010 
#    y 0.000000 1.856780 0.000000 
#    z 0.016010 0.000000 1.869370 
# 
# From -- ./inp_files/38330.got.cif
#   From: 2010.06.25/outbox.cif.g09.slc.cpg/sg15_20_cif.got.tgz:38330.got - 2010.06.28 07:06:18.
