data_PCOD8131344
_publ_section_title
;
Structure prediction by ZEFSAII (Michael W. Deem and Ramdas Pophale) SiO2 
 PCOD8131344
Probable space group: C 2/C
;
_chemical_formula_sum "Si O2"
_cell_formula_units_Z 64
_cell_length_a 22.709497
_cell_length_b 18.295430
_cell_length_c 10.269088
_cell_angle_alpha 90.000000
_cell_angle_beta 122.920996
_cell_angle_gamma 90.000000
_cell_volume 3581.473306
_symmetry_space_group_name_H-M "C 2/C"
_symmetry_group_IT_number 15
_symmetry_cell_setting 'monoclinic'
loop_
_space_group_symop_operation_xyz
x,y,z
-x,y,1/2-z
-x,-y,-z
x,-y,1/2+z
1/2+x,1/2+y,z
1/2-x,1/2+y,1/2-z
1/2-x,1/2-y,-z
1/2+x,1/2-y,1/2+z
loop_
_atom_site_type_symbol
_atom_site_label
_atom_site_fract_x
_atom_site_fract_y
_atom_site_fract_z
Si Si1 0.660019 0.118568 0.379675
Si Si2 0.000025 0.241859 0.969089
Si Si3 0.880217 0.006486 0.851345
Si Si4 0.460012 0.104190 0.476631
Si Si5 0.999550 0.096209 0.099902
Si Si6 0.110988 0.771023 0.386122
Si Si7 0.439132 0.033316 0.080112
Si Si8 0.815542 0.073308 0.514777
O O1 0.602368 0.104154 0.201639
O O2 0.665412 0.204787 0.422867
O O3 0.733423 0.088341 0.419482
O O4 0.635075 0.070172 0.473534
O O5 0.979731 0.312426 0.030878
O O6 0.938701 0.218077 0.797527
O O7 0.069019 0.254222 0.964475
O O8 0.012733 0.181345 0.093557
O O9 0.837764 0.029091 0.671227
O O10 0.937354 0.944333 0.895242
O O11 0.923148 0.076947 0.951198
O O12 0.829768 0.976640 0.905032
O O13 0.431984 0.055618 0.564774
O O14 0.533502 0.065342 0.524087
O O15 0.000000 0.074289 0.250000
O O16 0.147171 0.848499 0.454307
O O17 0.500000 0.059378 0.250000
#
# Coordination Sequence:
#
# PCOD8131344 Si02
#       8
#     8   8   8   8   8   8   8   8
#     4  10  21  34  57  82 110 148 192 236 281 342
#     4  10  18  32  58  80 112 139 185 240 286 322
#     4  11  24  37  56  86 112 156 192 238 283 344
#     4   9  18  33  54  81 107 139 188 237 283 333
#     4  11  21  36  57  81 114 148 196 232 284 339
#     4  10  19  35  56  86 104 146 190 238 277 331
#     4   9  17  33  53  78 108 138 181 237 281 334
#     4  12  23  38  57  83 123 153 191 233 294 347
#
# _framework density 17.86974
#
# number of rings (size 3 to 8) (size 9 to 14) (size 15 to 20)
#    0.000    1.750    5.000    0.375    1.750    0.500 
#    0.000    0.000    0.000    0.000    0.000    5.250 
#    0.000    0.000    0.000    0.000    0.000    0.000 
#
# Total GULP energy -396568.662668 kJ/mol
# GULP energy per Si atom -12392.770708 kJ/mol
# Density = 1.782907 g / cm^3
# Si number density = 17.869740 Si / 1000 Ang^3
#
#
#
# Elastic Constant Matrix: (Units=GPa)
#
#
# Indices 1 2 3 4 5 6 
#
# 1 97.9611 42.9177 29.6004 0.0000 5.8062 0.0000
# 2 42.9177 101.9950 20.5252 0.0000 2.6177 0.0000
# 3 29.6004 20.5252 38.9366 0.0000 -4.3981 0.0000
# 4 0.0000 0.0000 0.0000 26.3838 0.0000 -11.1306
# 5 5.8062 2.6177 -4.3981 0.0000 23.8637 0.0000
# 6 0.0000 0.0000 0.0000 -11.1306 0.0000 17.4780
#
#
#
# Elastic Compliance Matrix: (Units=1/GPa)
#
#
# Indices 1 2 3 4 5 6 
#
# 1 0.015449 -0.004350 -0.010031 0.000000 -0.005130 0.000000
# 2 -0.004350 0.012320 -0.003289 0.000000 -0.000899 0.000000
# 3 -0.010031 -0.003289 0.036110 0.000000 0.009456 0.000000
# 4 0.000000 0.000000 0.000000 0.051826 0.000000 0.033005
# 5 -0.005130 -0.000899 0.009456 0.000000 0.044994 0.000000
# 6 0.000000 0.000000 0.000000 0.033005 0.000000 0.078233
#
#
# Mechanical properties :
#
#
# Convention : Reuss Voigt Hill
#
# Bulk Modulus (GPa) = 35.03949 47.21994 41.12971
# Shear Modulus (GPa) = 17.61892 23.26839 20.44365
#
# Velocity S-wave (km/s) = 3.14341 3.61239 3.38603
# Velocity P-wave (km/s) = 5.72936 6.62428 6.19301
#
# Compressibility (1/GPa) = 0.02853923
#
# Stress axis : x y z
#
# Youngs Moduli (GPa) = 64.72830 81.16968 27.69304
#
# Poissons Ratio (x) = 0.35313 0.27779
# Poissons Ratio (y) = 0.28160 0.09107
# Poissons Ratio (z) = 0.64929 0.26693
#
# Static dielectric constant tensor:
#      x y z
#    x 3.327930 0.000000 -0.056420 
#    y 0.000000 3.452380 0.000000 
#    z -0.056420 0.000000 3.023960 
# 
# 
# High freq. dielectric constant tensor:
#      x y z
#    x 1.684470 0.000000 -0.004510 
#    y 0.000000 1.706930 0.000000 
#    z -0.004510 0.000000 1.663270 
# 
# From -- ./inp_files/113501.got.cif
#   From: 2010.06.25/outbox.cif.g09.slc.cpg/sg15_57_cif.got.tgz:113501.got - 2010.06.28 07:06:18.
