data_PCOD8131153
_publ_section_title
;
Structure prediction by ZEFSAII (Michael W. Deem and Ramdas Pophale) SiO2 
 PCOD8131153
Probable space group: C 2/C
;
_chemical_formula_sum "Si O2"
_cell_formula_units_Z 60
_cell_length_a 10.710306
_cell_length_b 29.367108
_cell_length_c 11.562104
_cell_angle_alpha 90.000000
_cell_angle_beta 57.313028
_cell_angle_gamma 90.000000
_cell_volume 3060.715738
_symmetry_space_group_name_H-M "C 2/C"
_symmetry_group_IT_number 15
_symmetry_cell_setting 'monoclinic'
loop_
_space_group_symop_operation_xyz
x,y,z
-x,y,1/2-z
-x,-y,-z
x,-y,1/2+z
1/2+x,1/2+y,z
1/2-x,1/2+y,1/2-z
1/2-x,1/2-y,-z
1/2+x,1/2-y,1/2+z
loop_
_atom_site_type_symbol
_atom_site_label
_atom_site_fract_x
_atom_site_fract_y
_atom_site_fract_z
Si Si1 0.849350 0.276778 0.538992
Si Si2 0.132015 0.937603 0.766921
Si Si3 0.938750 0.538322 0.895034
Si Si4 0.232167 0.477329 0.368176
Si Si5 0.279869 0.875186 0.508166
Si Si6 0.494123 0.629479 0.003238
Si Si7 0.500000 0.592609 0.750000
Si Si8 0.409578 0.715705 0.174163
O O1 0.750000 0.250000 0.500000
O O2 0.867309 0.329604 0.497658
O O3 0.761168 0.271301 0.706150
O O4 0.013731 0.254779 0.444337
O O5 0.222768 0.897924 0.655826
O O6 0.000000 0.953600 0.750000
O O7 0.219837 0.984516 0.751266
O O8 0.075324 0.917867 0.916652
O O9 0.071875 0.543682 0.920394
O O10 0.000000 0.514629 0.750000
O O11 0.887688 0.589455 0.891020
O O12 0.796802 0.508214 0.003507
O O13 0.352666 0.438248 0.325540
O O14 0.154824 0.862447 0.478119
O O15 0.501489 0.625675 0.860764
O O16 0.397166 0.671762 0.097292
O O17 0.500000 0.705105 0.250000
#
# Coordination Sequence:
#
# PCOD8131153 Si02
#       8
#     8   8   8   8   8   8   4   8
#     4  10  18  31  58  94 121 140 181 241 307 353
#     4   9  17  33  61  79 108 146 188 244 288 329
#     4  10  22  37  57  78 117 150 183 248 297 343
#     4  10  22  40  52  84 112 146 205 238 288 343
#     4  10  18  35  57  88 113 147 184 237 303 345
#     4  11  20  35  57  82 121 149 193 240 286 351
#     4  12  26  36  54  86 112 162 204 234 278 358
#     4  10  18  35  58  94 118 146 187 244 307 344
#
# _framework density 19.603259000000001
#
# number of rings (size 3 to 8) (size 9 to 14) (size 15 to 20)
#    0.000    1.867    4.667    1.200    1.867    2.133 
#    2.400    0.000    0.000    0.800    0.000    0.000 
#    0.000    0.000    0.000    0.000    0.000    0.000 
#
# Total GULP energy -371675.767899 kJ/mol
# GULP energy per Si atom -12389.192263 kJ/mol
# Density = 1.955864 g / cm^3
# Si number density = 19.603259 Si / 1000 Ang^3
#
#
#
# Elastic Constant Matrix: (Units=GPa)
#
#
# Indices 1 2 3 4 5 6 
#
# 1 32.6206 12.6570 29.5253 0.0000 -2.7614 0.0000
# 2 12.6570 85.4473 48.7379 0.0000 -2.5275 0.0000
# 3 29.5253 48.7379 135.7655 0.0000 -4.7921 0.0000
# 4 0.0000 0.0000 0.0000 23.5309 0.0000 -3.0647
# 5 -2.7614 -2.5275 -4.7921 0.0000 24.8959 0.0000
# 6 0.0000 0.0000 0.0000 -3.0647 0.0000 12.0610
#
#
#
# Elastic Compliance Matrix: (Units=1/GPa)
#
#
# Indices 1 2 3 4 5 6 
#
# 1 0.038430 -0.001133 -0.007858 0.000000 0.002635 0.000000
# 2 -0.001133 0.014756 -0.005037 0.000000 0.000403 0.000000
# 3 -0.007858 -0.005037 0.010908 0.000000 0.000717 0.000000
# 4 0.000000 0.000000 0.000000 0.043952 0.000000 0.011168
# 5 0.002635 0.000403 0.000717 0.000000 0.040638 0.000000
# 6 0.000000 0.000000 0.000000 0.011168 0.000000 0.085749
#
#
# Mechanical properties :
#
#
# Convention : Reuss Voigt Hill
#
# Bulk Modulus (GPa) = 27.74716 48.40820 38.07768
# Shear Modulus (GPa) = 18.21489 22.95844 20.58666
#
# Velocity S-wave (km/s) = 3.05155 3.42593 3.24414
# Velocity P-wave (km/s) = 5.15762 6.35585 5.78783
#
# Compressibility (1/GPa) = 0.03603972
#
# Stress axis : x y z
#
# Youngs Moduli (GPa) = 26.02108 67.77109 91.67686
#
# Poissons Ratio (x) = 0.07675 0.72040
# Poissons Ratio (y) = 0.02947 0.46173
# Poissons Ratio (z) = 0.20447 0.34133
#
# Static dielectric constant tensor:
#      x y z
#    x 3.272070 0.000000 -0.475640 
#    y 0.000000 3.706280 0.000000 
#    z -0.475640 0.000000 4.147140 
# 
# 
# High freq. dielectric constant tensor:
#      x y z
#    x 1.706290 0.000000 -0.024130 
#    y 0.000000 1.764690 0.000000 
#    z -0.024130 0.000000 1.776510 
# 
# From -- ./inp_files/92608.got.cif
#   From: 2010.06.25/outbox.cif.g09.slc.cpg/sg15_47_cif.got.tgz:92608.got - 2010.06.28 07:06:18.
