data_PCOD8131187
_publ_section_title
;
Structure prediction by ZEFSAII (Michael W. Deem and Ramdas Pophale) SiO2 
 PCOD8131187
Probable space group: C 2/C
;
_chemical_formula_sum "Si O2"
_cell_formula_units_Z 56
_cell_length_a 25.633037
_cell_length_b 18.679201
_cell_length_c 15.264162
_cell_angle_alpha 90.000000
_cell_angle_beta 154.543974
_cell_angle_gamma 90.000000
_cell_volume 3141.348879
_symmetry_space_group_name_H-M "C 2/C"
_symmetry_group_IT_number 15
_symmetry_cell_setting 'monoclinic'
loop_
_space_group_symop_operation_xyz
x,y,z
-x,y,1/2-z
-x,-y,-z
x,-y,1/2+z
1/2+x,1/2+y,z
1/2-x,1/2+y,1/2-z
1/2-x,1/2-y,-z
1/2+x,1/2-y,1/2+z
loop_
_atom_site_type_symbol
_atom_site_label
_atom_site_fract_x
_atom_site_fract_y
_atom_site_fract_z
Si Si1 0.972354 0.081229 0.111475
Si Si2 0.361384 0.948061 0.513443
Si Si3 0.307553 0.491861 0.091201
Si Si4 0.323809 0.678276 0.416494
Si Si5 0.914928 0.163706 0.745151
Si Si6 0.255055 0.480218 0.817507
Si Si7 0.303747 0.684149 0.751542
O O1 0.000000 0.110651 0.250000
O O2 0.912423 0.145511 0.967497
O O3 0.097354 0.057198 0.253997
O O4 0.884743 0.012082 0.984206
O O5 0.500000 0.945212 0.750000
O O6 0.285986 0.994244 0.470271
O O7 0.312379 0.867373 0.434395
O O8 0.350492 0.984904 0.401519
O O9 0.387032 0.420113 0.212636
O O10 0.233780 0.498305 0.887756
O O11 0.362718 0.692934 0.575374
O O12 0.440884 0.676139 0.531742
O O13 0.250834 0.604645 0.296093
O O14 0.236835 0.744482 0.258035
O O15 0.853751 0.206744 0.731977
#
# Coordination Sequence:
#
# PCOD8131187 Si02
#       7
#     8   8   8   8   8   8   8
#     4   9  17  33  56  79  97 127 176 216 249 287
#     4  10  22  34  50  78 107 137 168 205 259 307
#     4   9  17  33  56  78 100 129 174 219 245 297
#     4  10  18  32  50  76 106 132 165 210 249 305
#     4   9  18  30  52  76 102 133 167 202 260 300
#     4   9  18  33  54  77 101 135 172 207 254 301
#     4  10  21  32  52  78 103 135 164 212 256 299
#
# _framework density 17.826737000000001
#
# number of rings (size 3 to 8) (size 9 to 14) (size 15 to 20)
#    0.000    2.571    1.429    0.429    4.000    2.286 
#    0.000    0.714    0.000    0.857    0.000    0.000 
#    0.000    0.000    0.000    0.000    0.000    0.000 
#
# Total GULP energy -347175.803380 kJ/mol
# GULP energy per Si atom -12399.135835 kJ/mol
# Density = 1.778616 g / cm^3
# Si number density = 17.826737 Si / 1000 Ang^3
#
#
#
# Elastic Constant Matrix: (Units=GPa)
#
#
# Indices 1 2 3 4 5 6 
#
# 1 69.9856 28.4582 34.4561 0.0000 -0.8671 0.0000
# 2 28.4582 80.1435 40.2010 0.0000 0.5253 0.0000
# 3 34.4561 40.2010 100.5727 0.0000 -1.2857 0.0000
# 4 0.0000 0.0000 0.0000 22.1687 0.0000 2.8103
# 5 -0.8671 0.5253 -1.2857 0.0000 18.9177 0.0000
# 6 0.0000 0.0000 0.0000 2.8103 0.0000 20.1182
#
#
#
# Elastic Compliance Matrix: (Units=1/GPa)
#
#
# Indices 1 2 3 4 5 6 
#
# 1 0.018251 -0.004193 -0.004568 0.000000 0.000642 0.000000
# 2 -0.004193 0.016584 -0.005205 0.000000 -0.001006 0.000000
# 3 -0.004568 -0.005205 0.013600 0.000000 0.000859 0.000000
# 4 0.000000 0.000000 0.000000 0.045922 0.000000 -0.006415
# 5 0.000642 -0.001006 0.000859 0.000000 0.052976 0.000000
# 6 0.000000 0.000000 0.000000 -0.006415 0.000000 0.050602
#
#
# Mechanical properties :
#
#
# Convention : Reuss Voigt Hill
#
# Bulk Modulus (GPa) = 48.77826 50.77029 49.77427
# Shear Modulus (GPa) = 21.48659 22.08002 21.78331
#
# Velocity S-wave (km/s) = 3.47551 3.52318 3.49943
# Velocity P-wave (km/s) = 6.59753 6.71506 6.65656
#
# Compressibility (1/GPa) = 0.02050094
#
# Stress axis : x y z
#
# Youngs Moduli (GPa) = 54.79177 60.29796 73.53037
#
# Poissons Ratio (x) = 0.25285 0.33591
# Poissons Ratio (y) = 0.22976 0.38275
# Poissons Ratio (z) = 0.25031 0.31387
#
# Static dielectric constant tensor:
#      x y z
#    x 3.456580 0.000000 -0.123330 
#    y 0.000000 3.080950 0.000000 
#    z -0.123330 0.000000 3.144010 
# 
# 
# High freq. dielectric constant tensor:
#      x y z
#    x 1.689950 0.000000 -0.003300 
#    y 0.000000 1.668250 0.000000 
#    z -0.003300 0.000000 1.670630 
# 
# From -- ./inp_files/199281.got.cif
#   From: 2010.06.25/outbox.cif.g09.slc.cpg/sg15_100_cif.got.tgz:199281.got - 2010.06.28 07:06:18.
