data_PCOD8131914
_publ_section_title
;
Structure prediction by ZEFSAII (Michael W. Deem and Ramdas Pophale) SiO2 
 PCOD8131914
Probable space group: C 2/C
;
_chemical_formula_sum "Si O2"
_cell_formula_units_Z 64
_cell_length_a 20.407787
_cell_length_b 21.811737
_cell_length_c 9.082110
_cell_angle_alpha 90.000000
_cell_angle_beta 57.616191
_cell_angle_gamma 90.000000
_cell_volume 3413.987574
_symmetry_space_group_name_H-M "C 2/C"
_symmetry_group_IT_number 15
_symmetry_cell_setting 'monoclinic'
loop_
_space_group_symop_operation_xyz
x,y,z
-x,y,1/2-z
-x,-y,-z
x,-y,1/2+z
1/2+x,1/2+y,z
1/2-x,1/2+y,1/2-z
1/2-x,1/2-y,-z
1/2+x,1/2-y,1/2+z
loop_
_atom_site_type_symbol
_atom_site_label
_atom_site_fract_x
_atom_site_fract_y
_atom_site_fract_z
Si Si1 0.558764 0.924983 0.895318
Si Si2 0.928842 0.226780 0.250171
Si Si3 0.072590 0.272371 0.565766
Si Si4 0.212000 0.633600 0.831374
Si Si5 0.635005 0.809439 0.932921
Si Si6 0.768054 0.820943 0.958478
Si Si7 0.178576 0.786582 0.147440
Si Si8 0.401202 0.037592 0.476127
O O1 0.585652 0.855578 0.891283
O O2 0.591049 0.954659 0.707461
O O3 0.465503 0.924550 0.993601
O O4 0.589650 0.966046 0.994375
O O5 0.907269 0.289382 0.364894
O O6 0.860506 0.175848 0.319607
O O7 0.000000 0.194438 0.250000
O O8 0.957229 0.248068 0.054950
O O9 0.138322 0.324236 0.467041
O O10 0.110244 0.213788 0.608014
O O11 0.000000 0.298261 0.750000
O O12 0.239854 0.641178 0.631755
O O13 0.286573 0.646969 0.847641
O O14 0.183854 0.563490 0.879836
O O15 0.717628 0.841789 0.876395
O O16 0.648175 0.746434 0.830821
O O17 0.750000 0.750000 0.000000
O O18 0.250000 0.750000 0.000000
#
# Coordination Sequence:
#
# PCOD8131914 Si02
#       8
#     8   8   8   8   8   8   8   8
#     4  10  23  40  54  77 109 145 196 230 270 312
#     4  11  22  34  51  79 112 145 181 219 270 337
#     4  11  22  31  49  77 109 145 185 220 272 331
#     4  11  20  35  55  75 108 144 188 230 275 323
#     4  11  20  36  55  74 106 147 183 226 272 325
#     4  10  18  35  53  78 105 141 186 221 270 337
#     4  10  19  32  51  76 104 139 177 229 276 325
#     4  10  24  38  54  76 107 150 189 234 267 316
#
# _framework density 18.746407000000001
#
# number of rings (size 3 to 8) (size 9 to 14) (size 15 to 20)
#    0.000    1.500    5.000    3.000    7.000    0.000 
#    2.250    0.000    0.000    0.000    0.000    0.000 
#    0.000    2.000    0.000    0.000    0.000    0.000 
#
# Total GULP energy -396547.529354 kJ/mol
# GULP energy per Si atom -12392.110292 kJ/mol
# Density = 1.870374 g / cm^3
# Si number density = 18.746407 Si / 1000 Ang^3
#
#
#
# Elastic Constant Matrix: (Units=GPa)
#
#
# Indices 1 2 3 4 5 6 
#
# 1 95.0859 14.8312 23.4556 0.0000 6.8915 0.0000
# 2 14.8312 37.5499 12.7574 0.0000 -1.6258 0.0000
# 3 23.4556 12.7574 99.5165 0.0000 6.6121 0.0000
# 4 0.0000 0.0000 0.0000 19.4141 0.0000 -1.6321
# 5 6.8915 -1.6258 6.6121 0.0000 33.4066 0.0000
# 6 0.0000 0.0000 0.0000 -1.6321 0.0000 33.1541
#
#
#
# Elastic Compliance Matrix: (Units=1/GPa)
#
#
# Indices 1 2 3 4 5 6 
#
# 1 0.011833 -0.004048 -0.002123 0.000000 -0.002218 0.000000
# 2 -0.004048 0.029374 -0.003001 0.000000 0.002859 0.000000
# 3 -0.002123 -0.003001 0.011060 0.000000 -0.001897 0.000000
# 4 0.000000 0.000000 0.000000 0.051723 0.000000 0.002546
# 5 -0.002218 0.002859 -0.001897 0.000000 0.030906 0.000000
# 6 0.000000 0.000000 0.000000 0.002546 0.000000 0.030287
#
#
# Mechanical properties :
#
#
# Convention : Reuss Voigt Hill
#
# Bulk Modulus (GPa) = 29.47992 37.13788 33.30890
# Shear Modulus (GPa) = 25.66281 29.26884 27.46583
#
# Velocity S-wave (km/s) = 3.70394 3.95562 3.83185
# Velocity P-wave (km/s) = 5.83541 6.38093 6.11426
#
# Compressibility (1/GPa) = 0.03392139
#
# Stress axis : x y z
#
# Youngs Moduli (GPa) = 84.51226 34.04408 90.41873
#
# Poissons Ratio (x) = 0.13783 0.19192
# Poissons Ratio (y) = 0.34215 0.27137
# Poissons Ratio (z) = 0.17938 0.10218
#
# Static dielectric constant tensor:
#      x y z
#    x 4.458780 0.000000 -0.105210 
#    y 0.000000 3.029930 0.000000 
#    z -0.105210 0.000000 3.526500 
# 
# 
# High freq. dielectric constant tensor:
#      x y z
#    x 1.742130 0.000000 0.014650 
#    y 0.000000 1.649970 0.000000 
#    z 0.014650 0.000000 1.739320 
# 
# From -- ./inp_files/57871.got.cif
#   From: 2010.06.25/outbox.cif.g09.slc.cpg/sg15_29_cif.got.tgz:57871.got - 2010.06.28 07:06:18.
