data_PCOD8131480
_publ_section_title
;
Structure prediction by ZEFSAII (Michael W. Deem and Ramdas Pophale) SiO2 
 PCOD8131480
Probable space group: C 2/C
;
_chemical_formula_sum "Si O2"
_cell_formula_units_Z 56
_cell_length_a 17.159966
_cell_length_b 15.353579
_cell_length_c 25.300607
_cell_angle_alpha 90.000000
_cell_angle_beta 27.124836
_cell_angle_gamma 90.000000
_cell_volume 3039.176138
_symmetry_space_group_name_H-M "C 2/C"
_symmetry_group_IT_number 15
_symmetry_cell_setting 'monoclinic'
loop_
_space_group_symop_operation_xyz
x,y,z
-x,y,1/2-z
-x,-y,-z
x,-y,1/2+z
1/2+x,1/2+y,z
1/2-x,1/2+y,1/2-z
1/2-x,1/2-y,-z
1/2+x,1/2-y,1/2+z
loop_
_atom_site_type_symbol
_atom_site_label
_atom_site_fract_x
_atom_site_fract_y
_atom_site_fract_z
Si Si1 0.280570 0.094729 0.766673
Si Si2 0.533191 0.502028 0.078632
Si Si3 0.846207 0.840344 0.649947
Si Si4 0.677917 0.946199 0.670479
Si Si5 0.568000 0.169203 0.524921
Si Si6 0.252241 0.790206 0.685193
Si Si7 0.075451 0.120050 0.149848
O O1 0.438432 0.100481 0.629689
O O2 0.228370 0.185577 0.826679
O O3 0.326976 0.025332 0.784263
O O4 0.120447 0.067824 0.826760
O O5 0.471562 0.577926 0.077050
O O6 0.582162 0.537258 0.106917
O O7 0.698440 0.461241 0.953067
O O8 0.735037 0.855196 0.664165
O O9 0.710107 0.833342 0.780445
O O10 0.970251 0.759302 0.579625
O O11 0.500000 0.930821 0.750000
O O12 0.627628 0.155939 0.427965
O O13 0.740562 0.167206 0.455757
O O14 0.050787 0.805250 0.795176
O O15 0.000000 0.082535 0.250000
#
# Coordination Sequence:
#
# PCOD8131480 Si02
#       7
#     8   8   8   8   8   8   8
#     4  10  20  32  52  78 101 136 174 206 254 305
#     4  10  19  34  50  73 109 136 164 210 256 299
#     4   9  19  33  50  74 105 136 169 210 253 295
#     4  11  21  33  51  75 103 136 171 208 253 303
#     4  10  18  33  55  77 101 135 173 205 253 308
#     4   9  18  32  52  76 105 134 169 215 255 293
#     4   9  19  33  51  79 108 132 164 214 258 294
#
# _framework density 18.426045999999999
#
# number of rings (size 3 to 8) (size 9 to 14) (size 15 to 20)
#    0.000    2.286    0.000    4.286    0.000    8.000 
#    0.000   12.857    0.000   11.143    0.000    0.000 
#    0.000    0.000    0.000    0.000    0.000    0.000 
#
# Total GULP energy -346867.260223 kJ/mol
# GULP energy per Si atom -12388.116437 kJ/mol
# Density = 1.838411 g / cm^3
# Si number density = 18.426046 Si / 1000 Ang^3
#
#
#
# Elastic Constant Matrix: (Units=GPa)
#
#
# Indices 1 2 3 4 5 6 
#
# 1 129.0067 57.2223 62.6923 -0.0056 -3.0151 0.0062
# 2 57.2223 66.7610 48.4302 0.0084 -5.4823 0.0223
# 3 62.6923 48.4302 133.8061 -0.0197 -3.4660 0.0164
# 4 -0.0056 0.0084 -0.0197 24.4978 0.0084 2.1744
# 5 -3.0151 -5.4823 -3.4660 0.0084 25.3277 -0.0031
# 6 0.0062 0.0223 0.0164 2.1744 -0.0031 26.3298
#
#
#
# Elastic Compliance Matrix: (Units=1/GPa)
#
#
# Indices 1 2 3 4 5 6 
#
# 1 0.013278 -0.009385 -0.002846 0.000004 -0.000840 0.000006
# 2 -0.009385 0.027242 -0.005358 -0.000016 0.004046 -0.000016
# 3 -0.002846 -0.005358 0.010745 0.000010 -0.000028 -0.000002
# 4 0.000004 -0.000016 0.000010 0.041121 -0.000016 -0.003396
# 5 -0.000840 0.004046 -0.000028 -0.000016 0.040254 0.000003
# 6 0.000006 -0.000016 -0.000002 -0.003396 0.000003 0.038260
#
#
# Mechanical properties :
#
#
# Convention : Reuss Voigt Hill
#
# Bulk Modulus (GPa) = 62.16141 74.02925 68.09533
# Shear Modulus (GPa) = 23.64710 25.97965 24.81338
#
# Velocity S-wave (km/s) = 3.58628 3.75899 3.67365
# Velocity P-wave (km/s) = 7.13844 7.68789 7.41826
#
# Compressibility (1/GPa) = 0.01608715
#
# Stress axis : x y z
#
# Youngs Moduli (GPa) = 75.31367 36.70775 93.06230
#
# Poissons Ratio (x) = 0.34451 0.26485
# Poissons Ratio (y) = 0.70683 0.49863
# Poissons Ratio (z) = 0.21434 0.19668
#
# Static dielectric constant tensor:
#      x y z
#    x 3.720210 0.000000 0.343280 
#    y 0.000000 3.282740 0.000040 
#    z 0.343280 0.000040 3.800970 
# 
# 
# High freq. dielectric constant tensor:
#      x y z
#    x 1.709290 0.000000 0.014280 
#    y 0.000000 1.687970 0.000000 
#    z 0.014280 0.000000 1.728060 
# 
# From -- ./inp_files/274438.got.cif
#   From: 2010.06.25/outbox.cif.g09.slc.cpg/sg15_138_cif.got.tgz:274438.got - 2010.06.28 07:06:18.
