data_PCOD8131689
_publ_section_title
;
Structure prediction by ZEFSAII (Michael W. Deem and Ramdas Pophale) SiO2 
 PCOD8131689
Probable space group: C 2/C
;
_chemical_formula_sum "Si O2"
_cell_formula_units_Z 52
_cell_length_a 15.409105
_cell_length_b 8.205457
_cell_length_c 21.961914
_cell_angle_alpha 90.000000
_cell_angle_beta 65.571785
_cell_angle_gamma 90.000000
_cell_volume 2528.254811
_symmetry_space_group_name_H-M "C 2/C"
_symmetry_group_IT_number 15
_symmetry_cell_setting 'monoclinic'
loop_
_space_group_symop_operation_xyz
x,y,z
-x,y,1/2-z
-x,-y,-z
x,-y,1/2+z
1/2+x,1/2+y,z
1/2-x,1/2+y,1/2-z
1/2-x,1/2-y,-z
1/2+x,1/2-y,1/2+z
loop_
_atom_site_type_symbol
_atom_site_label
_atom_site_fract_x
_atom_site_fract_y
_atom_site_fract_z
Si Si1 0.406590 0.166482 0.038174
Si Si2 0.892570 0.358044 0.860919
Si Si3 0.481320 0.076866 0.604724
Si Si4 0.445296 0.432184 0.647865
Si Si5 0.797579 0.033377 0.597099
Si Si6 0.500000 0.385883 0.250000
Si Si7 0.085291 0.859541 0.037050
O O1 0.311466 0.277325 0.072293
O O2 0.499584 0.272063 0.026992
O O3 0.401194 0.011710 0.085660
O O4 0.422842 0.107490 0.964054
O O5 0.988160 0.460121 0.848612
O O6 0.812315 0.485443 0.862364
O O7 0.917195 0.228665 0.801387
O O8 0.862219 0.258914 0.930396
O O9 0.436751 0.237357 0.647617
O O10 0.351042 0.510070 0.645595
O O11 0.450335 0.497554 0.715017
O O12 0.540800 0.484048 0.584087
O O13 0.838717 0.913412 0.534277
#
# Coordination Sequence:
#
# PCOD8131689 Si02
#       7
#     8   8   8   8   8   4   8
#     4   9  17  30  56  89 128 140 181 223 307 370
#     4  10  23  35  57  82 122 150 191 245 294 342
#     4  10  18  34  55  88 114 159 174 234 298 358
#     4  10  19  37  63  78 111 155 203 230 286 358
#     4  11  18  35  59  92 114 148 185 246 297 351
#     4  10  24  46  54  74 108 170 212 242 280 350
#     4   9  16  34  57  88 119 149 178 231 301 369
#
# _framework density 20.567547999999999
#
# number of rings (size 3 to 8) (size 9 to 14) (size 15 to 20)
#    0.000    2.154    3.077    2.308    0.000    1.231 
#    0.000    4.615    0.000    0.000    0.000    0.000 
#    0.000    0.000    0.000    0.000    0.000    0.000 
#
# Total GULP energy -322350.672179 kJ/mol
# GULP energy per Si atom -12398.102776 kJ/mol
# Density = 2.052074 g / cm^3
# Si number density = 20.567548 Si / 1000 Ang^3
#
#
#
# Elastic Constant Matrix: (Units=GPa)
#
#
# Indices 1 2 3 4 5 6 
#
# 1 55.1432 14.9947 19.9270 0.0000 8.3171 0.0000
# 2 14.9947 119.4296 28.3239 0.0000 4.6476 0.0000
# 3 19.9270 28.3239 78.9167 0.0000 18.8248 0.0000
# 4 0.0000 0.0000 0.0000 35.3524 0.0000 1.0350
# 5 8.3171 4.6476 18.8248 0.0000 22.4788 0.0000
# 6 0.0000 0.0000 0.0000 1.0350 0.0000 33.8085
#
#
#
# Elastic Compliance Matrix: (Units=1/GPa)
#
#
# Indices 1 2 3 4 5 6 
#
# 1 0.020500 -0.001553 -0.003607 0.000000 -0.004243 0.000000
# 2 -0.001553 0.009291 -0.003275 0.000000 0.001397 0.000000
# 3 -0.003607 -0.003275 0.017842 0.000000 -0.012930 0.000000
# 4 0.000000 0.000000 0.000000 0.028312 0.000000 -0.000867
# 5 -0.004243 0.001397 -0.012930 0.000000 0.056596 0.000000
# 6 0.000000 0.000000 0.000000 -0.000867 0.000000 0.029605
#
#
# Mechanical properties :
#
#
# Convention : Reuss Voigt Hill
#
# Bulk Modulus (GPa) = 32.50744 42.22006 37.36375
# Shear Modulus (GPa) = 26.41709 31.01088 28.71398
#
# Velocity S-wave (km/s) = 3.58775 3.88720 3.74047
# Velocity P-wave (km/s) = 5.74475 6.38116 6.07130
#
# Compressibility (1/GPa) = 0.03076219
#
# Stress axis : x y z
#
# Youngs Moduli (GPa) = 48.77959 107.63557 56.04660
#
# Poissons Ratio (x) = 0.16720 0.20214
# Poissons Ratio (y) = 0.07577 0.18358
# Poissons Ratio (z) = 0.17593 0.35256
#
# Static dielectric constant tensor:
#      x y z
#    x 3.335740 0.000000 0.315490 
#    y 0.000000 4.022240 0.000000 
#    z 0.315490 0.000000 3.546130 
# 
# 
# High freq. dielectric constant tensor:
#      x y z
#    x 1.763880 0.000000 0.030910 
#    y 0.000000 1.822760 0.000000 
#    z 0.030910 0.000000 1.780250 
# 
# From -- ./inp_files/246907.got.cif
#   From: 2010.06.25/outbox.cif.g09.slc.cpg/sg15_124_cif.got.tgz:246907.got - 2010.06.28 07:06:18.
