data_PCOD8131197
_publ_section_title
;
Structure prediction by ZEFSAII (Michael W. Deem and Ramdas Pophale) SiO2 
 PCOD8131197
Probable space group: C 2/C
;
_chemical_formula_sum "Si O2"
_cell_formula_units_Z 60
_cell_length_a 6.454788
_cell_length_b 24.747416
_cell_length_c 28.594542
_cell_angle_alpha 90.000000
_cell_angle_beta 47.086643
_cell_angle_gamma 90.000000
_cell_volume 3345.291332
_symmetry_space_group_name_H-M "C 2/C"
_symmetry_group_IT_number 15
_symmetry_cell_setting 'monoclinic'
loop_
_space_group_symop_operation_xyz
x,y,z
-x,y,1/2-z
-x,-y,-z
x,-y,1/2+z
1/2+x,1/2+y,z
1/2-x,1/2+y,1/2-z
1/2-x,1/2-y,-z
1/2+x,1/2-y,1/2+z
loop_
_atom_site_type_symbol
_atom_site_label
_atom_site_fract_x
_atom_site_fract_y
_atom_site_fract_z
Si Si1 0.543187 0.387738 0.480450
Si Si2 0.749743 0.807736 0.977950
Si Si3 0.311853 0.247507 0.187719
Si Si4 0.385687 0.336236 0.856869
Si Si5 0.619711 0.344310 0.089027
Si Si6 0.565276 0.058825 0.934825
Si Si7 0.051551 0.562151 0.439833
Si Si8 0.000000 0.306095 0.750000
O O1 0.546870 0.346655 0.523394
O O2 0.558497 0.353463 0.430423
O O3 0.821783 0.424670 0.435990
O O4 0.269358 0.425880 0.526470
O O5 0.867071 0.802913 0.907670
O O6 0.750000 0.750000 0.000000
O O7 0.431595 0.828388 0.024625
O O8 0.287916 0.197078 0.155628
O O9 0.471185 0.298721 0.141948
O O10 0.495530 0.231037 0.204483
O O11 0.000000 0.267125 0.250000
O O12 0.259449 0.395946 0.882420
O O13 0.716362 0.342519 0.792534
O O14 0.661462 0.401144 0.111175
O O15 0.651520 0.997639 0.909171
O O16 0.424885 0.065046 0.007887
#
# Coordination Sequence:
#
# PCOD8131197 Si02
#       8
#     8   8   8   8   8   8   8   4
#     4  10  18  32  50  84 111 146 174 215 277 327
#     4  11  21  30  51  84 115 142 171 220 278 327
#     4  10  23  39  56  79 107 145 184 228 277 333
#     4  11  21  36  54  83 110 146 182 226 274 328
#     4  10  20  35  54  81 113 137 181 226 268 336
#     4   9  19  34  51  84 113 147 176 218 273 320
#     4  10  19  33  54  79 117 143 182 221 261 329
#     4  10  24  40  56  78 106 148 186 222 280 330
#
# _framework density 17.935656999999999
#
# number of rings (size 3 to 8) (size 9 to 14) (size 15 to 20)
#    0.000    1.867    4.000    2.000    3.733    4.267 
#    0.000    0.000    1.467    0.000    5.200    0.000 
#    0.000    0.000    0.000    0.000    0.000    0.000 
#
# Total GULP energy -371923.910207 kJ/mol
# GULP energy per Si atom -12397.463674 kJ/mol
# Density = 1.789483 g / cm^3
# Si number density = 17.935657 Si / 1000 Ang^3
#
#
#
# Elastic Constant Matrix: (Units=GPa)
#
#
# Indices 1 2 3 4 5 6 
#
# 1 120.1607 52.0789 34.5025 0.0000 11.9721 0.0000
# 2 52.0789 143.1600 48.9309 0.0000 4.7569 0.0000
# 3 34.5025 48.9309 74.3191 0.0000 3.6851 0.0000
# 4 0.0000 0.0000 0.0000 18.0390 0.0000 -4.1056
# 5 11.9721 4.7569 3.6851 0.0000 26.0230 0.0000
# 6 0.0000 0.0000 0.0000 -4.1056 0.0000 20.6609
#
#
#
# Elastic Compliance Matrix: (Units=1/GPa)
#
#
# Indices 1 2 3 4 5 6 
#
# 1 0.010780 -0.002768 -0.002982 0.000000 -0.004031 0.000000
# 2 -0.002768 0.009742 -0.005139 0.000000 0.000221 0.000000
# 3 -0.002982 -0.005139 0.018237 0.000000 -0.000271 0.000000
# 4 0.000000 0.000000 0.000000 0.058061 0.000000 0.011538
# 5 -0.004031 0.000221 -0.000271 0.000000 0.040280 0.000000
# 6 0.000000 0.000000 0.000000 0.011538 0.000000 0.050693
#
#
# Mechanical properties :
#
#
# Convention : Reuss Voigt Hill
#
# Bulk Modulus (GPa) = 58.89670 67.62939 63.26304
# Shear Modulus (GPa) = 23.23067 26.41975 24.82521
#
# Velocity S-wave (km/s) = 3.60282 3.84217 3.72442
# Velocity P-wave (km/s) = 7.08634 7.58100 7.33784
#
# Compressibility (1/GPa) = 0.01697888
#
# Stress axis : x y z
#
# Youngs Moduli (GPa) = 92.76535 102.65282 54.83321
#
# Poissons Ratio (x) = 0.28418 0.16351
# Poissons Ratio (y) = 0.25681 0.28181
# Poissons Ratio (z) = 0.27663 0.52758
#
# Static dielectric constant tensor:
#      x y z
#    x 3.529260 0.000000 0.052820 
#    y 0.000000 2.967690 0.000000 
#    z 0.052820 0.000000 3.080330 
# 
# 
# High freq. dielectric constant tensor:
#      x y z
#    x 1.714780 0.000000 0.002170 
#    y 0.000000 1.697030 0.000000 
#    z 0.002170 0.000000 1.657500 
# 
# From -- ./inp_files/228468.got.cif
#   From: 2010.06.25/outbox.cif.g09.slc.cpg/sg15_115_cif.got.tgz:228468.got - 2010.06.28 07:06:18.
