data_PCOD8131621
_publ_section_title
;
Structure prediction by ZEFSAII (Michael W. Deem and Ramdas Pophale) SiO2 
 PCOD8131621
Probable space group: C 2/C
;
_chemical_formula_sum "Si O2"
_cell_formula_units_Z 52
_cell_length_a 17.864036
_cell_length_b 14.300284
_cell_length_c 14.620568
_cell_angle_alpha 90.000000
_cell_angle_beta 137.849083
_cell_angle_gamma 90.000000
_cell_volume 2506.492987
_symmetry_space_group_name_H-M "C 2/C"
_symmetry_group_IT_number 15
_symmetry_cell_setting 'monoclinic'
loop_
_space_group_symop_operation_xyz
x,y,z
-x,y,1/2-z
-x,-y,-z
x,-y,1/2+z
1/2+x,1/2+y,z
1/2-x,1/2+y,1/2-z
1/2-x,1/2-y,-z
1/2+x,1/2-y,1/2+z
loop_
_atom_site_type_symbol
_atom_site_label
_atom_site_fract_x
_atom_site_fract_y
_atom_site_fract_z
Si Si1 0.709933 0.082054 0.655710
Si Si2 0.753954 0.991367 0.510013
Si Si3 0.543964 0.410727 0.094868
Si Si4 0.390883 0.043133 0.289334
Si Si5 0.005556 0.705198 0.486522
Si Si6 0.942283 0.380802 0.110792
Si Si7 0.000000 0.018289 0.750000
O O1 0.732619 0.067891 0.569288
O O2 0.826161 0.101182 0.811929
O O3 0.633025 0.171549 0.602574
O O4 0.651536 0.991745 0.649618
O O5 0.709744 0.037228 0.375143
O O6 0.885204 0.961057 0.624260
O O7 0.685728 0.899016 0.476110
O O8 0.482906 0.315550 0.013450
O O9 0.523982 0.418527 0.184418
O O10 0.500000 0.500000 0.000000
O O11 0.435380 0.149487 0.344147
O O12 0.495306 0.980045 0.352070
O O13 0.946733 0.688611 0.530334
O O14 0.000000 0.331146 0.250000
#
# Coordination Sequence:
#
# PCOD8131621 Si02
#       7
#     8   8   8   8   8   8   4
#     4  10  20  38  61  90 126 159 208 263 315 377
#     4  10  18  34  62  91 127 163 203 252 320 370
#     4  11  26  44  60  85 133 176 211 259 318 380
#     4  10  18  33  65  93 121 154 206 266 322 363
#     4  11  21  39  64  98 123 161 221 260 319 371
#     4   9  17  34  64  99 122 152 204 273 318 363
#     4  10  24  42  58  84 128 182 210 238 318 400
#
# _framework density 20.746117999999999
#
# number of rings (size 3 to 8) (size 9 to 14) (size 15 to 20)
#    0.000    1.846    3.077    1.846    0.000    3.692 
#    1.385    3.077    0.000    3.692    0.000    0.000 
#    0.000    0.000    0.000    0.000    0.000    0.000 
#
# Total GULP energy -322259.791935 kJ/mol
# GULP energy per Si atom -12394.607382 kJ/mol
# Density = 2.069890 g / cm^3
# Si number density = 20.746118 Si / 1000 Ang^3
#
#
#
# Elastic Constant Matrix: (Units=GPa)
#
#
# Indices 1 2 3 4 5 6 
#
# 1 101.6790 30.4875 60.1299 0.0000 12.3453 0.0000
# 2 30.4875 107.8257 49.9178 0.0000 0.3063 0.0000
# 3 60.1299 49.9178 147.7810 0.0000 15.9409 0.0000
# 4 0.0000 0.0000 0.0000 21.4662 0.0000 -1.1701
# 5 12.3453 0.3063 15.9409 0.0000 52.4778 0.0000
# 6 0.0000 0.0000 0.0000 -1.1701 0.0000 14.6202
#
#
#
# Elastic Compliance Matrix: (Units=1/GPa)
#
#
# Indices 1 2 3 4 5 6 
#
# 1 0.013288 -0.001581 -0.004690 0.000000 -0.001692 0.000000
# 2 -0.001581 0.011243 -0.003295 0.000000 0.001307 0.000000
# 3 -0.004690 -0.003295 0.009995 0.000000 -0.001913 0.000000
# 4 0.000000 0.000000 0.000000 0.046789 0.000000 0.003745
# 5 -0.001692 0.001307 -0.001913 0.000000 0.020027 0.000000
# 6 0.000000 0.000000 0.000000 0.003745 0.000000 0.068698
#
#
# Mechanical properties :
#
#
# Convention : Reuss Voigt Hill
#
# Bulk Modulus (GPa) = 64.96647 70.92844 67.94745
# Shear Modulus (GPa) = 25.73285 32.16289 28.94787
#
# Velocity S-wave (km/s) = 3.52571 3.94167 3.73948
# Velocity P-wave (km/s) = 6.92511 7.41476 7.17411
#
# Compressibility (1/GPa) = 0.01539256
#
# Stress axis : x y z
#
# Youngs Moduli (GPa) = 75.25606 88.94277 100.05349
#
# Poissons Ratio (x) = 0.14062 0.46926
# Poissons Ratio (y) = 0.11898 0.32972
# Poissons Ratio (z) = 0.35296 0.29311
#
# Static dielectric constant tensor:
#      x y z
#    x 4.036040 0.000000 0.062160 
#    y 0.000000 3.132640 0.000000 
#    z 0.062160 0.000000 4.109870 
# 
# 
# High freq. dielectric constant tensor:
#      x y z
#    x 1.829520 0.000000 -0.000820 
#    y 0.000000 1.753130 0.000000 
#    z -0.000820 0.000000 1.829010 
# 
# From -- ./inp_files/162618.got.cif
#   From: 2010.06.25/outbox.cif.g09.slc.cpg/sg15_82_cif.got.tgz:162618.got - 2010.06.28 07:06:18.
