data_PCOD8131347
_publ_section_title
;
Structure prediction by ZEFSAII (Michael W. Deem and Ramdas Pophale) SiO2 
 PCOD8131347
Probable space group: C 2/C
;
_chemical_formula_sum "Si O2"
_cell_formula_units_Z 44
_cell_length_a 30.458735
_cell_length_b 10.382975
_cell_length_c 16.072910
_cell_angle_alpha 90.000000
_cell_angle_beta 152.298169
_cell_angle_gamma 90.000000
_cell_volume 2362.979868
_symmetry_space_group_name_H-M "C 2/C"
_symmetry_group_IT_number 15
_symmetry_cell_setting 'monoclinic'
loop_
_space_group_symop_operation_xyz
x,y,z
-x,y,1/2-z
-x,-y,-z
x,-y,1/2+z
1/2+x,1/2+y,z
1/2-x,1/2+y,1/2-z
1/2-x,1/2-y,-z
1/2+x,1/2-y,1/2+z
loop_
_atom_site_type_symbol
_atom_site_label
_atom_site_fract_x
_atom_site_fract_y
_atom_site_fract_z
Si Si1 0.502865 0.700157 0.547495
Si Si2 0.630479 0.669401 0.456173
Si Si3 0.060611 0.467256 0.682380
Si Si4 0.478578 0.439191 0.585454
Si Si5 0.310909 0.170841 0.666516
Si Si6 0.500000 0.902526 0.250000
O O1 0.570114 0.811821 0.698624
O O2 0.491302 0.591680 0.597793
O O3 0.551624 0.632921 0.549829
O O4 0.401387 0.754624 0.351428
O O5 0.606353 0.577178 0.492371
O O6 0.575159 0.624770 0.280442
O O7 0.742183 0.651519 0.630385
O O8 0.594378 0.814433 0.416820
O O9 0.160474 0.538762 0.833849
O O10 0.010364 0.511504 0.684004
O O11 0.000000 0.500000 0.500000
O O12 0.250000 0.250000 0.500000
#
# Coordination Sequence:
#
# PCOD8131347 Si02
#       6
#     8   8   8   8   8   4
#     4  10  20  37  55  78 112 144 182 228 282 325
#     4  10  18  34  57  78 101 147 190 213 268 351
#     4  10  20  35  56  84 113 146 182 234 278 331
#     4   9  19  36  58  73 106 156 181 215 281 345
#     4  11  18  35  57  81 107 141 183 230 276 325
#     4  10  18  32  58  82 108 152 190 218 284 338
#
# _framework density 18.620556000000001
#
# number of rings (size 3 to 8) (size 9 to 14) (size 15 to 20)
#    0.000    2.182    3.636    3.273    0.000    1.455 
#    9.818    0.909    0.000    0.000    0.000    0.000 
#    0.000    0.000    0.000    0.000    0.000    0.000 
#
# Total GULP energy -272629.877315 kJ/mol
# GULP energy per Si atom -12392.267151 kJ/mol
# Density = 1.857818 g / cm^3
# Si number density = 18.620556 Si / 1000 Ang^3
#
#
#
# Elastic Constant Matrix: (Units=GPa)
#
#
# Indices 1 2 3 4 5 6 
#
# 1 137.1085 55.5769 24.8632 0.0000 0.8659 0.0000
# 2 55.5769 152.2484 25.2103 0.0000 -3.9929 0.0000
# 3 24.8632 25.2103 41.2803 0.0000 6.9494 0.0000
# 4 0.0000 0.0000 0.0000 25.6780 0.0000 -7.6665
# 5 0.8659 -3.9929 6.9494 0.0000 34.7525 0.0000
# 6 0.0000 0.0000 0.0000 -7.6665 0.0000 32.6857
#
#
#
# Elastic Compliance Matrix: (Units=1/GPa)
#
#
# Indices 1 2 3 4 5 6 
#
# 1 0.009075 -0.002664 -0.003880 0.000000 0.000244 0.000000
# 2 -0.002664 0.008199 -0.003697 0.000000 0.001748 0.000000
# 3 -0.003880 -0.003697 0.029880 0.000000 -0.006303 0.000000
# 4 0.000000 0.000000 0.000000 0.041876 0.000000 0.009822
# 5 0.000244 0.001748 -0.006303 0.000000 0.030230 0.000000
# 6 0.000000 0.000000 0.000000 0.009822 0.000000 0.032898
#
#
# Mechanical properties :
#
#
# Convention : Reuss Voigt Hill
#
# Bulk Modulus (GPa) = 37.49157 60.21532 48.85345
# Shear Modulus (GPa) = 27.54339 33.62238 30.58288
#
# Velocity S-wave (km/s) = 3.85020 4.25391 4.05708
# Velocity P-wave (km/s) = 6.32009 7.51904 6.94549
#
# Compressibility (1/GPa) = 0.02667266
#
# Stress axis : x y z
#
# Youngs Moduli (GPa) = 110.18744 121.97157 33.46677
#
# Poissons Ratio (x) = 0.32493 0.12986
# Poissons Ratio (y) = 0.29354 0.12372
# Poissons Ratio (z) = 0.42755 0.45089
#
# Static dielectric constant tensor:
#      x y z
#    x 5.968840 0.000000 1.550580 
#    y 0.000000 3.902290 0.000000 
#    z 1.550580 0.000000 4.166980 
# 
# 
# High freq. dielectric constant tensor:
#      x y z
#    x 1.739440 0.000000 -0.007020 
#    y 0.000000 1.725850 0.000000 
#    z -0.007020 0.000000 1.681270 
# 
# From -- ./inp_files/181610.got.cif
#   From: 2010.06.25/outbox.cif.g09.slc.cpg/sg15_91_cif.got.tgz:181610.got - 2010.06.28 07:06:18.
