data_PCOD8131245
_publ_section_title
;
Structure prediction by ZEFSAII (Michael W. Deem and Ramdas Pophale) SiO2 
 PCOD8131245
Probable space group: C 2/C
;
_chemical_formula_sum "Si O2"
_cell_formula_units_Z 64
_cell_length_a 18.577673
_cell_length_b 11.949095
_cell_length_c 26.092099
_cell_angle_alpha 90.000000
_cell_angle_beta 149.264967
_cell_angle_gamma 90.000000
_cell_volume 2960.155465
_symmetry_space_group_name_H-M "C 2/C"
_symmetry_group_IT_number 15
_symmetry_cell_setting 'monoclinic'
loop_
_space_group_symop_operation_xyz
x,y,z
-x,y,1/2-z
-x,-y,-z
x,-y,1/2+z
1/2+x,1/2+y,z
1/2-x,1/2+y,1/2-z
1/2-x,1/2-y,-z
1/2+x,1/2-y,1/2+z
loop_
_atom_site_type_symbol
_atom_site_label
_atom_site_fract_x
_atom_site_fract_y
_atom_site_fract_z
Si Si1 0.131886 0.989574 0.153014
Si Si2 0.162928 0.069758 0.060078
Si Si3 0.785233 0.711110 0.863579
Si Si4 0.264143 0.344976 0.440016
Si Si5 0.714989 0.227328 0.750366
Si Si6 0.398407 0.820874 0.946215
Si Si7 0.164299 0.020824 0.287509
Si Si8 0.450952 0.310832 0.647969
O O1 0.262673 0.905970 0.234187
O O2 0.152823 0.059004 0.219183
O O3 0.127699 0.061381 0.098869
O O4 0.978487 0.928709 0.060810
O O5 0.233737 0.194906 0.103028
O O6 0.262882 0.968929 0.100838
O O7 0.774236 0.770073 0.801369
O O8 0.666396 0.613247 0.796831
O O9 0.937621 0.649727 0.957756
O O10 0.376100 0.279234 0.473265
O O11 0.328437 0.358439 0.536047
O O12 0.119332 0.273855 0.353499
O O13 0.847008 0.281082 0.859670
O O14 0.565807 0.240532 0.686901
O O15 0.302800 0.929703 0.900789
O O16 0.024265 0.083833 0.222931
#
# Coordination Sequence:
#
# PCOD8131245 Si02
#       8
#     8   8   8   8   8   8   8   8
#     4  10  18  32  53  83 121 159 193 244 317 355
#     4  11  18  33  54  83 120 159 201 247 300 369
#     4  11  21  34  55  87 127 155 204 248 315 369
#     4  11  21  35  59  87 119 163 205 259 294 362
#     4  10  19  32  54  83 121 158 199 255 304 356
#     4  11  19  35  54  86 119 160 204 252 309 357
#     4  10  22  34  54  84 124 163 193 258 303 372
#     4  10  21  37  55  88 122 157 214 251 301 353
#
# _framework density 21.620486
#
# number of rings (size 3 to 8) (size 9 to 14) (size 15 to 20)
#    0.000    1.500    5.000    2.625    0.000    2.000 
#    0.000    0.000    0.000    0.000    6.500    1.750 
#    0.000    0.000    0.000    0.000    0.000    0.000 
#
# Total GULP energy -396438.055505 kJ/mol
# GULP energy per Si atom -12388.689235 kJ/mol
# Density = 2.157128 g / cm^3
# Si number density = 21.620486 Si / 1000 Ang^3
#
#
#
# Elastic Constant Matrix: (Units=GPa)
#
#
# Indices 1 2 3 4 5 6 
#
# 1 51.0604 55.0297 23.8702 0.0000 9.0916 0.0001
# 2 55.0297 113.5209 27.1549 -0.0014 11.6540 0.0003
# 3 23.8702 27.1549 78.9437 -0.0021 0.1237 0.0008
# 4 0.0000 -0.0014 -0.0021 39.1786 0.0001 -1.2885
# 5 9.0916 11.6540 0.1237 0.0001 27.1521 0.0003
# 6 0.0001 0.0003 0.0008 -1.2885 0.0003 30.7639
#
#
#
# Elastic Compliance Matrix: (Units=1/GPa)
#
#
# Indices 1 2 3 4 5 6 
#
# 1 0.044978 -0.019470 -0.006892 -0.000001 -0.006672 0.000000
# 2 -0.019470 0.018507 -0.000477 0.000001 -0.001422 0.000000
# 3 -0.006892 -0.000477 0.014911 0.000001 0.002445 0.000000
# 4 -0.000001 0.000001 0.000001 0.025559 0.000000 0.001070
# 5 -0.006672 -0.001422 0.002445 0.000000 0.039663 0.000000
# 6 0.000000 0.000000 0.000000 0.001070 0.000000 0.032550
#
#
# Mechanical properties :
#
#
# Convention : Reuss Voigt Hill
#
# Bulk Modulus (GPa) = 40.45488 50.62607 45.54048
# Shear Modulus (GPa) = 21.00080 28.58360 24.79220
#
# Velocity S-wave (km/s) = 3.12001 3.63996 3.38997
# Velocity P-wave (km/s) = 5.63305 6.41345 6.03588
#
# Compressibility (1/GPa) = 0.02471889
#
# Stress axis : x y z
#
# Youngs Moduli (GPa) = 22.23312 54.03385 67.06242
#
# Poissons Ratio (x) = 1.05201 0.46222
# Poissons Ratio (y) = 0.43287 0.03197
# Poissons Ratio (z) = 0.15324 0.02576
#
# Static dielectric constant tensor:
#      x y z
#    x 3.550020 0.000000 -0.166480 
#    y 0.000000 4.084220 0.000000 
#    z -0.166480 0.000000 4.170880 
# 
# 
# High freq. dielectric constant tensor:
#      x y z
#    x 1.797460 0.000000 -0.019790 
#    y 0.000000 1.852230 0.000000 
#    z -0.019790 0.000000 1.859300 
# 
# From -- ./inp_files/300869.got.cif
#   From: 2010.06.25/outbox.cif.g09.slc.cpg/sg15_151_cif.got.tgz:300869.got - 2010.06.28 07:06:18.
