data_PCOD8131471
_publ_section_title
;
Structure prediction by ZEFSAII (Michael W. Deem and Ramdas Pophale) SiO2 
 PCOD8131471
Probable space group: C 2/C
;
_chemical_formula_sum "Si O2"
_cell_formula_units_Z 44
_cell_length_a 24.003549
_cell_length_b 12.378712
_cell_length_c 11.585037
_cell_angle_alpha 90.000000
_cell_angle_beta 134.295010
_cell_angle_gamma 90.000000
_cell_volume 2463.836345
_symmetry_space_group_name_H-M "C 2/C"
_symmetry_group_IT_number 15
_symmetry_cell_setting 'monoclinic'
loop_
_space_group_symop_operation_xyz
x,y,z
-x,y,1/2-z
-x,-y,-z
x,-y,1/2+z
1/2+x,1/2+y,z
1/2-x,1/2+y,1/2-z
1/2-x,1/2-y,-z
1/2+x,1/2-y,1/2+z
loop_
_atom_site_type_symbol
_atom_site_label
_atom_site_fract_x
_atom_site_fract_y
_atom_site_fract_z
Si Si1 0.296944 0.374336 0.174892
Si Si2 0.731653 0.396985 0.883988
Si Si3 0.500000 0.937108 0.750000
Si Si4 0.222674 0.333259 0.296738
Si Si5 0.637138 0.167205 0.314287
Si Si6 0.869579 0.470611 0.922639
O O1 0.325693 0.499447 0.213850
O O2 0.289842 0.334622 0.296631
O O3 0.356924 0.296912 0.194773
O O4 0.212724 0.374328 0.990843
O O5 0.693551 0.290704 0.770174
O O6 0.813485 0.425735 0.941556
O O7 0.741986 0.376883 0.033946
O O8 0.439279 0.858282 0.724099
O O9 0.456457 0.017136 0.598229
O O10 0.153049 0.409841 0.155046
O O11 0.631469 0.112600 0.182333
#
# Coordination Sequence:
#
# PCOD8131471 Si02
#       6
#     8   8   4   8   8   8
#     4  10  20  34  54  82 110 138 175 232 264 319
#     4  10  19  32  56  84 108 139 173 225 277 318
#     4  12  22  34  54  78 114 154 176 218 280 322
#     4  10  18  33  54  81 112 135 179 220 270 324
#     4  11  21  34  54  81 112 140 182 223 274 320
#     4  11  20  36  51  85 112 142 177 227 269 332
#
# _framework density 17.858329999999999
#
# number of rings (size 3 to 8) (size 9 to 14) (size 15 to 20)
#    0.000    1.455    7.273    0.545    0.000    0.000 
#    0.000    0.000    0.000    1.091    0.000    1.273 
#    0.000    0.000    0.000    0.000    0.000    0.000 
#
# Total GULP energy -272691.191310 kJ/mol
# GULP energy per Si atom -12395.054150 kJ/mol
# Density = 1.781768 g / cm^3
# Si number density = 17.858330 Si / 1000 Ang^3
#
#
#
# Elastic Constant Matrix: (Units=GPa)
#
#
# Indices 1 2 3 4 5 6 
#
# 1 76.9620 28.6044 32.5088 0.0000 -13.4272 0.0000
# 2 28.6044 134.6811 32.5123 0.0000 -11.2790 0.0000
# 3 32.5088 32.5123 74.7274 0.0000 -13.7050 0.0000
# 4 0.0000 0.0000 0.0000 18.1115 0.0000 -6.2208
# 5 -13.4272 -11.2790 -13.7050 0.0000 31.5055 0.0000
# 6 0.0000 0.0000 0.0000 -6.2208 0.0000 28.2416
#
#
#
# Elastic Compliance Matrix: (Units=1/GPa)
#
#
# Indices 1 2 3 4 5 6 
#
# 1 0.016817 -0.001841 -0.005783 0.000000 0.003992 0.000000
# 2 -0.001841 0.008566 -0.002725 0.000000 0.001097 0.000000
# 3 -0.005783 -0.002725 0.017878 0.000000 0.004337 0.000000
# 4 0.000000 0.000000 0.000000 0.059733 0.000000 0.013157
# 5 0.003992 0.001097 0.004337 0.000000 0.035721 0.000000
# 6 0.000000 0.000000 0.000000 0.013157 0.000000 0.038307
#
#
# Mechanical properties :
#
#
# Convention : Reuss Voigt Hill
#
# Bulk Modulus (GPa) = 44.31839 52.62460 48.47150
# Shear Modulus (GPa) = 24.36171 28.42139 26.39155
#
# Velocity S-wave (km/s) = 3.69747 3.99368 3.84842
# Velocity P-wave (km/s) = 6.56497 7.12725 6.85188
#
# Compressibility (1/GPa) = 0.02256399
#
# Stress axis : x y z
#
# Youngs Moduli (GPa) = 59.46401 116.74644 55.93345
#
# Poissons Ratio (x) = 0.21498 0.32344
# Poissons Ratio (y) = 0.10950 0.15239
# Poissons Ratio (z) = 0.34385 0.31808
#
# Static dielectric constant tensor:
#      x y z
#    x 3.313930 0.000000 -0.373540 
#    y 0.000000 3.696970 0.000000 
#    z -0.373540 0.000000 3.190560 
# 
# 
# High freq. dielectric constant tensor:
#      x y z
#    x 1.682270 0.000000 -0.046570 
#    y 0.000000 1.707420 0.000000 
#    z -0.046570 0.000000 1.664340 
# 
# From -- ./inp_files/96582.got.cif
#   From: 2010.06.25/outbox.cif.g09.slc.cpg/sg15_49_cif.got.tgz:96582.got - 2010.06.28 07:06:18.
