data_PCOD8131424
_publ_section_title
;
Structure prediction by ZEFSAII (Michael W. Deem and Ramdas Pophale) SiO2 
 PCOD8131424
Probable space group: C 2/C
;
_chemical_formula_sum "Si O2"
_cell_formula_units_Z 52
_cell_length_a 18.454761
_cell_length_b 12.037208
_cell_length_c 20.573949
_cell_angle_alpha 90.000000
_cell_angle_beta 137.201060
_cell_angle_gamma 90.000000
_cell_volume 3105.239609
_symmetry_space_group_name_H-M "C 2/C"
_symmetry_group_IT_number 15
_symmetry_cell_setting 'monoclinic'
loop_
_space_group_symop_operation_xyz
x,y,z
-x,y,1/2-z
-x,-y,-z
x,-y,1/2+z
1/2+x,1/2+y,z
1/2-x,1/2+y,1/2-z
1/2-x,1/2-y,-z
1/2+x,1/2-y,1/2+z
loop_
_atom_site_type_symbol
_atom_site_label
_atom_site_fract_x
_atom_site_fract_y
_atom_site_fract_z
Si Si1 0.591596 0.160613 0.352743
Si Si2 0.927454 0.268729 0.517483
Si Si3 0.884170 0.461122 0.404170
Si Si4 0.823069 0.309089 0.831028
Si Si5 0.238075 0.121883 0.139105
Si Si6 0.178118 0.386601 0.276162
Si Si7 0.500000 0.946991 0.250000
O O1 0.500000 0.221716 0.250000
O O2 0.600681 0.226608 0.425411
O O3 0.700790 0.163053 0.384909
O O4 0.554683 0.030753 0.339234
O O5 0.855478 0.366906 0.437523
O O6 0.884757 0.154566 0.456517
O O7 0.052844 0.275148 0.585930
O O8 0.807418 0.569767 0.354581
O O9 0.881321 0.406798 0.330882
O O10 0.000000 0.500000 0.500000
O O11 0.785020 0.312742 0.731774
O O12 0.752465 0.221712 0.824479
O O13 0.247132 0.990444 0.155758
O O14 0.086559 0.370087 0.270614
#
# Coordination Sequence:
#
# PCOD8131424 Si02
#       7
#     8   8   8   8   8   8   4
#     4   9  16  31  51  77 103 124 172 218 247 299
#     4  11  18  31  53  77 106 136 169 209 260 309
#     4   9  18  30  51  76 100 133 177 209 243 302
#     4  10  19  32  49  78 107 133 173 215 249 303
#     4  10  19  31  50  80 101 139 166 207 266 298
#     4  10  18  33  51  75 105 132 174 216 256 299
#     4   8  16  30  52  70  94 138 168 212 248 290
#
# _framework density 16.745888999999998
#
# number of rings (size 3 to 8) (size 9 to 14) (size 15 to 20)
#    0.462    1.846    3.077    2.308    0.000    0.615 
#    0.000    0.000    0.000   14.769   10.000    0.000 
#    0.000    0.000    0.000    0.000    0.000    0.000 
#
# Total GULP energy -322104.097757 kJ/mol
# GULP energy per Si atom -12388.619144 kJ/mol
# Density = 1.670778 g / cm^3
# Si number density = 16.745889 Si / 1000 Ang^3
#
#
#
# Elastic Constant Matrix: (Units=GPa)
#
#
# Indices 1 2 3 4 5 6 
#
# 1 75.0386 47.8423 39.3868 0.0000 0.8499 0.0000
# 2 47.8423 78.1630 41.1047 0.0000 -0.3325 0.0000
# 3 39.3868 41.1047 86.8826 0.0000 -8.7243 0.0000
# 4 0.0000 0.0000 0.0000 24.3787 0.0000 4.7074
# 5 0.8499 -0.3325 -8.7243 0.0000 21.7227 0.0000
# 6 0.0000 0.0000 0.0000 4.7074 0.0000 24.8661
#
#
#
# Elastic Compliance Matrix: (Units=1/GPa)
#
#
# Indices 1 2 3 4 5 6 
#
# 1 0.023674 -0.011560 -0.005600 0.000000 -0.003352 0.000000
# 2 -0.011560 0.022879 -0.005734 0.000000 -0.001500 0.000000
# 3 -0.005600 -0.005734 0.017479 0.000000 0.007151 0.000000
# 4 0.000000 0.000000 0.000000 0.042576 0.000000 -0.008060
# 5 -0.003352 -0.001500 0.007151 0.000000 0.049015 0.000000
# 6 0.000000 0.000000 0.000000 -0.008060 0.000000 0.041741
#
#
# Mechanical properties :
#
#
# Convention : Reuss Voigt Hill
#
# Bulk Modulus (GPa) = 54.81196 55.19464 55.00330
# Shear Modulus (GPa) = 20.06157 21.64353 20.85255
#
# Velocity S-wave (km/s) = 3.46497 3.59899 3.53262
# Velocity P-wave (km/s) = 6.98646 7.09239 7.03962
#
# Compressibility (1/GPa) = 0.01824419
#
# Stress axis : x y z
#
# Youngs Moduli (GPa) = 42.24058 43.70910 57.21058
#
# Poissons Ratio (x) = 0.50527 0.32036
# Poissons Ratio (y) = 0.48830 0.32805
# Poissons Ratio (z) = 0.23654 0.25063
#
# Static dielectric constant tensor:
#      x y z
#    x 2.977680 0.000000 -0.052150 
#    y 0.000000 3.230760 0.000000 
#    z -0.052150 0.000000 3.211730 
# 
# 
# High freq. dielectric constant tensor:
#      x y z
#    x 1.627300 0.000000 -0.007250 
#    y 0.000000 1.623720 0.000000 
#    z -0.007250 0.000000 1.649920 
# 
# From -- ./inp_files/222429.got.cif
#   From: 2010.06.25/outbox.cif.g09.slc.cpg/sg15_112_cif.got.tgz:222429.got - 2010.06.28 07:06:18.
