data_PCOD8131946
_publ_section_title
;
Structure prediction by ZEFSAII (Michael W. Deem and Ramdas Pophale) SiO2 
 PCOD8131946
Probable space group: C 2/C
;
_chemical_formula_sum "Si O2"
_cell_formula_units_Z 64
_cell_length_a 9.438196
_cell_length_b 20.802463
_cell_length_c 26.091035
_cell_angle_alpha 90.000000
_cell_angle_beta 136.872823
_cell_angle_gamma 90.000000
_cell_volume 3501.949175
_symmetry_space_group_name_H-M "C 2/C"
_symmetry_group_IT_number 15
_symmetry_cell_setting 'monoclinic'
loop_
_space_group_symop_operation_xyz
x,y,z
-x,y,1/2-z
-x,-y,-z
x,-y,1/2+z
1/2+x,1/2+y,z
1/2-x,1/2+y,1/2-z
1/2-x,1/2-y,-z
1/2+x,1/2-y,1/2+z
loop_
_atom_site_type_symbol
_atom_site_label
_atom_site_fract_x
_atom_site_fract_y
_atom_site_fract_z
Si Si1 0.343961 0.784061 0.572684
Si Si2 0.512822 0.314606 0.558947
Si Si3 0.878267 0.847453 0.801717
Si Si4 0.267619 0.462037 0.705585
Si Si5 0.762795 0.897771 0.203907
Si Si6 0.443860 0.836973 0.043768
Si Si7 0.845097 0.631027 0.403142
Si Si8 0.892204 0.773590 0.276595
O O1 0.250000 0.750000 0.500000
O O2 0.165580 0.828748 0.551658
O O3 0.535604 0.825445 0.605450
O O4 0.424325 0.729278 0.633222
O O5 0.615696 0.348767 0.635159
O O6 0.502781 0.237617 0.562132
O O7 0.283553 0.344140 0.489985
O O8 0.754516 0.910087 0.748271
O O9 0.764194 0.783822 0.752893
O O10 0.109394 0.844077 0.840284
O O11 0.500000 0.472265 0.750000
O O12 0.184909 0.532075 0.703061
O O13 0.145865 0.439385 0.621523
O O14 0.613307 0.878483 0.117793
O O15 0.761986 0.840723 0.246284
O O16 0.000000 0.902679 0.250000
O O17 0.440727 0.865251 0.985076
O O18 0.000000 0.765857 0.250000
#
# Coordination Sequence:
#
# PCOD8131946 Si02
#       8
#     8   8   8   8   8   8   8   8
#     4  12  22  32  52  90 116 142 183 240 288 323
#     4  10  19  33  54  82 113 146 183 228 278 343
#     4  10  18  35  56  82 108 143 195 226 280 335
#     4   9  19  35  53  83 114 148 185 242 283 324
#     4  10  20  34  56  83 116 140 189 240 283 333
#     4  10  19  34  55  83 112 148 181 226 289 343
#     4  10  21  32  54  85 115 142 186 236 282 335
#     4  11  20  33  57  87 110 152 187 237 288 338
#
# _framework density 18.275535999999999
#
# number of rings (size 3 to 8) (size 9 to 14) (size 15 to 20)
#    0.000    1.750    5.000    0.750    0.000    0.500 
#    0.000    0.000    0.000    0.750   16.250    0.000 
#    0.000    0.000    0.000    0.000    0.000    0.000 
#
# Total GULP energy -396460.820362 kJ/mol
# GULP energy per Si atom -12389.400636 kJ/mol
# Density = 1.823394 g / cm^3
# Si number density = 18.275536 Si / 1000 Ang^3
#
#
#
# Elastic Constant Matrix: (Units=GPa)
#
#
# Indices 1 2 3 4 5 6 
#
# 1 91.5904 29.9319 38.4143 -0.0001 -7.6851 -0.0001
# 2 29.9319 136.9834 61.6848 0.0001 -2.5301 0.0000
# 3 38.4143 61.6848 138.7629 -0.0003 -8.6131 -0.0002
# 4 -0.0001 0.0001 -0.0003 -5.3663 -0.0001 -14.7403
# 5 -7.6851 -2.5301 -8.6131 -0.0001 15.2915 -0.0001
# 6 -0.0001 0.0000 -0.0002 -14.7403 -0.0001 12.7279
#
#
#
# Elastic Compliance Matrix: (Units=1/GPa)
#
#
# Indices 1 2 3 4 5 6 
#
# 1 0.012915 -0.001572 -0.002580 0.000000 0.004777 0.000000
# 2 -0.001572 0.009328 -0.003797 0.000000 -0.001386 0.000000
# 3 -0.002580 -0.003797 0.009833 0.000000 0.003614 0.000000
# 4 0.000000 0.000000 0.000000 -0.044569 -0.000001 -0.051616
# 5 0.004777 -0.001386 0.003614 -0.000001 0.069603 0.000000
# 6 0.000000 0.000000 0.000000 -0.051616 0.000000 0.018791
#
#
# Mechanical properties :
#
#
# Convention : Reuss Voigt Hill
#
# Bulk Modulus (GPa) = 61.81509 69.71098 65.76303
# Shear Modulus (GPa) = 51.44443 20.35100 35.89772
#
# Velocity S-wave (km/s) = 5.31135 3.34063 4.43679
# Velocity P-wave (km/s) = 8.45644 7.28746 7.89362
#
# Compressibility (1/GPa) = 0.01617728
#
# Stress axis : x y z
#
# Youngs Moduli (GPa) = 77.43048 107.20309 101.69665
#
# Poissons Ratio (x) = 0.16852 0.26237
# Poissons Ratio (y) = 0.12172 0.38619
# Poissons Ratio (z) = 0.19977 0.40710
#
# Static dielectric constant tensor:
#      x y z
#    x 3.344950 0.000000 0.058020 
#    y 0.000000 3.611240 0.000000 
#    z 0.058020 0.000000 3.550980 
# 
# 
# High freq. dielectric constant tensor:
#      x y z
#    x 1.687810 0.000000 0.010960 
#    y 0.000000 1.686720 0.000000 
#    z 0.010960 0.000000 1.724380 
# 
# From -- ./inp_files/266137.got.cif
#   From: 2010.06.25/outbox.cif.g09.slc.cpg/sg15_134_cif.got.tgz:266137.got - 2010.06.28 07:06:18.
