data_PCOD8131176
_publ_section_title
;
Structure prediction by ZEFSAII (Michael W. Deem and Ramdas Pophale) SiO2 
 PCOD8131176
Probable space group: C 2/C
;
_chemical_formula_sum "Si O2"
_cell_formula_units_Z 52
_cell_length_a 17.867152
_cell_length_b 26.224543
_cell_length_c 10.144406
_cell_angle_alpha 90.000000
_cell_angle_beta 36.486780
_cell_angle_gamma 90.000000
_cell_volume 2826.454686
_symmetry_space_group_name_H-M "C 2/C"
_symmetry_group_IT_number 15
_symmetry_cell_setting 'monoclinic'
loop_
_space_group_symop_operation_xyz
x,y,z
-x,y,1/2-z
-x,-y,-z
x,-y,1/2+z
1/2+x,1/2+y,z
1/2-x,1/2+y,1/2-z
1/2-x,1/2-y,-z
1/2+x,1/2-y,1/2+z
loop_
_atom_site_type_symbol
_atom_site_label
_atom_site_fract_x
_atom_site_fract_y
_atom_site_fract_z
Si Si1 0.101382 0.949119 0.720105
Si Si2 0.000000 0.301637 0.250000
Si Si3 0.801661 0.777239 0.126616
Si Si4 0.851475 0.167952 0.816817
Si Si5 0.068142 0.937626 0.287799
Si Si6 0.856642 0.189968 0.097328
Si Si7 0.763772 0.643974 0.995608
O O1 0.226518 0.914741 0.512873
O O2 0.000000 0.938432 0.750000
O O3 0.140988 0.008716 0.666325
O O4 0.037011 0.937645 0.950420
O O5 0.915479 0.263995 0.460044
O O6 0.911520 0.339769 0.286844
O O7 0.786178 0.804141 0.288920
O O8 0.672626 0.745217 0.296438
O O9 0.812266 0.818500 0.995328
O O10 0.830685 0.107013 0.827578
O O11 0.997633 0.180549 0.604716
O O12 0.797567 0.186728 0.033464
O O13 0.000000 0.921402 0.250000
O O14 0.788236 0.148000 0.283014
#
# Coordination Sequence:
#
# PCOD8131176 Si02
#       7
#     8   4   8   8   8   8   8
#     4  10  20  31  52  80 103 129 168 220 266 312
#     4  10  22  34  50  74 106 146 176 208 252 316
#     4  11  21  32  50  76 102 140 179 215 247 301
#     4  11  18  32  51  72 106 134 167 214 266 311
#     4  10  18  32  49  76 104 130 163 210 275 317
#     4  10  20  31  47  71 103 140 170 203 259 311
#     4  11  20  35  52  74 105 139 175 217 261 301
#
# _framework density 18.397604999999999
#
# number of rings (size 3 to 8) (size 9 to 14) (size 15 to 20)
#    0.000    1.538    3.077    5.077    1.077    0.000 
#    0.000    0.000    0.000    0.000    0.000   43.077 
#    0.000    0.000    0.000    0.000    0.000    0.000 
#
# Total GULP energy -322142.610466 kJ/mol
# GULP energy per Si atom -12390.100403 kJ/mol
# Density = 1.835573 g / cm^3
# Si number density = 18.397605 Si / 1000 Ang^3
#
#
#
# Elastic Constant Matrix: (Units=GPa)
#
#
# Indices 1 2 3 4 5 6 
#
# 1 66.1914 24.8060 21.6837 0.0012 6.1812 -0.0002
# 2 24.8060 134.2255 20.7992 0.0000 -12.6124 0.0000
# 3 21.6837 20.7992 56.7146 -0.0007 10.1291 -0.0001
# 4 0.0012 0.0000 -0.0007 66.7586 0.0002 1.1080
# 5 6.1812 -12.6124 10.1291 0.0002 27.5121 0.0001
# 6 -0.0002 0.0000 -0.0001 1.1080 0.0001 25.2104
#
#
#
# Elastic Compliance Matrix: (Units=1/GPa)
#
#
# Indices 1 2 3 4 5 6 
#
# 1 0.018246 -0.002876 -0.005302 0.000000 -0.003466 0.000000
# 2 -0.002876 0.009057 -0.003296 0.000000 0.006012 0.000000
# 3 -0.005302 -0.003296 0.022398 0.000000 -0.008566 0.000000
# 4 0.000000 0.000000 0.000000 0.014990 0.000000 -0.000659
# 5 -0.003466 0.006012 -0.008566 0.000000 0.043036 0.000000
# 6 0.000000 0.000000 0.000000 -0.000659 0.000000 0.039695
#
#
# Mechanical properties :
#
#
# Convention : Reuss Voigt Hill
#
# Bulk Modulus (GPa) = 37.37882 43.52326 40.45104
# Shear Modulus (GPa) = 27.88802 36.55238 32.22020
#
# Velocity S-wave (km/s) = 3.89762 4.46219 4.18942
# Velocity P-wave (km/s) = 6.37311 7.08919 6.74066
#
# Compressibility (1/GPa) = 0.02675312
#
# Stress axis : x y z
#
# Youngs Moduli (GPa) = 54.80593 110.40904 44.64714
#
# Poissons Ratio (x) = 0.31754 0.23674
# Poissons Ratio (y) = 0.15763 0.14714
# Poissons Ratio (z) = 0.29060 0.36387
#
# Static dielectric constant tensor:
#      x y z
#    x 3.647870 0.000000 0.064790 
#    y 0.000000 3.738190 0.000000 
#    z 0.064790 0.000000 4.558650 
# 
# 
# High freq. dielectric constant tensor:
#      x y z
#    x 1.696740 0.000000 0.036970 
#    y 0.000000 1.723320 0.000000 
#    z 0.036970 0.000000 1.692750 
# 
# From -- ./inp_files/52133.got.cif
#   From: 2010.06.25/outbox.cif.g09.slc.cpg/sg15_27_cif.got.tgz:52133.got - 2010.06.28 07:06:18.
