data_PCOD8131503
_publ_section_title
;
Structure prediction by ZEFSAII (Michael W. Deem and Ramdas Pophale) SiO2 
 PCOD8131503
Probable space group: C 2/C
;
_chemical_formula_sum "Si O2"
_cell_formula_units_Z 64
_cell_length_a 13.641004
_cell_length_b 16.549271
_cell_length_c 26.926086
_cell_angle_alpha 90.000000
_cell_angle_beta 32.513771
_cell_angle_gamma 90.000000
_cell_volume 3267.222872
_symmetry_space_group_name_H-M "C 2/C"
_symmetry_group_IT_number 15
_symmetry_cell_setting 'monoclinic'
loop_
_space_group_symop_operation_xyz
x,y,z
-x,y,1/2-z
-x,-y,-z
x,-y,1/2+z
1/2+x,1/2+y,z
1/2-x,1/2+y,1/2-z
1/2-x,1/2-y,-z
1/2+x,1/2-y,1/2+z
loop_
_atom_site_type_symbol
_atom_site_label
_atom_site_fract_x
_atom_site_fract_y
_atom_site_fract_z
Si Si1 0.926636 0.886029 0.997675
Si Si2 0.984751 0.052378 0.845483
Si Si3 0.339797 0.566270 0.014709
Si Si4 0.874009 0.277656 0.402233
Si Si5 0.401398 0.083446 0.532358
Si Si6 0.921095 0.874373 0.676643
Si Si7 0.626304 0.099927 0.848020
Si Si8 0.532550 0.913467 0.872973
O O1 0.068383 0.878349 0.982323
O O2 0.034132 0.868547 0.900783
O O3 0.763349 0.821590 0.077568
O O4 0.833013 0.973958 0.036216
O O5 0.813037 0.073139 0.885288
O O6 0.156952 0.103072 0.752858
O O7 0.958571 0.073554 0.914250
O O8 0.011877 0.956616 0.827162
O O9 0.137328 0.600160 0.091375
O O10 0.750000 0.250000 0.500000
O O11 0.978080 0.198538 0.336687
O O12 0.027832 0.341291 0.352232
O O13 0.420553 0.132120 0.576016
O O14 0.492362 0.124909 0.444963
O O15 0.500000 0.000000 0.500000
O O16 0.703364 0.867742 0.776146
O O17 0.555567 0.009462 0.869134
#
# Coordination Sequence:
#
# PCOD8131503 Si02
#       8
#     8   8   8   8   8   8   8   8
#     4   9  17  31  52  80 103 150 181 218 265 323
#     4   9  18  33  55  83 108 136 185 233 266 316
#     4   9  16  30  55  77 110 136 185 224 264 317
#     4  10  20  34  58  76 113 144 182 225 278 334
#     4   9  18  29  57  82 106 134 180 230 274 318
#     4   9  19  32  55  80 111 143 175 227 276 322
#     4  10  18  33  56  79 107 145 187 224 273 324
#     4   9  17  32  53  85 109 138 181 234 274 313
#
# _framework density 19.588501999999998
#
# number of rings (size 3 to 8) (size 9 to 14) (size 15 to 20)
#    0.000    2.750    1.250    0.375    5.250    0.500 
#    0.000    0.625   19.250    1.500    0.000    0.000 
#    0.000    0.000    0.000    0.000    0.000    0.000 
#
# Total GULP energy -396591.854415 kJ/mol
# GULP energy per Si atom -12393.495450 kJ/mol
# Density = 1.954392 g / cm^3
# Si number density = 19.588502 Si / 1000 Ang^3
#
#
#
# Elastic Constant Matrix: (Units=GPa)
#
#
# Indices 1 2 3 4 5 6 
#
# 1 99.8295 22.9444 36.7706 -0.0068 -15.6381 0.0019
# 2 22.9444 56.4905 38.0826 -0.0093 -8.6902 0.0008
# 3 36.7706 38.0826 107.0737 -0.0133 -23.5328 0.0035
# 4 -0.0068 -0.0093 -0.0133 27.8118 -0.0018 -9.5350
# 5 -15.6381 -8.6902 -23.5328 -0.0018 26.0581 0.0008
# 6 0.0019 0.0008 0.0035 -9.5350 0.0008 21.8742
#
#
#
# Elastic Compliance Matrix: (Units=1/GPa)
#
#
# Indices 1 2 3 4 5 6 
#
# 1 0.012157 -0.002761 -0.002236 0.000001 0.004356 0.000000
# 2 -0.002761 0.023915 -0.007697 0.000005 -0.000632 0.000003
# 3 -0.002236 -0.007697 0.014954 0.000005 0.009596 0.000000
# 4 0.000001 0.000005 0.000005 0.042274 0.000009 0.018427
# 5 0.004356 -0.000632 0.009596 0.000009 0.049445 0.000000
# 6 0.000000 0.000003 0.000000 0.018427 0.000000 0.053749
#
#
# Mechanical properties :
#
#
# Convention : Reuss Voigt Hill
#
# Bulk Modulus (GPa) = 39.00162 50.99877 45.00020
# Shear Modulus (GPa) = 21.69898 26.18854 23.94376
#
# Velocity S-wave (km/s) = 3.33188 3.66038 3.49999
# Velocity P-wave (km/s) = 5.89539 6.62994 6.27342
#
# Compressibility (1/GPa) = 0.02563996
#
# Stress axis : x y z
#
# Youngs Moduli (GPa) = 82.25396 41.81537 66.87369
#
# Poissons Ratio (x) = 0.11543 0.14952
# Poissons Ratio (y) = 0.22707 0.51469
# Poissons Ratio (z) = 0.18390 0.32183
#
# Static dielectric constant tensor:
#      x y z
#    x 3.633690 -0.000020 -0.118690 
#    y -0.000020 3.405450 0.000030 
#    z -0.118690 0.000030 3.753950 
# 
# 
# High freq. dielectric constant tensor:
#      x y z
#    x 1.761190 0.000000 -0.015250 
#    y 0.000000 1.726680 0.000000 
#    z -0.015250 0.000000 1.766460 
# 
# From -- ./inp_files/314263.got.cif
#   From: 2010.06.25/outbox.cif.g09.slc.cpg/sg15_158_cif.got.tgz:314263.got - 2010.06.28 07:06:18.
