data_PCOD8131107
_publ_section_title
;
Structure prediction by ZEFSAII (Michael W. Deem and Ramdas Pophale) SiO2 
 PCOD8131107
Probable space group: C 2/C
;
_chemical_formula_sum "Si O2"
_cell_formula_units_Z 48
_cell_length_a 29.889344
_cell_length_b 12.408401
_cell_length_c 10.556749
_cell_angle_alpha 90.000000
_cell_angle_beta 135.144263
_cell_angle_gamma 90.000000
_cell_volume 2761.538796
_symmetry_space_group_name_H-M "C 2/C"
_symmetry_group_IT_number 15
_symmetry_cell_setting 'monoclinic'
loop_
_space_group_symop_operation_xyz
x,y,z
-x,y,1/2-z
-x,-y,-z
x,-y,1/2+z
1/2+x,1/2+y,z
1/2-x,1/2+y,1/2-z
1/2-x,1/2-y,-z
1/2+x,1/2-y,1/2+z
loop_
_atom_site_type_symbol
_atom_site_label
_atom_site_fract_x
_atom_site_fract_y
_atom_site_fract_z
Si Si1 0.841667 0.928750 0.294820
Si Si2 0.841546 0.926932 0.577431
Si Si3 0.864383 0.685499 0.334516
Si Si4 0.365171 0.815894 0.125372
Si Si5 0.279614 0.000749 0.057941
Si Si6 0.999633 0.592176 0.604245
O O1 0.870849 0.943774 0.494968
O O2 0.848157 0.806431 0.260236
O O3 0.877035 0.001707 0.257871
O O4 0.767247 0.964035 0.151181
O O5 0.847530 0.803792 0.634523
O O6 0.767263 0.962659 0.422439
O O7 0.845906 0.667003 0.442170
O O8 0.822453 0.603677 0.170885
O O9 0.938588 0.666206 0.459081
O O10 0.439852 0.832349 0.296826
O O11 0.325459 0.901275 0.124606
O O12 0.000000 0.545147 0.750000
O O13 0.000000 0.500000 0.500000
#
# Coordination Sequence:
#
# PCOD8131107 Si02
#       6
#     8   8   8   8   8   8
#     4   9  20  34  51  77 106 137 170 206 256 306
#     4   9  20  34  51  77 106 137 170 206 256 306
#     4  10  19  34  53  77 104 136 172 210 255 302
#     4  10  19  34  53  77 104 136 172 210 255 302
#     4  10  18  31  54  77 104 134 166 214 252 304
#     4  10  20  36  55  74 102 134 171 211 252 301
#
# _framework density 17.381613999999999
#
# number of rings (size 3 to 8) (size 9 to 14) (size 15 to 20)
#    1.000    1.333    1.667    2.000    0.000    0.000 
#    0.000    4.167    0.000    0.000    0.000    0.000 
#    0.000    0.000    0.000    0.000    0.000    0.000 
#
# Total GULP energy -297327.208719 kJ/mol
# GULP energy per Si atom -12388.633697 kJ/mol
# Density = 1.734205 g / cm^3
# Si number density = 17.381614 Si / 1000 Ang^3
#
#
#
# Elastic Constant Matrix: (Units=GPa)
#
#
# Indices 1 2 3 4 5 6 
#
# 1 49.8717 48.5031 38.7800 0.0000 -11.4044 0.0000
# 2 48.5031 131.8927 34.5889 0.0000 -16.6739 0.0000
# 3 38.7800 34.5889 37.2166 0.0000 -2.0345 0.0000
# 4 0.0000 0.0000 0.0000 17.5400 0.0000 -12.3451
# 5 -11.4044 -16.6739 -2.0345 0.0000 28.9879 0.0000
# 6 0.0000 0.0000 0.0000 -12.3451 0.0000 21.2021
#
#
#
# Elastic Compliance Matrix: (Units=1/GPa)
#
#
# Indices 1 2 3 4 5 6 
#
# 1 0.171440 -0.014336 -0.162706 0.000000 0.047782 0.000000
# 2 -0.014336 0.012047 0.003827 0.000000 0.001558 0.000000
# 3 -0.162706 0.003827 0.190205 0.000000 -0.048461 0.000000
# 4 0.000000 0.000000 0.000000 0.096599 0.000000 0.056245
# 5 0.047782 0.001558 -0.048461 0.000000 0.050790 0.000000
# 6 0.000000 0.000000 0.000000 0.056245 0.000000 0.079914
#
#
# Mechanical properties :
#
#
# Convention : Reuss Voigt Hill
#
# Bulk Modulus (GPa) = 36.68147 51.41390 44.04769
# Shear Modulus (GPa) = 5.22731 20.01996 12.62363
#
# Velocity S-wave (km/s) = 1.73606 3.39748 2.69785
# Velocity P-wave (km/s) = 5.01677 6.71075 5.92462
#
# Compressibility (1/GPa) = 0.02726172
#
# Stress axis : x y z
#
# Youngs Moduli (GPa) = 5.83293 83.00556 5.25748
#
# Poissons Ratio (x) = 1.18998 0.85542
# Poissons Ratio (y) = 0.08362 -0.02012
# Poissons Ratio (z) = 0.94905 -0.31765
#
# Static dielectric constant tensor:
#      x y z
#    x 3.155110 0.000000 -0.026970 
#    y 0.000000 3.258330 0.000000 
#    z -0.026970 0.000000 3.142010 
# 
# 
# High freq. dielectric constant tensor:
#      x y z
#    x 1.660100 0.000000 -0.003760 
#    y 0.000000 1.675940 0.000000 
#    z -0.003760 0.000000 1.658720 
# 
# From -- ./inp_files/122508.got.cif
#   From: 2010.06.25/outbox.cif.g09.slc.cpg/sg15_62_cif.got.tgz:122508.got - 2010.06.28 07:06:18.
