data_PCOD8131793
_publ_section_title
;
Structure prediction by ZEFSAII (Michael W. Deem and Ramdas Pophale) SiO2 
 PCOD8131793
Probable space group: C 2/C
;
_chemical_formula_sum "Si O2"
_cell_formula_units_Z 40
_cell_length_a 20.888670
_cell_length_b 7.696173
_cell_length_c 13.875149
_cell_angle_alpha 90.000000
_cell_angle_beta 117.927990
_cell_angle_gamma 90.000000
_cell_volume 1970.824598
_symmetry_space_group_name_H-M "C 2/C"
_symmetry_group_IT_number 15
_symmetry_cell_setting 'monoclinic'
loop_
_space_group_symop_operation_xyz
x,y,z
-x,y,1/2-z
-x,-y,-z
x,-y,1/2+z
1/2+x,1/2+y,z
1/2-x,1/2+y,1/2-z
1/2-x,1/2-y,-z
1/2+x,1/2-y,1/2+z
loop_
_atom_site_type_symbol
_atom_site_label
_atom_site_fract_x
_atom_site_fract_y
_atom_site_fract_z
Si Si1 0.158104 0.085346 0.651947
Si Si2 0.344427 0.097188 0.086437
Si Si3 0.080810 0.919538 0.287574
Si Si4 0.225964 0.245964 0.139633
Si Si5 0.835803 0.778479 0.551369
O O1 0.093349 0.113491 0.682788
O O2 0.234572 0.153069 0.747031
O O3 0.139296 0.185083 0.540433
O O4 0.164471 0.879399 0.638761
O O5 0.407841 0.237735 0.148060
O O6 0.281438 0.124113 0.120127
O O7 0.374365 0.899873 0.114497
O O8 0.311304 0.114418 0.956185
O O9 0.000000 0.986961 0.250000
O O10 0.139348 0.060753 0.364843
O O11 0.750000 0.750000 0.500000
#
# Coordination Sequence:
#
# PCOD8131793 Si02
#       5
#     8   8   8   8   8
#     4  11  21  35  65  94 122 165 207 258 322 366
#     4  10  20  38  60  86 129 157 197 264 313 363
#     4  11  26  44  59  89 135 173 210 254 309 385
#     4  10  18  34  58  97 121 150 204 262 315 362
#     4  12  21  41  68  97 124 160 214 272 317 364
#
# _framework density 20.296073
#
# number of rings (size 3 to 8) (size 9 to 14) (size 15 to 20)
#    0.000    1.200    4.000    4.800    0.000    1.600 
#    0.000    1.000    0.000    0.000    0.000    0.000 
#    0.000    0.000    0.000    0.000    0.000    0.000 
#
# Total GULP energy -248040.704838 kJ/mol
# GULP energy per Si atom -12402.035242 kJ/mol
# Density = 2.024988 g / cm^3
# Si number density = 20.296073 Si / 1000 Ang^3
#
#
#
# Elastic Constant Matrix: (Units=GPa)
#
#
# Indices 1 2 3 4 5 6 
#
# 1 88.0993 20.9617 21.1835 0.0000 -0.3837 0.0000
# 2 20.9617 124.7182 23.6125 0.0000 -3.6033 0.0000
# 3 21.1835 23.6125 74.2152 0.0000 -20.0591 0.0000
# 4 0.0000 0.0000 0.0000 29.1352 0.0000 -0.3883
# 5 -0.3837 -3.6033 -20.0591 0.0000 25.6912 0.0000
# 6 0.0000 0.0000 0.0000 -0.3883 0.0000 17.6244
#
#
#
# Elastic Compliance Matrix: (Units=1/GPa)
#
#
# Indices 1 2 3 4 5 6 
#
# 1 0.012644 -0.001460 -0.003991 0.000000 -0.003132 0.000000
# 2 -0.001460 0.008728 -0.002580 0.000000 -0.000812 0.000000
# 3 -0.003991 -0.002580 0.019418 0.000000 0.014740 0.000000
# 4 0.000000 0.000000 0.000000 0.034333 0.000000 0.000756
# 5 -0.003132 -0.000812 0.014740 0.000000 0.050272 0.000000
# 6 0.000000 0.000000 0.000000 0.000756 0.000000 0.056756
#
#
# Mechanical properties :
#
#
# Convention : Reuss Voigt Hill
#
# Bulk Modulus (GPa) = 40.43809 46.50534 43.47171
# Shear Modulus (GPa) = 24.21819 29.24183 26.73001
#
# Velocity S-wave (km/s) = 3.45809 3.79986 3.63299
# Velocity P-wave (km/s) = 5.99265 6.49731 6.25008
#
# Compressibility (1/GPa) = 0.02472916
#
# Stress axis : x y z
#
# Youngs Moduli (GPa) = 79.08747 114.56828 51.49800
#
# Poissons Ratio (x) = 0.16727 0.20553
# Poissons Ratio (y) = 0.11547 0.13285
# Poissons Ratio (z) = 0.31565 0.29556
#
# Static dielectric constant tensor:
#      x y z
#    x 3.242750 0.000000 -0.238710 
#    y 0.000000 3.905280 0.000000 
#    z -0.238710 0.000000 3.780320 
# 
# 
# High freq. dielectric constant tensor:
#      x y z
#    x 1.747700 0.000000 -0.026000 
#    y 0.000000 1.806690 0.000000 
#    z -0.026000 0.000000 1.795090 
# 
# From -- ./inp_files/109757.got.cif
#   From: 2010.06.25/outbox.cif.g09.slc.cpg/sg15_55_cif.got.tgz:109757.got - 2010.06.28 07:06:18.
