data_PCOD8131432
_publ_section_title
;
Structure prediction by ZEFSAII (Michael W. Deem and Ramdas Pophale) SiO2 
 PCOD8131432
Probable space group: C 2/C
;
_chemical_formula_sum "Si O2"
_cell_formula_units_Z 60
_cell_length_a 24.481489
_cell_length_b 13.428189
_cell_length_c 13.447391
_cell_angle_alpha 90.000000
_cell_angle_beta 127.502438
_cell_angle_gamma 90.000000
_cell_volume 3507.080872
_symmetry_space_group_name_H-M "C 2/C"
_symmetry_group_IT_number 15
_symmetry_cell_setting 'monoclinic'
loop_
_space_group_symop_operation_xyz
x,y,z
-x,y,1/2-z
-x,-y,-z
x,-y,1/2+z
1/2+x,1/2+y,z
1/2-x,1/2+y,1/2-z
1/2-x,1/2-y,-z
1/2+x,1/2-y,1/2+z
loop_
_atom_site_type_symbol
_atom_site_label
_atom_site_fract_x
_atom_site_fract_y
_atom_site_fract_z
Si Si1 0.500000 0.509561 0.250000
Si Si2 0.643816 0.462202 0.356763
Si Si3 0.366377 0.675944 0.252160
Si Si4 0.154264 0.838271 0.179364
Si Si5 0.991218 0.893962 0.540574
Si Si6 0.808637 0.332636 0.066752
Si Si7 0.264177 0.479774 0.373428
Si Si8 0.724228 0.148361 0.187432
O O1 0.563340 0.438511 0.288404
O O2 0.524835 0.585300 0.362405
O O3 0.649605 0.576703 0.328607
O O4 0.672926 0.388657 0.305153
O O5 0.688776 0.448262 0.505873
O O6 0.437382 0.667161 0.392446
O O7 0.373143 0.772232 0.186204
O O8 0.302204 0.688256 0.256623
O O9 0.186485 0.900574 0.124955
O O10 0.184355 0.727684 0.211413
O O11 0.071563 0.832996 0.076151
O O12 0.000000 0.000000 0.500000
O O13 0.791511 0.425437 0.118671
O O14 0.750000 0.250000 0.000000
O O15 0.817960 0.368855 0.963024
O O16 0.224483 0.544971 0.247555
#
# Coordination Sequence:
#
# PCOD8131432 Si02
#       8
#     4   8   8   8   8   8   8   8
#     4  10  20  28  48  80 110 148 168 212 290 338
#     4  11  20  31  51  80 113 145 176 222 280 334
#     4  10  18  33  52  81 107 142 180 220 272 329
#     4  12  21  34  53  82 116 141 183 231 275 341
#     4  11  20  32  53  82 113 142 179 226 282 336
#     4  10  18  35  53  77 103 144 189 223 269 321
#     4  12  19  34  55  73 112 146 181 236 269 323
#     4  11  22  33  54  81 111 145 183 230 278 322
#
# _framework density 17.108245
#
# number of rings (size 3 to 8) (size 9 to 14) (size 15 to 20)
#    0.000    1.067   10.667    0.000    1.867    0.533 
#    0.000    0.000    0.000    0.800    0.000    0.000 
#    0.000    0.000    0.000    0.000    0.000    0.000 
#
# Total GULP energy -371905.966175 kJ/mol
# GULP energy per Si atom -12396.865539 kJ/mol
# Density = 1.706931 g / cm^3
# Si number density = 17.108245 Si / 1000 Ang^3
#
#
#
# Elastic Constant Matrix: (Units=GPa)
#
#
# Indices 1 2 3 4 5 6 
#
# 1 64.4690 33.3943 19.5747 0.0000 1.5698 0.0000
# 2 33.3943 73.2649 41.7147 0.0000 2.5568 0.0000
# 3 19.5747 41.7147 77.0333 0.0000 2.1211 0.0000
# 4 0.0000 0.0000 0.0000 31.8721 0.0000 -4.1495
# 5 1.5698 2.5568 2.1211 0.0000 29.2513 0.0000
# 6 0.0000 0.0000 0.0000 -4.1495 0.0000 30.8600
#
#
#
# Elastic Compliance Matrix: (Units=1/GPa)
#
#
# Indices 1 2 3 4 5 6 
#
# 1 0.020310 -0.009128 -0.000210 0.000000 -0.000277 0.000000
# 2 -0.009128 0.023862 -0.010579 0.000000 -0.000829 0.000000
# 3 -0.000210 -0.010579 0.018776 0.000000 -0.000425 0.000000
# 4 0.000000 0.000000 0.000000 0.031934 0.000000 0.004294
# 5 -0.000277 -0.000829 -0.000425 0.000000 0.034305 0.000000
# 6 0.000000 0.000000 0.000000 0.004294 0.000000 0.032982
#
#
# Mechanical properties :
#
#
# Convention : Reuss Voigt Hill
#
# Bulk Modulus (GPa) = 43.26710 44.90384 44.08547
# Shear Modulus (GPa) = 23.84261 26.40223 25.12242
#
# Velocity S-wave (km/s) = 3.73719 3.93268 3.83618
# Velocity P-wave (km/s) = 6.63078 6.85019 6.74138
#
# Compressibility (1/GPa) = 0.02311225
#
# Stress axis : x y z
#
# Youngs Moduli (GPa) = 49.23639 41.90728 53.26085
#
# Poissons Ratio (x) = 0.38253 0.01121
# Poissons Ratio (y) = 0.44943 0.56347
# Poissons Ratio (z) = 0.01036 0.44336
#
# Static dielectric constant tensor:
#      x y z
#    x 3.273430 0.000000 -0.123770 
#    y 0.000000 3.031370 0.000000 
#    z -0.123770 0.000000 3.231420 
# 
# 
# High freq. dielectric constant tensor:
#      x y z
#    x 1.649690 0.000000 -0.016120 
#    y 0.000000 1.620400 0.000000 
#    z -0.016120 0.000000 1.662920 
# 
# From -- ./inp_files/177366.got.cif
#   From: 2010.06.25/outbox.cif.g09.slc.cpg/sg15_89_cif.got.tgz:177366.got - 2010.06.28 07:06:18.
