data_PCOD8131064
_publ_section_title
;
Structure prediction by ZEFSAII (Michael W. Deem and Ramdas Pophale) SiO2 
 PCOD8131064
Probable space group: C 2/C
;
_chemical_formula_sum "Si O2"
_cell_formula_units_Z 56
_cell_length_a 25.701053
_cell_length_b 22.775786
_cell_length_c 12.182809
_cell_angle_alpha 90.000000
_cell_angle_beta 26.285289
_cell_angle_gamma 90.000000
_cell_volume 3158.053969
_symmetry_space_group_name_H-M "C 2/C"
_symmetry_group_IT_number 15
_symmetry_cell_setting 'monoclinic'
loop_
_space_group_symop_operation_xyz
x,y,z
-x,y,1/2-z
-x,-y,-z
x,-y,1/2+z
1/2+x,1/2+y,z
1/2-x,1/2+y,1/2-z
1/2-x,1/2-y,-z
1/2+x,1/2-y,1/2+z
loop_
_atom_site_type_symbol
_atom_site_label
_atom_site_fract_x
_atom_site_fract_y
_atom_site_fract_z
Si Si1 0.743343 0.155304 0.992869
Si Si2 0.438909 0.739039 0.654475
Si Si3 0.574642 0.950836 0.500135
Si Si4 0.648513 0.260587 0.599382
Si Si5 0.000000 0.671706 0.750000
Si Si6 0.767447 0.355727 0.227278
Si Si7 0.577798 0.919693 0.920681
Si Si8 0.000000 0.285460 0.750000
O O1 0.634887 0.200720 0.213686
O O2 0.704630 0.096680 0.129896
O O3 0.856374 0.183842 0.834096
O O4 0.790221 0.136801 0.783022
O O5 0.522305 0.728229 0.393299
O O6 0.518865 0.743644 0.610224
O O7 0.699758 0.917274 0.275798
O O8 0.513878 0.925536 0.505996
O O9 0.595802 0.020018 0.451600
O O10 0.500000 0.937493 0.750000
O O11 0.750000 0.250000 0.500000
O O12 0.615604 0.208900 0.573478
O O13 0.685407 0.317973 0.461995
O O14 0.036458 0.631049 0.580006
O O15 0.886354 0.324928 0.964230
#
# Coordination Sequence:
#
# PCOD8131064 Si02
#       8
#     8   8   8   8   4   8   8   4
#     4  10  20  35  55  79 112 154 188 234 289 353
#     4  10  20  34  52  81 117 152 190 226 292 358
#     4  11  20  38  57  84 116 153 205 242 305 357
#     4  12  23  36  55  88 126 161 192 250 297 363
#     4  12  24  37  54  96 129 150 200 250 312 356
#     4  11  20  34  55  77 113 158 187 232 282 356
#     4  11  22  35  59  84 118 155 189 261 299 350
#     4  10  18  31  52  76 109 152 184 226 274 348
#
# _framework density 17.73244
#
# number of rings (size 3 to 8) (size 9 to 14) (size 15 to 20)
#    0.000    1.143    5.714    2.571    4.000    0.000 
#    0.000    0.000    0.000    0.857    0.000    5.000 
#    0.000    0.000    0.000    0.000    0.000    0.000 
#
# Total GULP energy -346883.688689 kJ/mol
# GULP energy per Si atom -12388.703167 kJ/mol
# Density = 1.769208 g / cm^3
# Si number density = 17.732440 Si / 1000 Ang^3
#
#
#
# Elastic Constant Matrix: (Units=GPa)
#
#
# Indices 1 2 3 4 5 6 
#
# 1 62.6230 37.3312 9.2825 0.0002 10.1998 -0.0002
# 2 37.3312 98.4244 30.3452 0.0001 2.3794 -0.0001
# 3 9.2825 30.3452 74.9405 0.0002 13.8600 -0.0003
# 4 0.0002 0.0001 0.0002 33.7980 -0.0002 5.5424
# 5 10.1998 2.3794 13.8600 -0.0002 26.1978 0.0002
# 6 -0.0002 -0.0001 -0.0003 5.5424 0.0002 23.6629
#
#
#
# Elastic Compliance Matrix: (Units=1/GPa)
#
#
# Indices 1 2 3 4 5 6 
#
# 1 0.022547 -0.009139 0.002636 0.000000 -0.009343 0.000000
# 2 -0.009139 0.015373 -0.006089 0.000000 0.005383 0.000000
# 3 0.002636 -0.006089 0.017259 0.000000 -0.009604 0.000000
# 4 0.000000 0.000000 0.000000 0.030769 0.000001 -0.007207
# 5 -0.009343 0.005383 -0.009604 0.000001 0.046401 -0.000001
# 6 0.000000 0.000000 0.000000 -0.007207 -0.000001 0.043948
#
#
# Mechanical properties :
#
#
# Convention : Reuss Voigt Hill
#
# Bulk Modulus (GPa) = 33.33728 43.32285 38.33007
# Shear Modulus (GPa) = 23.64282 27.33368 25.48825
#
# Velocity S-wave (km/s) = 3.65541 3.93039 3.79539
# Velocity P-wave (km/s) = 6.05450 6.71429 6.39292
#
# Compressibility (1/GPa) = 0.02999645
#
# Stress axis : x y z
#
# Youngs Moduli (GPa) = 44.35089 65.04771 57.94029
#
# Poissons Ratio (x) = 0.59445 -0.15271
# Poissons Ratio (y) = 0.40531 0.35278
# Poissons Ratio (z) = -0.11689 0.39605
#
# Static dielectric constant tensor:
#      x y z
#    x 3.773460 0.000000 0.157900 
#    y 0.000000 3.312180 0.000000 
#    z 0.157900 0.000000 3.207930 
# 
# 
# High freq. dielectric constant tensor:
#      x y z
#    x 1.694600 0.000000 0.026870 
#    y 0.000000 1.668060 0.000000 
#    z 0.026870 0.000000 1.676020 
# 
# From -- ./inp_files/124154.got.cif
#   From: 2010.06.25/outbox.cif.g09.slc.cpg/sg15_63_cif.got.tgz:124154.got - 2010.06.28 07:06:18.
