data_PCOD8131902
_publ_section_title
;
Structure prediction by ZEFSAII (Michael W. Deem and Ramdas Pophale) SiO2 
 PCOD8131902
Probable space group: C 2/C
;
_chemical_formula_sum "Si O2"
_cell_formula_units_Z 52
_cell_length_a 27.284648
_cell_length_b 24.459388
_cell_length_c 9.745908
_cell_angle_alpha 90.000000
_cell_angle_beta 27.795772
_cell_angle_gamma 90.000000
_cell_volume 3032.994071
_symmetry_space_group_name_H-M "C 2/C"
_symmetry_group_IT_number 15
_symmetry_cell_setting 'monoclinic'
loop_
_space_group_symop_operation_xyz
x,y,z
-x,y,1/2-z
-x,-y,-z
x,-y,1/2+z
1/2+x,1/2+y,z
1/2-x,1/2+y,1/2-z
1/2-x,1/2-y,-z
1/2+x,1/2-y,1/2+z
loop_
_atom_site_type_symbol
_atom_site_label
_atom_site_fract_x
_atom_site_fract_y
_atom_site_fract_z
Si Si1 0.873936 0.562710 0.074027
Si Si2 0.099962 0.753138 0.281250
Si Si3 0.368338 0.263602 0.830741
Si Si4 0.396940 0.973189 0.808485
Si Si5 0.693991 0.185049 0.285366
Si Si6 0.345594 0.199563 0.628221
Si Si7 0.500000 0.888387 0.750000
O O1 0.834538 0.545309 0.325432
O O2 0.819231 0.620003 0.175706
O O3 0.835126 0.516116 0.060829
O O4 0.000000 0.568388 0.750000
O O5 0.116161 0.714014 0.371095
O O6 0.985901 0.782230 0.579623
O O7 0.186339 0.800846 0.054993
O O8 0.099430 0.712849 0.152363
O O9 0.361501 0.251977 0.685855
O O10 0.333141 0.208787 0.998498
O O11 0.280578 0.310521 0.081674
O O12 0.437377 0.921386 0.791591
O O13 0.500000 0.000000 0.500000
O O14 0.406120 0.148481 0.546514
#
# Coordination Sequence:
#
# PCOD8131902 Si02
#       7
#     8   8   8   8   8   8   4
#     4  10  19  32  45  70  98 127 158 207 246 300
#     4  10  18  35  46  72 106 132 165 205 228 305
#     4  10  19  33  46  75 101 134 165 201 226 307
#     4  10  20  31  46  67  99 120 161 205 252 288
#     4  10  21  29  52  73  98 139 167 191 255 286
#     4  10  21  29  51  71 100 136 166 190 255 282
#     4  12  18  32  50  70 102 132 154 210 246 296
#
# _framework density 17.144774000000002
#
# number of rings (size 3 to 8) (size 9 to 14) (size 15 to 20)
#    0.000    1.846    3.846    2.308    4.308    0.000 
#    0.000    0.000    0.000    0.000    0.000    1.077 
#    4.615    0.000    0.000    0.000    0.000    0.000 
#
# Total GULP energy -322130.511729 kJ/mol
# GULP energy per Si atom -12389.635067 kJ/mol
# Density = 1.710575 g / cm^3
# Si number density = 17.144774 Si / 1000 Ang^3
#
#
#
# Elastic Constant Matrix: (Units=GPa)
#
#
# Indices 1 2 3 4 5 6 
#
# 1 75.6657 28.3681 35.0676 0.0000 5.0474 0.0000
# 2 28.3681 88.0873 31.5834 0.0000 -4.6254 0.0000
# 3 35.0676 31.5834 79.7233 0.0000 -18.9551 0.0000
# 4 0.0000 0.0000 0.0000 19.8931 0.0000 -2.8913
# 5 5.0474 -4.6254 -18.9551 0.0000 37.8713 0.0000
# 6 0.0000 0.0000 0.0000 -2.8913 0.0000 21.7909
#
#
#
# Elastic Compliance Matrix: (Units=1/GPa)
#
#
# Indices 1 2 3 4 5 6 
#
# 1 0.019042 -0.003367 -0.008789 0.000000 -0.007348 0.000000
# 2 -0.003367 0.013871 -0.003978 0.000000 0.000152 0.000000
# 3 -0.008789 -0.003978 0.020600 0.000000 0.010996 0.000000
# 4 0.000000 0.000000 0.000000 0.051257 0.000000 0.006801
# 5 -0.007348 0.000152 0.010996 0.000000 0.032907 0.000000
# 6 0.000000 0.000000 0.000000 0.006801 0.000000 0.046793
#
#
# Mechanical properties :
#
#
# Convention : Reuss Voigt Hill
#
# Bulk Modulus (GPa) = 47.07119 48.16828 47.61974
# Shear Modulus (GPa) = 22.33944 25.80821 24.07382
#
# Velocity S-wave (km/s) = 3.61361 3.88404 3.75126
# Velocity P-wave (km/s) = 6.70266 6.94769 6.82627
#
# Compressibility (1/GPa) = 0.02124442
#
# Stress axis : x y z
#
# Youngs Moduli (GPa) = 52.51589 72.09305 48.54409
#
# Poissons Ratio (x) = 0.24273 0.42666
# Poissons Ratio (y) = 0.17681 0.19311
# Poissons Ratio (z) = 0.46157 0.28679
#
# Static dielectric constant tensor:
#      x y z
#    x 3.657280 0.000000 0.264130 
#    y 0.000000 3.168860 0.000000 
#    z 0.264130 0.000000 3.350770 
# 
# 
# High freq. dielectric constant tensor:
#      x y z
#    x 1.672430 0.000000 0.023490 
#    y 0.000000 1.629620 0.000000 
#    z 0.023490 0.000000 1.648360 
# 
# From -- ./inp_files/43246.got.cif
#   From: 2010.06.25/outbox.cif.g09.slc.cpg/sg15_22_cif.got.tgz:43246.got - 2010.06.28 07:06:18.
