data_PCOD8131767
_publ_section_title
;
Structure prediction by ZEFSAII (Michael W. Deem and Ramdas Pophale) SiO2 
 PCOD8131767
Probable space group: C 2/C
;
_chemical_formula_sum "Si O2"
_cell_formula_units_Z 52
_cell_length_a 13.834400
_cell_length_b 14.875538
_cell_length_c 20.109635
_cell_angle_alpha 90.000000
_cell_angle_beta 40.639655
_cell_angle_gamma 90.000000
_cell_volume 2695.367476
_symmetry_space_group_name_H-M "C 2/C"
_symmetry_group_IT_number 15
_symmetry_cell_setting 'monoclinic'
loop_
_space_group_symop_operation_xyz
x,y,z
-x,y,1/2-z
-x,-y,-z
x,-y,1/2+z
1/2+x,1/2+y,z
1/2-x,1/2+y,1/2-z
1/2-x,1/2-y,-z
1/2+x,1/2-y,1/2+z
loop_
_atom_site_type_symbol
_atom_site_label
_atom_site_fract_x
_atom_site_fract_y
_atom_site_fract_z
Si Si1 0.424184 0.189614 0.979125
Si Si2 0.997073 0.608584 0.141797
Si Si3 0.318012 0.182302 0.892867
Si Si4 0.697614 0.864265 0.408045
Si Si5 0.000000 0.156006 0.250000
Si Si6 0.000000 0.243027 0.750000
Si Si7 0.236167 0.438226 0.835729
Si Si8 0.500000 0.035883 0.750000
O O1 0.387349 0.148381 0.926060
O O2 0.597202 0.196137 0.909817
O O3 0.356299 0.291854 0.019852
O O4 0.359996 0.115447 0.061349
O O5 0.984180 0.698270 0.191829
O O6 0.833873 0.585651 0.198964
O O7 0.037412 0.524051 0.166979
O O8 0.121187 0.621221 0.020031
O O9 0.388257 0.281383 0.848303
O O10 0.359742 0.106337 0.816314
O O11 0.854827 0.817106 0.336076
O O12 0.724919 0.957365 0.356745
O O13 0.092060 0.092774 0.252639
#
# Coordination Sequence:
#
# PCOD8131767 Si02
#       8
#     8   8   8   8   4   4   8   4
#     4   9  18  32  55  82 113 146 185 242 293 335
#     4  10  22  39  58  81 119 155 192 237 289 349
#     4   9  17  31  53  87 110 143 184 237 292 341
#     4  11  21  38  60  83 112 155 200 234 285 349
#     4   9  19  29  51  82 118 128 185 245 275 333
#     4  11  25  39  61  86 116 160 197 241 293 343
#     4  10  19  35  55  83 108 150 189 235 287 339
#     4  10  18  34  58  84 116 158 190 222 290 348
#
# _framework density 19.292361
#
# number of rings (size 3 to 8) (size 9 to 14) (size 15 to 20)
#    0.000    2.154    0.000    4.615    2.154    0.000 
#    5.538    0.000    0.000    1.846    0.000    0.000 
#    0.000    0.000    0.000    0.000    0.000    0.000 
#
# Total GULP energy -322105.429024 kJ/mol
# GULP energy per Si atom -12388.670347 kJ/mol
# Density = 1.924845 g / cm^3
# Si number density = 19.292361 Si / 1000 Ang^3
#
#
#
# Elastic Constant Matrix: (Units=GPa)
#
#
# Indices 1 2 3 4 5 6 
#
# 1 125.3312 67.0475 45.8958 -0.0001 -14.6071 0.0000
# 2 67.0475 104.1408 45.4379 -0.0001 -5.4109 0.0000
# 3 45.8958 45.4379 61.2027 -0.0004 -7.9595 0.0002
# 4 -0.0001 -0.0001 -0.0004 10.4239 0.0002 0.1585
# 5 -14.6071 -5.4109 -7.9595 0.0002 31.7520 -0.0001
# 6 0.0000 0.0000 0.0002 0.1585 -0.0001 23.5926
#
#
#
# Elastic Compliance Matrix: (Units=1/GPa)
#
#
# Indices 1 2 3 4 5 6 
#
# 1 0.013716 -0.006452 -0.004980 0.000000 0.003962 0.000000
# 2 -0.006452 0.017239 -0.008233 0.000000 -0.002094 0.000000
# 3 -0.004980 -0.008233 0.026572 0.000001 0.002967 0.000000
# 4 0.000000 0.000000 0.000001 0.095943 0.000000 -0.000645
# 5 0.003962 -0.002094 0.002967 0.000000 0.033704 0.000000
# 6 0.000000 0.000000 0.000000 -0.000645 0.000000 0.042390
#
#
# Mechanical properties :
#
#
# Convention : Reuss Voigt Hill
#
# Bulk Modulus (GPa) = 54.95369 67.49299 61.22334
# Shear Modulus (GPa) = 18.18441 21.97328 20.07884
#
# Velocity S-wave (km/s) = 3.07346 3.37851 3.22959
# Velocity P-wave (km/s) = 6.41416 7.09080 6.76095
#
# Compressibility (1/GPa) = 0.01819714
#
# Stress axis : x y z
#
# Youngs Moduli (GPa) = 72.90878 58.00662 37.63325
#
# Poissons Ratio (x) = 0.37423 0.18743
# Poissons Ratio (y) = 0.47037 0.30984
# Poissons Ratio (z) = 0.36312 0.47758
#
# Static dielectric constant tensor:
#      x y z
#    x 4.209880 0.000000 -0.227650 
#    y 0.000000 3.540840 0.000000 
#    z -0.227650 0.000000 3.555370 
# 
# 
# High freq. dielectric constant tensor:
#      x y z
#    x 1.747610 0.000000 0.001370 
#    y 0.000000 1.752620 0.000000 
#    z 0.001370 0.000000 1.743050 
# 
# From -- ./inp_files/238679.got.cif
#   From: 2010.06.25/outbox.cif.g09.slc.cpg/sg15_120_cif.got.tgz:238679.got - 2010.06.28 07:06:18.
