data_PCOD8131930
_publ_section_title
;
Structure prediction by ZEFSAII (Michael W. Deem and Ramdas Pophale) SiO2 
 PCOD8131930
Probable space group: C 2/C
;
_chemical_formula_sum "Si O2"
_cell_formula_units_Z 60
_cell_length_a 29.151090
_cell_length_b 8.469569
_cell_length_c 23.831377
_cell_angle_alpha 90.000000
_cell_angle_beta 148.418999
_cell_angle_gamma 90.000000
_cell_volume 3081.418457
_symmetry_space_group_name_H-M "C 2/C"
_symmetry_group_IT_number 15
_symmetry_cell_setting 'monoclinic'
loop_
_space_group_symop_operation_xyz
x,y,z
-x,y,1/2-z
-x,-y,-z
x,-y,1/2+z
1/2+x,1/2+y,z
1/2-x,1/2+y,1/2-z
1/2-x,1/2-y,-z
1/2+x,1/2-y,1/2+z
loop_
_atom_site_type_symbol
_atom_site_label
_atom_site_fract_x
_atom_site_fract_y
_atom_site_fract_z
Si Si1 0.102138 0.898503 0.160460
Si Si2 0.961602 0.296257 0.807418
Si Si3 0.262809 0.064078 0.896715
Si Si4 0.355962 0.624234 0.502492
Si Si5 0.556194 0.887876 0.407591
Si Si6 0.434913 0.386121 0.502266
Si Si7 0.500000 0.319054 0.750000
Si Si8 0.360914 0.563348 0.632599
O O1 0.082605 0.745822 0.178894
O O2 0.192366 0.980652 0.275218
O O3 0.111241 0.848943 0.105229
O O4 0.024231 0.021273 0.086544
O O5 0.900058 0.234424 0.692395
O O6 0.978234 0.483423 0.821789
O O7 0.052242 0.208291 0.894220
O O8 0.283740 0.249432 0.908215
O O9 0.222785 0.027736 0.916178
O O10 0.349377 0.961413 0.982099
O O11 0.364521 0.481921 0.466916
O O12 0.328265 0.559866 0.534683
O O13 0.537162 0.777729 0.440749
O O14 0.556788 0.787216 0.351218
O O15 0.434901 0.428716 0.718895
#
# Coordination Sequence:
#
# PCOD8131930 Si02
#       8
#     8   8   8   8   8   8   4   8
#     4   9  20  41  63  83 109 162 200 245 280 368
#     4   9  19  34  59  81 112 149 199 227 288 345
#     4  10  23  35  55  87 120 147 203 239 296 340
#     4  10  18  35  55  82 107 157 189 236 281 358
#     4  11  23  36  55  93 123 151 189 257 296 347
#     4  10  20  40  64  82 116 154 204 236 304 347
#     4  12  22  36  62  80 122 164 194 240 304 346
#     4  11  19  39  59  79 115 162 197 235 279 371
#
# _framework density 19.471551000000002
#
# number of rings (size 3 to 8) (size 9 to 14) (size 15 to 20)
#    0.000    1.867    2.667    2.000    3.733    2.133 
#    0.000    2.667    0.000    0.000    0.000    0.000 
#    0.000    0.000    0.000    0.000    0.000    0.000 
#
# Total GULP energy -371954.858538 kJ/mol
# GULP energy per Si atom -12398.495285 kJ/mol
# Density = 1.942723 g / cm^3
# Si number density = 19.471551 Si / 1000 Ang^3
#
#
#
# Elastic Constant Matrix: (Units=GPa)
#
#
# Indices 1 2 3 4 5 6 
#
# 1 94.6656 38.0949 36.6057 0.0000 -26.7740 0.0000
# 2 38.0949 100.6703 23.9847 -0.0002 -7.6873 -0.0001
# 3 36.6057 23.9847 85.6819 0.0000 -17.0563 0.0000
# 4 0.0000 -0.0002 0.0000 21.7970 0.0000 -3.5990
# 5 -26.7740 -7.6873 -17.0563 0.0000 35.0839 0.0000
# 6 0.0000 -0.0001 0.0000 -3.5990 0.0000 14.9967
#
#
#
# Elastic Compliance Matrix: (Units=1/GPa)
#
#
# Indices 1 2 3 4 5 6 
#
# 1 0.016724 -0.004651 -0.003881 0.000000 0.009857 0.000000
# 2 -0.004651 0.011967 -0.001713 0.000000 -0.001760 0.000000
# 3 -0.003881 -0.001713 0.014553 0.000000 0.003738 0.000000
# 4 0.000000 0.000000 0.000000 0.047771 0.000000 0.011464
# 5 0.009857 -0.001760 0.003738 0.000000 0.037457 0.000000
# 6 0.000000 0.000000 0.000000 0.011464 0.000000 0.069433
#
#
# Mechanical properties :
#
#
# Convention : Reuss Voigt Hill
#
# Bulk Modulus (GPa) = 43.94960 53.15428 48.55194
# Shear Modulus (GPa) = 22.12604 26.53102 24.32853
#
# Velocity S-wave (km/s) = 3.37460 3.69528 3.53858
# Velocity P-wave (km/s) = 6.14850 6.75015 6.45634
#
# Compressibility (1/GPa) = 0.02275334
#
# Stress axis : x y z
#
# Youngs Moduli (GPa) = 59.79605 83.56143 68.71585
#
# Poissons Ratio (x) = 0.38866 0.26666
# Poissons Ratio (y) = 0.27812 0.11773
# Poissons Ratio (z) = 0.23205 0.14316
#
# Static dielectric constant tensor:
#      x y z
#    x 3.650930 0.000000 -0.046070 
#    y 0.000000 3.615860 0.000000 
#    z -0.046070 0.000000 3.567470 
# 
# 
# High freq. dielectric constant tensor:
#      x y z
#    x 1.756520 0.000000 -0.004070 
#    y 0.000000 1.745310 0.000000 
#    z -0.004070 0.000000 1.754860 
# 
# From -- ./inp_files/284318.got.cif
#   From: 2010.06.25/outbox.cif.g09.slc.cpg/sg15_143_cif.got.tgz:284318.got - 2010.06.28 07:06:18.
