data_PCOD8131532
_publ_section_title
;
Structure prediction by ZEFSAII (Michael W. Deem and Ramdas Pophale) SiO2 
 PCOD8131532
Probable space group: C 2/C
;
_chemical_formula_sum "Si O2"
_cell_formula_units_Z 56
_cell_length_a 10.551269
_cell_length_b 15.156705
_cell_length_c 26.018128
_cell_angle_alpha 90.000000
_cell_angle_beta 43.475944
_cell_angle_gamma 90.000000
_cell_volume 2862.895621
_symmetry_space_group_name_H-M "C 2/C"
_symmetry_group_IT_number 15
_symmetry_cell_setting 'monoclinic'
loop_
_space_group_symop_operation_xyz
x,y,z
-x,y,1/2-z
-x,-y,-z
x,-y,1/2+z
1/2+x,1/2+y,z
1/2-x,1/2+y,1/2-z
1/2-x,1/2-y,-z
1/2+x,1/2-y,1/2+z
loop_
_atom_site_type_symbol
_atom_site_label
_atom_site_fract_x
_atom_site_fract_y
_atom_site_fract_z
Si Si1 0.178613 0.935954 0.045644
Si Si2 0.500000 0.615793 0.750000
Si Si3 0.500000 0.777470 0.250000
Si Si4 0.771333 0.763698 0.911776
Si Si5 0.651996 0.024648 0.898386
Si Si6 0.502706 0.836231 0.919152
Si Si7 0.377289 0.319491 0.181443
Si Si8 0.220558 0.611384 0.517421
O O1 0.319440 0.974657 0.048102
O O2 0.985812 0.900198 0.122455
O O3 0.283770 0.854839 0.986672
O O4 0.159898 0.020622 0.013434
O O5 0.344346 0.553853 0.818363
O O6 0.592961 0.676879 0.766316
O O7 0.585025 0.720200 0.177818
O O8 0.665594 0.834848 0.226357
O O9 0.566568 0.781531 0.950566
O O10 0.771676 0.662434 0.930665
O O11 0.817706 0.829278 0.944734
O O12 0.494232 0.094195 0.930268
O O13 0.611775 0.928923 0.886359
O O14 0.548873 0.777599 0.855631
#
# Coordination Sequence:
#
# PCOD8131532 Si02
#       8
#     8   4   4   8   8   8   8   8
#     4  10  18  35  57  87 111 144 199 248 295 333
#     4  10  22  37  58  91 116 160 192 256 295 350
#     4  10  22  39  54  85 120 162 192 236 297 368
#     4  10  19  32  57  85 116 149 196 237 294 345
#     4  10  18  33  57  83 121 144 202 244 296 335
#     4  10  18  35  57  86 110 150 188 252 290 352
#     4  10  22  37  59  84 121 155 197 240 302 356
#     4  10  18  33  57  89 112 152 194 253 279 351
#
# _framework density 19.560614999999999
#
# number of rings (size 3 to 8) (size 9 to 14) (size 15 to 20)
#    0.000    2.000    2.857    2.143    0.000    2.286 
#    0.000    2.857    0.000   12.857    0.000    0.000 
#    0.000    0.000    0.000    0.000    0.000    0.000 
#
# Total GULP energy -347050.998433 kJ/mol
# GULP energy per Si atom -12394.678515 kJ/mol
# Density = 1.951609 g / cm^3
# Si number density = 19.560615 Si / 1000 Ang^3
#
#
#
# Elastic Constant Matrix: (Units=GPa)
#
#
# Indices 1 2 3 4 5 6 
#
# 1 85.5531 35.1207 33.2737 0.0003 -4.8196 -0.0002
# 2 35.1207 99.9860 34.8428 0.0000 1.9260 0.0000
# 3 33.2737 34.8428 85.5096 0.0003 2.3619 -0.0002
# 4 0.0003 0.0000 0.0003 18.0794 -0.0004 3.7572
# 5 -4.8196 1.9260 2.3619 -0.0004 32.4885 0.0002
# 6 -0.0002 0.0000 -0.0002 3.7572 0.0002 32.2830
#
#
#
# Elastic Compliance Matrix: (Units=1/GPa)
#
#
# Indices 1 2 3 4 5 6 
#
# 1 0.015133 -0.003835 -0.004403 0.000000 0.002792 0.000000
# 2 -0.003835 0.012632 -0.003626 0.000000 -0.001054 0.000000
# 3 -0.004403 -0.003626 0.014927 0.000000 -0.001523 0.000000
# 4 0.000000 0.000000 0.000000 0.056682 0.000001 -0.006597
# 5 0.002792 -0.001054 -0.001523 0.000001 0.031368 0.000000
# 6 0.000000 0.000000 0.000000 -0.006597 0.000000 0.031744
#
#
# Mechanical properties :
#
#
# Convention : Reuss Voigt Hill
#
# Bulk Modulus (GPa) = 52.72936 53.05811 52.89373
# Shear Modulus (GPa) = 25.96925 27.75763 26.86344
#
# Velocity S-wave (km/s) = 3.64762 3.77112 3.70989
# Velocity P-wave (km/s) = 6.68996 6.79306 6.74171
#
# Compressibility (1/GPa) = 0.01896477
#
# Stress axis : x y z
#
# Youngs Moduli (GPa) = 66.08232 79.16225 66.99077
#
# Poissons Ratio (x) = 0.30358 0.29496
# Poissons Ratio (y) = 0.25342 0.24290
# Poissons Ratio (z) = 0.29096 0.28704
#
# Static dielectric constant tensor:
#      x y z
#    x 3.545740 0.000000 0.047230 
#    y 0.000000 3.556510 0.000000 
#    z 0.047230 0.000000 3.669680 
# 
# 
# High freq. dielectric constant tensor:
#      x y z
#    x 1.743790 0.000000 -0.003280 
#    y 0.000000 1.755980 0.000000 
#    z -0.003280 0.000000 1.766480 
# 
# From -- ./inp_files/292871.got.cif
#   From: 2010.06.25/outbox.cif.g09.slc.cpg/sg15_147_cif.got.tgz:292871.got - 2010.06.28 07:06:18.
