data_PCOD8131961
_publ_section_title
;
Structure prediction by ZEFSAII (Michael W. Deem and Ramdas Pophale) SiO2 
 PCOD8131961
Probable space group: C 2/C
;
_chemical_formula_sum "Si O2"
_cell_formula_units_Z 60
_cell_length_a 16.346621
_cell_length_b 8.276055
_cell_length_c 22.938177
_cell_angle_alpha 90.000000
_cell_angle_beta 99.242634
_cell_angle_gamma 90.000000
_cell_volume 3062.914717
_symmetry_space_group_name_H-M "C 2/C"
_symmetry_group_IT_number 15
_symmetry_cell_setting 'monoclinic'
loop_
_space_group_symop_operation_xyz
x,y,z
-x,y,1/2-z
-x,-y,-z
x,-y,1/2+z
1/2+x,1/2+y,z
1/2-x,1/2+y,1/2-z
1/2-x,1/2-y,-z
1/2+x,1/2-y,1/2+z
loop_
_atom_site_type_symbol
_atom_site_label
_atom_site_fract_x
_atom_site_fract_y
_atom_site_fract_z
Si Si1 0.616695 0.517175 0.428461
Si Si2 0.051855 0.114297 0.636935
Si Si3 0.811012 0.693477 0.626439
Si Si4 0.331401 0.104337 0.334999
Si Si5 0.327725 0.509162 0.440125
Si Si6 0.000000 0.182424 0.750000
Si Si7 0.761481 0.682928 0.889772
Si Si8 0.851558 0.393530 0.702637
O O1 0.536126 0.413797 0.403355
O O2 0.621137 0.691999 0.397435
O O3 0.617962 0.543175 0.498207
O O4 0.696385 0.417043 0.419476
O O5 0.085407 0.299328 0.636045
O O6 0.045229 0.072645 0.705827
O O7 0.119597 0.003030 0.613666
O O8 0.752299 0.795586 0.662467
O O9 0.753747 0.604120 0.571695
O O10 0.861772 0.561752 0.669401
O O11 0.331000 0.066531 0.266744
O O12 0.329812 0.937070 0.370327
O O13 0.304384 0.697680 0.441021
O O14 0.063528 0.293784 0.793273
O O15 0.721273 0.786160 0.833074
#
# Coordination Sequence:
#
# PCOD8131961 Si02
#       8
#     8   8   8   8   8   4   8   8
#     4  11  20  38  59  83 118 151 192 233 283 337
#     4  10  21  39  57  81 113 154 184 229 294 332
#     4   9  20  35  57  86 108 150 196 231 283 338
#     4   9  19  35  58  80 116 144 188 234 284 340
#     4  10  21  38  59  84 115 150 193 240 275 339
#     4  10  20  38  58  80 118 146 176 242 286 340
#     4  10  20  36  58  87 108 147 197 228 287 337
#     4  10  18  35  57  80 115 146 186 233 287 337
#
# _framework density 19.589185000000001
#
# number of rings (size 3 to 8) (size 9 to 14) (size 15 to 20)
#    0.000    2.133    1.333    2.000    0.000    1.067 
#    7.200    0.667    0.000    0.000    0.000    0.000 
#    0.000    0.000    0.000    0.000    0.000    0.000 
#
# Total GULP energy -371931.066686 kJ/mol
# GULP energy per Si atom -12397.702223 kJ/mol
# Density = 1.954460 g / cm^3
# Si number density = 19.589185 Si / 1000 Ang^3
#
#
#
# Elastic Constant Matrix: (Units=GPa)
#
#
# Indices 1 2 3 4 5 6 
#
# 1 71.1280 30.0601 34.4273 0.0000 0.7141 0.0000
# 2 30.0601 101.2370 44.4611 0.0000 -0.5238 0.0000
# 3 34.4273 44.4611 96.3066 0.0000 4.9273 0.0000
# 4 0.0000 0.0000 0.0000 22.7129 0.0000 -0.9310
# 5 0.7141 -0.5238 4.9273 0.0000 28.6434 0.0000
# 6 0.0000 0.0000 0.0000 -0.9310 0.0000 19.3878
#
#
#
# Elastic Compliance Matrix: (Units=1/GPa)
#
#
# Indices 1 2 3 4 5 6 
#
# 1 0.017755 -0.003104 -0.004932 0.000000 0.000349 0.000000
# 2 -0.003104 0.012975 -0.004940 0.000000 0.001164 0.000000
# 3 -0.004932 -0.004940 0.014553 0.000000 -0.002471 0.000000
# 4 0.000000 0.000000 0.000000 0.044115 0.000000 0.002118
# 5 0.000349 0.001164 -0.002471 0.000000 0.035350 0.000000
# 6 0.000000 0.000000 0.000000 0.002118 0.000000 0.051681
#
#
# Mechanical properties :
#
#
# Convention : Reuss Voigt Hill
#
# Bulk Modulus (GPa) = 51.72897 54.06319 52.89608
# Shear Modulus (GPa) = 23.94367 24.79703 24.37035
#
# Velocity S-wave (km/s) = 3.49992 3.56174 3.53097
# Velocity P-wave (km/s) = 6.54193 6.67631 6.60946
#
# Compressibility (1/GPa) = 0.01933153
#
# Stress axis : x y z
#
# Youngs Moduli (GPa) = 56.32371 77.07065 68.71212
#
# Poissons Ratio (x) = 0.23924 0.33886
# Poissons Ratio (y) = 0.17484 0.33944
# Poissons Ratio (z) = 0.27777 0.38073
#
# Static dielectric constant tensor:
#      x y z
#    x 3.507350 0.000000 -0.117880 
#    y 0.000000 3.658880 0.000000 
#    z -0.117880 0.000000 3.577540 
# 
# 
# High freq. dielectric constant tensor:
#      x y z
#    x 1.752680 0.000000 -0.010710 
#    y 0.000000 1.758120 0.000000 
#    z -0.010710 0.000000 1.764510 
# 
# From -- ./inp_files/247506.got.cif
#   From: 2010.06.25/outbox.cif.g09.slc.cpg/sg15_124_cif.got.tgz:247506.got - 2010.06.28 07:06:18.
