data_PCOD8131294
_publ_section_title
;
Structure prediction by ZEFSAII (Michael W. Deem and Ramdas Pophale) SiO2 
 PCOD8131294
Probable space group: C 2/C
;
_chemical_formula_sum "Si O2"
_cell_formula_units_Z 60
_cell_length_a 19.363565
_cell_length_b 13.319587
_cell_length_c 24.458128
_cell_angle_alpha 90.000000
_cell_angle_beta 149.627202
_cell_angle_gamma 90.000000
_cell_volume 3189.533412
_symmetry_space_group_name_H-M "C 2/C"
_symmetry_group_IT_number 15
_symmetry_cell_setting 'monoclinic'
loop_
_space_group_symop_operation_xyz
x,y,z
-x,y,1/2-z
-x,-y,-z
x,-y,1/2+z
1/2+x,1/2+y,z
1/2-x,1/2+y,1/2-z
1/2-x,1/2-y,-z
1/2+x,1/2-y,1/2+z
loop_
_atom_site_type_symbol
_atom_site_label
_atom_site_fract_x
_atom_site_fract_y
_atom_site_fract_z
Si Si1 0.708841 0.915670 0.070895
Si Si2 0.217729 0.743366 0.670696
Si Si3 0.933504 0.828887 0.495864
Si Si4 0.000000 0.025299 0.750000
Si Si5 0.678205 0.873461 0.611421
Si Si6 0.425837 0.100740 0.344613
Si Si7 0.780884 0.925915 0.292795
Si Si8 0.449069 0.566257 0.330291
O O1 0.702349 0.821646 0.106361
O O2 0.861159 0.910127 0.149930
O O3 0.684554 0.022496 0.083391
O O4 0.588828 0.906368 0.942712
O O5 0.358416 0.807277 0.765588
O O6 0.215314 0.673739 0.722680
O O7 0.092532 0.821342 0.587856
O O8 0.864156 0.719714 0.455604
O O9 0.860179 0.898994 0.401970
O O10 0.928126 0.884308 0.551071
O O11 0.997339 0.959871 0.693128
O O12 0.570614 0.880108 0.587348
O O13 0.826607 0.852674 0.739645
O O14 0.343150 0.999245 0.275609
O O15 0.885367 0.970695 0.319031
#
# Coordination Sequence:
#
# PCOD8131294 Si02
#       8
#     8   8   8   4   8   8   8   8
#     4  11  21  38  57  77 114 157 196 229 272 342
#     4  12  19  32  57  87 121 143 187 238 296 347
#     4  12  20  32  59  93 119 142 178 251 309 333
#     4  10  22  42  62  72 114 172 202 216 260 362
#     4  10  18  32  55  84 112 142 184 236 290 343
#     4  11  20  32  53  87 116 143 185 243 296 334
#     4  11  20  34  55  88 121 145 181 247 303 335
#     4  10  21  37  55  83 114 154 196 226 285 341
#
# _framework density 18.811529
#
# number of rings (size 3 to 8) (size 9 to 14) (size 15 to 20)
#    0.000    1.067    9.333    1.600    0.000    0.000 
#    0.000    3.333    0.000    0.800    0.000    0.000 
#    0.000    0.000    0.000    0.000    0.000    0.000 
#
# Total GULP energy -371842.863743 kJ/mol
# GULP energy per Si atom -12394.762125 kJ/mol
# Density = 1.876871 g / cm^3
# Si number density = 18.811529 Si / 1000 Ang^3
#
#
#
# Elastic Constant Matrix: (Units=GPa)
#
#
# Indices 1 2 3 4 5 6 
#
# 1 64.3121 22.8474 43.7351 -0.0001 1.8882 0.0000
# 2 22.8474 85.2548 66.2655 -0.0003 0.9151 -0.0001
# 3 43.7351 66.2655 154.8921 -0.0002 10.7888 0.0000
# 4 -0.0001 -0.0003 -0.0002 44.8298 -0.0002 -1.0133
# 5 1.8882 0.9151 10.7888 -0.0002 27.5057 0.0000
# 6 0.0000 -0.0001 0.0000 -1.0133 0.0000 8.7084
#
#
#
# Elastic Compliance Matrix: (Units=1/GPa)
#
#
# Indices 1 2 3 4 5 6 
#
# 1 0.019368 -0.001366 -0.004930 0.000000 0.000649 0.000000
# 2 -0.001366 0.017829 -0.007410 0.000000 0.002407 0.000000
# 3 -0.004930 -0.007410 0.011286 0.000000 -0.003842 0.000000
# 4 0.000000 0.000000 0.000000 0.022365 0.000000 0.002602
# 5 0.000649 0.002407 -0.003842 0.000000 0.037738 0.000000
# 6 0.000000 0.000000 0.000000 0.002602 0.000000 0.115135
#
#
# Mechanical properties :
#
#
# Convention : Reuss Voigt Hill
#
# Bulk Modulus (GPa) = 47.45547 63.35057 55.40302
# Shear Modulus (GPa) = 19.36826 27.64951 23.50888
#
# Velocity S-wave (km/s) = 3.21221 3.83798 3.53895
# Velocity P-wave (km/s) = 6.24814 7.30682 6.79812
#
# Compressibility (1/GPa) = 0.02107239
#
# Stress axis : x y z
#
# Youngs Moduli (GPa) = 51.63255 56.08886 88.60907
#
# Poissons Ratio (x) = 0.07660 0.43681
# Poissons Ratio (y) = 0.07051 0.65655
# Poissons Ratio (z) = 0.25453 0.41559
#
# Static dielectric constant tensor:
#      x y z
#    x 3.130160 0.000000 0.150400 
#    y 0.000000 3.459310 0.000000 
#    z 0.150400 0.000000 3.886730 
# 
# 
# High freq. dielectric constant tensor:
#      x y z
#    x 1.667000 0.000000 0.004930 
#    y 0.000000 1.734760 0.000000 
#    z 0.004930 0.000000 1.757980 
# 
# From -- ./inp_files/280196.got.cif
#   From: 2010.06.25/outbox.cif.g09.slc.cpg/sg15_141_cif.got.tgz:280196.got - 2010.06.28 07:06:18.
