data_PCOD8131650
_publ_section_title
;
Structure prediction by ZEFSAII (Michael W. Deem and Ramdas Pophale) SiO2 
 PCOD8131650
Probable space group: C 2/C
;
_chemical_formula_sum "Si O2"
_cell_formula_units_Z 60
_cell_length_a 24.821991
_cell_length_b 11.574938
_cell_length_c 13.235980
_cell_angle_alpha 90.000000
_cell_angle_beta 122.248998
_cell_angle_gamma 90.000000
_cell_volume 3216.227783
_symmetry_space_group_name_H-M "C 2/C"
_symmetry_group_IT_number 15
_symmetry_cell_setting 'monoclinic'
loop_
_space_group_symop_operation_xyz
x,y,z
-x,y,1/2-z
-x,-y,-z
x,-y,1/2+z
1/2+x,1/2+y,z
1/2-x,1/2+y,1/2-z
1/2-x,1/2-y,-z
1/2+x,1/2-y,1/2+z
loop_
_atom_site_type_symbol
_atom_site_label
_atom_site_fract_x
_atom_site_fract_y
_atom_site_fract_z
Si Si1 0.000000 0.355842 0.750000
Si Si2 0.156014 0.359363 0.660055
Si Si3 0.597269 0.001958 0.947198
Si Si4 0.690765 0.049120 0.858024
Si Si5 0.786053 0.205516 0.215918
Si Si6 0.301201 0.484744 0.115756
Si Si7 0.624465 0.722183 0.813823
Si Si8 0.805280 0.678238 0.932482
O O1 0.972188 0.444974 0.638462
O O2 0.945249 0.269895 0.731762
O O3 0.096124 0.393139 0.526901
O O4 0.180075 0.464721 0.753615
O O5 0.210699 0.321433 0.635406
O O6 0.136039 0.251693 0.708379
O O7 0.631087 0.035302 0.874773
O O8 0.639923 0.908221 0.048648
O O9 0.694747 0.180747 0.825732
O O10 0.758878 0.020007 0.977109
O O11 0.804539 0.215667 0.352970
O O12 0.821363 0.095945 0.201452
O O13 0.367515 0.415978 0.157789
O O14 0.261751 0.388935 0.140393
O O15 0.678974 0.782304 0.937380
#
# Coordination Sequence:
#
# PCOD8131650 Si02
#       8
#     4   8   8   8   8   8   8   8
#     4  10  22  42  62  76 110 156 202 256 276 314
#     4  12  20  34  59  87 118 148 188 234 288 356
#     4  10  21  38  57  86 112 151 197 238 287 333
#     4  11  21  37  54  89 127 150 179 239 289 358
#     4  12  21  31  57  91 127 151 171 225 305 362
#     4  11  20  33  53  85 121 151 181 222 291 353
#     4  11  22  38  57  81 111 151 200 242 277 330
#     4  10  18  34  53  82 114 146 185 225 281 346
#
# _framework density 18.655394000000001
#
# number of rings (size 3 to 8) (size 9 to 14) (size 15 to 20)
#    0.000    1.067    9.333    1.600    0.000    0.533 
#    0.000    0.000    0.000    4.000    0.000    0.000 
#    0.000    0.000    0.000    0.000    0.000    0.000 
#
# Total GULP energy -371700.737874 kJ/mol
# GULP energy per Si atom -12390.024596 kJ/mol
# Density = 1.861293 g / cm^3
# Si number density = 18.655394 Si / 1000 Ang^3
#
#
#
# Elastic Constant Matrix: (Units=GPa)
#
#
# Indices 1 2 3 4 5 6 
#
# 1 45.8536 41.1924 34.9024 0.0000 6.6259 0.0000
# 2 41.1924 101.5815 33.6688 0.0000 -0.5908 0.0000
# 3 34.9024 33.6688 79.5873 0.0000 2.4358 0.0000
# 4 0.0000 0.0000 0.0000 28.1451 0.0000 -3.4206
# 5 6.6259 -0.5908 2.4358 0.0000 21.8459 0.0000
# 6 0.0000 0.0000 0.0000 -3.4206 0.0000 33.9574
#
#
#
# Elastic Compliance Matrix: (Units=1/GPa)
#
#
# Indices 1 2 3 4 5 6 
#
# 1 0.047919 -0.014747 -0.014368 0.000000 -0.013331 0.000000
# 2 -0.014747 0.016004 -0.000455 0.000000 0.004956 0.000000
# 3 -0.014368 -0.000455 0.018990 0.000000 0.002228 0.000000
# 4 0.000000 0.000000 0.000000 0.035971 0.000000 0.003623
# 5 -0.013331 0.004956 0.002228 0.000000 0.049704 0.000000
# 6 0.000000 0.000000 0.000000 0.003623 0.000000 0.029814
#
#
# Mechanical properties :
#
#
# Convention : Reuss Voigt Hill
#
# Bulk Modulus (GPa) = 42.06371 49.61661 45.84016
# Shear Modulus (GPa) = 18.83478 24.60693 21.72086
#
# Velocity S-wave (km/s) = 3.18089 3.63578 3.41592
# Velocity P-wave (km/s) = 6.00728 6.65427 6.33904
#
# Compressibility (1/GPa) = 0.02377346
#
# Stress axis : x y z
#
# Youngs Moduli (GPa) = 20.86834 62.48419 52.65923
#
# Poissons Ratio (x) = 0.92147 0.75661
# Poissons Ratio (y) = 0.30775 0.02395
# Poissons Ratio (z) = 0.29984 0.02842
#
# Static dielectric constant tensor:
#      x y z
#    x 3.188550 0.000000 -0.104230 
#    y 0.000000 3.712360 0.000000 
#    z -0.104230 0.000000 3.511510 
# 
# 
# High freq. dielectric constant tensor:
#      x y z
#    x 1.689150 0.000000 -0.022460 
#    y 0.000000 1.725600 0.000000 
#    z -0.022460 0.000000 1.719170 
# 
# From -- ./inp_files/177370.got.cif
#   From: 2010.06.25/outbox.cif.g09.slc.cpg/sg15_89_cif.got.tgz:177370.got - 2010.06.28 07:06:18.
