data_PCOD8131227
_publ_section_title
;
Structure prediction by ZEFSAII (Michael W. Deem and Ramdas Pophale) SiO2 
 PCOD8131227
Probable space group: C 2/C
;
_chemical_formula_sum "Si O2"
_cell_formula_units_Z 56
_cell_length_a 13.335241
_cell_length_b 13.842200
_cell_length_c 26.290047
_cell_angle_alpha 90.000000
_cell_angle_beta 40.655300
_cell_angle_gamma 90.000000
_cell_volume 3161.667993
_symmetry_space_group_name_H-M "C 2/C"
_symmetry_group_IT_number 15
_symmetry_cell_setting 'monoclinic'
loop_
_space_group_symop_operation_xyz
x,y,z
-x,y,1/2-z
-x,-y,-z
x,-y,1/2+z
1/2+x,1/2+y,z
1/2-x,1/2+y,1/2-z
1/2-x,1/2-y,-z
1/2+x,1/2-y,1/2+z
loop_
_atom_site_type_symbol
_atom_site_label
_atom_site_fract_x
_atom_site_fract_y
_atom_site_fract_z
Si Si1 0.721068 0.323867 0.071877
Si Si2 0.691069 0.035168 0.276432
Si Si3 0.155944 0.873150 0.989488
Si Si4 0.625223 0.740768 0.795087
Si Si5 0.324557 0.591937 0.642190
Si Si6 0.176409 0.910470 0.192073
Si Si7 0.899771 0.512523 0.334202
O O1 0.852760 0.242576 0.016035
O O2 0.558927 0.266503 0.138714
O O3 0.756673 0.389710 0.107067
O O4 0.720202 0.391826 0.022115
O O5 0.682348 0.149932 0.274023
O O6 0.812741 0.994936 0.188154
O O7 0.742912 0.003052 0.312803
O O8 0.521410 0.987818 0.331799
O O9 0.264905 0.918115 0.904945
O O10 0.985755 0.917824 0.050212
O O11 0.683959 0.693397 0.825075
O O12 0.697578 0.683953 0.719401
O O13 0.183264 0.583534 0.656450
O O14 0.000000 0.937418 0.250000
O O15 0.000000 0.563313 0.250000
#
# Coordination Sequence:
#
# PCOD8131227 Si02
#       7
#     8   8   8   8   8   8   8
#     4   9  18  30  54  79 106 136 174 221 269 304
#     4  10  19  34  55  80 104 138 180 216 260 318
#     4  10  18  32  52  81 111 132 174 227 267 308
#     4   9  17  33  55  79 107 137 179 219 255 314
#     4   9  20  32  51  84 107 136 173 223 267 306
#     4   9  19  33  53  80 107 136 180 220 260 316
#     4  10  20  32  54  79 103 137 178 216 266 317
#
# _framework density 17.71217
#
# number of rings (size 3 to 8) (size 9 to 14) (size 15 to 20)
#    0.000    2.571    1.429    1.286    4.000    0.000 
#    0.000    4.286    0.000    0.857    0.000    0.000 
#    0.000    0.000    0.000    0.000    0.000    0.000 
#
# Total GULP energy -347012.529450 kJ/mol
# GULP energy per Si atom -12393.304623 kJ/mol
# Density = 1.767186 g / cm^3
# Si number density = 17.712170 Si / 1000 Ang^3
#
#
#
# Elastic Constant Matrix: (Units=GPa)
#
#
# Indices 1 2 3 4 5 6 
#
# 1 107.4736 43.7887 27.3440 0.0000 3.4145 0.0000
# 2 43.7887 78.8748 21.6669 0.0000 -5.2153 0.0000
# 3 27.3440 21.6669 96.8150 -0.0001 -1.2663 -0.0001
# 4 0.0000 0.0000 -0.0001 21.1689 0.0000 0.9427
# 5 3.4145 -5.2153 -1.2663 0.0000 23.6224 0.0000
# 6 0.0000 0.0000 -0.0001 0.9427 0.0000 25.1842
#
#
#
# Elastic Compliance Matrix: (Units=1/GPa)
#
#
# Indices 1 2 3 4 5 6 
#
# 1 0.012676 -0.006678 -0.002130 0.000000 -0.003421 0.000000
# 2 -0.006678 0.017218 -0.001906 0.000000 0.004664 0.000000
# 3 -0.002130 -0.001906 0.011364 0.000000 0.000496 0.000000
# 4 0.000000 0.000000 0.000000 0.047318 0.000000 -0.001771
# 5 -0.003421 0.004664 0.000496 0.000000 0.043884 0.000000
# 6 0.000000 0.000000 0.000000 -0.001771 0.000000 0.039774
#
#
# Mechanical properties :
#
#
# Convention : Reuss Voigt Hill
#
# Bulk Modulus (GPa) = 50.43315 52.08473 51.25894
# Shear Modulus (GPa) = 24.96594 26.68602 25.82598
#
# Velocity S-wave (km/s) = 3.75845 3.88577 3.82264
# Velocity P-wave (km/s) = 6.88260 7.04289 6.96320
#
# Compressibility (1/GPa) = 0.01982823
#
# Stress axis : x y z
#
# Youngs Moduli (GPa) = 78.88690 58.07874 87.99921
#
# Poissons Ratio (x) = 0.38788 0.18747
# Poissons Ratio (y) = 0.52684 0.16773
# Poissons Ratio (z) = 0.16806 0.11070
#
# Static dielectric constant tensor:
#      x y z
#    x 3.453790 0.000000 0.109220 
#    y 0.000000 3.021070 0.000000 
#    z 0.109220 0.000000 3.389530 
# 
# 
# High freq. dielectric constant tensor:
#      x y z
#    x 1.678020 0.000000 0.011180 
#    y 0.000000 1.652440 0.000000 
#    z 0.011180 0.000000 1.686940 
# 
# From -- ./inp_files/295899.got.cif
#   From: 2010.06.25/outbox.cif.g09.slc.cpg/sg15_148_cif.got.tgz:295899.got - 2010.06.28 07:06:18.
