data_PCOD8131941
_publ_section_title
;
Structure prediction by ZEFSAII (Michael W. Deem and Ramdas Pophale) SiO2 
 PCOD8131941
Probable space group: C 2/C
;
_chemical_formula_sum "Si O2"
_cell_formula_units_Z 32
_cell_length_a 23.571510
_cell_length_b 6.561942
_cell_length_c 15.177731
_cell_angle_alpha 90.000000
_cell_angle_beta 145.283814
_cell_angle_gamma 90.000000
_cell_volume 1336.993624
_symmetry_space_group_name_H-M "C 2/C"
_symmetry_group_IT_number 15
_symmetry_cell_setting 'monoclinic'
loop_
_space_group_symop_operation_xyz
x,y,z
-x,y,1/2-z
-x,-y,-z
x,-y,1/2+z
1/2+x,1/2+y,z
1/2-x,1/2+y,1/2-z
1/2-x,1/2-y,-z
1/2+x,1/2-y,1/2+z
loop_
_atom_site_type_symbol
_atom_site_label
_atom_site_fract_x
_atom_site_fract_y
_atom_site_fract_z
Si Si1 0.187192 0.995255 0.276081
Si Si2 0.361759 0.272637 0.457071
Si Si3 0.246009 0.977753 0.033006
Si Si4 0.056262 0.623351 0.646260
O O1 0.296169 0.072567 0.387836
O O2 0.202565 0.889812 0.394336
O O3 0.109631 0.179865 0.173103
O O4 0.150331 0.827126 0.161399
O O5 0.329457 0.463703 0.479166
O O6 0.476935 0.206040 0.617728
O O7 0.360340 0.027290 0.205150
O O8 0.250000 0.750000 0.000000
O O9 0.000000 0.500000 0.500000
#
# Coordination Sequence:
#
# PCOD8131941 Si02
#       4
#     8   8   8   8
#     4  10  21  35  55  79 101 138 176 210 256 309
#     4  10  18  35  56  76 107 136 169 218 256 298
#     4   8  19  34  53  77 100 139 179 199 251 323
#     4  10  19  34  55  79 103 136 175 212 254 307
#
# _framework density 23.934294000000001
#
# number of rings (size 3 to 8) (size 9 to 14) (size 15 to 20)
#    0.000    3.000    0.000    3.750    0.000    9.000 
#    0.000    5.000    0.000    6.000    0.000    0.000 
#    0.000    0.000    0.000    0.000    0.000    0.000 
#
# Total GULP energy -198232.727379 kJ/mol
# GULP energy per Si atom -12389.545461 kJ/mol
# Density = 2.387982 g / cm^3
# Si number density = 23.934294 Si / 1000 Ang^3
#
#
#
# Elastic Constant Matrix: (Units=GPa)
#
#
# Indices 1 2 3 4 5 6 
#
# 1 146.4849 24.1619 84.0283 0.0000 7.9620 0.0000
# 2 24.1619 15.2457 39.2789 0.0000 -2.4791 0.0000
# 3 84.0283 39.2789 145.7002 0.0000 -14.3858 0.0000
# 4 0.0000 0.0000 0.0000 42.9220 0.0000 -17.0791
# 5 7.9620 -2.4791 -14.3858 0.0000 59.5601 0.0000
# 6 0.0000 0.0000 0.0000 -17.0791 0.0000 24.1313
#
#
#
# Elastic Compliance Matrix: (Units=1/GPa)
#
#
# Indices 1 2 3 4 5 6 
#
# 1 0.010729 -0.002594 -0.005778 0.000000 -0.002938 0.000000
# 2 -0.002594 0.216938 -0.057432 0.000000 -0.004495 0.000000
# 3 -0.005778 -0.057432 0.026142 0.000000 0.004696 0.000000
# 4 0.000000 0.000000 0.000000 0.032432 0.000000 0.022954
# 5 -0.002938 -0.004495 0.004696 0.000000 0.018130 0.000000
# 6 0.000000 0.000000 0.000000 0.022954 0.000000 0.057686
#
#
# Mechanical properties :
#
#
# Convention : Reuss Voigt Hill
#
# Bulk Modulus (GPa) = 8.18318 66.92991 37.55654
# Shear Modulus (GPa) = 9.35631 35.98678 22.67155
#
# Velocity S-wave (km/s) = 1.97931 3.88179 3.08107
# Velocity P-wave (km/s) = 2.94108 6.93655 5.32756
#
# Compressibility (1/GPa) = 0.12220182
#
# Stress axis : x y z
#
# Youngs Moduli (GPa) = 93.20717 4.60960 38.25190
#
# Poissons Ratio (x) = 0.01196 0.22103
# Poissons Ratio (y) = 0.24175 2.19688
# Poissons Ratio (z) = 0.53858 0.26474
#
# Static dielectric constant tensor:
#      x y z
#    x 5.142020 0.000000 -0.465570 
#    y 0.000000 4.136470 0.000000 
#    z -0.465570 0.000000 5.529360 
# 
# 
# High freq. dielectric constant tensor:
#      x y z
#    x 1.952720 0.000000 -0.005790 
#    y 0.000000 1.923510 0.000000 
#    z -0.005790 0.000000 1.962830 
# 
# From -- ./inp_files/109868.got.cif
#   From: 2010.06.25/outbox.cif.g09.slc.cpg/sg15_55_cif.got.tgz:109868.got - 2010.06.28 07:06:18.
