data_PCOD8131811
_publ_section_title
;
Structure prediction by ZEFSAII (Michael W. Deem and Ramdas Pophale) SiO2 
 PCOD8131811
Probable space group: C 2/C
;
_chemical_formula_sum "Si O2"
_cell_formula_units_Z 52
_cell_length_a 29.247230
_cell_length_b 10.877987
_cell_length_c 17.910072
_cell_angle_alpha 90.000000
_cell_angle_beta 151.562470
_cell_angle_gamma 90.000000
_cell_volume 2713.440288
_symmetry_space_group_name_H-M "C 2/C"
_symmetry_group_IT_number 15
_symmetry_cell_setting 'monoclinic'
loop_
_space_group_symop_operation_xyz
x,y,z
-x,y,1/2-z
-x,-y,-z
x,-y,1/2+z
1/2+x,1/2+y,z
1/2-x,1/2+y,1/2-z
1/2-x,1/2-y,-z
1/2+x,1/2-y,1/2+z
loop_
_atom_site_type_symbol
_atom_site_label
_atom_site_fract_x
_atom_site_fract_y
_atom_site_fract_z
Si Si1 0.073777 0.059701 0.265910
Si Si2 0.663080 0.895804 0.920119
Si Si3 0.641893 0.516227 0.564316
Si Si4 0.312510 0.423881 0.707872
Si Si5 0.707880 0.632165 0.025696
Si Si6 0.500000 0.051224 0.750000
Si Si7 0.646941 0.249854 0.992074
O O1 0.094506 0.101191 0.210284
O O2 0.101357 0.174052 0.358092
O O3 0.137621 0.942596 0.372256
O O4 0.966206 0.011355 0.122672
O O5 0.664528 0.768651 0.968272
O O6 0.560113 0.964301 0.779420
O O7 0.688416 0.871923 0.868429
O O8 0.743976 0.975102 0.075254
O O9 0.649288 0.469494 0.658101
O O10 0.711251 0.431070 0.612353
O O11 0.665672 0.661835 0.590591
O O12 0.253092 0.297552 0.625846
O O13 0.573811 0.136646 0.903995
#
# Coordination Sequence:
#
# PCOD8131811 Si02
#       7
#     8   8   8   8   8   4   8
#     4  10  19  37  59  82 106 150 192 229 270 339
#     4   9  20  35  57  81 108 143 182 233 277 340
#     4  11  21  34  58  82 115 145 187 234 284 330
#     4  10  22  34  56  84 115 143 184 236 289 327
#     4   9  19  36  55  83 107 141 187 227 279 338
#     4  10  18  34  60  82 104 146 194 230 268 330
#     4  10  19  37  55  82 112 152 187 231 277 343
#
# _framework density 19.163862999999999
#
# number of rings (size 3 to 8) (size 9 to 14) (size 15 to 20)
#    0.000    2.154    1.538    2.308    4.308    1.231 
#    0.000    0.000    0.000    3.692    0.000    0.000 
#    0.000    0.000    0.000    0.000    0.000    0.000 
#
# Total GULP energy -322151.165983 kJ/mol
# GULP energy per Si atom -12390.429461 kJ/mol
# Density = 1.912025 g / cm^3
# Si number density = 19.163863 Si / 1000 Ang^3
#
#
#
# Elastic Constant Matrix: (Units=GPa)
#
#
# Indices 1 2 3 4 5 6 
#
# 1 91.3064 43.5643 17.4793 0.0000 -0.7070 0.0000
# 2 43.5643 87.6405 17.2112 0.0000 14.1257 0.0000
# 3 17.4793 17.2112 35.5247 0.0000 0.2542 0.0000
# 4 0.0000 0.0000 0.0000 10.7665 0.0000 -5.1075
# 5 -0.7070 14.1257 0.2542 0.0000 32.2591 0.0000
# 6 0.0000 0.0000 0.0000 -5.1075 0.0000 12.5411
#
#
#
# Elastic Compliance Matrix: (Units=1/GPa)
#
#
# Indices 1 2 3 4 5 6 
#
# 1 0.015264 -0.007391 -0.003955 0.000000 0.003602 0.000000
# 2 -0.007391 0.017236 -0.004659 0.000000 -0.007672 0.000000
# 3 -0.003955 -0.004659 0.032340 0.000000 0.001698 0.000000
# 4 0.000000 0.000000 0.000000 0.115122 0.000000 0.046884
# 5 0.003602 -0.007672 0.001698 0.000000 0.034424 0.000000
# 6 0.000000 0.000000 0.000000 0.046884 0.000000 0.098832
#
#
# Mechanical properties :
#
#
# Convention : Reuss Voigt Hill
#
# Bulk Modulus (GPa) = 30.46023 41.22012 35.84018
# Shear Modulus (GPa) = 14.03820 20.19447 17.11634
#
# Velocity S-wave (km/s) = 2.70947 3.24972 2.99182
# Velocity P-wave (km/s) = 5.07124 5.96966 5.53870
#
# Compressibility (1/GPa) = 0.03282969
#
# Stress axis : x y z
#
# Youngs Moduli (GPa) = 65.51526 58.01887 30.92099
#
# Poissons Ratio (x) = 0.42882 0.12229
# Poissons Ratio (y) = 0.48423 0.14406
# Poissons Ratio (z) = 0.25912 0.27031
#
# Static dielectric constant tensor:
#      x y z
#    x 4.115450 0.000000 0.347850 
#    y 0.000000 3.763550 0.000000 
#    z 0.347850 0.000000 3.228490 
# 
# 
# High freq. dielectric constant tensor:
#      x y z
#    x 1.751330 0.000000 0.022650 
#    y 0.000000 1.757880 0.000000 
#    z 0.022650 0.000000 1.710250 
# 
# From -- ./inp_files/166975.got.cif
#   From: 2010.06.25/outbox.cif.g09.slc.cpg/sg15_84_cif.got.tgz:166975.got - 2010.06.28 07:06:18.
