data_PCOD8131884
_publ_section_title
;
Structure prediction by ZEFSAII (Michael W. Deem and Ramdas Pophale) SiO2 
 PCOD8131884
Probable space group: C 2/C
;
_chemical_formula_sum "Si O2"
_cell_formula_units_Z 60
_cell_length_a 16.952765
_cell_length_b 8.782162
_cell_length_c 23.007395
_cell_angle_alpha 90.000000
_cell_angle_beta 123.891465
_cell_angle_gamma 90.000000
_cell_volume 2843.396475
_symmetry_space_group_name_H-M "C 2/C"
_symmetry_group_IT_number 15
_symmetry_cell_setting 'monoclinic'
loop_
_space_group_symop_operation_xyz
x,y,z
-x,y,1/2-z
-x,-y,-z
x,-y,1/2+z
1/2+x,1/2+y,z
1/2-x,1/2+y,1/2-z
1/2-x,1/2-y,-z
1/2+x,1/2-y,1/2+z
loop_
_atom_site_type_symbol
_atom_site_label
_atom_site_fract_x
_atom_site_fract_y
_atom_site_fract_z
Si Si1 0.500000 0.510812 0.250000
Si Si2 0.002645 0.518354 0.318558
Si Si3 0.721165 0.917106 0.916639
Si Si4 0.689512 0.479331 0.668369
Si Si5 0.812674 0.893101 0.142627
Si Si6 0.809292 0.890023 0.547007
Si Si7 0.166142 0.738052 0.230520
Si Si8 0.525395 0.693755 0.150990
O O1 0.427343 0.401007 0.186468
O O2 0.553266 0.614977 0.224001
O O3 0.111683 0.538041 0.382762
O O4 0.000000 0.475980 0.250000
O O5 0.939629 0.669932 0.303794
O O6 0.960109 0.375521 0.337292
O O7 0.728316 0.735390 0.916625
O O8 0.759272 0.988921 0.872401
O O9 0.790166 0.969913 0.996082
O O10 0.761638 0.403303 0.744996
O O11 0.665498 0.654395 0.674087
O O12 0.594078 0.375633 0.629475
O O13 0.792245 0.847664 0.200700
O O14 0.778023 0.054851 0.099923
O O15 0.750000 0.750000 0.500000
O O16 0.918305 0.843542 0.589403
#
# Coordination Sequence:
#
# PCOD8131884 Si02
#       8
#     4   8   8   8   8   8   8   8
#     4  10  18  34  64  96 120 156 214 264 314 374
#     4  12  21  39  68  97 127 167 221 269 314 386
#     4  11  24  42  65  93 131 171 218 262 323 390
#     4  11  24  39  64  98 135 170 198 276 342 388
#     4  10  20  37  63  94 123 160 215 269 312 374
#     4  11  24  42  63  94 127 176 226 266 307 385
#     4  11  23  39  65  99 136 160 217 266 342 386
#     4  11  23  37  66  94 130 170 214 269 319 381
#
# _framework density 21.101524999999999
#
# number of rings (size 3 to 8) (size 9 to 14) (size 15 to 20)
#    0.000    1.067    6.000    2.000    1.867    1.600 
#    0.000    0.000    0.000    4.000    0.000    0.000 
#    0.000    0.000    0.000    0.000    0.000    0.000 
#
# Total GULP energy -371694.633380 kJ/mol
# GULP energy per Si atom -12389.821113 kJ/mol
# Density = 2.105350 g / cm^3
# Si number density = 21.101525 Si / 1000 Ang^3
#
#
#
# Elastic Constant Matrix: (Units=GPa)
#
#
# Indices 1 2 3 4 5 6 
#
# 1 85.9892 38.9087 25.2216 0.0000 12.6991 0.0000
# 2 38.9087 85.7632 39.4998 0.0000 -0.8011 0.0000
# 3 25.2216 39.4998 82.5052 0.0000 9.1001 0.0000
# 4 0.0000 0.0000 0.0000 39.8341 0.0000 2.4648
# 5 12.6991 -0.8011 9.1001 0.0000 22.7536 0.0000
# 6 0.0000 0.0000 0.0000 2.4648 0.0000 35.3240
#
#
#
# Elastic Compliance Matrix: (Units=1/GPa)
#
#
# Indices 1 2 3 4 5 6 
#
# 1 0.016453 -0.007317 -0.000508 0.000000 -0.009237 0.000000
# 2 -0.007317 0.018491 -0.007468 0.000000 0.007721 0.000000
# 3 -0.000508 -0.007468 0.016580 0.000000 -0.006610 0.000000
# 4 0.000000 0.000000 0.000000 0.025213 0.000000 -0.001759
# 5 -0.009237 0.007721 -0.006610 0.000000 0.052020 0.000000
# 6 0.000000 0.000000 0.000000 -0.001759 0.000000 0.028432
#
#
# Mechanical properties :
#
#
# Convention : Reuss Voigt Hill
#
# Bulk Modulus (GPa) = 47.75631 51.27974 49.51803
# Shear Modulus (GPa) = 25.67347 29.62418 27.64883
#
# Velocity S-wave (km/s) = 3.49186 3.75091 3.62370
# Velocity P-wave (km/s) = 6.24005 6.56607 6.40514
#
# Compressibility (1/GPa) = 0.02093964
#
# Stress axis : x y z
#
# Youngs Moduli (GPa) = 60.77824 54.08067 60.31390
#
# Poissons Ratio (x) = 0.39570 0.03063
# Poissons Ratio (y) = 0.44470 0.45039
# Poissons Ratio (z) = 0.03087 0.40385
#
# Static dielectric constant tensor:
#      x y z
#    x 3.661490 0.000000 0.104760 
#    y 0.000000 4.133570 0.000000 
#    z 0.104760 0.000000 3.938470 
# 
# 
# High freq. dielectric constant tensor:
#      x y z
#    x 1.808300 0.000000 0.012410 
#    y 0.000000 1.844770 0.000000 
#    z 0.012410 0.000000 1.810640 
# 
# From -- ./inp_files/298412.got.cif
#   From: 2010.06.25/outbox.cif.g09.slc.cpg/sg15_150_cif.got.tgz:298412.got - 2010.06.28 07:06:18.
