data_PCOD8131863
_publ_section_title
;
Structure prediction by ZEFSAII (Michael W. Deem and Ramdas Pophale) SiO2 
 PCOD8131863
Probable space group: C 2/C
;
_chemical_formula_sum "Si O2"
_cell_formula_units_Z 44
_cell_length_a 14.312356
_cell_length_b 20.489799
_cell_length_c 10.738051
_cell_angle_alpha 90.000000
_cell_angle_beta 43.420249
_cell_angle_gamma 90.000000
_cell_volume 2164.455160
_symmetry_space_group_name_H-M "C 2/C"
_symmetry_group_IT_number 15
_symmetry_cell_setting 'monoclinic'
loop_
_space_group_symop_operation_xyz
x,y,z
-x,y,1/2-z
-x,-y,-z
x,-y,1/2+z
1/2+x,1/2+y,z
1/2-x,1/2+y,1/2-z
1/2-x,1/2-y,-z
1/2+x,1/2-y,1/2+z
loop_
_atom_site_type_symbol
_atom_site_label
_atom_site_fract_x
_atom_site_fract_y
_atom_site_fract_z
Si Si1 0.955797 0.692633 0.935218
Si Si2 0.471019 0.949989 0.137226
Si Si3 0.446015 0.591957 0.940092
Si Si4 0.664558 0.452833 0.422637
Si Si5 0.500000 0.371266 0.750000
Si Si6 0.652742 0.293795 0.810721
O O1 0.000000 0.706805 0.750000
O O2 0.942081 0.615262 0.969839
O O3 0.072230 0.725267 0.911277
O O4 0.806839 0.720752 0.117304
O O5 0.500000 0.977538 0.250000
O O6 0.317195 0.929742 0.263815
O O7 0.500000 0.000000 0.000000
O O8 0.500000 0.601134 0.750000
O O9 0.579158 0.577579 0.892702
O O10 0.344352 0.531110 0.057016
O O11 0.361026 0.657374 0.058010
O O12 0.618053 0.420126 0.595104
O O13 0.561482 0.326155 0.794089
#
# Coordination Sequence:
#
# PCOD8131863 Si02
#       6
#     8   8   8   8   4   8
#     4  11  23  40  63  92 127 163 213 267 320 377
#     4  11  25  41  64  93 131 165 209 264 321 386
#     4  10  22  39  62  91 130 166 212 263 311 383
#     4  10  21  37  64  92 123 164 206 256 320 373
#     4  10  18  34  62  92 118 150 206 254 322 372
#     4  11  23  37  62  92 122 165 210 265 317 378
#
# _framework density 20.328441999999999
#
# number of rings (size 3 to 8) (size 9 to 14) (size 15 to 20)
#    0.000    1.455    1.818    3.818    7.636    0.000 
#    0.000    1.818    0.000    0.000    0.000    0.000 
#    0.000    0.000    0.000    0.000    0.000    0.000 
#
# Total GULP energy -272654.984647 kJ/mol
# GULP energy per Si atom -12393.408393 kJ/mol
# Density = 2.028217 g / cm^3
# Si number density = 20.328442 Si / 1000 Ang^3
#
#
#
# Elastic Constant Matrix: (Units=GPa)
#
#
# Indices 1 2 3 4 5 6 
#
# 1 38.0714 20.1013 31.7784 -0.0002 -2.6394 0.0003
# 2 20.1013 91.5405 35.3927 0.0000 10.4469 0.0000
# 3 31.7784 35.3927 123.4343 -0.0005 -10.3032 0.0006
# 4 -0.0002 0.0000 -0.0005 29.9578 0.0004 -7.2471
# 5 -2.6394 10.4469 -10.3032 0.0004 43.1589 -0.0005
# 6 0.0003 0.0000 0.0006 -7.2471 -0.0005 56.2688
#
#
#
# Elastic Compliance Matrix: (Units=1/GPa)
#
#
# Indices 1 2 3 4 5 6 
#
# 1 0.035304 -0.005027 -0.007516 0.000000 0.001582 0.000000
# 2 -0.005027 0.013678 -0.002989 0.000000 -0.004332 0.000000
# 3 -0.007516 -0.002989 0.011137 0.000000 0.002923 0.000000
# 4 0.000000 0.000000 0.000000 0.034454 0.000000 0.004437
# 5 0.001582 -0.004332 0.002923 0.000000 0.025013 0.000000
# 6 0.000000 0.000000 0.000000 0.004437 0.000000 0.018343
#
#
# Mechanical properties :
#
#
# Convention : Reuss Voigt Hill
#
# Bulk Modulus (GPa) = 34.41705 47.51011 40.96358
# Shear Modulus (GPa) = 27.98323 36.92868 32.45595
#
# Velocity S-wave (km/s) = 3.71422 4.26678 4.00006
# Velocity P-wave (km/s) = 5.94653 6.90622 6.44426
#
# Compressibility (1/GPa) = 0.02905537
#
# Stress axis : x y z
#
# Youngs Moduli (GPa) = 28.32579 73.10917 89.78700
#
# Poissons Ratio (x) = 0.36752 0.67480
# Poissons Ratio (y) = 0.14239 0.26841
# Poissons Ratio (z) = 0.21288 0.21855
#
# Static dielectric constant tensor:
#      x y z
#    x 3.679160 0.000000 0.028610 
#    y 0.000000 4.079450 0.000000 
#    z 0.028610 0.000000 3.699990 
# 
# 
# High freq. dielectric constant tensor:
#      x y z
#    x 1.775200 0.000000 -0.012520 
#    y 0.000000 1.803210 0.000000 
#    z -0.012520 0.000000 1.796540 
# 
# From -- ./inp_files/42000.got.cif
#   From: 2010.06.25/outbox.cif.g09.slc.cpg/sg15_21_cif.got.tgz:42000.got - 2010.06.28 07:06:18.
