data_PCOD8131421
_publ_section_title
;
Structure prediction by ZEFSAII (Michael W. Deem and Ramdas Pophale) SiO2 
 PCOD8131421
Probable space group: C 2/C
;
_chemical_formula_sum "Si O2"
_cell_formula_units_Z 48
_cell_length_a 23.018968
_cell_length_b 25.075537
_cell_length_c 14.294680
_cell_angle_alpha 90.000000
_cell_angle_beta 159.842263
_cell_angle_gamma 90.000000
_cell_volume 2843.368644
_symmetry_space_group_name_H-M "C 2/C"
_symmetry_group_IT_number 15
_symmetry_cell_setting 'monoclinic'
loop_
_space_group_symop_operation_xyz
x,y,z
-x,y,1/2-z
-x,-y,-z
x,-y,1/2+z
1/2+x,1/2+y,z
1/2-x,1/2+y,1/2-z
1/2-x,1/2-y,-z
1/2+x,1/2-y,1/2+z
loop_
_atom_site_type_symbol
_atom_site_label
_atom_site_fract_x
_atom_site_fract_y
_atom_site_fract_z
Si Si1 0.246957 0.518814 0.382052
Si Si2 0.000000 0.928174 0.750000
Si Si3 0.734121 0.631678 0.746521
Si Si4 0.370840 0.324696 0.219737
Si Si5 0.510431 0.785093 0.656212
Si Si6 0.969266 0.468198 0.602786
Si Si7 0.000000 0.893145 0.250000
O O1 0.360185 0.467630 0.584425
O O2 0.345108 0.569103 0.491633
O O3 0.149119 0.539994 0.325250
O O4 0.132999 0.505914 0.120704
O O5 0.907747 0.889011 0.538565
O O6 0.629108 0.647369 0.679482
O O7 0.872650 0.586773 0.977772
O O8 0.842323 0.682338 0.871263
O O9 0.469140 0.268093 0.375014
O O10 0.475434 0.359047 0.305231
O O11 0.178769 0.319580 0.893273
O O12 0.500000 0.769725 0.750000
O O13 0.000000 0.495980 0.750000
#
# Coordination Sequence:
#
# PCOD8131421 Si02
#       7
#     8   4   8   8   8   8   4
#     4   9  20  32  49  73 100 127 165 195 240 291
#     4   9  20  36  50  70 100 132 166 203 236 290
#     4  10  19  33  52  71  98 134 165 198 247 292
#     4  10  19  29  50  76  99 122 161 201 248 287
#     4   9  17  32  49  74  98 124 158 206 245 288
#     4  10  18  33  51  72  96 131 163 200 240 291
#     4  11  18  30  46  76 104 126 148 201 244 288
#
# _framework density 16.881385999999999
#
# number of rings (size 3 to 8) (size 9 to 14) (size 15 to 20)
#    0.000    2.333    0.833    3.500    0.000    1.333 
#    0.000    5.833    0.000    0.000    2.167    0.000 
#    0.000    0.000    0.000    0.000    0.000    0.000 
#
# Total GULP energy -297457.726255 kJ/mol
# GULP energy per Si atom -12394.071927 kJ/mol
# Density = 1.684296 g / cm^3
# Si number density = 16.881386 Si / 1000 Ang^3
#
#
#
# Elastic Constant Matrix: (Units=GPa)
#
#
# Indices 1 2 3 4 5 6 
#
# 1 127.5190 63.0258 56.5830 0.0000 10.9512 0.0000
# 2 63.0258 89.1574 44.1628 0.0000 0.7183 0.0000
# 3 56.5830 44.1628 89.5402 0.0000 1.7604 0.0000
# 4 0.0000 0.0000 0.0000 17.0023 0.0000 7.1005
# 5 10.9512 0.7183 1.7604 0.0000 23.8972 0.0000
# 6 0.0000 0.0000 0.0000 7.1005 0.0000 19.5570
#
#
#
# Elastic Compliance Matrix: (Units=1/GPa)
#
#
# Indices 1 2 3 4 5 6 
#
# 1 0.014422 -0.007531 -0.005282 0.000000 -0.005994 0.000000
# 2 -0.007531 0.018775 -0.004564 0.000000 0.003223 0.000000
# 3 -0.005282 -0.004564 0.016731 0.000000 0.001325 0.000000
# 4 0.000000 0.000000 0.000000 0.069327 0.000000 -0.025171
# 5 -0.005994 0.003223 0.001325 0.000000 0.044398 0.000000
# 6 0.000000 0.000000 0.000000 -0.025171 0.000000 0.060271
#
#
# Mechanical properties :
#
#
# Convention : Reuss Voigt Hill
#
# Bulk Modulus (GPa) = 65.90151 70.41774 68.15962
# Shear Modulus (GPa) = 18.95830 21.58763 20.27297
#
# Velocity S-wave (km/s) = 3.35480 3.57989 3.46917
# Velocity P-wave (km/s) = 7.35724 7.67406 7.51732
#
# Compressibility (1/GPa) = 0.01517416
#
# Stress axis : x y z
#
# Youngs Moduli (GPa) = 69.33669 53.26359 59.76890
#
# Poissons Ratio (x) = 0.40111 0.31569
# Poissons Ratio (y) = 0.52215 0.27281
# Poissons Ratio (z) = 0.36622 0.24312
#
# Static dielectric constant tensor:
#      x y z
#    x 3.259800 0.000000 0.324320 
#    y 0.000000 3.225440 0.000000 
#    z 0.324320 0.000000 3.170810 
# 
# 
# High freq. dielectric constant tensor:
#      x y z
#    x 1.648350 0.000000 0.025920 
#    y 0.000000 1.654630 0.000000 
#    z 0.025920 0.000000 1.637550 
# 
# From -- ./inp_files/79413.got.cif
#   From: 2010.06.25/outbox.cif.g09.slc.cpg/sg15_40_cif.got.tgz:79413.got - 2010.06.28 07:06:18.
