data_PCOD8131709
_publ_section_title
;
Structure prediction by ZEFSAII (Michael W. Deem and Ramdas Pophale) SiO2 
 PCOD8131709
Probable space group: C 2/C
;
_chemical_formula_sum "Si O2"
_cell_formula_units_Z 56
_cell_length_a 24.564052
_cell_length_b 11.697825
_cell_length_c 9.844148
_cell_angle_alpha 90.000000
_cell_angle_beta 77.108276
_cell_angle_gamma 90.000000
_cell_volume 2757.375144
_symmetry_space_group_name_H-M "C 2/C"
_symmetry_group_IT_number 15
_symmetry_cell_setting 'monoclinic'
loop_
_space_group_symop_operation_xyz
x,y,z
-x,y,1/2-z
-x,-y,-z
x,-y,1/2+z
1/2+x,1/2+y,z
1/2-x,1/2+y,1/2-z
1/2-x,1/2-y,-z
1/2+x,1/2-y,1/2+z
loop_
_atom_site_type_symbol
_atom_site_label
_atom_site_fract_x
_atom_site_fract_y
_atom_site_fract_z
Si Si1 0.222803 0.282507 0.235682
Si Si2 0.211710 0.052040 0.659835
Si Si3 0.397927 0.739255 0.471454
Si Si4 0.638676 0.492088 0.940835
Si Si5 0.708678 0.116401 0.475339
Si Si6 0.003805 0.386001 0.408957
Si Si7 0.395971 0.274981 0.653799
O O1 0.274514 0.316334 0.305554
O O2 0.238531 0.182973 0.121010
O O3 0.167342 0.257266 0.353462
O O4 0.210624 0.387669 0.138090
O O5 0.165760 0.040933 0.569037
O O6 0.187729 0.984496 0.802753
O O7 0.274968 0.010028 0.584625
O O8 0.389316 0.617792 0.550549
O O9 0.349925 0.830194 0.540928
O O10 0.455691 0.798069 0.481747
O O11 0.398748 0.709414 0.313110
O O12 0.591758 0.396439 0.928063
O O13 0.000000 0.415201 0.250000
O O14 0.000000 0.500000 0.500000
O O15 0.061513 0.323493 0.415925
#
# Coordination Sequence:
#
# PCOD8131709 Si02
#       7
#     8   8   8   8   8   8   8
#     4  10  19  34  56  85 121 162 195 235 302 358
#     4  12  21  34  57  90 125 160 199 248 292 364
#     4  10  21  40  66  86 121 167 199 244 311 360
#     4  12  21  38  61  93 124 158 202 246 300 367
#     4  10  18  34  56  83 121 165 193 232 303 364
#     4  10  24  48  68  88 117 159 207 252 300 358
#     4  10  22  41  63  87 124 162 201 250 304 357
#
# _framework density 20.309170999999999
#
# number of rings (size 3 to 8) (size 9 to 14) (size 15 to 20)
#    0.000    1.429    5.714    0.857    2.000    1.143 
#    2.571    0.000    0.000    0.000    0.000    0.000 
#    0.000    0.000    0.000    0.000    0.000    0.000 
#
# Total GULP energy -346911.017548 kJ/mol
# GULP energy per Si atom -12389.679198 kJ/mol
# Density = 2.026295 g / cm^3
# Si number density = 20.309171 Si / 1000 Ang^3
#
#
#
# Elastic Constant Matrix: (Units=GPa)
#
#
# Indices 1 2 3 4 5 6 
#
# 1 97.0005 46.1652 27.1897 0.0000 -12.3098 0.0000
# 2 46.1652 105.1220 36.9964 0.0000 -1.7637 0.0000
# 3 27.1897 36.9964 62.2342 0.0000 -5.7685 0.0000
# 4 0.0000 0.0000 0.0000 34.0886 0.0000 1.1785
# 5 -12.3098 -1.7637 -5.7685 0.0000 25.9573 0.0000
# 6 0.0000 0.0000 0.0000 1.1785 0.0000 35.3692
#
#
#
# Elastic Compliance Matrix: (Units=1/GPa)
#
#
# Indices 1 2 3 4 5 6 
#
# 1 0.014277 -0.005270 -0.002563 0.000000 0.005843 0.000000
# 2 -0.005270 0.013990 -0.006288 0.000000 -0.002946 0.000000
# 3 -0.002563 -0.006288 0.021211 0.000000 0.003071 0.000000
# 4 0.000000 0.000000 0.000000 0.029369 0.000000 -0.000979
# 5 0.005843 -0.002946 0.003071 0.000000 0.041778 0.000000
# 6 0.000000 0.000000 0.000000 -0.000979 0.000000 0.028306
#
#
# Mechanical properties :
#
#
# Convention : Reuss Voigt Hill
#
# Bulk Modulus (GPa) = 47.08779 53.89546 50.49162
# Shear Modulus (GPa) = 27.13677 29.35006 28.24342
#
# Velocity S-wave (km/s) = 3.65935 3.80565 3.73322
# Velocity P-wave (km/s) = 6.41017 6.77538 6.59530
#
# Compressibility (1/GPa) = 0.02123693
#
# Stress axis : x y z
#
# Youngs Moduli (GPa) = 70.04123 71.47724 47.14614
#
# Poissons Ratio (x) = 0.37667 0.12085
# Poissons Ratio (y) = 0.36911 0.29644
# Poissons Ratio (z) = 0.17954 0.44942
#
# Static dielectric constant tensor:
#      x y z
#    x 3.619090 0.000000 -0.149360 
#    y 0.000000 3.765810 0.000000 
#    z -0.149360 0.000000 3.737610 
# 
# 
# High freq. dielectric constant tensor:
#      x y z
#    x 1.770600 0.000000 -0.008390 
#    y 0.000000 1.793150 0.000000 
#    z -0.008390 0.000000 1.785650 
# 
# From -- ./inp_files/65412.got.cif
#   From: 2010.06.25/outbox.cif.g09.slc.cpg/sg15_33_cif.got.tgz:65412.got - 2010.06.28 07:06:18.
