data_PCOD8131155
_publ_section_title
;
Structure prediction by ZEFSAII (Michael W. Deem and Ramdas Pophale) SiO2 
 PCOD8131155
Probable space group: C 2/C
;
_chemical_formula_sum "Si O2"
_cell_formula_units_Z 64
_cell_length_a 30.224198
_cell_length_b 10.787289
_cell_length_c 15.241310
_cell_angle_alpha 90.000000
_cell_angle_beta 31.113483
_cell_angle_gamma 90.000000
_cell_volume 2567.775898
_symmetry_space_group_name_H-M "C 2/C"
_symmetry_group_IT_number 15
_symmetry_cell_setting 'monoclinic'
loop_
_space_group_symop_operation_xyz
x,y,z
-x,y,1/2-z
-x,-y,-z
x,-y,1/2+z
1/2+x,1/2+y,z
1/2-x,1/2+y,1/2-z
1/2-x,1/2-y,-z
1/2+x,1/2-y,1/2+z
loop_
_atom_site_type_symbol
_atom_site_label
_atom_site_fract_x
_atom_site_fract_y
_atom_site_fract_z
Si Si1 0.700462 0.875992 0.014313
Si Si2 0.187734 0.868762 0.990763
Si Si3 0.870005 0.472653 0.708365
Si Si4 0.433723 0.388581 0.439589
Si Si5 0.565434 0.747081 0.823232
Si Si6 0.084260 0.421570 0.056631
Si Si7 0.142478 0.118352 0.153037
Si Si8 0.948687 0.160864 0.474555
O O1 0.662352 0.941649 0.992671
O O2 0.691197 0.728420 0.018749
O O3 0.653130 0.914912 0.187506
O O4 0.801508 0.909624 0.853063
O O5 0.160407 0.843631 0.935023
O O6 0.144170 0.759450 0.121296
O O7 0.138244 0.995707 0.101451
O O8 0.288436 0.879958 0.833230
O O9 0.944550 0.390992 0.629211
O O10 0.899634 0.505784 0.558225
O O11 0.500000 0.365206 0.250000
O O12 0.472207 0.305922 0.453013
O O13 0.422346 0.533597 0.476227
O O14 0.598495 0.670652 0.852039
O O15 0.000000 0.470626 0.250000
O O16 0.073246 0.276006 0.051805
O O17 0.048176 0.164636 0.332741
#
# Coordination Sequence:
#
# PCOD8131155 Si02
#       8
#     8   8   8   8   8   8   8   8
#     4  10  22  40  65  93 126 162 216 262 313 376
#     4  10  20  38  62  88 131 160 203 263 318 377
#     4  10  24  42  61  89 129 176 203 255 324 386
#     4  10  18  31  59  93 120 155 205 261 310 370
#     4  10  21  35  59  89 127 166 199 244 325 388
#     4  11  22  40  65  89 120 167 220 264 313 374
#     4  10  19  36  66  93 123 159 206 274 315 358
#     4  11  19  35  62  96 120 156 209 269 323 360
#
# _framework density 24.924294
#
# number of rings (size 3 to 8) (size 9 to 14) (size 15 to 20)
#    0.000    1.750    3.750    1.875    0.000    1.500 
#    2.250    1.875    8.250    0.000    0.000    0.000 
#    0.000    0.000    0.000    0.000    0.000    0.000 
#
# Total GULP energy -396481.357875 kJ/mol
# GULP energy per Si atom -12390.042434 kJ/mol
# Density = 2.486757 g / cm^3
# Si number density = 24.924294 Si / 1000 Ang^3
#
#
#
# Elastic Constant Matrix: (Units=GPa)
#
#
# Indices 1 2 3 4 5 6 
#
# 1 150.3903 11.3210 32.9900 0.0000 3.4384 0.0000
# 2 11.3210 40.3784 -4.9019 0.0000 7.6788 0.0000
# 3 32.9900 -4.9019 53.4502 0.0000 10.6355 0.0000
# 4 0.0000 0.0000 0.0000 18.1485 0.0000 -2.3551
# 5 3.4384 7.6788 10.6355 0.0000 34.8340 0.0000
# 6 0.0000 0.0000 0.0000 -2.3551 0.0000 27.5414
#
#
#
# Elastic Compliance Matrix: (Units=1/GPa)
#
#
# Indices 1 2 3 4 5 6 
#
# 1 0.008090 -0.003261 -0.005618 0.000000 0.001636 0.000000
# 2 -0.003261 0.027882 0.006099 0.000000 -0.007687 0.000000
# 3 -0.005618 0.006099 0.024374 0.000000 -0.008232 0.000000
# 4 0.000000 0.000000 0.000000 0.055719 0.000000 0.004765
# 5 0.001636 -0.007687 -0.008232 0.000000 0.032754 0.000000
# 6 0.000000 0.000000 0.000000 0.004765 0.000000 0.036716
#
#
# Mechanical properties :
#
#
# Convention : Reuss Voigt Hill
#
# Bulk Modulus (GPa) = 18.25252 35.89303 27.07278
# Shear Modulus (GPa) = 23.88273 29.75876 26.82075
#
# Velocity S-wave (km/s) = 3.09886 3.45913 3.28394
# Velocity P-wave (km/s) = 4.48809 5.51237 5.02639
#
# Compressibility (1/GPa) = 0.05478694
#
# Stress axis : x y z
#
# Youngs Moduli (GPa) = 123.61311 35.86505 41.02799
#
# Poissons Ratio (x) = 0.11696 0.23048
# Poissons Ratio (y) = 0.40312 -0.25025
# Poissons Ratio (z) = 0.69441 -0.21876
#
# Static dielectric constant tensor:
#      x y z
#    x 5.086950 0.000000 -0.087390 
#    y 0.000000 4.071370 0.000000 
#    z -0.087390 0.000000 4.267340 
# 
# 
# High freq. dielectric constant tensor:
#      x y z
#    x 2.018010 0.000000 -0.003530 
#    y 0.000000 1.965480 0.000000 
#    z -0.003530 0.000000 1.967540 
# 
# From -- ./inp_files/181753.got.cif
#   From: 2010.06.25/outbox.cif.g09.slc.cpg/sg15_91_cif.got.tgz:181753.got - 2010.06.28 07:06:18.
