data_PCOD8131322
_publ_section_title
;
Structure prediction by ZEFSAII (Michael W. Deem and Ramdas Pophale) SiO2 
 PCOD8131322
Probable space group: C 2/C
;
_chemical_formula_sum "Si O2"
_cell_formula_units_Z 40
_cell_length_a 14.517523
_cell_length_b 12.364165
_cell_length_c 9.717418
_cell_angle_alpha 90.000000
_cell_angle_beta 107.259922
_cell_angle_gamma 90.000000
_cell_volume 1665.701900
_symmetry_space_group_name_H-M "C 2/C"
_symmetry_group_IT_number 15
_symmetry_cell_setting 'monoclinic'
loop_
_space_group_symop_operation_xyz
x,y,z
-x,y,1/2-z
-x,-y,-z
x,-y,1/2+z
1/2+x,1/2+y,z
1/2-x,1/2+y,1/2-z
1/2-x,1/2-y,-z
1/2+x,1/2-y,1/2+z
loop_
_atom_site_type_symbol
_atom_site_label
_atom_site_fract_x
_atom_site_fract_y
_atom_site_fract_z
Si Si1 0.986504 0.836488 0.589462
Si Si2 0.065067 0.474979 0.157602
Si Si3 0.238953 0.891558 0.322227
Si Si4 0.910301 0.284087 0.805264
Si Si5 0.146417 0.028707 0.043088
O O1 0.088624 0.865049 0.564958
O O2 0.000000 0.792105 0.750000
O O3 0.935332 0.743446 0.475476
O O4 0.923382 0.945516 0.567317
O O5 0.146555 0.385793 0.158325
O O6 0.112515 0.589368 0.223796
O O7 0.000000 0.426063 0.250000
O O8 0.000000 0.500000 0.000000
O O9 0.188059 0.775398 0.284087
O O10 0.228432 0.935489 0.472258
O O11 0.191417 0.974471 0.196033
O O12 0.000000 0.246074 0.750000
#
# Coordination Sequence:
#
# PCOD8131322 Si02
#       5
#     8   8   8   8   8
#     4  10  18  32  57 102 138 165 205 278 343 393
#     4  11  26  50  69  95 139 188 225 276 339 406
#     4  11  21  41  67  98 133 177 231 281 331 406
#     4  10  22  42  70 102 134 174 225 276 344 412
#     4  10  19  31  60  97 134 167 213 277 341 385
#
# _framework density 24.013902000000002
#
# number of rings (size 3 to 8) (size 9 to 14) (size 15 to 20)
#    0.000    1.600    4.000    1.200    0.000    0.800 
#    3.600   12.000    0.000    1.200    0.000    0.000 
#    0.000    0.000    0.000    0.000    0.000    0.000 
#
# Total GULP energy -248080.914027 kJ/mol
# GULP energy per Si atom -12404.045701 kJ/mol
# Density = 2.395925 g / cm^3
# Si number density = 24.013902 Si / 1000 Ang^3
#
#
#
# Elastic Constant Matrix: (Units=GPa)
#
#
# Indices 1 2 3 4 5 6 
#
# 1 174.4139 33.7161 33.4781 0.0000 -17.0486 0.0000
# 2 33.7161 74.8520 3.1646 0.0000 -6.6710 0.0000
# 3 33.4781 3.1646 107.5587 0.0000 -21.6429 0.0000
# 4 0.0000 0.0000 0.0000 12.8396 0.0000 4.4357
# 5 -17.0486 -6.6710 -21.6429 0.0000 44.2203 0.0000
# 6 0.0000 0.0000 0.0000 4.4357 0.0000 22.8143
#
#
#
# Elastic Compliance Matrix: (Units=1/GPa)
#
#
# Indices 1 2 3 4 5 6 
#
# 1 0.006749 -0.002849 -0.001752 0.000000 0.001315 0.000000
# 2 -0.002849 0.014744 0.000754 0.000000 0.001495 0.000000
# 3 -0.001752 0.000754 0.010768 0.000000 0.004708 0.000000
# 4 0.000000 0.000000 0.000000 0.083492 0.000000 -0.016233
# 5 0.001315 0.001495 0.004708 0.000000 0.025651 0.000000
# 6 0.000000 0.000000 0.000000 -0.016233 0.000000 0.046988
#
#
# Mechanical properties :
#
#
# Convention : Reuss Voigt Hill
#
# Bulk Modulus (GPa) = 40.70611 55.28249 47.99430
# Shear Modulus (GPa) = 24.47667 35.07256 29.77462
#
# Velocity S-wave (km/s) = 3.19607 3.82581 3.52503
# Velocity P-wave (km/s) = 5.53242 6.52585 6.04956
#
# Compressibility (1/GPa) = 0.02456634
#
# Stress axis : x y z
#
# Youngs Moduli (GPa) = 148.16925 67.82307 92.86869
#
# Poissons Ratio (x) = 0.19321 0.16274
# Poissons Ratio (y) = 0.42210 -0.06999
# Poissons Ratio (z) = 0.25964 -0.05112
#
# Static dielectric constant tensor:
#      x y z
#    x 4.364230 0.000000 -0.065080 
#    y 0.000000 4.375200 0.000000 
#    z -0.065080 0.000000 4.256070 
# 
# 
# High freq. dielectric constant tensor:
#      x y z
#    x 1.945180 0.000000 -0.005660 
#    y 0.000000 1.942670 0.000000 
#    z -0.005660 0.000000 1.965330 
# 
# From -- ./inp_files/38080.got.cif
#   From: 2010.06.25/outbox.cif.g09.slc.cpg/sg15_20_cif.got.tgz:38080.got - 2010.06.28 07:06:18.
