data_PCOD8131017
_publ_section_title
;
Structure prediction by ZEFSAII (Michael W. Deem and Ramdas Pophale) SiO2 
 PCOD8131017
Probable space group: C 2/C
;
_chemical_formula_sum "Si O2"
_cell_formula_units_Z 48
_cell_length_a 5.297261
_cell_length_b 23.555906
_cell_length_c 20.873783
_cell_angle_alpha 90.000000
_cell_angle_beta 102.910598
_cell_angle_gamma 90.000000
_cell_volume 2538.821535
_symmetry_space_group_name_H-M "C 2/C"
_symmetry_group_IT_number 15
_symmetry_cell_setting 'monoclinic'
loop_
_space_group_symop_operation_xyz
x,y,z
-x,y,1/2-z
-x,-y,-z
x,-y,1/2+z
1/2+x,1/2+y,z
1/2-x,1/2+y,1/2-z
1/2-x,1/2-y,-z
1/2+x,1/2-y,1/2+z
loop_
_atom_site_type_symbol
_atom_site_label
_atom_site_fract_x
_atom_site_fract_y
_atom_site_fract_z
Si Si1 0.568314 0.916886 0.109065
Si Si2 0.344494 0.483478 0.676117
Si Si3 0.782155 0.321829 0.290301
Si Si4 0.307334 0.857756 0.826382
Si Si5 0.519215 0.536505 0.564378
Si Si6 0.300943 0.690045 0.319180
O O1 0.632751 0.855582 0.141762
O O2 0.267054 0.921910 0.073375
O O3 0.755889 0.925932 0.057678
O O4 0.632330 0.965984 0.165239
O O5 0.500000 0.483950 0.750000
O O6 0.194767 0.424322 0.659203
O O7 0.539018 0.494086 0.626963
O O8 0.500000 0.342919 0.250000
O O9 0.764605 0.256310 0.307000
O O10 0.000000 0.333237 0.250000
O O11 0.247913 0.844702 0.748822
O O12 0.591179 0.832282 0.859245
O O13 0.092352 0.825406 0.858055
O O14 0.500000 0.500000 0.500000
#
# Coordination Sequence:
#
# PCOD8131017 Si02
#       6
#     8   8   8   8   8   8
#     4  10  24  34  58  83 111 150 186 235 282 341
#     4  10  22  34  57  88 120 138 180 246 287 334
#     4  12  20  34  51  81 125 152 184 229 287 346
#     4  10  18  31  48  75 113 146 183 216 278 340
#     4  10  23  42  57  80 114 155 193 226 288 352
#     4  10  18  31  47  72 115 155 178 215 277 344
#
# _framework density 18.906410999999999
#
# number of rings (size 3 to 8) (size 9 to 14) (size 15 to 20)
#    1.000    0.667    5.000    2.000    4.667    0.000 
#    0.000    0.000    0.000    0.000    0.000    7.000 
#    0.000    0.000    0.000    0.000    0.000    0.000 
#
# Total GULP energy -297383.985386 kJ/mol
# GULP energy per Si atom -12390.999391 kJ/mol
# Density = 1.886338 g / cm^3
# Si number density = 18.906411 Si / 1000 Ang^3
#
#
#
# Elastic Constant Matrix: (Units=GPa)
#
#
# Indices 1 2 3 4 5 6 
#
# 1 169.7312 18.1871 11.7064 0.0000 -2.4360 0.0000
# 2 18.1871 59.7339 1.8117 0.0000 -4.4344 0.0000
# 3 11.7064 1.8117 44.3539 0.0000 -8.9886 0.0000
# 4 0.0000 0.0000 0.0000 2.2734 0.0000 -2.6010
# 5 -2.4360 -4.4344 -8.9886 0.0000 19.7580 0.0000
# 6 0.0000 0.0000 0.0000 -2.6010 0.0000 20.3881
#
#
#
# Elastic Compliance Matrix: (Units=1/GPa)
#
#
# Indices 1 2 3 4 5 6 
#
# 1 0.006199 -0.001867 -0.001641 0.000000 -0.000402 0.000000
# 2 -0.001867 0.017587 0.000581 0.000000 0.003982 0.000000
# 3 -0.001641 0.000581 0.025271 0.000000 0.011425 0.000000
# 4 0.000000 0.000000 0.000000 0.515034 0.000000 0.065705
# 5 -0.000402 0.003982 0.011425 0.000000 0.056654 0.000000
# 6 0.000000 0.000000 0.000000 0.065705 0.000000 0.057430
#
#
# Mechanical properties :
#
#
# Convention : Reuss Voigt Hill
#
# Bulk Modulus (GPa) = 23.14674 37.46993 30.30833
# Shear Modulus (GPa) = 7.15890 24.62482 15.89186
#
# Velocity S-wave (km/s) = 1.94800 3.61287 2.90238
# Velocity P-wave (km/s) = 4.16281 6.10455 5.22468
#
# Compressibility (1/GPa) = 0.04320263
#
# Stress axis : x y z
#
# Youngs Moduli (GPa) = 161.31081 56.85871 39.57156
#
# Poissons Ratio (x) = 0.10618 0.06495
# Poissons Ratio (y) = 0.30125 -0.02301
# Poissons Ratio (z) = 0.26475 -0.03306
#
# Static dielectric constant tensor:
#      x y z
#    x 5.210810 0.000000 0.022120 
#    y 0.000000 3.451660 0.000000 
#    z 0.022120 0.000000 2.888410 
# 
# 
# High freq. dielectric constant tensor:
#      x y z
#    x 1.764110 0.000000 -0.003340 
#    y 0.000000 1.733710 0.000000 
#    z -0.003340 0.000000 1.664540 
# 
# From -- ./inp_files/185541.got.cif
#   From: 2010.06.25/outbox.cif.g09.slc.cpg/sg15_93_cif.got.tgz:185541.got - 2010.06.28 07:06:18.
