data_PCOD8131425
_publ_section_title
;
Structure prediction by ZEFSAII (Michael W. Deem and Ramdas Pophale) SiO2 
 PCOD8131425
Probable space group: C 2/C
;
_chemical_formula_sum "Si O2"
_cell_formula_units_Z 52
_cell_length_a 27.166304
_cell_length_b 4.975388
_cell_length_c 17.147153
_cell_angle_alpha 90.000000
_cell_angle_beta 83.805331
_cell_angle_gamma 90.000000
_cell_volume 2304.126185
_symmetry_space_group_name_H-M "C 2/C"
_symmetry_group_IT_number 15
_symmetry_cell_setting 'monoclinic'
loop_
_space_group_symop_operation_xyz
x,y,z
-x,y,1/2-z
-x,-y,-z
x,-y,1/2+z
1/2+x,1/2+y,z
1/2-x,1/2+y,1/2-z
1/2-x,1/2-y,-z
1/2+x,1/2-y,1/2+z
loop_
_atom_site_type_symbol
_atom_site_label
_atom_site_fract_x
_atom_site_fract_y
_atom_site_fract_z
Si Si1 0.276863 0.617312 0.334267
Si Si2 0.364097 0.737060 0.408274
Si Si3 0.565459 0.237327 0.474103
Si Si4 0.599442 0.237002 0.188336
Si Si5 0.000000 0.487555 0.250000
Si Si6 0.027762 0.234053 0.401455
Si Si7 0.687829 0.118156 0.259362
O O1 0.304256 0.680607 0.412294
O O2 0.286913 0.309044 0.310221
O O3 0.216882 0.667001 0.337544
O O4 0.304521 0.809574 0.266832
O O5 0.381230 0.704020 0.495247
O O6 0.393755 0.537413 0.344887
O O7 0.377022 0.038443 0.379927
O O8 0.553291 0.444615 0.406882
O O9 0.526209 0.262759 0.550993
O O10 0.564208 0.942833 0.437813
O O11 0.629107 0.191046 0.266476
O O12 0.541410 0.184112 0.207547
O O13 0.976513 0.294555 0.188991
#
# Coordination Sequence:
#
# PCOD8131425 Si02
#       7
#     8   8   8   8   4   8   8
#     4   8  14  24  46  67  95 121 158 202 254 296
#     4  10  18  33  51  75  97 131 168 211 252 300
#     4  10  20  38  52  73  96 137 167 218 250 297
#     4  10  21  30  49  72 105 133 167 207 250 299
#     4  12  24  38  50  80 102 144 172 210 246 310
#     4  10  23  34  54  69 102 133 175 207 254 294
#     4   8  14  27  40  68  97 126 153 201 256 293
#
# _framework density 22.568207000000001
#
# number of rings (size 3 to 8) (size 9 to 14) (size 15 to 20)
#    0.000    2.462    1.538    0.923    4.308    2.462 
#    0.000    0.000    0.000    0.000    0.000    2.154 
#    0.000    0.000    0.000    0.000    0.000    0.000 
#
# Total GULP energy -322116.691001 kJ/mol
# GULP energy per Si atom -12389.103500 kJ/mol
# Density = 2.251684 g / cm^3
# Si number density = 22.568207 Si / 1000 Ang^3
#
#
#
# Elastic Constant Matrix: (Units=GPa)
#
#
# Indices 1 2 3 4 5 6 
#
# 1 84.1146 2.8219 35.9299 0.0000 48.4687 0.0000
# 2 2.8219 81.0449 1.4934 0.0000 3.7800 0.0000
# 3 35.9299 1.4934 71.1198 0.0000 41.1127 0.0000
# 4 0.0000 0.0000 0.0000 7.0891 0.0000 8.7781
# 5 48.4687 3.7800 41.1127 0.0000 45.6884 0.0000
# 6 0.0000 0.0000 0.0000 8.7781 0.0000 18.3405
#
#
#
# Elastic Compliance Matrix: (Units=1/GPa)
#
#
# Indices 1 2 3 4 5 6 
#
# 1 0.032327 0.000649 0.007316 0.000000 -0.040932 0.000000
# 2 0.000649 0.012416 0.000840 0.000000 -0.002471 0.000000
# 3 0.007316 0.000840 0.030999 0.000000 -0.035725 0.000000
# 4 0.000000 0.000000 0.000000 0.346290 0.000000 -0.165739
# 5 -0.040932 -0.002471 -0.035725 0.000000 0.097662 0.000000
# 6 0.000000 0.000000 0.000000 -0.165739 0.000000 0.133849
#
#
# Mechanical properties :
#
#
# Convention : Reuss Voigt Hill
#
# Bulk Modulus (GPa) = 10.71206 35.19662 22.95434
# Shear Modulus (GPa) = 7.49568 27.29255 17.39412
#
# Velocity S-wave (km/s) = 1.82443 3.48132 2.77922
# Velocity P-wave (km/s) = 3.03231 5.63817 4.52680
#
# Compressibility (1/GPa) = 0.09335269
#
# Stress axis : x y z
#
# Youngs Moduli (GPa) = 30.93352 80.54101 32.25912
#
# Poissons Ratio (x) = -0.05224 -0.23601
# Poissons Ratio (y) = -0.02007 -0.02711
# Poissons Ratio (z) = -0.22632 -0.06768
#
# Static dielectric constant tensor:
#      x y z
#    x 4.336630 0.000000 0.876610 
#    y 0.000000 4.124880 0.000000 
#    z 0.876610 0.000000 3.680380 
# 
# 
# High freq. dielectric constant tensor:
#      x y z
#    x 1.872270 0.000000 0.074180 
#    y 0.000000 1.907750 0.000000 
#    z 0.074180 0.000000 1.838440 
# 
# From -- ./inp_files/223439.got.cif
#   From: 2010.06.25/outbox.cif.g09.slc.cpg/sg15_112_cif.got.tgz:223439.got - 2010.06.28 07:06:18.
