data_PCOD8131079
_publ_section_title
;
Structure prediction by ZEFSAII (Michael W. Deem and Ramdas Pophale) SiO2 
 PCOD8131079
Probable space group: C 2/C
;
_chemical_formula_sum "Si O2"
_cell_formula_units_Z 64
_cell_length_a 11.067161
_cell_length_b 28.199096
_cell_length_c 11.631126
_cell_angle_alpha 90.000000
_cell_angle_beta 107.524105
_cell_angle_gamma 90.000000
_cell_volume 3461.425786
_symmetry_space_group_name_H-M "C 2/C"
_symmetry_group_IT_number 15
_symmetry_cell_setting 'monoclinic'
loop_
_space_group_symop_operation_xyz
x,y,z
-x,y,1/2-z
-x,-y,-z
x,-y,1/2+z
1/2+x,1/2+y,z
1/2-x,1/2+y,1/2-z
1/2-x,1/2-y,-z
1/2+x,1/2-y,1/2+z
loop_
_atom_site_type_symbol
_atom_site_label
_atom_site_fract_x
_atom_site_fract_y
_atom_site_fract_z
Si Si1 0.620277 0.290163 0.199399
Si Si2 0.140015 0.895367 0.430660
Si Si3 0.166245 0.554022 0.361955
Si Si4 0.588251 0.909117 0.614349
Si Si5 0.272632 0.199677 0.951741
Si Si6 0.537377 0.191821 0.127516
Si Si7 0.645309 0.608196 0.664308
Si Si8 0.615655 0.056237 0.866326
O O1 0.500000 0.298138 0.250000
O O2 0.748312 0.290359 0.310831
O O3 0.607677 0.241895 0.121524
O O4 0.636617 0.336307 0.124353
O O5 0.209968 0.933839 0.529666
O O6 0.179021 0.841251 0.477042
O O7 0.177776 0.899849 0.307649
O O8 0.994337 0.910446 0.406983
O O9 0.184707 0.564860 0.230559
O O10 0.131461 0.499539 0.363272
O O11 0.053824 0.586794 0.377398
O O12 0.625963 0.853162 0.623579
O O13 0.586908 0.931955 0.489335
O O14 0.250000 0.250000 0.000000
O O15 0.416985 0.184899 0.011003
O O16 0.500000 0.192812 0.250000
O O17 0.753035 0.581861 0.624670
O O18 0.500000 0.072790 0.750000
#
# Coordination Sequence:
#
# PCOD8131079 Si02
#       8
#     8   8   8   8   8   8   8   8
#     4  10  18  31  52  86 116 143 192 239 285 337
#     4  10  19  36  61  85 116 149 194 241 288 344
#     4  11  22  38  63  85 117 149 193 252 291 341
#     4  11  22  39  56  93 117 147 197 240 299 344
#     4  11  16  25  51  84 113 143 180 236 287 329
#     4  11  18  31  54  87 118 146 187 245 289 342
#     4  10  21  39  57  87 118 156 194 239 286 353
#     4  12  26  39  61  83 117 161 193 240 296 350
#
# _framework density 18.489491000000001
#
# number of rings (size 3 to 8) (size 9 to 14) (size 15 to 20)
#    0.000    1.250    8.750    1.125    3.500    0.500 
#    0.000    1.250    0.000    0.000    0.000    0.000 
#    0.000    0.000    0.000    0.000    0.000    0.000 
#
# Total GULP energy -396551.417166 kJ/mol
# GULP energy per Si atom -12392.231786 kJ/mol
# Density = 1.844741 g / cm^3
# Si number density = 18.489491 Si / 1000 Ang^3
#
#
#
# Elastic Constant Matrix: (Units=GPa)
#
#
# Indices 1 2 3 4 5 6 
#
# 1 60.5193 26.4898 40.1524 0.0000 12.5037 0.0000
# 2 26.4898 92.3854 32.2858 0.0000 1.2152 0.0000
# 3 40.1524 32.2858 121.8558 0.0000 17.7322 0.0000
# 4 0.0000 0.0000 0.0000 180.5766 0.0000 -234.2824
# 5 12.5037 1.2152 17.7322 0.0000 28.5876 0.0000
# 6 0.0000 0.0000 0.0000 -234.2824 0.0000 405.9232
#
#
#
# Elastic Compliance Matrix: (Units=1/GPa)
#
#
# Indices 1 2 3 4 5 6 
#
# 1 0.023685 -0.004757 -0.005569 0.000000 -0.006703 0.000000
# 2 -0.004757 0.012951 -0.002294 0.000000 0.002953 0.000000
# 3 -0.005569 -0.002294 0.011300 0.000000 -0.004476 0.000000
# 4 0.000000 0.000000 0.000000 0.022047 0.000000 0.012724
# 5 -0.006703 0.002953 -0.004476 0.000000 0.040563 0.000000
# 6 0.000000 0.000000 0.000000 0.012724 0.000000 0.009808
#
#
# Mechanical properties :
#
#
# Convention : Reuss Voigt Hill
#
# Bulk Modulus (GPa) = 44.05659 52.51295 48.28477
# Shear Modulus (GPa) = 32.64587 134.73965 83.69276
#
# Velocity S-wave (km/s) = 4.20652 8.54587 6.73523
# Velocity P-wave (km/s) = 6.89004 11.21780 9.30891
#
# Compressibility (1/GPa) = 0.02269808
#
# Stress axis : x y z
#
# Youngs Moduli (GPa) = 42.22000 77.21459 88.49252
#
# Poissons Ratio (x) = 0.36732 0.49279
# Poissons Ratio (y) = 0.20085 0.20296
# Poissons Ratio (z) = 0.23511 0.17709
#
# Static dielectric constant tensor:
#      x y z
#    x 3.013760 0.000000 0.313450 
#    y 0.000000 3.639130 0.000000 
#    z 0.313450 0.000000 3.489300 
# 
# 
# High freq. dielectric constant tensor:
#      x y z
#    x 1.667910 0.000000 0.037420 
#    y 0.000000 1.735910 0.000000 
#    z 0.037420 0.000000 1.716450 
# 
# From -- ./inp_files/92457.got.cif
#   From: 2010.06.25/outbox.cif.g09.slc.cpg/sg15_47_cif.got.tgz:92457.got - 2010.06.28 07:06:18.
