data_PCOD8131892
_publ_section_title
;
Structure prediction by ZEFSAII (Michael W. Deem and Ramdas Pophale) SiO2 
 PCOD8131892
Probable space group: C 2/C
;
_chemical_formula_sum "Si O2"
_cell_formula_units_Z 44
_cell_length_a 15.103798
_cell_length_b 10.453109
_cell_length_c 16.065277
_cell_angle_alpha 90.000000
_cell_angle_beta 58.911286
_cell_angle_gamma 90.000000
_cell_volume 2172.104469
_symmetry_space_group_name_H-M "C 2/C"
_symmetry_group_IT_number 15
_symmetry_cell_setting 'monoclinic'
loop_
_space_group_symop_operation_xyz
x,y,z
-x,y,1/2-z
-x,-y,-z
x,-y,1/2+z
1/2+x,1/2+y,z
1/2-x,1/2+y,1/2-z
1/2-x,1/2-y,-z
1/2+x,1/2-y,1/2+z
loop_
_atom_site_type_symbol
_atom_site_label
_atom_site_fract_x
_atom_site_fract_y
_atom_site_fract_z
Si Si1 0.428683 0.247252 0.709705
Si Si2 0.519045 0.315111 0.062951
Si Si3 0.500000 0.610376 0.750000
Si Si4 0.303860 0.428582 0.868111
Si Si5 0.401131 0.083534 0.566168
Si Si6 0.412384 0.595763 0.469020
O O1 0.500000 0.192848 0.750000
O O2 0.322593 0.308353 0.797701
O O3 0.400187 0.131567 0.661957
O O4 0.488354 0.361657 0.633952
O O5 0.485723 0.300131 0.175274
O O6 0.579864 0.445900 0.013664
O O7 0.596645 0.201451 0.999560
O O8 0.416246 0.319021 0.052192
O O9 0.397907 0.527594 0.812173
O O10 0.197113 0.495536 0.900923
O O11 0.309288 0.381393 0.962913
O O12 0.500000 0.000000 0.500000
#
# Coordination Sequence:
#
# PCOD8131892 Si02
#       6
#     8   8   4   8   8   8
#     4   9  17  40  67  82 116 162 210 249 287 360
#     4   9  17  34  58  87 123 150 194 251 299 350
#     4  10  18  34  66  88 112 152 220 248 286 356
#     4  10  18  37  62  88 112 157 211 250 283 364
#     4  11  25  38  54  89 134 154 192 252 314 359
#     4   8  15  32  64  86 108 154 206 245 290 346
#
# _framework density 20.256851999999999
#
# number of rings (size 3 to 8) (size 9 to 14) (size 15 to 20)
#    0.000    2.545    4.545    0.000    0.000    4.364 
#    1.636   10.000    0.000    0.000    0.000    0.000 
#    0.000    0.000    0.000    0.000    0.000    0.000 
#
# Total GULP energy -272583.127691 kJ/mol
# GULP energy per Si atom -12390.142168 kJ/mol
# Density = 2.021075 g / cm^3
# Si number density = 20.256852 Si / 1000 Ang^3
#
#
#
# Elastic Constant Matrix: (Units=GPa)
#
#
# Indices 1 2 3 4 5 6 
#
# 1 152.6308 56.3098 82.3227 0.0000 11.6317 0.0000
# 2 56.3098 69.6864 39.7348 0.0000 3.8877 0.0000
# 3 82.3227 39.7348 108.6472 0.0000 33.6642 0.0000
# 4 0.0000 0.0000 0.0000 32.8187 0.0000 -4.1893
# 5 11.6317 3.8877 33.6642 0.0000 46.4642 0.0000
# 6 0.0000 0.0000 0.0000 -4.1893 0.0000 23.8968
#
#
#
# Elastic Compliance Matrix: (Units=1/GPa)
#
#
# Indices 1 2 3 4 5 6 
#
# 1 0.013333 -0.005756 -0.009172 0.000000 0.003789 0.000000
# 2 -0.005756 0.021287 -0.004279 0.000000 0.002760 0.000000
# 3 -0.009172 -0.004279 0.021787 0.000000 -0.013131 0.000000
# 4 0.000000 0.000000 0.000000 0.031168 0.000000 0.005464
# 5 0.003789 0.002760 -0.013131 0.000000 0.029856 0.000000
# 6 0.000000 0.000000 0.000000 0.005464 0.000000 0.042804
#
#
# Mechanical properties :
#
#
# Convention : Reuss Voigt Hill
#
# Bulk Modulus (GPa) = 55.57339 76.41100 65.99219
# Shear Modulus (GPa) = 24.43229 30.80909 27.62069
#
# Velocity S-wave (km/s) = 3.47670 3.90413 3.69660
# Velocity P-wave (km/s) = 6.60382 7.62404 7.13220
#
# Compressibility (1/GPa) = 0.01799422
#
# Stress axis : x y z
#
# Youngs Moduli (GPa) = 75.00043 46.97744 45.89831
#
# Poissons Ratio (x) = 0.27038 0.42097
# Poissons Ratio (y) = 0.43167 0.19641
# Poissons Ratio (z) = 0.68788 0.20103
#
# Static dielectric constant tensor:
#      x y z
#    x 2.152660 0.000000 0.916140 
#    y 0.000000 3.543770 0.000000 
#    z 0.916140 0.000000 3.899670 
# 
# 
# High freq. dielectric constant tensor:
#      x y z
#    x 1.782880 0.000000 0.035570 
#    y 0.000000 1.775340 0.000000 
#    z 0.035570 0.000000 1.782110 
# 
# From -- ./inp_files/203433.got.cif
#   From: 2010.06.25/outbox.cif.g09.slc.cpg/sg15_102_cif.got.tgz:203433.got - 2010.06.28 07:06:18.
