data_PCOD8131123
_publ_section_title
;
Structure prediction by ZEFSAII (Michael W. Deem and Ramdas Pophale) SiO2 
 PCOD8131123
Probable space group: C 2/C
;
_chemical_formula_sum "Si O2"
_cell_formula_units_Z 64
_cell_length_a 14.887595
_cell_length_b 13.861191
_cell_length_c 27.717817
_cell_angle_alpha 90.000000
_cell_angle_beta 39.857197
_cell_angle_gamma 90.000000
_cell_volume 3665.712116
_symmetry_space_group_name_H-M "C 2/C"
_symmetry_group_IT_number 15
_symmetry_cell_setting 'monoclinic'
loop_
_space_group_symop_operation_xyz
x,y,z
-x,y,1/2-z
-x,-y,-z
x,-y,1/2+z
1/2+x,1/2+y,z
1/2-x,1/2+y,1/2-z
1/2-x,1/2-y,-z
1/2+x,1/2-y,1/2+z
loop_
_atom_site_type_symbol
_atom_site_label
_atom_site_fract_x
_atom_site_fract_y
_atom_site_fract_z
Si Si1 0.594936 0.324162 0.903588
Si Si2 0.049639 0.015816 0.098476
Si Si3 0.393727 0.429622 0.251571
Si Si4 0.384143 0.665443 0.994288
Si Si5 0.842154 0.518245 0.513351
Si Si6 0.897841 0.300329 0.750614
Si Si7 0.421156 0.829815 0.909770
Si Si8 0.610674 0.104581 0.910284
O O1 0.492706 0.385575 0.911322
O O2 0.563220 0.346019 0.972688
O O3 0.751652 0.350694 0.823424
O O4 0.581277 0.209839 0.900967
O O5 0.193704 0.035401 0.067934
O O6 0.932779 0.981366 0.185182
O O7 0.078222 0.934025 0.047226
O O8 0.500000 0.465117 0.250000
O O9 0.400801 0.314704 0.244639
O O10 0.229259 0.453411 0.330592
O O11 0.220165 0.697405 0.061502
O O12 0.463065 0.750430 0.932751
O O13 0.891987 0.566242 0.443700
O O14 0.827325 0.601892 0.560549
O O15 0.958463 0.440828 0.477902
O O16 0.000000 0.336173 0.750000
O O17 0.947801 0.342739 0.679270
#
# Coordination Sequence:
#
# PCOD8131123 Si02
#       8
#     8   8   8   8   8   8   8   8
#     4  11  22  35  54  81 113 145 184 227 280 331
#     4  11  22  35  54  82 112 150 181 225 283 338
#     4  10  19  33  54  79 110 136 178 234 282 325
#     4  10  19  33  52  79 111 139 173 223 275 337
#     4  10  21  36  57  78 105 150 188 228 276 322
#     4  10  19  32  53  79 107 140 172 226 284 330
#     4  10  18  31  55  79 107 137 180 222 277 325
#     4  10  21  37  55  80 109 141 191 234 267 326
#
# _framework density 17.459091000000001
#
# number of rings (size 3 to 8) (size 9 to 14) (size 15 to 20)
#    0.000    1.750    5.000    0.375    1.750    0.500 
#    0.000    0.000    0.000    0.000    0.000    0.000 
#    0.000    0.000    0.000    0.000    0.000    0.000 
#
# Total GULP energy -396591.074635 kJ/mol
# GULP energy per Si atom -12393.471082 kJ/mol
# Density = 1.741935 g / cm^3
# Si number density = 17.459091 Si / 1000 Ang^3
#
#
#
# Elastic Constant Matrix: (Units=GPa)
#
#
# Indices 1 2 3 4 5 6 
#
# 1 87.5157 37.7631 36.7060 0.0000 0.4902 0.0000
# 2 37.7631 60.7282 24.9829 0.0000 -3.0606 0.0000
# 3 36.7060 24.9829 113.7913 -0.0001 6.0221 0.0000
# 4 0.0000 0.0000 -0.0001 22.7025 0.0000 3.1025
# 5 0.4902 -3.0606 6.0221 0.0000 27.2425 0.0000
# 6 0.0000 0.0000 0.0000 3.1025 0.0000 27.4273
#
#
#
# Elastic Compliance Matrix: (Units=1/GPa)
#
#
# Indices 1 2 3 4 5 6 
#
# 1 0.016758 -0.009056 -0.003387 0.000000 -0.000570 0.000000
# 2 -0.009056 0.023232 -0.002354 0.000000 0.003293 0.000000
# 3 -0.003387 -0.002354 0.010531 0.000000 -0.002532 0.000000
# 4 0.000000 0.000000 0.000000 0.044740 0.000000 -0.005061
# 5 -0.000570 0.003293 -0.002532 0.000000 0.037647 0.000000
# 6 0.000000 0.000000 0.000000 -0.005061 0.000000 0.037033
#
#
# Mechanical properties :
#
#
# Convention : Reuss Voigt Hill
#
# Bulk Modulus (GPa) = 47.78329 51.21546 49.49938
# Shear Modulus (GPa) = 24.21172 26.31334 25.26253
#
# Velocity S-wave (km/s) = 3.72797 3.88640 3.80801
# Velocity P-wave (km/s) = 6.77927 7.03826 6.90998
#
# Compressibility (1/GPa) = 0.02092782
#
# Stress axis : x y z
#
# Youngs Moduli (GPa) = 59.67260 43.04318 94.95411
#
# Poissons Ratio (x) = 0.38980 0.32164
# Poissons Ratio (y) = 0.54040 0.22350
# Poissons Ratio (z) = 0.20213 0.10131
#
# Static dielectric constant tensor:
#      x y z
#    x 3.167720 0.000000 0.027470 
#    y 0.000000 2.902380 0.000000 
#    z 0.027470 0.000000 3.475530 
# 
# 
# High freq. dielectric constant tensor:
#      x y z
#    x 1.658880 0.000000 0.008340 
#    y 0.000000 1.646510 0.000000 
#    z 0.008340 0.000000 1.691700 
# 
# From -- ./inp_files/296387.got.cif
#   From: 2010.06.25/outbox.cif.g09.slc.cpg/sg15_149_cif.got.tgz:296387.got - 2010.06.28 07:06:18.
