data_PCOD8131627
_publ_section_title
;
Structure prediction by ZEFSAII (Michael W. Deem and Ramdas Pophale) SiO2 
 PCOD8131627
Probable space group: C 2/C
;
_chemical_formula_sum "Si O2"
_cell_formula_units_Z 56
_cell_length_a 31.973547
_cell_length_b 16.377773
_cell_length_c 9.543786
_cell_angle_alpha 90.000000
_cell_angle_beta 40.654863
_cell_angle_gamma 90.000000
_cell_volume 3255.977626
_symmetry_space_group_name_H-M "C 2/C"
_symmetry_group_IT_number 15
_symmetry_cell_setting 'monoclinic'
loop_
_space_group_symop_operation_xyz
x,y,z
-x,y,1/2-z
-x,-y,-z
x,-y,1/2+z
1/2+x,1/2+y,z
1/2-x,1/2+y,1/2-z
1/2-x,1/2-y,-z
1/2+x,1/2-y,1/2+z
loop_
_atom_site_type_symbol
_atom_site_label
_atom_site_fract_x
_atom_site_fract_y
_atom_site_fract_z
Si Si1 0.000933 0.583147 0.081712
Si Si2 0.372044 0.171694 0.408454
Si Si3 0.201148 0.195443 0.952711
Si Si4 0.761428 0.927530 0.906227
Si Si5 0.755054 0.116585 0.917344
Si Si6 0.633771 0.840845 0.247045
Si Si7 0.299944 0.681064 0.088462
O O1 0.000000 0.565449 0.250000
O O2 0.940904 0.638586 0.185497
O O3 0.064391 0.630529 0.871890
O O4 0.000000 0.500000 0.000000
O O5 0.316299 0.124921 0.464174
O O6 0.362621 0.155826 0.595724
O O7 0.366586 0.269934 0.390108
O O8 0.215917 0.119526 0.014312
O O9 0.142187 0.249472 0.160997
O O10 0.191404 0.154913 0.823956
O O11 0.261846 0.256602 0.789223
O O12 0.807491 0.902212 0.657642
O O13 0.769885 0.022753 0.911005
O O14 0.688057 0.903532 0.052194
O O15 0.760198 0.166251 0.048396
#
# Coordination Sequence:
#
# PCOD8131627 Si02
#       7
#     8   8   8   8   8   8   8
#     4  10  22  38  53  76 103 136 177 210 244 299
#     4  10  18  35  51  71 104 137 171 204 247 308
#     4  10  18  34  50  70 103 135 171 208 251 317
#     4  11  18  32  52  75 106 133 169 209 260 304
#     4  11  21  29  50  82 105 129 166 218 265 294
#     4  10  18  34  55  69  99 144 172 200 245 311
#     4  10  19  32  50  75 102 138 167 210 257 307
#
# _framework density 17.199134999999998
#
# number of rings (size 3 to 8) (size 9 to 14) (size 15 to 20)
#    0.000    1.714    4.286    4.286    0.000    0.000 
#   10.286    0.000    0.000    0.000    0.000    6.000 
#    0.000    0.000    0.000    0.000    0.000    0.000 
#
# Total GULP energy -346972.115919 kJ/mol
# GULP energy per Si atom -12391.861283 kJ/mol
# Density = 1.715999 g / cm^3
# Si number density = 17.199135 Si / 1000 Ang^3
#
#
#
# Elastic Constant Matrix: (Units=GPa)
#
#
# Indices 1 2 3 4 5 6 
#
# 1 69.8929 24.7689 27.4502 0.0000 -6.6931 0.0000
# 2 24.7689 74.7476 34.2318 0.0000 -22.4970 0.0000
# 3 27.4502 34.2318 63.6711 0.0000 -12.6179 0.0000
# 4 0.0000 0.0000 0.0000 29.0153 0.0000 4.2240
# 5 -6.6931 -22.4970 -12.6179 0.0000 22.7857 0.0000
# 6 0.0000 0.0000 0.0000 4.2240 0.0000 30.3697
#
#
#
# Elastic Compliance Matrix: (Units=1/GPa)
#
#
# Indices 1 2 3 4 5 6 
#
# 1 0.017815 -0.003646 -0.006062 0.000000 -0.001724 0.000000
# 2 -0.003646 0.023385 -0.007456 0.000000 0.017889 0.000000
# 3 -0.006062 -0.007456 0.023045 0.000000 0.003620 0.000000
# 4 0.000000 0.000000 0.000000 0.035177 0.000000 -0.004893
# 5 -0.001724 0.017889 0.003620 0.000000 0.063048 0.000000
# 6 0.000000 0.000000 0.000000 -0.004893 0.000000 0.033608
#
#
# Mechanical properties :
#
#
# Convention : Reuss Voigt Hill
#
# Bulk Modulus (GPa) = 33.42453 42.35704 37.89078
# Shear Modulus (GPa) = 20.80054 24.55819 22.67936
#
# Velocity S-wave (km/s) = 3.48141 3.78282 3.63524
# Velocity P-wave (km/s) = 5.96961 6.61517 6.30067
#
# Compressibility (1/GPa) = 0.02991815
#
# Stress axis : x y z
#
# Youngs Moduli (GPa) = 56.13093 42.76225 43.39351
#
# Poissons Ratio (x) = 0.15591 0.26305
# Poissons Ratio (y) = 0.20466 0.32352
# Poissons Ratio (z) = 0.34027 0.31882
#
# Static dielectric constant tensor:
#      x y z
#    x 3.126370 0.000000 0.052760 
#    y 0.000000 3.443160 0.000000 
#    z 0.052760 0.000000 3.367900 
# 
# 
# High freq. dielectric constant tensor:
#      x y z
#    x 1.648590 0.000000 0.029230 
#    y 0.000000 1.669690 0.000000 
#    z 0.029230 0.000000 1.643680 
# 
# From -- ./inp_files/66897.got.cif
#   From: 2010.06.25/outbox.cif.g09.slc.cpg/sg15_34_cif.got.tgz:66897.got - 2010.06.28 07:06:18.
