data_PCOD8131369
_publ_section_title
;
Structure prediction by ZEFSAII (Michael W. Deem and Ramdas Pophale) SiO2 
 PCOD8131369
Probable space group: C 2/C
;
_chemical_formula_sum "Si O2"
_cell_formula_units_Z 60
_cell_length_a 22.320611
_cell_length_b 14.486973
_cell_length_c 15.452738
_cell_angle_alpha 90.000000
_cell_angle_beta 37.986856
_cell_angle_gamma 90.000000
_cell_volume 3075.414084
_symmetry_space_group_name_H-M "C 2/C"
_symmetry_group_IT_number 15
_symmetry_cell_setting 'monoclinic'
loop_
_space_group_symop_operation_xyz
x,y,z
-x,y,1/2-z
-x,-y,-z
x,-y,1/2+z
1/2+x,1/2+y,z
1/2-x,1/2+y,1/2-z
1/2-x,1/2-y,-z
1/2+x,1/2-y,1/2+z
loop_
_atom_site_type_symbol
_atom_site_label
_atom_site_fract_x
_atom_site_fract_y
_atom_site_fract_z
Si Si1 0.081482 0.243962 0.547104
Si Si2 0.806576 0.658726 0.909228
Si Si3 0.500000 0.762860 0.250000
Si Si4 0.236674 0.462045 0.489091
Si Si5 0.382699 0.806009 0.806093
Si Si6 0.226450 0.178821 0.695002
Si Si7 0.413611 0.452562 0.413560
Si Si8 0.642976 0.357906 0.467004
O O1 0.106675 0.244921 0.620304
O O2 0.166454 0.290539 0.393327
O O3 0.067646 0.134693 0.544048
O O4 0.984246 0.302561 0.637800
O O5 0.785147 0.571303 0.997030
O O6 0.754557 0.635399 0.876796
O O7 0.923925 0.676550 0.777844
O O8 0.750000 0.750000 0.000000
O O9 0.431748 0.704400 0.392384
O O10 0.142012 0.410408 0.636948
O O11 0.266485 0.420273 0.361474
O O12 0.318977 0.440316 0.463794
O O13 0.300775 0.759188 0.841065
O O14 0.151030 0.178202 0.859872
O O15 0.500000 0.471736 0.250000
O O16 0.402790 0.540808 0.487641
#
# Coordination Sequence:
#
# PCOD8131369 Si02
#       8
#     8   8   4   8   8   8   8   8
#     4  10  18  32  59  82 122 151 183 226 291 358
#     4   9  21  40  60  80 105 158 198 230 273 335
#     4  10  20  44  62  72 108 166 202 224 274 346
#     4  10  19  36  61  83 120 150 194 234 284 357
#     4  10  18  33  57  89 116 153 180 228 299 347
#     4  11  20  36  54  93 120 140 184 248 294 336
#     4  11  17  35  59  81 109 163 190 226 289 350
#     4  10  23  37  60  82 117 149 196 244 282 333
#
# _framework density 19.509567000000001
#
# number of rings (size 3 to 8) (size 9 to 14) (size 15 to 20)
#    0.000    1.867    4.667    0.800    0.000    3.200 
#    4.800    2.667    0.000    3.200    0.000    0.000 
#    0.000    0.000    0.000    0.000    0.000    0.000 
#
# Total GULP energy -371662.708427 kJ/mol
# GULP energy per Si atom -12388.756948 kJ/mol
# Density = 1.946516 g / cm^3
# Si number density = 19.509567 Si / 1000 Ang^3
#
#
#
# Elastic Constant Matrix: (Units=GPa)
#
#
# Indices 1 2 3 4 5 6 
#
# 1 40.2777 20.1439 27.4263 0.0000 -10.9517 0.0000
# 2 20.1439 124.2210 46.3027 0.0000 2.7758 0.0000
# 3 27.4263 46.3027 114.2329 0.0000 -7.0389 0.0000
# 4 0.0000 0.0000 0.0000 18.7110 0.0000 -9.5005
# 5 -10.9517 2.7758 -7.0389 0.0000 32.9845 0.0000
# 6 0.0000 0.0000 0.0000 -9.5005 0.0000 21.5917
#
#
#
# Elastic Compliance Matrix: (Units=1/GPa)
#
#
# Indices 1 2 3 4 5 6 
#
# 1 0.033360 -0.003394 -0.006013 0.000000 0.010079 0.000000
# 2 -0.003394 0.009916 -0.003370 0.000000 -0.002680 0.000000
# 3 -0.006013 -0.003370 0.011611 0.000000 0.000765 0.000000
# 4 0.000000 0.000000 0.000000 0.068820 0.000000 0.030281
# 5 0.010079 -0.002680 0.000765 0.000000 0.034052 0.000000
# 6 0.000000 0.000000 0.000000 0.030281 0.000000 0.059638
#
#
# Mechanical properties :
#
#
# Convention : Reuss Voigt Hill
#
# Bulk Modulus (GPa) = 34.08987 51.83083 42.96035
# Shear Modulus (GPa) = 19.78414 26.98133 23.38274
#
# Velocity S-wave (km/s) = 3.18791 3.72288 3.46573
# Velocity P-wave (km/s) = 5.57330 6.71597 6.17114
#
# Compressibility (1/GPa) = 0.02933422
#
# Stress axis : x y z
#
# Youngs Moduli (GPa) = 29.97641 100.84204 86.12724
#
# Poissons Ratio (x) = 0.34222 0.51786
# Poissons Ratio (y) = 0.10173 0.29024
# Poissons Ratio (z) = 0.18024 0.33983
#
# Static dielectric constant tensor:
#      x y z
#    x 3.481610 0.000000 -0.410570 
#    y 0.000000 3.682290 0.000000 
#    z -0.410570 0.000000 3.481770 
# 
# 
# High freq. dielectric constant tensor:
#      x y z
#    x 1.736180 0.000000 -0.034210 
#    y 0.000000 1.761240 0.000000 
#    z -0.034210 0.000000 1.749760 
# 
# From -- ./inp_files/222714.got.cif
#   From: 2010.06.25/outbox.cif.g09.slc.cpg/sg15_112_cif.got.tgz:222714.got - 2010.06.28 07:06:18.
