data_PCOD8131662
_publ_section_title
;
Structure prediction by ZEFSAII (Michael W. Deem and Ramdas Pophale) SiO2 
 PCOD8131662
Probable space group: C 2/C
;
_chemical_formula_sum "Si O2"
_cell_formula_units_Z 48
_cell_length_a 11.540256
_cell_length_b 19.614889
_cell_length_c 11.869013
_cell_angle_alpha 90.000000
_cell_angle_beta 129.427973
_cell_angle_gamma 90.000000
_cell_volume 2075.254831
_symmetry_space_group_name_H-M "C 2/C"
_symmetry_group_IT_number 15
_symmetry_cell_setting 'monoclinic'
loop_
_space_group_symop_operation_xyz
x,y,z
-x,y,1/2-z
-x,-y,-z
x,-y,1/2+z
1/2+x,1/2+y,z
1/2-x,1/2+y,1/2-z
1/2-x,1/2-y,-z
1/2+x,1/2-y,1/2+z
loop_
_atom_site_type_symbol
_atom_site_label
_atom_site_fract_x
_atom_site_fract_y
_atom_site_fract_z
Si Si1 0.924628 0.121004 0.963549
Si Si2 0.547310 0.269461 0.401927
Si Si3 0.166586 0.962235 0.301203
Si Si4 0.745042 0.403158 0.745030
Si Si5 0.325862 0.862914 0.570069
Si Si6 0.666754 0.309984 0.886447
O O1 0.837026 0.074824 0.821249
O O2 0.931113 0.199263 0.920399
O O3 0.841474 0.125503 0.032299
O O4 0.087474 0.087888 0.082101
O O5 0.500000 0.297142 0.250000
O O6 0.545162 0.186149 0.404739
O O7 0.705166 0.304774 0.530124
O O8 0.269386 0.918978 0.448779
O O9 0.000000 0.974102 0.250000
O O10 0.259410 0.031430 0.335254
O O11 0.868675 0.397977 0.718896
O O12 0.751944 0.335638 0.827136
O O13 0.500000 0.285371 0.750000
O O14 0.750000 0.250000 0.000000
#
# Coordination Sequence:
#
# PCOD8131662 Si02
#       6
#     8   8   8   8   8   8
#     4  10  19  34  56  86 111 150 189 253 298 356
#     4  10  18  34  54  82 110 139 191 241 283 334
#     4  12  19  33  55  86 114 149 189 245 308 355
#     4  10  22  34  53  83 122 152 184 243 302 365
#     4  10  21  33  56  85 110 150 194 237 293 351
#     4  10  23  39  58  87 122 163 200 244 309 362
#
# _framework density 23.12969
#
# number of rings (size 3 to 8) (size 9 to 14) (size 15 to 20)
#    0.000    1.667    5.000    2.000    4.667    2.667 
#    0.000    0.000    0.000    2.000    0.000    0.000 
#    0.000    0.000    0.000    0.000    0.000    0.000 
#
# Total GULP energy -297391.691338 kJ/mol
# GULP energy per Si atom -12391.320472 kJ/mol
# Density = 2.307705 g / cm^3
# Si number density = 23.129690 Si / 1000 Ang^3
#
#
#
# Elastic Constant Matrix: (Units=GPa)
#
#
# Indices 1 2 3 4 5 6 
#
# 1 38.8300 17.7146 11.8977 0.0000 -20.7420 0.0000
# 2 17.7146 122.4495 39.4200 0.0000 -8.3957 0.0000
# 3 11.8977 39.4200 111.3354 0.0000 -23.4661 0.0000
# 4 0.0000 0.0000 0.0000 41.6015 0.0000 -0.6669
# 5 -20.7420 -8.3957 -23.4661 0.0000 25.2355 0.0000
# 6 0.0000 0.0000 0.0000 -0.6669 0.0000 19.0906
#
#
#
# Elastic Compliance Matrix: (Units=1/GPa)
#
#
# Indices 1 2 3 4 5 6 
#
# 1 0.051255 -0.006342 0.006471 0.000000 0.046035 0.000000
# 2 -0.006342 0.010002 -0.004056 0.000000 -0.005656 0.000000
# 3 0.006471 -0.004056 0.013138 0.000000 0.016186 0.000000
# 4 0.000000 0.000000 0.000000 0.024051 0.000000 0.000840
# 5 0.046035 -0.005656 0.016186 0.000000 0.090634 0.000000
# 6 0.000000 0.000000 0.000000 0.000840 0.000000 0.052411
#
#
# Mechanical properties :
#
#
# Convention : Reuss Voigt Hill
#
# Bulk Modulus (GPa) = 15.02828 45.63105 30.32966
# Shear Modulus (GPa) = 18.41457 30.75770 24.58613
#
# Velocity S-wave (km/s) = 2.82466 3.65059 3.26386
# Velocity P-wave (km/s) = 4.14123 6.12701 5.22925
#
# Compressibility (1/GPa) = 0.06654121
#
# Stress axis : x y z
#
# Youngs Moduli (GPa) = 19.51046 99.98054 76.11560
#
# Poissons Ratio (x) = 0.63405 -0.49254
# Poissons Ratio (y) = 0.12373 0.30871
# Poissons Ratio (z) = -0.12625 0.40550
#
# Static dielectric constant tensor:
#      x y z
#    x 4.286830 0.000000 -0.436880 
#    y 0.000000 4.240370 0.000000 
#    z -0.436880 0.000000 4.317400 
# 
# 
# High freq. dielectric constant tensor:
#      x y z
#    x 1.881630 0.000000 -0.027030 
#    y 0.000000 1.908180 0.000000 
#    z -0.027030 0.000000 1.924730 
# 
# From -- ./inp_files/87887.got.cif
#   From: 2010.06.25/outbox.cif.g09.slc.cpg/sg15_44_cif.got.tgz:87887.got - 2010.06.28 07:06:18.
