data_PCOD8131758
_publ_section_title
;
Structure prediction by ZEFSAII (Michael W. Deem and Ramdas Pophale) SiO2 
 PCOD8131758
Probable space group: C 2/C
;
_chemical_formula_sum "Si O2"
_cell_formula_units_Z 64
_cell_length_a 9.092463
_cell_length_b 18.431791
_cell_length_c 29.290945
_cell_angle_alpha 90.000000
_cell_angle_beta 137.218965
_cell_angle_gamma 90.000000
_cell_volume 3334.103811
_symmetry_space_group_name_H-M "C 2/C"
_symmetry_group_IT_number 15
_symmetry_cell_setting 'monoclinic'
loop_
_space_group_symop_operation_xyz
x,y,z
-x,y,1/2-z
-x,-y,-z
x,-y,1/2+z
1/2+x,1/2+y,z
1/2-x,1/2+y,1/2-z
1/2-x,1/2-y,-z
1/2+x,1/2-y,1/2+z
loop_
_atom_site_type_symbol
_atom_site_label
_atom_site_fract_x
_atom_site_fract_y
_atom_site_fract_z
Si Si1 0.222370 0.830313 0.316190
Si Si2 0.151749 0.414461 0.068079
Si Si3 0.539489 0.664365 0.927701
Si Si4 0.185096 0.582339 0.083124
Si Si5 0.934239 0.678241 0.685137
Si Si6 0.517654 0.821060 0.800674
Si Si7 0.117609 0.672831 0.420983
Si Si8 0.973721 0.836016 0.793165
O O1 0.343421 0.866545 0.385911
O O2 0.384417 0.837581 0.310907
O O3 0.155268 0.749257 0.316101
O O4 0.000000 0.870878 0.250000
O O5 0.346278 0.394925 0.078262
O O6 0.176963 0.496983 0.089308
O O7 0.921084 0.399456 0.990288
O O8 0.292588 0.639931 0.879540
O O9 0.552718 0.742496 0.906007
O O10 0.648722 0.665407 0.002427
O O11 0.433139 0.611846 0.145011
O O12 0.054775 0.622175 0.093492
O O13 0.000000 0.648628 0.750000
O O14 0.880205 0.763784 0.674548
O O15 0.500000 0.870838 0.750000
O O16 0.634048 0.854447 0.871760
O O17 0.268781 0.806060 0.756634
O O18 0.000000 0.876211 0.750000
#
# Coordination Sequence:
#
# PCOD8131758 Si02
#       8
#     8   8   8   8   8   8   8   8
#     4  11  21  36  57  86 120 152 187 245 304 351
#     4  10  22  39  60  85 120 154 205 244 305 359
#     4  10  19  33  60  87 108 153 196 247 290 361
#     4  10  21  38  62  85 115 162 199 247 294 378
#     4  11  20  34  58  86 117 151 192 242 301 361
#     4  11  20  34  54  87 119 150 188 253 301 343
#     4  10  18  34  58  82 118 148 200 239 301 354
#     4  11  19  33  59  85 114 150 199 241 293 357
#
# _framework density 19.195563
#
# number of rings (size 3 to 8) (size 9 to 14) (size 15 to 20)
#    0.000    1.500    6.250    1.500    0.000    0.500 
#    2.250    1.250    2.750    2.250    0.000    0.000 
#    0.000    0.000    0.000    0.000    0.000    0.000 
#
# Total GULP energy -396438.208827 kJ/mol
# GULP energy per Si atom -12388.694026 kJ/mol
# Density = 1.915187 g / cm^3
# Si number density = 19.195563 Si / 1000 Ang^3
#
#
#
# Elastic Constant Matrix: (Units=GPa)
#
#
# Indices 1 2 3 4 5 6 
#
# 1 107.8169 16.6185 64.0062 0.0002 -11.3586 0.0001
# 2 16.6185 50.0524 25.0355 0.0001 -5.0133 0.0001
# 3 64.0062 25.0355 142.6985 0.0004 -14.8649 0.0002
# 4 0.0002 0.0001 0.0004 22.5944 0.0002 -2.5984
# 5 -11.3586 -5.0133 -14.8649 0.0002 43.6565 0.0002
# 6 0.0001 0.0001 0.0002 -2.5984 0.0002 16.7206
#
#
#
# Elastic Compliance Matrix: (Units=1/GPa)
#
#
# Indices 1 2 3 4 5 6 
#
# 1 0.012819 -0.001442 -0.005357 0.000000 0.001346 0.000000
# 2 -0.001442 0.022129 -0.003121 0.000000 0.001103 0.000000
# 3 -0.005357 -0.003121 0.010135 0.000000 0.001699 0.000000
# 4 0.000000 0.000000 0.000000 0.045064 0.000000 0.007003
# 5 0.001346 0.001103 0.001699 0.000000 0.023961 0.000000
# 6 0.000000 0.000000 0.000000 0.007003 0.000000 0.060895
#
#
# Mechanical properties :
#
#
# Convention : Reuss Voigt Hill
#
# Bulk Modulus (GPa) = 39.61267 56.87646 48.24456
# Shear Modulus (GPa) = 24.59938 29.58815 27.09377
#
# Velocity S-wave (km/s) = 3.58371 3.93033 3.76102
# Velocity P-wave (km/s) = 6.14859 7.09162 6.63687
#
# Compressibility (1/GPa) = 0.02524445
#
# Stress axis : x y z
#
# Youngs Moduli (GPa) = 78.00877 45.18900 98.66847
#
# Poissons Ratio (x) = 0.06517 0.52854
# Poissons Ratio (y) = 0.11249 0.30791
# Poissons Ratio (z) = 0.41787 0.14102
#
# Static dielectric constant tensor:
#      x y z
#    x 3.463450 0.000000 -0.164940 
#    y 0.000000 3.135550 0.000000 
#    z -0.164940 0.000000 4.002170 
# 
# 
# High freq. dielectric constant tensor:
#      x y z
#    x 1.736300 0.000000 -0.007480 
#    y 0.000000 1.694690 0.000000 
#    z -0.007480 0.000000 1.775980 
# 
# From -- ./inp_files/308793.got.cif
#   From: 2010.06.25/outbox.cif.g09.slc.cpg/sg15_155_cif.got.tgz:308793.got - 2010.06.28 07:06:18.
