data_PCOD8131354
_publ_section_title
;
Structure prediction by ZEFSAII (Michael W. Deem and Ramdas Pophale) SiO2 
 PCOD8131354
Probable space group: C 2/C
;
_chemical_formula_sum "Si O2"
_cell_formula_units_Z 56
_cell_length_a 16.615542
_cell_length_b 18.813300
_cell_length_c 11.219762
_cell_angle_alpha 90.000000
_cell_angle_beta 127.194719
_cell_angle_gamma 90.000000
_cell_volume 2793.801921
_symmetry_space_group_name_H-M "C 2/C"
_symmetry_group_IT_number 15
_symmetry_cell_setting 'monoclinic'
loop_
_space_group_symop_operation_xyz
x,y,z
-x,y,1/2-z
-x,-y,-z
x,-y,1/2+z
1/2+x,1/2+y,z
1/2-x,1/2+y,1/2-z
1/2-x,1/2-y,-z
1/2+x,1/2-y,1/2+z
loop_
_atom_site_type_symbol
_atom_site_label
_atom_site_fract_x
_atom_site_fract_y
_atom_site_fract_z
Si Si1 0.315884 0.163400 0.947457
Si Si2 0.060258 0.518583 0.429786
Si Si3 0.391812 0.664020 0.126458
Si Si4 0.110256 0.212523 0.828525
Si Si5 0.111647 0.696454 0.724657
Si Si6 0.688745 0.111069 0.002146
Si Si7 0.899239 0.272441 0.934952
O O1 0.202435 0.155050 0.902238
O O2 0.300848 0.181766 0.794068
O O3 0.388282 0.095760 0.025574
O O4 0.370781 0.233008 0.047918
O O5 0.154358 0.465210 0.515631
O O6 0.000000 0.511133 0.250000
O O7 0.000000 0.500000 0.500000
O O8 0.500000 0.627719 0.250000
O O9 0.372527 0.727576 0.201818
O O10 0.305270 0.605151 0.063938
O O11 0.387213 0.696771 0.990167
O O12 0.107798 0.261915 0.710744
O O13 0.000000 0.175103 0.750000
O O14 0.117007 0.635955 0.829655
O O15 0.004461 0.689889 0.564149
O O16 0.685241 0.169974 0.103880
#
# Coordination Sequence:
#
# PCOD8131354 Si02
#       7
#     8   8   8   8   8   8   8
#     4  11  23  38  58  84 117 157 199 239 301 356
#     4  12  27  43  61  88 122 162 203 248 298 370
#     4   9  19  33  56  88 114 143 192 245 298 350
#     4  11  22  37  58  85 118 155 194 251 296 353
#     4  10  18  35  58  88 115 146 189 245 304 348
#     4  11  20  35  58  83 117 154 189 243 298 350
#     4  10  18  32  58  86 114 146 190 243 300 352
#
# _framework density 20.044370000000001
#
# number of rings (size 3 to 8) (size 9 to 14) (size 15 to 20)
#    0.000    1.429    1.429    7.714    2.000    0.000 
#    0.000    0.714    0.000    0.000    0.000    7.000 
#    0.000    0.000    0.000    0.000    0.000    0.000 
#
# Total GULP energy -346980.716918 kJ/mol
# GULP energy per Si atom -12392.168461 kJ/mol
# Density = 1.999875 g / cm^3
# Si number density = 20.044370 Si / 1000 Ang^3
#
#
#
# Elastic Constant Matrix: (Units=GPa)
#
#
# Indices 1 2 3 4 5 6 
#
# 1 125.4723 42.2060 26.7412 0.0000 13.7104 0.0000
# 2 42.2060 54.2434 13.2439 0.0000 6.6446 0.0000
# 3 26.7412 13.2439 66.1527 0.0000 -3.8341 0.0000
# 4 0.0000 0.0000 0.0000 7.7891 0.0000 7.9538
# 5 13.7104 6.6446 -3.8341 0.0000 47.1312 0.0000
# 6 0.0000 0.0000 0.0000 7.9538 0.0000 34.2770
#
#
#
# Elastic Compliance Matrix: (Units=1/GPa)
#
#
# Indices 1 2 3 4 5 6 
#
# 1 0.011605 -0.007927 -0.003250 0.000000 -0.002523 0.000000
# 2 -0.007927 0.025248 -0.001932 0.000000 -0.001411 0.000000
# 3 -0.003250 -0.001932 0.016968 0.000000 0.002598 0.000000
# 4 0.000000 0.000000 0.000000 0.168251 0.000000 -0.039042
# 5 -0.002523 -0.001411 0.002598 0.000000 0.022361 0.000000
# 6 0.000000 0.000000 0.000000 -0.039042 0.000000 0.038234
#
#
# Mechanical properties :
#
#
# Convention : Reuss Voigt Hill
#
# Bulk Modulus (GPa) = 36.22949 45.58338 40.90644
# Shear Modulus (GPa) = 15.71904 28.75128 22.23516
#
# Velocity S-wave (km/s) = 2.80342 3.79143 3.33422
# Velocity P-wave (km/s) = 5.34722 6.47744 5.93927
#
# Compressibility (1/GPa) = 0.02760182
#
# Stress axis : x y z
#
# Youngs Moduli (GPa) = 86.17237 39.60751 58.93517
#
# Poissons Ratio (x) = 0.31396 0.19155
# Poissons Ratio (y) = 0.68307 0.11387
# Poissons Ratio (z) = 0.28008 0.07653
#
# Static dielectric constant tensor:
#      x y z
#    x 4.205640 0.000000 0.062230 
#    y 0.000000 3.160150 0.000000 
#    z 0.062230 0.000000 3.838670 
# 
# 
# High freq. dielectric constant tensor:
#      x y z
#    x 1.805970 0.000000 -0.001230 
#    y 0.000000 1.724970 0.000000 
#    z -0.001230 0.000000 1.790560 
# 
# From -- ./inp_files/106724.got.cif
#   From: 2010.06.25/outbox.cif.g09.slc.cpg/sg15_54_cif.got.tgz:106724.got - 2010.06.28 07:06:18.
