data_PCOD8131270
_publ_section_title
;
Structure prediction by ZEFSAII (Michael W. Deem and Ramdas Pophale) SiO2 
 PCOD8131270
Probable space group: C 2/C
;
_chemical_formula_sum "Si O2"
_cell_formula_units_Z 56
_cell_length_a 13.189930
_cell_length_b 9.535920
_cell_length_c 21.193399
_cell_angle_alpha 90.000000
_cell_angle_beta 93.222433
_cell_angle_gamma 90.000000
_cell_volume 2661.450959
_symmetry_space_group_name_H-M "C 2/C"
_symmetry_group_IT_number 15
_symmetry_cell_setting 'monoclinic'
loop_
_space_group_symop_operation_xyz
x,y,z
-x,y,1/2-z
-x,-y,-z
x,-y,1/2+z
1/2+x,1/2+y,z
1/2-x,1/2+y,1/2-z
1/2-x,1/2-y,-z
1/2+x,1/2-y,1/2+z
loop_
_atom_site_type_symbol
_atom_site_label
_atom_site_fract_x
_atom_site_fract_y
_atom_site_fract_z
Si Si1 0.098241 0.116490 0.902730
Si Si2 0.251953 0.057559 0.003952
Si Si3 0.900522 0.550657 0.412236
Si Si4 0.114111 0.418373 0.876266
Si Si5 0.261167 0.880777 0.196500
Si Si6 0.379593 0.362689 0.428305
Si Si7 0.224722 0.059189 0.313492
O O1 0.084942 0.256618 0.858228
O O2 0.989454 0.062918 0.924106
O O3 0.147022 0.987411 0.865863
O O4 0.171356 0.159274 0.965447
O O5 0.289954 0.100567 0.074005
O O6 0.184296 0.917623 0.013944
O O7 0.349378 0.048169 0.962105
O O8 0.899196 0.701897 0.444394
O O9 0.839108 0.548714 0.344183
O O10 0.016503 0.504402 0.403752
O O11 0.145579 0.514715 0.818223
O O12 0.178470 0.882228 0.139277
O O13 0.299189 0.719862 0.208983
O O14 0.211366 0.947401 0.256993
#
# Coordination Sequence:
#
# PCOD8131270 Si02
#       7
#     8   8   8   8   8   8   8
#     4  10  20  35  54  80 110 141 175 216 263 313
#     4  10  18  32  54  82 109 140 177 220 257 302
#     4   9  19  34  54  78 108 144 178 212 262 319
#     4  10  20  35  54  80 110 141 175 216 263 313
#     4  10  21  38  57  78 104 139 178 220 265 314
#     4   9  19  34  54  78 108 144 178 212 262 319
#     4  10  21  38  57  78 104 139 178 220 265 314
#
# _framework density 21.041153999999999
#
# number of rings (size 3 to 8) (size 9 to 14) (size 15 to 20)
#    0.000    2.286    0.000    2.571    0.000    2.286 
#    0.000   14.286    0.000    0.000    0.000    0.000 
#    0.000    0.000    0.000    0.000    0.000    0.000 
#
# Total GULP energy -346943.979037 kJ/mol
# GULP energy per Si atom -12390.856394 kJ/mol
# Density = 2.099326 g / cm^3
# Si number density = 21.041154 Si / 1000 Ang^3
#
#
#
# Elastic Constant Matrix: (Units=GPa)
#
#
# Indices 1 2 3 4 5 6 
#
# 1 94.8442 6.7671 1.2129 0.0000 -15.3067 0.0000
# 2 6.7671 73.7566 8.2180 0.0000 -5.4469 0.0000
# 3 1.2129 8.2180 47.5241 0.0000 -9.6565 0.0000
# 4 0.0000 0.0000 0.0000 25.3880 0.0000 -5.9168
# 5 -15.3067 -5.4469 -9.6565 0.0000 20.0932 0.0000
# 6 0.0000 0.0000 0.0000 -5.9168 0.0000 26.0758
#
#
#
# Elastic Compliance Matrix: (Units=1/GPa)
#
#
# Indices 1 2 3 4 5 6 
#
# 1 0.012174 -0.000582 0.001820 0.000000 0.009991 0.000000
# 2 -0.000582 0.014004 -0.001912 0.000000 0.002434 0.000000
# 3 0.001820 -0.001912 0.023830 0.000000 0.012320 0.000000
# 4 0.000000 0.000000 0.000000 0.041588 0.000000 0.009437
# 5 0.009991 0.002434 0.012320 0.000000 0.063960 0.000000
# 6 0.000000 0.000000 0.000000 0.009437 0.000000 0.040491
#
#
# Mechanical properties :
#
#
# Convention : Reuss Voigt Hill
#
# Bulk Modulus (GPa) = 20.55081 27.61346 24.08213
# Shear Modulus (GPa) = 23.40655 27.63985 25.52320
#
# Velocity S-wave (km/s) = 3.33891 3.62831 3.48661
# Velocity P-wave (km/s) = 4.96514 5.54120 5.26106
#
# Compressibility (1/GPa) = 0.04865988
#
# Stress axis : x y z
#
# Youngs Moduli (GPa) = 82.14017 71.40655 41.96469
#
# Poissons Ratio (x) = 0.04155 -0.07638
# Poissons Ratio (y) = 0.04780 0.08025
# Poissons Ratio (z) = -0.14950 0.13655
#
# Static dielectric constant tensor:
#      x y z
#    x 3.961950 0.000000 -0.030730 
#    y 0.000000 3.779900 0.000000 
#    z -0.030730 0.000000 3.588750 
# 
# 
# High freq. dielectric constant tensor:
#      x y z
#    x 1.826730 0.000000 -0.004410 
#    y 0.000000 1.817830 0.000000 
#    z -0.004410 0.000000 1.808150 
# 
# From -- ./inp_files/242823.got.cif
#   From: 2010.06.25/outbox.cif.g09.slc.cpg/sg15_122_cif.got.tgz:242823.got - 2010.06.28 07:06:18.
