data_PCOD8131387
_publ_section_title
;
Structure prediction by ZEFSAII (Michael W. Deem and Ramdas Pophale) SiO2 
 PCOD8131387
Probable space group: C 2/C
;
_chemical_formula_sum "Si O2"
_cell_formula_units_Z 44
_cell_length_a 23.126165
_cell_length_b 11.361147
_cell_length_c 8.143702
_cell_angle_alpha 90.000000
_cell_angle_beta 114.931540
_cell_angle_gamma 90.000000
_cell_volume 1940.282568
_symmetry_space_group_name_H-M "C 2/C"
_symmetry_group_IT_number 15
_symmetry_cell_setting 'monoclinic'
loop_
_space_group_symop_operation_xyz
x,y,z
-x,y,1/2-z
-x,-y,-z
x,-y,1/2+z
1/2+x,1/2+y,z
1/2-x,1/2+y,1/2-z
1/2-x,1/2-y,-z
1/2+x,1/2-y,1/2+z
loop_
_atom_site_type_symbol
_atom_site_label
_atom_site_fract_x
_atom_site_fract_y
_atom_site_fract_z
Si Si1 0.855704 0.146144 0.848032
Si Si2 0.000000 0.467601 0.750000
Si Si3 0.808521 0.533946 0.100081
Si Si4 0.290013 0.824814 0.258701
Si Si5 0.668622 0.401811 0.542287
Si Si6 0.423419 0.129881 0.442577
O O1 0.785825 0.193670 0.815821
O O2 0.864494 0.145202 0.661621
O O3 0.911315 0.233904 0.980493
O O4 0.868425 0.014465 0.930068
O O5 0.940508 0.551688 0.624132
O O6 0.980828 0.385118 0.879767
O O7 0.809701 0.389405 0.110664
O O8 0.740442 0.566698 0.090409
O O9 0.858937 0.590756 0.280793
O O10 0.815378 0.582559 0.925952
O O11 0.328799 0.702828 0.318901
#
# Coordination Sequence:
#
# PCOD8131387 Si02
#       6
#     8   4   8   8   8   8
#     4  10  20  36  59  81 130 153 188 223 290 341
#     4  10  26  38  66  86 108 140 220 248 290 316
#     4  10  18  32  61  83 124 147 185 225 295 330
#     4  10  18  34  52  94 122 157 181 223 274 380
#     4  10  19  36  52  95 121 158 177 218 278 392
#     4  11  20  43  59  90 108 153 186 262 282 327
#
# _framework density 22.677111
#
# number of rings (size 3 to 8) (size 9 to 14) (size 15 to 20)
#    0.000    1.818    3.636    2.182    0.000    0.000 
#    6.545    3.636    0.000    3.273    0.000    0.000 
#    0.000    0.000    0.000    0.000    0.000    0.000 
#
# Total GULP energy -272667.938127 kJ/mol
# GULP energy per Si atom -12393.997188 kJ/mol
# Density = 2.262550 g / cm^3
# Si number density = 22.677111 Si / 1000 Ang^3
#
#
#
# Elastic Constant Matrix: (Units=GPa)
#
#
# Indices 1 2 3 4 5 6 
#
# 1 24.3463 42.3570 7.1789 0.0000 2.0346 0.0000
# 2 42.3570 166.9875 16.0107 0.0000 -5.9850 0.0000
# 3 7.1789 16.0107 52.9195 0.0000 12.0634 0.0000
# 4 0.0000 0.0000 0.0000 40.9591 0.0000 3.0652
# 5 2.0346 -5.9850 12.0634 0.0000 18.3827 0.0000
# 6 0.0000 0.0000 0.0000 3.0652 0.0000 21.4745
#
#
#
# Elastic Compliance Matrix: (Units=1/GPa)
#
#
# Indices 1 2 3 4 5 6 
#
# 1 0.077533 -0.020068 -0.001177 0.000000 -0.014343 0.000000
# 2 -0.020068 0.011596 -0.002532 0.000000 0.007658 0.000000
# 3 -0.001177 -0.002532 0.023495 0.000000 -0.016112 0.000000
# 4 0.000000 0.000000 0.000000 0.024678 0.000000 -0.003522
# 5 -0.014343 0.007658 -0.016112 0.000000 0.069053 0.000000
# 6 0.000000 0.000000 0.000000 -0.003522 0.000000 0.047070
#
#
# Mechanical properties :
#
#
# Convention : Reuss Voigt Hill
#
# Bulk Modulus (GPa) = 15.36776 41.70517 28.53647
# Shear Modulus (GPa) = 15.49581 28.07706 21.78644
#
# Velocity S-wave (km/s) = 2.61688 3.52251 3.10292
# Velocity P-wave (km/s) = 3.99027 5.91396 5.04466
#
# Compressibility (1/GPa) = 0.06507129
#
# Stress axis : x y z
#
# Youngs Moduli (GPa) = 12.89775 86.23732 42.56201
#
# Poissons Ratio (x) = 1.73058 0.05009
# Poissons Ratio (y) = 0.25883 0.10775
# Poissons Ratio (z) = 0.01518 0.21832
#
# Static dielectric constant tensor:
#      x y z
#    x 3.739970 0.000000 -0.213750 
#    y 0.000000 4.653410 0.000000 
#    z -0.213750 0.000000 4.326740 
# 
# 
# High freq. dielectric constant tensor:
#      x y z
#    x 1.848580 0.000000 -0.015800 
#    y 0.000000 1.905610 0.000000 
#    z -0.015800 0.000000 1.887490 
# 
# From -- ./inp_files/54372.got.cif
#   From: 2010.06.25/outbox.cif.g09.slc.cpg/sg15_28_cif.got.tgz:54372.got - 2010.06.28 07:06:18.
