data_PCOD8131257
_publ_section_title
;
Structure prediction by ZEFSAII (Michael W. Deem and Ramdas Pophale) SiO2 
 PCOD8131257
Probable space group: C 2/C
;
_chemical_formula_sum "Si O2"
_cell_formula_units_Z 48
_cell_length_a 9.932955
_cell_length_b 22.991539
_cell_length_c 14.270705
_cell_angle_alpha 90.000000
_cell_angle_beta 49.947698
_cell_angle_gamma 90.000000
_cell_volume 2494.669073
_symmetry_space_group_name_H-M "C 2/C"
_symmetry_group_IT_number 15
_symmetry_cell_setting 'monoclinic'
loop_
_space_group_symop_operation_xyz
x,y,z
-x,y,1/2-z
-x,-y,-z
x,-y,1/2+z
1/2+x,1/2+y,z
1/2-x,1/2+y,1/2-z
1/2-x,1/2-y,-z
1/2+x,1/2-y,1/2+z
loop_
_atom_site_type_symbol
_atom_site_label
_atom_site_fract_x
_atom_site_fract_y
_atom_site_fract_z
Si Si1 0.500000 0.273742 0.750000
Si Si2 0.853084 0.857200 0.964719
Si Si3 0.980223 0.979017 0.903627
Si Si4 0.771251 0.183169 0.694772
Si Si5 0.491028 0.920058 0.152465
Si Si6 0.500000 0.644190 0.750000
Si Si7 0.768232 0.962673 0.361184
O O1 0.376992 0.313300 0.869129
O O2 0.631109 0.235858 0.756177
O O3 0.996424 0.909158 0.894932
O O4 0.873953 0.820496 0.050227
O O5 0.660526 0.884882 0.045457
O O6 0.786397 0.997518 0.947198
O O7 0.120648 0.008867 0.773749
O O8 0.000000 0.000000 0.000000
O O9 0.669114 0.123793 0.757552
O O10 0.923000 0.188101 0.705633
O O11 0.500000 0.953528 0.250000
O O12 0.430053 0.960088 0.091506
O O13 0.656930 0.601388 0.644343
#
# Coordination Sequence:
#
# PCOD8131257 Si02
#       7
#     4   8   8   8   8   4   8
#     4  12  22  35  56  78 112 147 186 224 270 318
#     4  11  21  34  54  82 109 142 185 225 264 330
#     4  10  18  32  54  78 107 141 175 219 276 326
#     4  10  19  35  57  78 104 146 187 227 269 317
#     4   9  17  33  55  79 105 138 185 226 266 324
#     4   8  16  33  56  78 104 135 188 224 268 328
#     4   9  18  32  52  80 106 138 179 225 271 330
#
# _framework density 19.241029000000001
#
# number of rings (size 3 to 8) (size 9 to 14) (size 15 to 20)
#    0.000    2.333    2.500    5.500    0.000    0.667 
#    0.000    0.833    3.667    0.000    2.167    0.000 
#    0.000    0.000    0.000    0.000    0.000    0.000 
#
# Total GULP energy -297331.334119 kJ/mol
# GULP energy per Si atom -12388.805588 kJ/mol
# Density = 1.919724 g / cm^3
# Si number density = 19.241029 Si / 1000 Ang^3
#
#
#
# Elastic Constant Matrix: (Units=GPa)
#
#
# Indices 1 2 3 4 5 6 
#
# 1 139.9841 36.6592 37.3256 0.0000 27.2819 0.0000
# 2 36.6592 63.2519 15.0855 0.0000 11.6468 0.0000
# 3 37.3256 15.0855 64.7310 0.0000 19.6440 0.0000
# 4 0.0000 0.0000 0.0000 18.4153 0.0000 6.1678
# 5 27.2819 11.6468 19.6440 0.0000 28.0357 0.0000
# 6 0.0000 0.0000 0.0000 6.1678 0.0000 22.6431
#
#
#
# Elastic Compliance Matrix: (Units=1/GPa)
#
#
# Indices 1 2 3 4 5 6 
#
# 1 0.010220 -0.004064 -0.003099 0.000000 -0.006086 0.000000
# 2 -0.004064 0.019015 -0.001132 0.000000 -0.003152 0.000000
# 3 -0.003099 -0.001132 0.020882 0.000000 -0.011145 0.000000
# 4 0.000000 0.000000 0.000000 0.059754 0.000000 -0.016276
# 5 -0.006086 -0.003152 -0.011145 0.000000 0.050710 0.000000
# 6 0.000000 0.000000 0.000000 -0.016276 0.000000 0.048597
#
#
# Mechanical properties :
#
#
# Convention : Reuss Voigt Hill
#
# Bulk Modulus (GPa) = 29.82600 49.56751 39.69676
# Shear Modulus (GPa) = 21.10204 25.74525 23.42364
#
# Velocity S-wave (km/s) = 3.31527 3.66189 3.49288
# Velocity P-wave (km/s) = 5.49451 6.61034 6.07808
#
# Compressibility (1/GPa) = 0.03352779
#
# Stress axis : x y z
#
# Youngs Moduli (GPa) = 97.84385 52.58918 47.88862
#
# Poissons Ratio (x) = 0.21370 0.14843
# Poissons Ratio (y) = 0.39760 0.05420
# Poissons Ratio (z) = 0.30326 0.05952
#
# Static dielectric constant tensor:
#      x y z
#    x 4.176640 0.000000 0.349990 
#    y 0.000000 3.467300 0.000000 
#    z 0.349990 0.000000 3.476680 
# 
# 
# High freq. dielectric constant tensor:
#      x y z
#    x 1.756240 0.000000 0.013630 
#    y 0.000000 1.728980 0.000000 
#    z 0.013630 0.000000 1.731860 
# 
# From -- ./inp_files/146637.got.cif
#   From: 2010.06.25/outbox.cif.g09.slc.cpg/sg15_74_cif.got.tgz:146637.got - 2010.06.28 07:06:18.
