data_PCOD8131130
_publ_section_title
;
Structure prediction by ZEFSAII (Michael W. Deem and Ramdas Pophale) SiO2 
 PCOD8131130
Probable space group: C 2/C
;
_chemical_formula_sum "Si O2"
_cell_formula_units_Z 56
_cell_length_a 17.451837
_cell_length_b 18.880575
_cell_length_c 9.804276
_cell_angle_alpha 90.000000
_cell_angle_beta 123.618066
_cell_angle_gamma 90.000000
_cell_volume 2690.201546
_symmetry_space_group_name_H-M "C 2/C"
_symmetry_group_IT_number 15
_symmetry_cell_setting 'monoclinic'
loop_
_space_group_symop_operation_xyz
x,y,z
-x,y,1/2-z
-x,-y,-z
x,-y,1/2+z
1/2+x,1/2+y,z
1/2-x,1/2+y,1/2-z
1/2-x,1/2-y,-z
1/2+x,1/2-y,1/2+z
loop_
_atom_site_type_symbol
_atom_site_label
_atom_site_fract_x
_atom_site_fract_y
_atom_site_fract_z
Si Si1 0.237435 0.074235 0.770538
Si Si2 0.149710 0.804095 0.535411
Si Si3 0.663381 0.726082 0.739318
Si Si4 0.927015 0.444053 0.779906
Si Si5 0.564801 0.091674 0.632379
Si Si6 0.507318 0.755078 0.106530
Si Si7 0.223985 0.050468 0.055420
O O1 0.180835 0.146656 0.701975
O O2 0.347009 0.090748 0.882249
O O3 0.208710 0.022511 0.619732
O O4 0.210427 0.033863 0.882649
O O5 0.243573 0.770319 0.682287
O O6 0.127686 0.774553 0.361327
O O7 0.070029 0.788693 0.564553
O O8 0.153966 0.889383 0.536085
O O9 0.590258 0.762619 0.566127
O O10 0.917610 0.529235 0.739760
O O11 0.824930 0.412680 0.672487
O O12 0.000000 0.407385 0.750000
O O13 0.967853 0.428874 0.968265
O O14 0.554038 0.168937 0.685828
O O15 0.500000 0.718641 0.250000
#
# Coordination Sequence:
#
# PCOD8131130 Si02
#       7
#     8   8   8   8   8   8   8
#     4  10  20  39  60  88 122 160 202 250 306 363
#     4  10  22  43  63  91 121 165 219 253 303 371
#     4  10  22  42  66  88 122 169 211 258 304 367
#     4  10  18  31  55  84 120 162 198 234 298 375
#     4  10  20  34  51  84 127 158 193 242 304 373
#     4  12  25  40  61  91 126 161 205 262 319 363
#     4  10  21  36  60  89 122 161 202 255 307 361
#
# _framework density 20.816286000000002
#
# number of rings (size 3 to 8) (size 9 to 14) (size 15 to 20)
#    0.000    1.714    2.857    1.714    0.000    2.857 
#    5.143    0.714    0.000    0.000    0.000    0.000 
#    0.000    0.000    0.000    0.000    0.000    0.000 
#
# Total GULP energy -347039.179040 kJ/mol
# GULP energy per Si atom -12394.256394 kJ/mol
# Density = 2.076891 g / cm^3
# Si number density = 20.816286 Si / 1000 Ang^3
#
#
#
# Elastic Constant Matrix: (Units=GPa)
#
#
# Indices 1 2 3 4 5 6 
#
# 1 83.8284 24.0845 31.7320 0.0000 -17.9531 0.0000
# 2 24.0845 72.7752 20.0541 0.0000 -10.5565 0.0000
# 3 31.7320 20.0541 88.3980 0.0000 -9.8042 0.0000
# 4 0.0000 0.0000 0.0000 25.0209 0.0000 0.7904
# 5 -17.9531 -10.5565 -9.8042 0.0000 29.2792 0.0000
# 6 0.0000 0.0000 0.0000 0.7904 0.0000 23.7906
#
#
#
# Elastic Compliance Matrix: (Units=1/GPa)
#
#
# Indices 1 2 3 4 5 6 
#
# 1 0.015968 -0.003064 -0.004231 0.000000 0.007270 0.000000
# 2 -0.003064 0.015794 -0.002139 0.000000 0.003099 0.000000
# 3 -0.004231 -0.002139 0.013442 0.000000 0.001136 0.000000
# 4 0.000000 0.000000 0.000000 0.040009 0.000000 -0.001329
# 5 0.007270 0.003099 0.001136 0.000000 0.040109 0.000000
# 6 0.000000 0.000000 0.000000 -0.001329 0.000000 0.042078
#
#
# Mechanical properties :
#
#
# Convention : Reuss Voigt Hill
#
# Bulk Modulus (GPa) = 37.97060 44.08254 41.02657
# Shear Modulus (GPa) = 25.63489 26.89352 26.26420
#
# Velocity S-wave (km/s) = 3.51306 3.59826 3.55592
# Velocity P-wave (km/s) = 5.89371 6.20373 6.05071
#
# Compressibility (1/GPa) = 0.02633616
#
# Stress axis : x y z
#
# Youngs Moduli (GPa) = 62.62616 63.31467 74.39136
#
# Poissons Ratio (x) = 0.19401 0.31471
# Poissons Ratio (y) = 0.19190 0.15915
# Poissons Ratio (z) = 0.26494 0.13546
#
# Static dielectric constant tensor:
#      x y z
#    x 3.735930 0.000000 -0.048260 
#    y 0.000000 3.706560 0.000000 
#    z -0.048260 0.000000 3.550110 
# 
# 
# High freq. dielectric constant tensor:
#      x y z
#    x 1.808330 0.000000 -0.009270 
#    y 0.000000 1.807960 0.000000 
#    z -0.009270 0.000000 1.798010 
# 
# From -- ./inp_files/50322.got.cif
#   From: 2010.06.25/outbox.cif.g09.slc.cpg/sg15_26_cif.got.tgz:50322.got - 2010.06.28 07:06:18.
