data_PCOD8131982
_publ_section_title
;
Structure prediction by ZEFSAII (Michael W. Deem and Ramdas Pophale) SiO2 
 PCOD8131982
Probable space group: C 2/C
;
_chemical_formula_sum "Si O2"
_cell_formula_units_Z 48
_cell_length_a 9.172423
_cell_length_b 15.815243
_cell_length_c 18.586541
_cell_angle_alpha 90.000000
_cell_angle_beta 117.477492
_cell_angle_gamma 90.000000
_cell_volume 2392.082820
_symmetry_space_group_name_H-M "C 2/C"
_symmetry_group_IT_number 15
_symmetry_cell_setting 'monoclinic'
loop_
_space_group_symop_operation_xyz
x,y,z
-x,y,1/2-z
-x,-y,-z
x,-y,1/2+z
1/2+x,1/2+y,z
1/2-x,1/2+y,1/2-z
1/2-x,1/2-y,-z
1/2+x,1/2-y,1/2+z
loop_
_atom_site_type_symbol
_atom_site_label
_atom_site_fract_x
_atom_site_fract_y
_atom_site_fract_z
Si Si1 0.103819 0.878755 0.895175
Si Si2 0.038668 0.961975 0.085936
Si Si3 0.304118 0.132369 0.582540
Si Si4 0.866491 0.212150 0.586547
Si Si5 0.290003 0.774586 0.840443
Si Si6 0.622874 0.220814 0.658850
O O1 0.202610 0.863707 0.841993
O O2 0.973186 0.805736 0.885340
O O3 0.999904 0.966140 0.863586
O O4 0.239214 0.889210 0.988565
O O5 0.929976 0.879397 0.077243
O O6 0.231903 0.935086 0.124974
O O7 0.000000 0.000000 0.000000
O O8 0.233238 0.223499 0.590212
O O9 0.502306 0.138758 0.628480
O O10 0.750000 0.250000 0.500000
O O11 0.773185 0.203692 0.640322
O O12 0.016650 0.278642 0.633052
O O13 0.191000 0.729377 0.754610
#
# Coordination Sequence:
#
# PCOD8131982 Si02
#       6
#     8   8   8   8   8   8
#     4  10  18  35  58  80 107 147 183 221 280 338
#     4   9  19  35  56  83 111 141 184 234 281 333
#     4   9  17  33  56  78 104 143 185 219 262 333
#     4  11  21  37  59  80 107 147 192 237 275 329
#     4  10  20  34  54  81 111 145 186 227 273 336
#     4  11  20  34  56  82 108 143 187 232 274 327
#
# _framework density 20.066196000000001
#
# number of rings (size 3 to 8) (size 9 to 14) (size 15 to 20)
#    0.000    2.000    0.000    8.500    0.000    0.000 
#    0.000   15.833    0.000   10.000    0.000    0.000 
#    0.000    0.000    0.000    0.000    0.000    0.000 
#
# Total GULP energy -297361.544680 kJ/mol
# GULP energy per Si atom -12390.064362 kJ/mol
# Density = 2.002052 g / cm^3
# Si number density = 20.066196 Si / 1000 Ang^3
#
#
#
# Elastic Constant Matrix: (Units=GPa)
#
#
# Indices 1 2 3 4 5 6 
#
# 1 184.4605 62.0738 35.4811 0.0000 -1.7866 0.0000
# 2 62.0738 97.9929 14.1786 0.0000 -5.1217 0.0000
# 3 35.4811 14.1786 70.4349 0.0000 2.2371 0.0000
# 4 0.0000 0.0000 0.0000 12.6582 0.0000 -6.9112
# 5 -1.7866 -5.1217 2.2371 0.0000 29.4936 0.0000
# 6 0.0000 0.0000 0.0000 -6.9112 0.0000 40.6591
#
#
#
# Elastic Compliance Matrix: (Units=1/GPa)
#
#
# Indices 1 2 3 4 5 6 
#
# 1 0.007415 -0.004286 -0.002870 0.000000 -0.000077 0.000000
# 2 -0.004286 0.013106 -0.000545 0.000000 0.002058 0.000000
# 3 -0.002870 -0.000545 0.015799 0.000000 -0.001467 0.000000
# 4 0.000000 0.000000 0.000000 0.087082 0.000000 0.014802
# 5 -0.000077 0.002058 -0.001467 0.000000 0.034370 0.000000
# 6 0.000000 0.000000 0.000000 0.014802 0.000000 0.027111
#
#
# Mechanical properties :
#
#
# Convention : Reuss Voigt Hill
#
# Bulk Modulus (GPa) = 47.80235 64.03949 55.92092
# Shear Modulus (GPa) = 24.12475 32.63916 28.38195
#
# Velocity S-wave (km/s) = 3.47112 4.03746 3.76495
# Velocity P-wave (km/s) = 6.31973 7.32927 6.84314
#
# Compressibility (1/GPa) = 0.02091947
#
# Stress axis : x y z
#
# Youngs Moduli (GPa) = 134.86749 76.30128 63.29326
#
# Poissons Ratio (x) = 0.32700 0.18165
# Poissons Ratio (y) = 0.57799 0.03448
# Poissons Ratio (z) = 0.38706 0.04156
#
# Static dielectric constant tensor:
#      x y z
#    x 4.291370 0.000000 0.056280 
#    y 0.000000 4.174200 0.000000 
#    z 0.056280 0.000000 3.443900 
# 
# 
# High freq. dielectric constant tensor:
#      x y z
#    x 1.799390 0.000000 -0.003530 
#    y 0.000000 1.755740 0.000000 
#    z -0.003530 0.000000 1.769130 
# 
# From -- ./inp_files/190634.got.cif
#   From: 2010.06.25/outbox.cif.g09.slc.cpg/sg15_96_cif.got.tgz:190634.got - 2010.06.28 07:06:18.
