data_PCOD8131384
_publ_section_title
;
Structure prediction by ZEFSAII (Michael W. Deem and Ramdas Pophale) SiO2 
 PCOD8131384
Probable space group: C 2/C
;
_chemical_formula_sum "Si O2"
_cell_formula_units_Z 52
_cell_length_a 13.309765
_cell_length_b 13.310331
_cell_length_c 14.642091
_cell_angle_alpha 90.000000
_cell_angle_beta 107.828723
_cell_angle_gamma 90.000000
_cell_volume 2469.382441
_symmetry_space_group_name_H-M "C 2/C"
_symmetry_group_IT_number 15
_symmetry_cell_setting 'monoclinic'
loop_
_space_group_symop_operation_xyz
x,y,z
-x,y,1/2-z
-x,-y,-z
x,-y,1/2+z
1/2+x,1/2+y,z
1/2-x,1/2+y,1/2-z
1/2-x,1/2-y,-z
1/2+x,1/2-y,1/2+z
loop_
_atom_site_type_symbol
_atom_site_label
_atom_site_fract_x
_atom_site_fract_y
_atom_site_fract_z
Si Si1 0.217872 0.547891 0.328422
Si Si2 0.215953 0.085584 0.487214
Si Si3 0.500000 0.953339 0.250000
Si Si4 0.888577 0.266632 0.954809
Si Si5 0.954637 0.405198 0.432007
Si Si6 0.119129 0.258214 0.760518
Si Si7 0.787448 0.948340 0.172248
O O1 0.247680 0.500291 0.432620
O O2 0.100667 0.521978 0.263412
O O3 0.209025 0.669177 0.330589
O O4 0.294179 0.504729 0.271362
O O5 0.126491 0.156903 0.505227
O O6 0.315503 0.150986 0.483830
O O7 0.165820 0.026649 0.388031
O O8 0.507175 0.889880 0.345732
O O9 0.859006 0.260311 0.841186
O O10 0.009245 0.304567 0.003065
O O11 0.829245 0.413030 0.390416
O O12 0.000000 0.500000 0.500000
O O13 0.136966 0.147429 0.804800
O O14 0.000000 0.291375 0.750000
#
# Coordination Sequence:
#
# PCOD8131384 Si02
#       7
#     8   8   4   8   8   8   8
#     4  11  20  39  64  96 129 166 216 272 329 384
#     4  11  22  39  68  93 132 171 220 269 324 397
#     4  10  18  32  60  94 122 162 204 276 312 360
#     4  11  22  41  67  96 127 180 219 261 338 391
#     4  11  20  37  64  97 129 160 221 270 319 378
#     4  12  26  43  66  96 135 174 217 274 340 393
#     4  11  24  42  65 100 131 168 224 276 326 392
#
# _framework density 21.057897000000001
#
# number of rings (size 3 to 8) (size 9 to 14) (size 15 to 20)
#    0.000    0.923    6.923    0.923    2.154    0.615 
#    0.000    2.308    0.000    0.000    0.000    0.000 
#    0.000    0.000    0.000    0.000    0.000    0.000 
#
# Total GULP energy -322329.017076 kJ/mol
# GULP energy per Si atom -12397.269888 kJ/mol
# Density = 2.100997 g / cm^3
# Si number density = 21.057897 Si / 1000 Ang^3
#
#
#
# Elastic Constant Matrix: (Units=GPa)
#
#
# Indices 1 2 3 4 5 6 
#
# 1 41.4265 24.0638 16.0625 0.0000 -8.5250 0.0000
# 2 24.0638 122.3406 39.7760 0.0000 -16.9422 0.0000
# 3 16.0625 39.7760 106.1228 0.0000 -25.6576 0.0000
# 4 0.0000 0.0000 0.0000 43.6287 0.0000 0.5429
# 5 -8.5250 -16.9422 -25.6576 0.0000 25.8881 0.0000
# 6 0.0000 0.0000 0.0000 0.5429 0.0000 32.3450
#
#
#
# Elastic Compliance Matrix: (Units=1/GPa)
#
#
# Indices 1 2 3 4 5 6 
#
# 1 0.028282 -0.004407 -0.001413 0.000000 0.005029 0.000000
# 2 -0.004407 0.010237 -0.002500 0.000000 0.002771 0.000000
# 3 -0.001413 -0.002500 0.013238 0.000000 0.011019 0.000000
# 4 0.000000 0.000000 0.000000 0.022925 0.000000 -0.000385
# 5 0.005029 0.002771 0.011019 0.000000 0.053017 0.000000
# 6 0.000000 0.000000 0.000000 -0.000385 0.000000 0.030923
#
#
# Mechanical properties :
#
#
# Convention : Reuss Voigt Hill
#
# Bulk Modulus (GPa) = 28.47664 47.74383 38.11024
# Shear Modulus (GPa) = 26.74238 33.03822 29.89030
#
# Velocity S-wave (km/s) = 3.56750 3.96526 3.77163
# Velocity P-wave (km/s) = 5.52465 6.60956 6.09131
#
# Compressibility (1/GPa) = 0.03511650
#
# Stress axis : x y z
#
# Youngs Moduli (GPa) = 35.35837 97.68203 75.54008
#
# Poissons Ratio (x) = 0.43049 0.10674
# Poissons Ratio (y) = 0.15583 0.18886
# Poissons Ratio (z) = 0.04996 0.24422
#
# Static dielectric constant tensor:
#      x y z
#    x 3.588510 0.000000 -0.218800 
#    y 0.000000 3.918510 0.000000 
#    z -0.218800 0.000000 3.959300 
# 
# 
# High freq. dielectric constant tensor:
#      x y z
#    x 1.795620 0.000000 -0.020490 
#    y 0.000000 1.821190 0.000000 
#    z -0.020490 0.000000 1.835670 
# 
# From -- ./inp_files/152684.got.cif
#   From: 2010.06.25/outbox.cif.g09.slc.cpg/sg15_77_cif.got.tgz:152684.got - 2010.06.28 07:06:18.
