data_PCOD8131664
_publ_section_title
;
Structure prediction by ZEFSAII (Michael W. Deem and Ramdas Pophale) SiO2 
 PCOD8131664
Probable space group: C 2/C
;
_chemical_formula_sum "Si O2"
_cell_formula_units_Z 44
_cell_length_a 17.208056
_cell_length_b 13.032914
_cell_length_c 12.205803
_cell_angle_alpha 90.000000
_cell_angle_beta 54.197638
_cell_angle_gamma 90.000000
_cell_volume 2220.147413
_symmetry_space_group_name_H-M "C 2/C"
_symmetry_group_IT_number 15
_symmetry_cell_setting 'monoclinic'
loop_
_space_group_symop_operation_xyz
x,y,z
-x,y,1/2-z
-x,-y,-z
x,-y,1/2+z
1/2+x,1/2+y,z
1/2-x,1/2+y,1/2-z
1/2-x,1/2-y,-z
1/2+x,1/2-y,1/2+z
loop_
_atom_site_type_symbol
_atom_site_label
_atom_site_fract_x
_atom_site_fract_y
_atom_site_fract_z
Si Si1 0.171870 0.155875 0.665437
Si Si2 0.000000 0.040966 0.750000
Si Si3 0.896264 0.227253 0.203875
Si Si4 0.401999 0.643937 0.434214
Si Si5 0.740446 0.360730 0.864436
Si Si6 0.274231 0.914468 0.276743
O O1 0.177416 0.273410 0.702806
O O2 0.189014 0.143604 0.522962
O O3 0.249097 0.087205 0.668198
O O4 0.065674 0.112302 0.773583
O O5 0.938422 0.971903 0.884379
O O6 0.865335 0.188639 0.349271
O O7 0.838400 0.160117 0.163390
O O8 0.870241 0.348090 0.216968
O O9 0.010292 0.213065 0.091565
O O10 0.314867 0.642430 0.590363
O O11 0.791356 0.470131 0.803357
#
# Coordination Sequence:
#
# PCOD8131664 Si02
#       6
#     8   4   8   8   8   8
#     4  10  22  35  54  87 114 143 185 231 277 327
#     4  10  18  34  54  82 114 136 184 232 268 330
#     4   9  21  36  54  84 116 136 189 234 273 327
#     4  10  20  35  58  89 107 144 192 231 276 325
#     4  10  21  37  56  81 115 148 182 228 281 334
#     4  11  20  36  60  79 113 153 181 230 281 331
#
# _framework density 19.818504999999998
#
# number of rings (size 3 to 8) (size 9 to 14) (size 15 to 20)
#    0.000    2.182    1.818    2.727    2.545    1.455 
#    0.000    1.818    0.000    4.364    0.000    0.000 
#    0.000    0.000    0.000    0.000    0.000    0.000 
#
# Total GULP energy -272749.229068 kJ/mol
# GULP energy per Si atom -12397.692230 kJ/mol
# Density = 1.977340 g / cm^3
# Si number density = 19.818505 Si / 1000 Ang^3
#
#
#
# Elastic Constant Matrix: (Units=GPa)
#
#
# Indices 1 2 3 4 5 6 
#
# 1 120.4513 71.0246 31.5937 0.0000 19.8802 0.0000
# 2 71.0246 152.8070 20.2997 0.0000 8.5186 0.0000
# 3 31.5937 20.2997 47.3681 0.0000 17.3532 0.0000
# 4 0.0000 0.0000 0.0000 23.3189 0.0000 -4.6486
# 5 19.8802 8.5186 17.3532 0.0000 31.3412 0.0000
# 6 0.0000 0.0000 0.0000 -4.6486 0.0000 35.1950
#
#
#
# Elastic Compliance Matrix: (Units=1/GPa)
#
#
# Indices 1 2 3 4 5 6 
#
# 1 0.013520 -0.005361 -0.005158 0.000000 -0.004263 0.000000
# 2 -0.005361 0.009067 -0.000819 0.000000 0.001390 0.000000
# 3 -0.005158 -0.000819 0.029633 0.000000 -0.012913 0.000000
# 4 0.000000 0.000000 0.000000 0.044043 0.000000 0.005817
# 5 -0.004263 0.001390 -0.012913 0.000000 0.041383 0.000000
# 6 0.000000 0.000000 0.000000 0.005817 0.000000 0.029181
#
#
# Mechanical properties :
#
#
# Convention : Reuss Voigt Hill
#
# Bulk Modulus (GPa) = 33.84860 62.94026 48.39443
# Shear Modulus (GPa) = 25.08106 31.15158 28.11632
#
# Velocity S-wave (km/s) = 3.56130 3.96895 3.77064
# Velocity P-wave (km/s) = 5.83325 7.26847 6.59005
#
# Compressibility (1/GPa) = 0.02954332
#
# Stress axis : x y z
#
# Youngs Moduli (GPa) = 73.96520 110.28518 33.74561
#
# Poissons Ratio (x) = 0.59125 0.17407
# Poissons Ratio (y) = 0.39654 0.02764
# Poissons Ratio (z) = 0.38154 0.09034
#
# Static dielectric constant tensor:
#      x y z
#    x 3.634430 0.000000 0.215160 
#    y 0.000000 3.738940 0.000000 
#    z 0.215160 0.000000 3.478190 
# 
# 
# High freq. dielectric constant tensor:
#      x y z
#    x 1.767270 0.000000 0.026770 
#    y 0.000000 1.772780 0.000000 
#    z 0.026770 0.000000 1.762980 
# 
# From -- ./inp_files/96587.got.cif
#   From: 2010.06.25/outbox.cif.g09.slc.cpg/sg15_49_cif.got.tgz:96587.got - 2010.06.28 07:06:18.
