data_PCOD8131565
_publ_section_title
;
Structure prediction by ZEFSAII (Michael W. Deem and Ramdas Pophale) SiO2 
 PCOD8131565
Probable space group: C 2/C
;
_chemical_formula_sum "Si O2"
_cell_formula_units_Z 52
_cell_length_a 11.502592
_cell_length_b 15.900525
_cell_length_c 14.154067
_cell_angle_alpha 90.000000
_cell_angle_beta 74.855737
_cell_angle_gamma 90.000000
_cell_volume 2498.835847
_symmetry_space_group_name_H-M "C 2/C"
_symmetry_group_IT_number 15
_symmetry_cell_setting 'monoclinic'
loop_
_space_group_symop_operation_xyz
x,y,z
-x,y,1/2-z
-x,-y,-z
x,-y,1/2+z
1/2+x,1/2+y,z
1/2-x,1/2+y,1/2-z
1/2-x,1/2-y,-z
1/2+x,1/2-y,1/2+z
loop_
_atom_site_type_symbol
_atom_site_label
_atom_site_fract_x
_atom_site_fract_y
_atom_site_fract_z
Si Si1 0.451574 0.974816 0.659541
Si Si2 0.087039 0.385157 0.016852
Si Si3 0.065120 0.915464 0.907460
Si Si4 0.247388 0.900999 0.231140
Si Si5 0.178885 0.930199 0.449776
Si Si6 0.500000 0.465442 0.250000
Si Si7 0.059515 0.735378 0.840420
O O1 0.500000 0.941249 0.750000
O O2 0.455633 0.899960 0.581744
O O3 0.536481 0.049268 0.604647
O O4 0.316926 0.010870 0.699663
O O5 0.231195 0.399748 0.986617
O O6 0.041158 0.293891 0.061273
O O7 0.017567 0.977396 0.837057
O O8 0.171959 0.966959 0.938515
O O9 0.109592 0.827851 0.854424
O O10 0.954657 0.896282 0.000948
O O11 0.323611 0.823464 0.174731
O O12 0.227483 0.884950 0.345920
O O13 0.117792 0.907397 0.207283
O O14 0.000000 0.732632 0.750000
#
# Coordination Sequence:
#
# PCOD8131565 Si02
#       7
#     8   8   8   8   8   4   8
#     4  10  18  33  58  94 119 163 207 255 299 379
#     4  10  19  33  62  89 124 161 207 253 313 356
#     4  10  22  35  60  89 126 156 213 254 309 358
#     4  10  19  36  61  84 127 155 209 256 310 356
#     4  10  19  37  56  89 116 167 203 252 294 384
#     4  10  20  36  60  90 110 174 208 246 300 380
#     4  11  20  39  60  97 128 164 198 268 311 359
#
# _framework density 20.809688999999999
#
# number of rings (size 3 to 8) (size 9 to 14) (size 15 to 20)
#    0.000    1.846    3.846    1.846    0.000    0.615 
#    0.000    0.000    0.000   40.615    8.000    0.000 
#    0.000    0.000    0.000    0.000    0.000    0.000 
#
# Total GULP energy -322298.816648 kJ/mol
# GULP energy per Si atom -12396.108333 kJ/mol
# Density = 2.076232 g / cm^3
# Si number density = 20.809689 Si / 1000 Ang^3
#
#
#
# Elastic Constant Matrix: (Units=GPa)
#
#
# Indices 1 2 3 4 5 6 
#
# 1 113.8170 47.4735 18.0277 0.0000 -6.0893 0.0000
# 2 47.4735 106.8343 25.2857 0.0000 5.9665 0.0000
# 3 18.0277 25.2857 89.5132 0.0000 5.4872 0.0000
# 4 0.0000 0.0000 0.0000 21.4793 0.0000 1.0240
# 5 -6.0893 5.9665 5.4872 0.0000 32.1974 0.0000
# 6 0.0000 0.0000 0.0000 1.0240 0.0000 16.3014
#
#
#
# Elastic Compliance Matrix: (Units=1/GPa)
#
#
# Indices 1 2 3 4 5 6 
#
# 1 0.011164 -0.004888 -0.001064 0.000000 0.003199 0.000000
# 2 -0.004888 0.012233 -0.002300 0.000000 -0.002799 0.000000
# 3 -0.001064 -0.002300 0.012148 0.000000 -0.001845 0.000000
# 4 0.000000 0.000000 0.000000 0.046696 0.000000 -0.002933
# 5 0.003199 -0.002799 -0.001845 0.000000 0.032497 0.000000
# 6 0.000000 0.000000 0.000000 -0.002933 0.000000 0.061529
#
#
# Mechanical properties :
#
#
# Convention : Reuss Voigt Hill
#
# Bulk Modulus (GPa) = 52.51200 54.63759 53.57480
# Shear Modulus (GPa) = 25.11074 28.62078 26.86576
#
# Velocity S-wave (km/s) = 3.47751 3.71261 3.59698
# Velocity P-wave (km/s) = 6.43531 6.68512 6.56140
#
# Compressibility (1/GPa) = 0.01904327
#
# Stress axis : x y z
#
# Youngs Moduli (GPa) = 89.57011 81.74661 82.31480
#
# Poissons Ratio (x) = 0.39957 0.08757
# Poissons Ratio (y) = 0.43781 0.18929
# Poissons Ratio (z) = 0.09529 0.18798
#
# Static dielectric constant tensor:
#      x y z
#    x 3.907170 0.000000 -0.114000 
#    y 0.000000 3.520920 0.000000 
#    z -0.114000 0.000000 3.879670 
# 
# 
# High freq. dielectric constant tensor:
#      x y z
#    x 1.810500 0.000000 -0.010790 
#    y 0.000000 1.776410 0.000000 
#    z -0.010790 0.000000 1.823680 
# 
# From -- ./inp_files/144184.got.cif
#   From: 2010.06.25/outbox.cif.g09.slc.cpg/sg15_73_cif.got.tgz:144184.got - 2010.06.28 07:06:18.
