data_PCOD8131626
_publ_section_title
;
Structure prediction by ZEFSAII (Michael W. Deem and Ramdas Pophale) SiO2 
 PCOD8131626
Probable space group: C 2/C
;
_chemical_formula_sum "Si O2"
_cell_formula_units_Z 56
_cell_length_a 18.777196
_cell_length_b 16.771392
_cell_length_c 18.292459
_cell_angle_alpha 90.000000
_cell_angle_beta 31.677753
_cell_angle_gamma 90.000000
_cell_volume 3025.158110
_symmetry_space_group_name_H-M "C 2/C"
_symmetry_group_IT_number 15
_symmetry_cell_setting 'monoclinic'
loop_
_space_group_symop_operation_xyz
x,y,z
-x,y,1/2-z
-x,-y,-z
x,-y,1/2+z
1/2+x,1/2+y,z
1/2-x,1/2+y,1/2-z
1/2-x,1/2-y,-z
1/2+x,1/2-y,1/2+z
loop_
_atom_site_type_symbol
_atom_site_label
_atom_site_fract_x
_atom_site_fract_y
_atom_site_fract_z
Si Si1 0.203576 0.653531 0.312605
Si Si2 0.458769 0.587739 0.017937
Si Si3 0.730429 0.824594 0.431478
Si Si4 0.265900 0.336419 0.234791
Si Si5 0.958825 0.590981 0.180407
Si Si6 0.493743 0.938124 0.071688
Si Si7 0.702091 0.641630 0.476244
O O1 0.250393 0.744872 0.273761
O O2 0.095347 0.635936 0.344233
O O3 0.125641 0.621161 0.453852
O O4 0.339730 0.604872 0.179136
O O5 0.587950 0.641201 0.924399
O O6 0.500000 0.500000 0.000000
O O7 0.412797 0.599628 0.973158
O O8 0.768715 0.858067 0.318843
O O9 0.589901 0.858022 0.585787
O O10 0.723069 0.730269 0.426781
O O11 0.836397 0.851514 0.403461
O O12 0.144292 0.386671 0.305577
O O13 0.844758 0.594934 0.342707
O O14 0.995076 0.496711 0.140530
O O15 0.500000 0.000000 0.000000
#
# Coordination Sequence:
#
# PCOD8131626 Si02
#       7
#     8   8   8   8   8   8   8
#     4  10  19  32  49  74  99 135 178 215 260 308
#     4  11  22  33  49  72 106 139 170 223 264 296
#     4  11  20  31  51  71 108 145 175 204 248 315
#     4  12  19  32  52  75 105 142 168 212 259 313
#     4  10  18  34  50  68  99 141 185 217 251 298
#     4  10  19  32  53  71  97 141 182 221 255 305
#     4  10  22  33  46  76 105 144 179 207 248 317
#
# _framework density 18.511430000000001
#
# number of rings (size 3 to 8) (size 9 to 14) (size 15 to 20)
#    0.000    1.429    5.714    4.714    0.000    0.571 
#    0.000    0.000    0.000    0.000    0.000    0.000 
#    0.000   20.571    0.000    0.000    0.000    0.000 
#
# Total GULP energy -346908.810077 kJ/mol
# GULP energy per Si atom -12389.600360 kJ/mol
# Density = 1.846930 g / cm^3
# Si number density = 18.511430 Si / 1000 Ang^3
#
#
#
# Elastic Constant Matrix: (Units=GPa)
#
#
# Indices 1 2 3 4 5 6 
#
# 1 37.7500 33.4363 21.7706 -0.0010 2.4873 0.0003
# 2 33.4363 107.1130 37.7830 -0.0011 -3.7293 0.0007
# 3 21.7706 37.7830 95.9810 -0.0021 -20.7622 0.0006
# 4 -0.0010 -0.0011 -0.0021 40.6397 0.0014 -7.6949
# 5 2.4873 -3.7293 -20.7622 0.0014 17.1248 -0.0002
# 6 0.0003 0.0007 0.0006 -7.6949 -0.0002 10.0933
#
#
#
# Elastic Compliance Matrix: (Units=1/GPa)
#
#
# Indices 1 2 3 4 5 6 
#
# 1 0.043083 -0.010612 -0.010096 0.000001 -0.020809 0.000001
# 2 -0.010612 0.013642 -0.002694 0.000000 0.001246 -0.000001
# 3 -0.010096 -0.002694 0.018922 0.000000 0.023821 0.000000
# 4 0.000001 0.000000 0.000000 0.028758 -0.000003 0.021924
# 5 -0.020809 0.001246 0.023821 -0.000003 0.090569 -0.000001
# 6 0.000001 -0.000001 0.000000 0.021924 -0.000001 0.115791
#
#
# Mechanical properties :
#
#
# Convention : Reuss Voigt Hill
#
# Bulk Modulus (GPa) = 34.66964 47.42489 41.04726
# Shear Modulus (GPa) = 13.61723 23.42849 18.52286
#
# Velocity S-wave (km/s) = 2.71516 3.56142 3.16669
# Velocity P-wave (km/s) = 5.34779 6.52583 5.96596
#
# Compressibility (1/GPa) = 0.02884368
#
# Stress axis : x y z
#
# Youngs Moduli (GPa) = 23.21106 73.30263 52.84890
#
# Poissons Ratio (x) = 0.77788 0.53357
# Poissons Ratio (y) = 0.24631 0.14235
# Poissons Ratio (z) = 0.23434 0.19745
#
# Static dielectric constant tensor:
#      x y z
#    x 3.274460 0.000000 0.295630 
#    y 0.000000 3.671000 0.000010 
#    z 0.295630 0.000010 4.442400 
# 
# 
# High freq. dielectric constant tensor:
#      x y z
#    x 1.667640 0.000000 -0.008360 
#    y 0.000000 1.717710 0.000000 
#    z -0.008360 0.000000 1.731200 
# 
# From -- ./inp_files/249208.got.cif
#   From: 2010.06.25/outbox.cif.g09.slc.cpg/sg15_125_cif.got.tgz:249208.got - 2010.06.28 07:06:18.
