data_PCOD8131305
_publ_section_title
;
Structure prediction by ZEFSAII (Michael W. Deem and Ramdas Pophale) SiO2 
 PCOD8131305
Probable space group: C 2/C
;
_chemical_formula_sum "Si O2"
_cell_formula_units_Z 48
_cell_length_a 12.331303
_cell_length_b 17.455926
_cell_length_c 12.442846
_cell_angle_alpha 90.000000
_cell_angle_beta 84.523388
_cell_angle_gamma 90.000000
_cell_volume 2666.150117
_symmetry_space_group_name_H-M "C 2/C"
_symmetry_group_IT_number 15
_symmetry_cell_setting 'monoclinic'
loop_
_space_group_symop_operation_xyz
x,y,z
-x,y,1/2-z
-x,-y,-z
x,-y,1/2+z
1/2+x,1/2+y,z
1/2-x,1/2+y,1/2-z
1/2-x,1/2-y,-z
1/2+x,1/2-y,1/2+z
loop_
_atom_site_type_symbol
_atom_site_label
_atom_site_fract_x
_atom_site_fract_y
_atom_site_fract_z
Si Si1 0.549328 0.578723 0.534938
Si Si2 0.907646 0.188821 0.669847
Si Si3 0.386898 0.859553 0.700534
Si Si4 0.713232 0.566896 0.708181
Si Si5 0.235249 0.062613 0.370021
Si Si6 0.124600 0.502979 0.454646
O O1 0.500000 0.500000 0.500000
O O2 0.456637 0.643798 0.561484
O O3 0.612175 0.561193 0.637994
O O4 0.636780 0.606922 0.438201
O O5 0.876829 0.276189 0.646680
O O6 0.798732 0.146278 0.724466
O O7 0.000000 0.192280 0.750000
O O8 0.500000 0.877253 0.750000
O O9 0.301381 0.869963 0.805497
O O10 0.359408 0.915200 0.603730
O O11 0.689640 0.496398 0.788239
O O12 0.831511 0.560358 0.637188
O O13 0.305863 0.009759 0.444758
O O14 0.000000 0.500000 0.500000
#
# Coordination Sequence:
#
# PCOD8131305 Si02
#       6
#     8   8   8   8   8   8
#     4  10  18  32  56  80 102 135 178 213 255 315
#     4   9  18  34  50  77 108 136 166 217 268 302
#     4  10  19  34  53  75 109 137 170 220 261 302
#     4   9  19  32  52  77 102 134 175 215 256 304
#     4  10  19  33  54  78 101 140 176 211 257 309
#     4  10  19  33  52  78 100 138 183 210 250 313
#
# _framework density 18.003487
#
# number of rings (size 3 to 8) (size 9 to 14) (size 15 to 20)
#    0.000    2.333    3.333    0.000    0.000    0.000 
#    3.000    4.167    0.000    0.000    0.000    0.000 
#    0.000    0.000    0.000    0.000    0.000    0.000 
#
# Total GULP energy -297320.365895 kJ/mol
# GULP energy per Si atom -12388.348579 kJ/mol
# Density = 1.796251 g / cm^3
# Si number density = 18.003487 Si / 1000 Ang^3
#
#
#
# Elastic Constant Matrix: (Units=GPa)
#
#
# Indices 1 2 3 4 5 6 
#
# 1 86.0392 49.6424 45.0865 0.0000 -37.6576 0.0000
# 2 49.6424 122.7603 50.0140 0.0000 -27.4546 0.0000
# 3 45.0865 50.0140 94.8157 0.0000 -31.6440 0.0000
# 4 0.0000 0.0000 0.0000 27.6798 0.0000 -4.3313
# 5 -37.6576 -27.4546 -31.6440 0.0000 31.7214 0.0000
# 6 0.0000 0.0000 0.0000 -4.3313 0.0000 19.4858
#
#
#
# Elastic Compliance Matrix: (Units=1/GPa)
#
#
# Indices 1 2 3 4 5 6 
#
# 1 0.026197 -0.004138 -0.001635 0.000000 0.025887 0.000000
# 2 -0.004138 0.011654 -0.003677 0.000000 0.001506 0.000000
# 3 -0.001635 -0.003677 0.017320 0.000000 0.012155 0.000000
# 4 0.000000 0.000000 0.000000 0.037429 0.000000 0.008320
# 5 0.025887 0.001506 0.012155 0.000000 0.075685 0.000000
# 6 0.000000 0.000000 0.000000 0.008320 0.000000 0.053169
#
#
# Mechanical properties :
#
#
# Convention : Reuss Voigt Hill
#
# Bulk Modulus (GPa) = 27.56959 65.90011 46.73485
# Shear Modulus (GPa) = 19.80627 26.36889 23.08758
#
# Velocity S-wave (km/s) = 3.32043 3.83123 3.58494
# Velocity P-wave (km/s) = 5.48152 7.50031 6.56893
#
# Compressibility (1/GPa) = 0.03627185
#
# Stress axis : x y z
#
# Youngs Moduli (GPa) = 38.17197 85.80547 57.73555
#
# Poissons Ratio (x) = 0.35508 0.09438
# Poissons Ratio (y) = 0.15796 0.21230
# Poissons Ratio (z) = 0.06240 0.31551
#
# Static dielectric constant tensor:
#      x y z
#    x 3.820220 0.000000 -0.349300 
#    y 0.000000 3.395900 0.000000 
#    z -0.349300 0.000000 3.660060 
# 
# 
# High freq. dielectric constant tensor:
#      x y z
#    x 1.691310 0.000000 -0.022990 
#    y 0.000000 1.675730 0.000000 
#    z -0.022990 0.000000 1.704000 
# 
# From -- ./inp_files/87266.got.cif
#   From: 2010.06.25/outbox.cif.g09.slc.cpg/sg15_44_cif.got.tgz:87266.got - 2010.06.28 07:06:18.
