data_PCOD8131068
_publ_section_title
;
Structure prediction by ZEFSAII (Michael W. Deem and Ramdas Pophale) SiO2 
 PCOD8131068
Probable space group: C 2/C
;
_chemical_formula_sum "Si O2"
_cell_formula_units_Z 56
_cell_length_a 26.557009
_cell_length_b 12.968511
_cell_length_c 14.356096
_cell_angle_alpha 90.000000
_cell_angle_beta 142.008517
_cell_angle_gamma 90.000000
_cell_volume 3043.441548
_symmetry_space_group_name_H-M "C 2/C"
_symmetry_group_IT_number 15
_symmetry_cell_setting 'monoclinic'
loop_
_space_group_symop_operation_xyz
x,y,z
-x,y,1/2-z
-x,-y,-z
x,-y,1/2+z
1/2+x,1/2+y,z
1/2-x,1/2+y,1/2-z
1/2-x,1/2-y,-z
1/2+x,1/2-y,1/2+z
loop_
_atom_site_type_symbol
_atom_site_label
_atom_site_fract_x
_atom_site_fract_y
_atom_site_fract_z
Si Si1 0.588455 0.516653 0.740221
Si Si2 0.857040 0.154385 0.850630
Si Si3 0.212392 0.026414 0.588133
Si Si4 0.804929 0.282217 0.164377
Si Si5 0.223118 0.818658 0.683826
Si Si6 0.961842 0.819591 0.106377
Si Si7 0.030128 0.203680 0.088349
O O1 0.629125 0.592491 0.724002
O O2 0.508903 0.569683 0.670517
O O3 0.558133 0.414708 0.642740
O O4 0.657569 0.494516 0.917513
O O5 0.845265 0.077880 0.918975
O O6 0.779936 0.229790 0.723298
O O7 0.939367 0.220184 0.997364
O O8 0.286476 0.102398 0.669638
O O9 0.258845 0.929425 0.704253
O O10 0.786995 0.198580 0.220145
O O11 0.899381 0.276853 0.266367
O O12 0.750000 0.250000 0.000000
O O13 0.133540 0.826595 0.506872
O O14 0.000000 0.757148 0.250000
O O15 0.973812 0.763030 0.026062
#
# Coordination Sequence:
#
# PCOD8131068 Si02
#       7
#     8   8   8   8   8   8   8
#     4  11  20  32  59  84 114 139 185 237 292 334
#     4  10  22  36  53  86 111 149 185 234 282 341
#     4  11  21  35  58  84 113 151 182 236 293 327
#     4  10  20  37  57  83 112 155 186 234 292 332
#     4  10  21  36  53  81 120 141 190 232 279 349
#     4  10  18  31  52  79 108 147 173 224 288 327
#     4  10  20  35  54  82 115 139 191 235 273 343
#
# _framework density 18.400221999999999
#
# number of rings (size 3 to 8) (size 9 to 14) (size 15 to 20)
#    0.000    1.714    2.857    4.286    0.000    0.571 
#    0.000    0.714    0.000    0.000    0.000    0.000 
#    0.000    0.000    0.000    0.000    0.000    0.000 
#
# Total GULP energy -346912.691462 kJ/mol
# GULP energy per Si atom -12389.738981 kJ/mol
# Density = 1.835834 g / cm^3
# Si number density = 18.400222 Si / 1000 Ang^3
#
#
#
# Elastic Constant Matrix: (Units=GPa)
#
#
# Indices 1 2 3 4 5 6 
#
# 1 89.0003 38.8518 51.3445 0.0000 9.9434 0.0000
# 2 38.8518 69.5091 48.3347 0.0000 11.9549 0.0000
# 3 51.3445 48.3347 121.8914 0.0000 1.8997 0.0000
# 4 0.0000 0.0000 0.0000 30.9324 0.0000 6.8238
# 5 9.9434 11.9549 1.8997 0.0000 36.6314 0.0000
# 6 0.0000 0.0000 0.0000 6.8238 0.0000 21.5893
#
#
#
# Elastic Compliance Matrix: (Units=1/GPa)
#
#
# Indices 1 2 3 4 5 6 
#
# 1 0.016712 -0.005590 -0.004784 0.000000 -0.002464 0.000000
# 2 -0.005590 0.023185 -0.006750 0.000000 -0.005699 0.000000
# 3 -0.004784 -0.006750 0.012852 0.000000 0.002835 0.000000
# 4 0.000000 0.000000 0.000000 0.034752 0.000000 -0.010984
# 5 -0.002464 -0.005699 0.002835 0.000000 0.029681 0.000000
# 6 0.000000 0.000000 0.000000 -0.010984 0.000000 0.049791
#
#
# Mechanical properties :
#
#
# Convention : Reuss Voigt Hill
#
# Bulk Modulus (GPa) = 54.05641 61.94029 57.99835
# Shear Modulus (GPa) = 24.10935 27.28861 25.69898
#
# Velocity S-wave (km/s) = 3.62370 3.85523 3.74125
# Velocity P-wave (km/s) = 6.85202 7.31799 7.08883
#
# Compressibility (1/GPa) = 0.01849919
#
# Stress axis : x y z
#
# Youngs Moduli (GPa) = 59.83875 43.13051 77.80957
#
# Poissons Ratio (x) = 0.24111 0.37226
# Poissons Ratio (y) = 0.33451 0.52524
# Poissons Ratio (z) = 0.28629 0.29114
#
# Static dielectric constant tensor:
#      x y z
#    x 3.601600 0.000000 0.049500 
#    y 0.000000 3.294280 0.000000 
#    z 0.049500 0.000000 3.634200 
# 
# 
# High freq. dielectric constant tensor:
#      x y z
#    x 1.720380 0.000000 -0.005550 
#    y 0.000000 1.675300 0.000000 
#    z -0.005550 0.000000 1.723160 
# 
# From -- ./inp_files/178405.got.cif
#   From: 2010.06.25/outbox.cif.g09.slc.cpg/sg15_90_cif.got.tgz:178405.got - 2010.06.28 07:06:18.
