data_PCOD8131326
_publ_section_title
;
Structure prediction by ZEFSAII (Michael W. Deem and Ramdas Pophale) SiO2 
 PCOD8131326
Probable space group: C 2/C
;
_chemical_formula_sum "Si O2"
_cell_formula_units_Z 64
_cell_length_a 10.876661
_cell_length_b 18.535395
_cell_length_c 20.063593
_cell_angle_alpha 90.000000
_cell_angle_beta 63.689783
_cell_angle_gamma 90.000000
_cell_volume 3625.864618
_symmetry_space_group_name_H-M "C 2/C"
_symmetry_group_IT_number 15
_symmetry_cell_setting 'monoclinic'
loop_
_space_group_symop_operation_xyz
x,y,z
-x,y,1/2-z
-x,-y,-z
x,-y,1/2+z
1/2+x,1/2+y,z
1/2-x,1/2+y,1/2-z
1/2-x,1/2-y,-z
1/2+x,1/2-y,1/2+z
loop_
_atom_site_type_symbol
_atom_site_label
_atom_site_fract_x
_atom_site_fract_y
_atom_site_fract_z
Si Si1 0.134085 0.728422 0.581171
Si Si2 0.976399 0.275015 0.939279
Si Si3 0.598898 0.330036 0.853409
Si Si4 0.401151 0.435508 0.831025
Si Si5 0.217834 0.468273 0.452126
Si Si6 0.699522 0.650808 0.467787
Si Si7 0.252068 0.698699 0.318119
Si Si8 0.540701 0.893450 0.030551
O O1 0.250000 0.750000 0.500000
O O2 0.170755 0.747714 0.648670
O O3 0.097597 0.642676 0.585053
O O4 0.991325 0.765684 0.594611
O O5 0.837048 0.304620 0.943527
O O6 0.093369 0.275324 0.853470
O O7 0.936705 0.194478 0.974525
O O8 0.049299 0.327921 0.975247
O O9 0.493914 0.392798 0.860514
O O10 0.692357 0.362053 0.890069
O O11 0.685918 0.297359 0.770987
O O12 0.500000 0.463296 0.750000
O O13 0.343378 0.508432 0.876153
O O14 0.276648 0.384029 0.836040
O O15 0.282713 0.425068 0.498553
O O16 0.139647 0.539643 0.494217
O O17 0.116957 0.419441 0.431121
#
# Coordination Sequence:
#
# PCOD8131326 Si02
#       8
#     8   8   8   8   8   8   8   8
#     4  11  17  31  58  82 101 134 184 240 270 311
#     4  10  18  35  55  81 106 144 185 232 279 331
#     4  10  20  34  53  83 112 143 180 240 277 328
#     4   9  18  34  55  77 107 147 187 220 274 341
#     4  10  20  33  53  83 108 150 185 221 272 349
#     4  10  21  33  54  82 115 141 187 233 278 325
#     4  10  19  33  58  82 106 143 193 227 282 331
#     4  10  18  32  57  81 106 139 190 228 270 327
#
# _framework density 17.650962
#
# number of rings (size 3 to 8) (size 9 to 14) (size 15 to 20)
#    0.000    2.000    3.750    1.875    0.000    1.000 
#    0.000    1.250    0.000    4.500    0.000    0.000 
#    0.000    0.000    0.000    0.000    0.000    0.000 
#
# Total GULP energy -396442.891911 kJ/mol
# GULP energy per Si atom -12388.840372 kJ/mol
# Density = 1.761079 g / cm^3
# Si number density = 17.650962 Si / 1000 Ang^3
#
#
#
# Elastic Constant Matrix: (Units=GPa)
#
#
# Indices 1 2 3 4 5 6 
#
# 1 79.6049 43.7231 60.7274 0.0000 -6.5285 0.0000
# 2 43.7231 99.2333 55.9971 0.0000 -0.3224 0.0000
# 3 60.7274 55.9971 116.1279 0.0000 -4.1906 0.0000
# 4 0.0000 0.0000 0.0000 27.9745 0.0000 1.1932
# 5 -6.5285 -0.3224 -4.1906 0.0000 26.8974 0.0000
# 6 0.0000 0.0000 0.0000 1.1932 0.0000 19.3142
#
#
#
# Elastic Compliance Matrix: (Units=1/GPa)
#
#
# Indices 1 2 3 4 5 6 
#
# 1 0.022654 -0.004622 -0.009475 0.000000 0.003967 0.000000
# 2 -0.004622 0.014808 -0.004784 0.000000 -0.001690 0.000000
# 3 -0.009475 -0.004784 0.015877 0.000000 0.000117 0.000000
# 4 0.000000 0.000000 0.000000 0.035841 0.000000 -0.002214
# 5 0.003967 -0.001690 0.000117 0.000000 0.038139 0.000000
# 6 0.000000 0.000000 0.000000 -0.002214 0.000000 0.051912
#
#
# Mechanical properties :
#
#
# Convention : Reuss Voigt Hill
#
# Bulk Modulus (GPa) = 64.19791 68.42905 66.31348
# Shear Modulus (GPa) = 22.50366 23.80512 23.15439
#
# Velocity S-wave (km/s) = 3.57448 3.67639 3.62580
# Velocity P-wave (km/s) = 7.31339 7.54143 7.42828
#
# Compressibility (1/GPa) = 0.01557683
#
# Stress axis : x y z
#
# Youngs Moduli (GPa) = 44.14262 67.53033 62.98407
#
# Poissons Ratio (x) = 0.31213 0.59675
# Poissons Ratio (y) = 0.20403 0.30134
# Poissons Ratio (z) = 0.41823 0.32309
#
# Static dielectric constant tensor:
#      x y z
#    x 3.351440 0.000000 -0.095260 
#    y 0.000000 3.314070 0.000000 
#    z -0.095260 0.000000 3.196050 
# 
# 
# High freq. dielectric constant tensor:
#      x y z
#    x 1.688520 0.000000 -0.011330 
#    y 0.000000 1.668420 0.000000 
#    z -0.011330 0.000000 1.667380 
# 
# From -- ./inp_files/239559.got.cif
#   From: 2010.06.25/outbox.cif.g09.slc.cpg/sg15_120_cif.got.tgz:239559.got - 2010.06.28 07:06:18.
