data_PCOD8131381
_publ_section_title
;
Structure prediction by ZEFSAII (Michael W. Deem and Ramdas Pophale) SiO2 
 PCOD8131381
Probable space group: C 2/C
;
_chemical_formula_sum "Si O2"
_cell_formula_units_Z 40
_cell_length_a 13.743773
_cell_length_b 7.878104
_cell_length_c 22.045968
_cell_angle_alpha 90.000000
_cell_angle_beta 142.517672
_cell_angle_gamma 90.000000
_cell_volume 1452.544208
_symmetry_space_group_name_H-M "C 2/C"
_symmetry_group_IT_number 15
_symmetry_cell_setting 'monoclinic'
loop_
_space_group_symop_operation_xyz
x,y,z
-x,y,1/2-z
-x,-y,-z
x,-y,1/2+z
1/2+x,1/2+y,z
1/2-x,1/2+y,1/2-z
1/2-x,1/2-y,-z
1/2+x,1/2-y,1/2+z
loop_
_atom_site_type_symbol
_atom_site_label
_atom_site_fract_x
_atom_site_fract_y
_atom_site_fract_z
Si Si1 0.180354 0.323887 0.838665
Si Si2 0.764237 0.684931 0.684979
Si Si3 0.437332 0.213713 0.890723
Si Si4 0.755656 0.117900 0.058847
Si Si5 0.569119 0.430092 0.445432
O O1 0.187207 0.491662 0.801344
O O2 0.281342 0.175061 0.854484
O O3 0.000000 0.259303 0.750000
O O4 0.266420 0.356550 0.945315
O O5 0.888741 0.747761 0.797295
O O6 0.803938 0.800253 0.646604
O O7 0.581868 0.697320 0.621581
O O8 0.566456 0.063518 0.966645
O O9 0.519883 0.392156 0.954941
O O10 0.750000 0.250000 0.000000
O O11 0.877281 0.966165 0.099023
#
# Coordination Sequence:
#
# PCOD8131381 Si02
#       5
#     8   8   8   8   8
#     4  11  20  36  62  90 119 167 215 260 323 383
#     4  11  20  35  61  92 128 158 211 273 308 380
#     4  10  20  35  59  89 127 166 208 267 320 379
#     4  10  18  32  60  92 123 163 212 260 320 379
#     4  10  20  37  59  95 128 161 216 271 313 389
#
# _framework density 27.537890000000001
#
# number of rings (size 3 to 8) (size 9 to 14) (size 15 to 20)
#    0.000    1.600    6.000    2.400    2.800    0.000 
#    0.000    1.000    8.800    6.000    0.000    0.000 
#    0.000    0.000    0.000    0.000    0.000    0.000 
#
# Total GULP energy -247774.373731 kJ/mol
# GULP energy per Si atom -12388.718687 kJ/mol
# Density = 2.747521 g / cm^3
# Si number density = 27.537890 Si / 1000 Ang^3
#
#
#
# Elastic Constant Matrix: (Units=GPa)
#
#
# Indices 1 2 3 4 5 6 
#
# 1 143.5280 11.4975 6.3972 0.0000 15.6515 0.0000
# 2 11.4975 33.1408 3.7585 0.0000 2.0939 0.0000
# 3 6.3972 3.7585 79.9199 0.0000 -3.8525 0.0000
# 4 0.0000 0.0000 0.0000 18.9785 0.0000 7.3991
# 5 15.6515 2.0939 -3.8525 0.0000 44.1498 0.0000
# 6 0.0000 0.0000 0.0000 7.3991 0.0000 28.6840
#
#
#
# Elastic Compliance Matrix: (Units=1/GPa)
#
#
# Indices 1 2 3 4 5 6 
#
# 1 0.007466 -0.002357 -0.000611 0.000000 -0.002588 0.000000
# 2 -0.002357 0.031189 -0.001315 0.000000 -0.000758 0.000000
# 3 -0.000611 -0.001315 0.012690 0.000000 0.001386 0.000000
# 4 0.000000 0.000000 0.000000 0.058583 0.000000 -0.015111
# 5 -0.002588 -0.000758 0.001386 0.000000 0.023725 0.000000
# 6 0.000000 0.000000 0.000000 -0.015111 0.000000 0.038761
#
#
# Mechanical properties :
#
#
# Convention : Reuss Voigt Hill
#
# Bulk Modulus (GPa) = 23.37641 33.32168 28.34904
# Shear Modulus (GPa) = 25.60969 34.02484 29.81727
#
# Velocity S-wave (km/s) = 3.05287 3.51887 3.29412
# Velocity P-wave (km/s) = 4.57536 5.35131 4.97848
#
# Compressibility (1/GPa) = 0.04277818
#
# Stress axis : x y z
#
# Youngs Moduli (GPa) = 133.94775 32.06255 78.80139
#
# Poissons Ratio (x) = 0.07558 0.04819
# Poissons Ratio (y) = 0.31573 0.10360
# Poissons Ratio (z) = 0.08191 0.04215
#
# Static dielectric constant tensor:
#      x y z
#    x 6.027060 0.000000 0.886250 
#    y 0.000000 4.563820 0.000000 
#    z 0.886250 0.000000 5.353520 
# 
# 
# High freq. dielectric constant tensor:
#      x y z
#    x 2.133080 0.000000 0.016180 
#    y 0.000000 2.058900 0.000000 
#    z 0.016180 0.000000 2.118630 
# 
# From -- ./inp_files/142348.got.cif
#   From: 2010.06.25/outbox.cif.g09.slc.cpg/sg15_72_cif.got.tgz:142348.got - 2010.06.28 07:06:18.
