data_PCOD8131784
_publ_section_title
;
Structure prediction by ZEFSAII (Michael W. Deem and Ramdas Pophale) SiO2 
 PCOD8131784
Probable space group: C 2/C
;
_chemical_formula_sum "Si O2"
_cell_formula_units_Z 60
_cell_length_a 20.887112
_cell_length_b 9.840465
_cell_length_c 20.385745
_cell_angle_alpha 90.000000
_cell_angle_beta 134.132434
_cell_angle_gamma 90.000000
_cell_volume 3007.343658
_symmetry_space_group_name_H-M "C 2/C"
_symmetry_group_IT_number 15
_symmetry_cell_setting 'monoclinic'
loop_
_space_group_symop_operation_xyz
x,y,z
-x,y,1/2-z
-x,-y,-z
x,-y,1/2+z
1/2+x,1/2+y,z
1/2-x,1/2+y,1/2-z
1/2-x,1/2-y,-z
1/2+x,1/2-y,1/2+z
loop_
_atom_site_type_symbol
_atom_site_label
_atom_site_fract_x
_atom_site_fract_y
_atom_site_fract_z
Si Si1 0.796570 0.897880 0.531272
Si Si2 0.000000 0.551784 0.750000
Si Si3 0.951793 0.261162 0.095620
Si Si4 0.650489 0.723577 0.231497
Si Si5 0.305464 0.793955 0.750781
Si Si6 0.777409 0.035866 0.656820
Si Si7 0.594925 0.076363 0.061302
Si Si8 0.181424 0.478850 0.335405
O O1 0.750000 0.750000 0.500000
O O2 0.899296 0.873187 0.582820
O O3 0.749548 0.990915 0.443353
O O4 0.790702 0.991771 0.591080
O O5 0.042570 0.640302 0.838414
O O6 0.082684 0.461253 0.783091
O O7 0.048756 0.228698 0.135397
O O8 0.898687 0.328678 0.997926
O O9 0.717835 0.767238 0.222654
O O10 0.668568 0.569653 0.261531
O O11 0.667081 0.821083 0.305700
O O12 0.324913 0.680201 0.708507
O O13 0.384373 0.828806 0.859740
O O14 0.281006 0.934998 0.698030
O O15 0.673348 0.033467 0.605054
O O16 0.500000 0.000000 0.000000
#
# Coordination Sequence:
#
# PCOD8131784 Si02
#       8
#     8   4   8   8   8   8   8   8
#     4  12  19  38  60  89 115 153 207 251 297 368
#     4  10  18  34  58  90 112 144 208 260 292 348
#     4  11  20  34  63  92 112 154 213 258 289 361
#     4  10  20  39  62  87 119 159 204 248 304 372
#     4  11  24  39  57  89 127 162 193 253 322 364
#     4  11  22  39  61  88 129 159 196 259 315 362
#     4  11  21  38  63  90 121 165 216 253 299 370
#     4  11  21  37  62  86 116 157 205 250 303 367
#
# _framework density 19.951163000000001
#
# number of rings (size 3 to 8) (size 9 to 14) (size 15 to 20)
#    0.000    1.067    4.000    5.600    0.000    0.533 
#    0.000    5.333    0.000    0.000    0.000    0.000 
#    0.000    0.000    0.000    0.000    0.000    0.000 
#
# Total GULP energy -371788.558892 kJ/mol
# GULP energy per Si atom -12392.951963 kJ/mol
# Density = 1.990575 g / cm^3
# Si number density = 19.951163 Si / 1000 Ang^3
#
#
#
# Elastic Constant Matrix: (Units=GPa)
#
#
# Indices 1 2 3 4 5 6 
#
# 1 88.9827 30.6518 43.5224 0.0000 1.9602 0.0000
# 2 30.6518 74.4329 51.0823 0.0000 -4.7839 0.0000
# 3 43.5224 51.0823 132.0066 0.0000 -18.9625 0.0000
# 4 0.0000 0.0000 0.0000 30.6898 0.0000 -5.6669
# 5 1.9602 -4.7839 -18.9625 0.0000 38.8149 0.0000
# 6 0.0000 0.0000 0.0000 -5.6669 0.0000 26.2778
#
#
#
# Elastic Compliance Matrix: (Units=1/GPa)
#
#
# Indices 1 2 3 4 5 6 
#
# 1 0.014378 -0.003491 -0.003824 0.000000 -0.003024 0.000000
# 2 -0.003491 0.019201 -0.006360 0.000000 -0.000564 0.000000
# 3 -0.003824 -0.006360 0.012059 0.000000 0.005300 0.000000
# 4 0.000000 0.000000 0.000000 0.033935 0.000000 0.007318
# 5 -0.003024 -0.000564 0.005300 0.000000 0.028436 0.000000
# 6 0.000000 0.000000 0.000000 0.007318 0.000000 0.039633
#
#
# Mechanical properties :
#
#
# Convention : Reuss Voigt Hill
#
# Bulk Modulus (GPa) = 54.68280 60.65946 57.67113
# Shear Modulus (GPa) = 27.61089 30.50090 29.05590
#
# Velocity S-wave (km/s) = 3.72415 3.91420 3.82036
# Velocity P-wave (km/s) = 6.77940 7.13428 6.95910
#
# Compressibility (1/GPa) = 0.01828729
#
# Stress axis : x y z
#
# Youngs Moduli (GPa) = 69.55294 52.07993 82.92729
#
# Poissons Ratio (x) = 0.18180 0.31710
# Poissons Ratio (y) = 0.24280 0.52745
# Poissons Ratio (z) = 0.26596 0.33125
#
# Static dielectric constant tensor:
#      x y z
#    x 4.014030 0.000000 0.021510 
#    y 0.000000 3.299420 0.000000 
#    z 0.021510 0.000000 3.765490 
# 
# 
# High freq. dielectric constant tensor:
#      x y z
#    x 1.787290 0.000000 -0.006390 
#    y 0.000000 1.742580 0.000000 
#    z -0.006390 0.000000 1.790390 
# 
# From -- ./inp_files/255177.got.cif
#   From: 2010.06.25/outbox.cif.g09.slc.cpg/sg15_128_cif.got.tgz:255177.got - 2010.06.28 07:06:18.
