data_PCOD8131638
_publ_section_title
;
Structure prediction by ZEFSAII (Michael W. Deem and Ramdas Pophale) SiO2 
 PCOD8131638
Probable space group: C 2/C
;
_chemical_formula_sum "Si O2"
_cell_formula_units_Z 40
_cell_length_a 15.806358
_cell_length_b 25.220416
_cell_length_c 16.116209
_cell_angle_alpha 90.000000
_cell_angle_beta 161.587807
_cell_angle_gamma 90.000000
_cell_volume 2029.220072
_symmetry_space_group_name_H-M "C 2/C"
_symmetry_group_IT_number 15
_symmetry_cell_setting 'monoclinic'
loop_
_space_group_symop_operation_xyz
x,y,z
-x,y,1/2-z
-x,-y,-z
x,-y,1/2+z
1/2+x,1/2+y,z
1/2-x,1/2+y,1/2-z
1/2-x,1/2-y,-z
1/2+x,1/2-y,1/2+z
loop_
_atom_site_type_symbol
_atom_site_label
_atom_site_fract_x
_atom_site_fract_y
_atom_site_fract_z
Si Si1 0.425004 0.217784 0.274596
Si Si2 0.209431 0.383036 0.748308
Si Si3 0.500000 0.098427 0.750000
Si Si4 0.820373 0.993139 0.912705
Si Si5 0.500000 0.472391 0.750000
Si Si6 0.702877 0.107502 0.775854
O O1 0.500000 0.205985 0.250000
O O2 0.692434 0.238178 0.568893
O O3 0.308165 0.163979 0.202888
O O4 0.160683 0.437912 0.753209
O O5 0.973622 0.373173 0.464070
O O6 0.488889 0.382269 0.958973
O O7 0.262842 0.063312 0.489811
O O8 0.617846 0.135423 0.784205
O O9 0.636623 0.045683 0.738344
O O10 0.000000 0.000000 0.000000
O O11 0.985011 0.990988 0.152778
#
# Coordination Sequence:
#
# PCOD8131638 Si02
#       6
#     8   8   4   8   4   8
#     4  10  22  43  62  82 112 145 190 249 294 334
#     4  11  21  36  57  85 108 149 191 234 292 338
#     4  10  18  34  52  76 114 156 190 214 266 330
#     4   9  19  35  50  78 119 151 184 236 272 333
#     4  10  20  32  48  74 108 162 196 218 272 326
#     4  10  20  34  55  82 118 151 187 226 273 343
#
# _framework density 19.712007
#
# number of rings (size 3 to 8) (size 9 to 14) (size 15 to 20)
#    0.000    2.000    0.000    5.400    0.000    4.800 
#   19.800    0.000    0.000    0.000    0.000   14.000 
#    0.000    0.000    0.000    0.000    0.000    0.000 
#
# Total GULP energy -247800.508102 kJ/mol
# GULP energy per Si atom -12390.025405 kJ/mol
# Density = 1.966714 g / cm^3
# Si number density = 19.712007 Si / 1000 Ang^3
#
#
#
# Elastic Constant Matrix: (Units=GPa)
#
#
# Indices 1 2 3 4 5 6 
#
# 1 102.4639 28.3747 26.6433 0.0003 -3.9495 0.0002
# 2 28.3747 73.9216 1.9740 -0.0002 4.7916 -0.0007
# 3 26.6433 1.9740 89.1140 0.0010 2.0148 0.0015
# 4 0.0003 -0.0002 0.0010 16.0188 -0.0019 0.8946
# 5 -3.9495 4.7916 2.0148 -0.0019 37.2930 0.0006
# 6 0.0002 -0.0007 0.0015 0.8946 0.0006 19.8643
#
#
#
# Elastic Compliance Matrix: (Units=1/GPa)
#
#
# Indices 1 2 3 4 5 6 
#
# 1 0.012054 -0.004666 -0.003547 0.000000 0.002068 0.000000
# 2 -0.004666 0.015454 0.001110 0.000000 -0.002540 0.000001
# 3 -0.003547 0.001110 0.012284 -0.000001 -0.001182 -0.000001
# 4 0.000000 0.000000 -0.000001 0.062584 0.000003 -0.002818
# 5 0.002068 -0.002540 -0.001182 0.000003 0.027424 -0.000001
# 6 0.000000 0.000001 -0.000001 -0.002818 -0.000001 0.050468
#
#
# Mechanical properties :
#
#
# Convention : Reuss Voigt Hill
#
# Bulk Modulus (GPa) = 39.08449 42.16482 40.62465
# Shear Modulus (GPa) = 24.63017 28.53573 26.58295
#
# Velocity S-wave (km/s) = 3.53866 3.80890 3.67627
# Velocity P-wave (km/s) = 6.04706 6.38596 6.21882
#
# Compressibility (1/GPa) = 0.02558560
#
# Stress axis : x y z
#
# Youngs Moduli (GPa) = 82.96160 64.70851 81.40495
#
# Poissons Ratio (x) = 0.30194 0.28876
# Poissons Ratio (y) = 0.38711 -0.09037
# Poissons Ratio (z) = 0.29428 -0.07184
#
# Static dielectric constant tensor:
#      x y z
#    x 3.804420 -0.000020 -0.432210 
#    y -0.000020 3.438860 -0.000020 
#    z -0.432210 -0.000020 3.133730 
# 
# 
# High freq. dielectric constant tensor:
#      x y z
#    x 1.794440 0.000000 0.001800 
#    y 0.000000 1.712010 0.000000 
#    z 0.001800 0.000000 1.777160 
# 
# From -- ./inp_files/157172.got.cif
#   From: 2010.06.25/outbox.cif.g09.slc.cpg/sg15_79_cif.got.tgz:157172.got - 2010.06.28 07:06:18.
