data_PCOD8131463
_publ_section_title
;
Structure prediction by ZEFSAII (Michael W. Deem and Ramdas Pophale) SiO2 
 PCOD8131463
Probable space group: C 2/C
;
_chemical_formula_sum "Si O2"
_cell_formula_units_Z 64
_cell_length_a 15.169954
_cell_length_b 25.499790
_cell_length_c 8.161149
_cell_angle_alpha 90.000000
_cell_angle_beta 91.908289
_cell_angle_gamma 90.000000
_cell_volume 3155.231667
_symmetry_space_group_name_H-M "C 2/C"
_symmetry_group_IT_number 15
_symmetry_cell_setting 'monoclinic'
loop_
_space_group_symop_operation_xyz
x,y,z
-x,y,1/2-z
-x,-y,-z
x,-y,1/2+z
1/2+x,1/2+y,z
1/2-x,1/2+y,1/2-z
1/2-x,1/2-y,-z
1/2+x,1/2-y,1/2+z
loop_
_atom_site_type_symbol
_atom_site_label
_atom_site_fract_x
_atom_site_fract_y
_atom_site_fract_z
Si Si1 0.659900 0.435029 0.985839
Si Si2 0.622171 0.300038 0.465865
Si Si3 0.523814 0.404511 0.439592
Si Si4 0.880671 0.256550 0.875793
Si Si5 0.307793 0.544556 0.635282
Si Si6 0.206576 0.643599 0.617114
Si Si7 0.757672 0.829099 0.487585
Si Si8 0.045143 0.292703 0.085709
O O1 0.554961 0.425352 0.947137
O O2 0.668754 0.443636 0.178000
O O3 0.705531 0.482700 0.890452
O O4 0.712479 0.383882 0.930846
O O5 0.545145 0.343406 0.469728
O O6 0.609410 0.262092 0.308765
O O7 0.718221 0.325560 0.479905
O O8 0.606436 0.259586 0.615469
O O9 0.500000 0.411600 0.250000
O O10 0.611267 0.438994 0.479522
O O11 0.810391 0.303646 0.889801
O O12 0.845057 0.206854 0.977479
O O13 0.973496 0.279366 0.943359
O O14 0.222262 0.580939 0.590959
O O15 0.110336 0.658967 0.541207
O O16 0.213225 0.661041 0.807420
O O17 0.000000 0.309291 0.250000
#
# Coordination Sequence:
#
# PCOD8131463 Si02
#       8
#     8   8   8   8   8   8   8   8
#     4  10  18  33  54  77 103 138 180 220 264 318
#     4  10  20  35  54  77 111 148 178 215 265 330
#     4   9  16  31  52  75 105 143 174 207 264 332
#     4  10  19  34  55  79 106 143 186 216 263 328
#     4   9  19  33  53  74 102 138 178 218 268 318
#     4   9  19  37  52  75 110 149 178 213 278 331
#     4   9  18  34  55  78 107 144 182 219 266 330
#     4  12  21  32  52  79 107 139 182 222 269 315
#
# _framework density 20.283773
#
# number of rings (size 3 to 8) (size 9 to 14) (size 15 to 20)
#    0.000    2.250    1.250    4.875    0.000    0.000 
#    2.250    3.750    0.000    1.500    0.000    0.000 
#    0.000    0.000    0.000    0.000    0.000    0.000 
#
# Total GULP energy -396554.178700 kJ/mol
# GULP energy per Si atom -12392.318084 kJ/mol
# Density = 2.023761 g / cm^3
# Si number density = 20.283773 Si / 1000 Ang^3
#
#
#
# Elastic Constant Matrix: (Units=GPa)
#
#
# Indices 1 2 3 4 5 6 
#
# 1 114.3339 70.1356 20.8652 0.0000 -2.5165 0.0000
# 2 70.1356 164.4033 18.9235 0.0000 -7.8265 0.0000
# 3 20.8652 18.9235 9.4400 0.0000 -3.0013 0.0000
# 4 0.0000 0.0000 0.0000 23.6903 0.0000 -2.8021
# 5 -2.5165 -7.8265 -3.0013 0.0000 19.2923 0.0000
# 6 0.0000 0.0000 0.0000 -2.8021 0.0000 29.5859
#
#
#
# Elastic Compliance Matrix: (Units=1/GPa)
#
#
# Indices 1 2 3 4 5 6 
#
# 1 0.016458 -0.003742 -0.030167 0.000000 -0.004064 0.000000
# 2 -0.003742 0.008769 -0.008765 0.000000 0.001706 0.000000
# 3 -0.030167 -0.008765 0.197573 0.000000 0.023245 0.000000
# 4 0.000000 0.000000 0.000000 0.042690 0.000000 0.004043
# 5 -0.004064 0.001706 0.023245 0.000000 0.055612 0.000000
# 6 0.000000 0.000000 0.000000 0.004043 0.000000 0.034183
#
#
# Mechanical properties :
#
#
# Convention : Reuss Voigt Hill
#
# Bulk Modulus (GPa) = 7.27534 56.44730 31.86132
# Shear Modulus (GPa) = 10.27852 26.39723 18.33787
#
# Velocity S-wave (km/s) = 2.25352 3.61140 3.01003
# Velocity P-wave (km/s) = 3.21958 6.72895 5.27468
#
# Compressibility (1/GPa) = 0.13745071
#
# Stress axis : x y z
#
# Youngs Moduli (GPa) = 60.76188 114.03655 5.06141
#
# Poissons Ratio (x) = 0.42673 0.15269
# Poissons Ratio (y) = 0.22737 0.04436
# Poissons Ratio (z) = 1.83303 0.99957
#
# Static dielectric constant tensor:
#      x y z
#    x 3.796520 0.000000 -0.216590 
#    y 0.000000 4.199130 0.000000 
#    z -0.216590 0.000000 3.360550 
# 
# 
# High freq. dielectric constant tensor:
#      x y z
#    x 1.781780 0.000000 -0.015180 
#    y 0.000000 1.786650 0.000000 
#    z -0.015180 0.000000 1.760850 
# 
# From -- ./inp_files/42625.got.cif
#   From: 2010.06.25/outbox.cif.g09.slc.cpg/sg15_22_cif.got.tgz:42625.got - 2010.06.28 07:06:18.
