data_PCOD8131266
_publ_section_title
;
Structure prediction by ZEFSAII (Michael W. Deem and Ramdas Pophale) SiO2 
 PCOD8131266
Probable space group: C 2/C
;
_chemical_formula_sum "Si O2"
_cell_formula_units_Z 64
_cell_length_a 26.915929
_cell_length_b 19.011022
_cell_length_c 11.888906
_cell_angle_alpha 90.000000
_cell_angle_beta 144.421360
_cell_angle_gamma 90.000000
_cell_volume 3539.527015
_symmetry_space_group_name_H-M "C 2/C"
_symmetry_group_IT_number 15
_symmetry_cell_setting 'monoclinic'
loop_
_space_group_symop_operation_xyz
x,y,z
-x,y,1/2-z
-x,-y,-z
x,-y,1/2+z
1/2+x,1/2+y,z
1/2-x,1/2+y,1/2-z
1/2-x,1/2-y,-z
1/2+x,1/2-y,1/2+z
loop_
_atom_site_type_symbol
_atom_site_label
_atom_site_fract_x
_atom_site_fract_y
_atom_site_fract_z
Si Si1 0.335602 0.375791 0.333447
Si Si2 0.097665 0.013365 0.948653
Si Si3 0.957524 0.249706 0.056187
Si Si4 0.244952 0.272172 0.300574
Si Si5 0.714463 0.586481 0.343110
Si Si6 0.186337 0.644654 0.171968
Si Si7 0.631618 0.271531 0.775370
Si Si8 0.725216 0.453319 0.495539
O O1 0.392015 0.430342 0.508892
O O2 0.390095 0.308910 0.396449
O O3 0.258299 0.348627 0.270907
O O4 0.293611 0.406864 0.146624
O O5 0.140641 0.037552 0.912771
O O6 0.000000 0.033341 0.750000
O O7 0.138731 0.053368 0.129339
O O8 0.000000 0.226564 0.250000
O O9 0.030899 0.244698 0.095971
O O10 0.909828 0.325550 0.982352
O O11 0.245849 0.210695 0.205899
O O12 0.325415 0.248172 0.528071
O O13 0.160569 0.275354 0.221527
O O14 0.796535 0.607299 0.417696
O O15 0.666122 0.649465 0.318169
O O16 0.752857 0.531043 0.504216
O O17 0.203065 0.587462 0.300473
#
# Coordination Sequence:
#
# PCOD8131266 Si02
#       8
#     8   8   8   8   8   8   8   8
#     4  10  20  32  52  78 106 139 178 214 260 319
#     4  10  21  32  46  78 113 139 170 216 260 316
#     4  11  20  32  54  82 106 133 174 234 262 301
#     4   9  18  32  52  76 104 134 173 224 256 314
#     4   9  20  34  53  75 107 142 179 210 255 327
#     4   9  19  37  51  77 108 134 180 216 265 314
#     4  10  18  32  54  81  99 135 176 217 273 296
#     4  10  21  34  53  74 105 153 172 207 263 322
#
# _framework density 18.081510999999999
#
# number of rings (size 3 to 8) (size 9 to 14) (size 15 to 20)
#    0.000    2.250    2.500    1.125    3.500    3.000 
#    0.000    0.000    0.000    0.750    0.000    0.000 
#    0.000    0.000    0.000    0.000    0.000    0.000 
#
# Total GULP energy -396439.894328 kJ/mol
# GULP energy per Si atom -12388.746698 kJ/mol
# Density = 1.804036 g / cm^3
# Si number density = 18.081511 Si / 1000 Ang^3
#
#
#
# Elastic Constant Matrix: (Units=GPa)
#
#
# Indices 1 2 3 4 5 6 
#
# 1 122.3190 54.5933 34.5536 0.0000 12.0078 0.0000
# 2 54.5933 91.3120 36.7661 0.0000 8.0413 0.0000
# 3 34.5536 36.7661 33.4710 0.0000 0.4441 0.0000
# 4 0.0000 0.0000 0.0000 22.5569 0.0000 -6.3571
# 5 12.0078 8.0413 0.4441 0.0000 25.4248 0.0000
# 6 0.0000 0.0000 0.0000 -6.3571 0.0000 33.2637
#
#
#
# Elastic Compliance Matrix: (Units=1/GPa)
#
#
# Indices 1 2 3 4 5 6 
#
# 1 0.012851 -0.003486 -0.009373 0.000000 -0.004803 0.000000
# 2 -0.003486 0.021487 -0.019940 0.000000 -0.004801 0.000000
# 3 -0.009373 -0.019940 0.061328 0.000000 0.009662 0.000000
# 4 0.000000 0.000000 0.000000 0.046856 0.000000 0.008955
# 5 -0.004803 -0.004801 0.009662 0.000000 0.042950 0.000000
# 6 0.000000 0.000000 0.000000 0.008955 0.000000 0.031774
#
#
# Mechanical properties :
#
#
# Convention : Reuss Voigt Hill
#
# Bulk Modulus (GPa) = 33.25908 55.43645 44.34777
# Shear Modulus (GPa) = 17.07262 24.32835 20.70049
#
# Velocity S-wave (km/s) = 3.07612 3.67206 3.38722
# Velocity P-wave (km/s) = 5.57231 6.97886 6.31487
#
# Compressibility (1/GPa) = 0.03006698
#
# Stress axis : x y z
#
# Youngs Moduli (GPa) = 77.81779 46.53932 16.30578
#
# Poissons Ratio (x) = 0.16224 0.15284
# Poissons Ratio (y) = 0.27127 0.32514
# Poissons Ratio (z) = 0.72941 0.92800
#
# Static dielectric constant tensor:
#      x y z
#    x 3.594130 0.000000 -0.052430 
#    y 0.000000 3.589440 0.000000 
#    z -0.052430 0.000000 3.007540 
# 
# 
# High freq. dielectric constant tensor:
#      x y z
#    x 1.712510 0.000000 -0.013910 
#    y 0.000000 1.706750 0.000000 
#    z -0.013910 0.000000 1.653920 
# 
# From -- ./inp_files/124084.got.cif
#   From: 2010.06.25/outbox.cif.g09.slc.cpg/sg15_63_cif.got.tgz:124084.got - 2010.06.28 07:06:18.
