data_PCOD8131105
_publ_section_title
;
Structure prediction by ZEFSAII (Michael W. Deem and Ramdas Pophale) SiO2 
 PCOD8131105
Probable space group: C 2/C
;
_chemical_formula_sum "Si O2"
_cell_formula_units_Z 64
_cell_length_a 30.138559
_cell_length_b 14.307211
_cell_length_c 10.118634
_cell_angle_alpha 90.000000
_cell_angle_beta 120.421137
_cell_angle_gamma 90.000000
_cell_volume 3762.454894
_symmetry_space_group_name_H-M "C 2/C"
_symmetry_group_IT_number 15
_symmetry_cell_setting 'monoclinic'
loop_
_space_group_symop_operation_xyz
x,y,z
-x,y,1/2-z
-x,-y,-z
x,-y,1/2+z
1/2+x,1/2+y,z
1/2-x,1/2+y,1/2-z
1/2-x,1/2-y,-z
1/2+x,1/2-y,1/2+z
loop_
_atom_site_type_symbol
_atom_site_label
_atom_site_fract_x
_atom_site_fract_y
_atom_site_fract_z
Si Si1 0.283974 0.417437 0.210138
Si Si2 0.665189 0.915677 0.033049
Si Si3 0.126706 0.779026 0.163220
Si Si4 0.964324 0.897032 0.072820
Si Si5 0.467653 0.387037 0.573385
Si Si6 0.664468 0.922214 0.728602
Si Si7 0.283022 0.423398 0.908207
Si Si8 0.628425 0.714454 0.968499
O O1 0.224840 0.390536 0.146906
O O2 0.318373 0.325961 0.285649
O O3 0.302695 0.495267 0.341525
O O4 0.291110 0.456448 0.071889
O O5 0.645701 0.994298 0.105550
O O6 0.656371 0.950863 0.869511
O O7 0.632024 0.823227 0.012001
O O8 0.131299 0.668867 0.142197
O O9 0.111003 0.798150 0.290827
O O10 0.082434 0.821625 0.004442
O O11 0.912757 0.835868 0.000377
O O12 0.000000 0.875040 0.250000
O O13 0.948582 0.005811 0.043826
O O14 0.994972 0.865437 0.991001
O O15 0.500000 0.361366 0.750000
O O16 0.723941 0.898405 0.790798
O O17 0.315567 0.330895 0.926475
#
# Coordination Sequence:
#
# PCOD8131105 Si02
#       8
#     8   8   8   8   8   8   8   8
#     4   9  17  30  49  74 104 132 163 197 242 291
#     4   9  18  33  51  73 100 132 166 205 241 286
#     4  10  18  32  53  74  97 133 169 201 241 295
#     4  10  19  35  54  74 100 131 161 198 245 299
#     4  10  21  35  52  76 104 127 157 204 252 291
#     4   9  18  33  52  71 100 133 166 203 245 286
#     4   9  17  30  48  75 104 132 162 199 239 292
#     4  10  18  31  54  75  96 132 174 197 234 299
#
# _framework density 17.010169999999999
#
# number of rings (size 3 to 8) (size 9 to 14) (size 15 to 20)
#    0.000    2.500    1.250    1.500    0.000    3.000 
#    4.500    0.000    0.000    7.500    0.000    0.000 
#    0.000    0.000    0.000    0.000    0.000    0.000 
#
# Total GULP energy -396827.038187 kJ/mol
# GULP energy per Si atom -12400.844943 kJ/mol
# Density = 1.697145 g / cm^3
# Si number density = 17.010170 Si / 1000 Ang^3
#
#
#
# Elastic Constant Matrix: (Units=GPa)
#
#
# Indices 1 2 3 4 5 6 
#
# 1 72.7330 51.7654 45.3614 0.0000 -1.6915 0.0000
# 2 51.7654 103.7076 50.2727 0.0000 -3.7792 0.0000
# 3 45.3614 50.2727 72.3990 0.0000 -10.8712 0.0000
# 4 0.0000 0.0000 0.0000 31.8729 0.0000 -1.6548
# 5 -1.6915 -3.7792 -10.8712 0.0000 19.5575 0.0000
# 6 0.0000 0.0000 0.0000 -1.6548 0.0000 29.4368
#
#
#
# Elastic Compliance Matrix: (Units=1/GPa)
#
#
# Indices 1 2 3 4 5 6 
#
# 1 0.026713 -0.007538 -0.012410 0.000000 -0.006045 0.000000
# 2 -0.007538 0.016832 -0.007173 0.000000 -0.001387 0.000000
# 3 -0.012410 -0.007173 0.028585 0.000000 0.013430 0.000000
# 4 0.000000 0.000000 0.000000 0.031467 0.000000 0.001769
# 5 -0.006045 -0.001387 0.013430 0.000000 0.057806 0.000000
# 6 0.000000 0.000000 0.000000 0.001769 0.000000 0.034071
#
#
# Mechanical properties :
#
#
# Convention : Reuss Voigt Hill
#
# Bulk Modulus (GPa) = 55.90487 60.40429 58.15458
# Shear Modulus (GPa) = 19.55580 22.93610 21.24595
#
# Velocity S-wave (km/s) = 3.39433 3.67601 3.53797
# Velocity P-wave (km/s) = 6.94974 7.32155 7.13807
#
# Compressibility (1/GPa) = 0.01788753
#
# Stress axis : x y z
#
# Youngs Moduli (GPa) = 37.43434 59.41174 34.98291
#
# Poissons Ratio (x) = 0.44786 0.43415
# Poissons Ratio (y) = 0.28219 0.25093
# Poissons Ratio (z) = 0.46458 0.42615
#
# Static dielectric constant tensor:
#      x y z
#    x 3.026880 0.000000 -0.085410 
#    y 0.000000 3.078140 0.000000 
#    z -0.085410 0.000000 3.129350 
# 
# 
# High freq. dielectric constant tensor:
#      x y z
#    x 1.646350 0.000000 -0.004320 
#    y 0.000000 1.644260 0.000000 
#    z -0.004320 0.000000 1.650180 
# 
# From -- ./inp_files/66178.got.cif
#   From: 2010.06.25/outbox.cif.g09.slc.cpg/sg15_34_cif.got.tgz:66178.got - 2010.06.28 07:06:18.
