data_PCOD8131738
_publ_section_title
;
Structure prediction by ZEFSAII (Michael W. Deem and Ramdas Pophale) SiO2 
 PCOD8131738
Probable space group: C 2/C
;
_chemical_formula_sum "Si O2"
_cell_formula_units_Z 56
_cell_length_a 14.725472
_cell_length_b 24.403188
_cell_length_c 9.074478
_cell_angle_alpha 90.000000
_cell_angle_beta 118.827203
_cell_angle_gamma 90.000000
_cell_volume 2856.802017
_symmetry_space_group_name_H-M "C 2/C"
_symmetry_group_IT_number 15
_symmetry_cell_setting 'monoclinic'
loop_
_space_group_symop_operation_xyz
x,y,z
-x,y,1/2-z
-x,-y,-z
x,-y,1/2+z
1/2+x,1/2+y,z
1/2-x,1/2+y,1/2-z
1/2-x,1/2-y,-z
1/2+x,1/2-y,1/2+z
loop_
_atom_site_type_symbol
_atom_site_label
_atom_site_fract_x
_atom_site_fract_y
_atom_site_fract_z
Si Si1 0.793796 0.495976 0.304580
Si Si2 0.881118 0.570758 0.128215
Si Si3 0.494475 0.383852 0.077414
Si Si4 0.590667 0.726191 0.916323
Si Si5 0.108845 0.060420 0.255463
Si Si6 0.791457 0.105740 0.904018
Si Si7 0.781095 0.324767 0.394622
O O1 0.836256 0.548844 0.249491
O O2 0.872558 0.475509 0.493737
O O3 0.683682 0.508220 0.298667
O O4 0.778317 0.448067 0.173067
O O5 0.000000 0.585796 0.250000
O O6 0.820818 0.625566 0.028954
O O7 0.500000 0.401128 0.250000
O O8 0.464212 0.320162 0.026895
O O9 0.605980 0.399759 0.109699
O O10 0.409175 0.418770 0.923637
O O11 0.500000 0.754529 0.750000
O O12 0.672089 0.695435 0.873872
O O13 0.640646 0.773815 0.052317
O O14 0.172304 0.107872 0.396932
O O15 0.000000 0.044673 0.250000
O O16 0.730122 0.157611 0.786705
#
# Coordination Sequence:
#
# PCOD8131738 Si02
#       7
#     8   8   8   8   8   8   8
#     4  11  22  38  58  85 121 157 202 238 294 352
#     4  11  23  40  59  86 114 161 200 253 290 354
#     4  10  19  33  57  83 115 152 192 240 295 350
#     4  10  18  34  57  90 111 151 193 254 296 348
#     4  10  22  36  55  87 124 160 188 240 300 360
#     4  10  20  36  52  85 119 153 188 240 289 356
#     4  10  20  34  59  84 119 145 201 246 297 348
#
# _framework density 19.602336999999999
#
# number of rings (size 3 to 8) (size 9 to 14) (size 15 to 20)
#    0.000    1.714    4.286    1.714    2.000    2.857 
#    0.000    0.714    0.000    0.000    0.000    0.000 
#    0.000    0.000    0.000    0.000    0.000    0.000 
#
# Total GULP energy -346927.012483 kJ/mol
# GULP energy per Si atom -12390.250446 kJ/mol
# Density = 1.955772 g / cm^3
# Si number density = 19.602337 Si / 1000 Ang^3
#
#
#
# Elastic Constant Matrix: (Units=GPa)
#
#
# Indices 1 2 3 4 5 6 
#
# 1 55.6069 20.2765 32.1837 0.0000 14.1878 0.0000
# 2 20.2765 65.7295 35.6033 0.0000 5.6781 0.0000
# 3 32.1837 35.6033 134.5076 0.0000 7.0831 0.0000
# 4 0.0000 0.0000 0.0000 25.3720 0.0000 6.5679
# 5 14.1878 5.6781 7.0831 0.0000 31.7851 0.0000
# 6 0.0000 0.0000 0.0000 6.5679 0.0000 18.4938
#
#
#
# Elastic Compliance Matrix: (Units=1/GPa)
#
#
# Indices 1 2 3 4 5 6 
#
# 1 0.024356 -0.004468 -0.004163 0.000000 -0.009146 0.000000
# 2 -0.004468 0.018726 -0.003862 0.000000 -0.000490 0.000000
# 3 -0.004163 -0.003862 0.009429 0.000000 0.000447 0.000000
# 4 0.000000 0.000000 0.000000 0.043404 0.000000 -0.015414
# 5 -0.009146 -0.000490 0.000447 0.000000 0.035532 0.000000
# 6 0.000000 0.000000 0.000000 -0.015414 0.000000 0.059547
#
#
# Mechanical properties :
#
#
# Convention : Reuss Voigt Hill
#
# Bulk Modulus (GPa) = 36.33081 47.99676 42.16378
# Shear Modulus (GPa) = 22.20694 26.31555 24.26124
#
# Velocity S-wave (km/s) = 3.36947 3.66795 3.52187
# Velocity P-wave (km/s) = 5.80620 6.51743 6.17206
#
# Compressibility (1/GPa) = 0.02752485
#
# Stress axis : x y z
#
# Youngs Moduli (GPa) = 41.05808 53.40057 106.05192
#
# Poissons Ratio (x) = 0.23860 0.44153
# Poissons Ratio (y) = 0.18345 0.40955
# Poissons Ratio (z) = 0.17094 0.20622
#
# Static dielectric constant tensor:
#      x y z
#    x 3.367570 0.000000 0.148340 
#    y 0.000000 3.601050 0.000000 
#    z 0.148340 0.000000 4.234600 
# 
# 
# High freq. dielectric constant tensor:
#      x y z
#    x 1.742570 0.000000 0.022810 
#    y 0.000000 1.748800 0.000000 
#    z 0.022810 0.000000 1.778680 
# 
# From -- ./inp_files/42129.got.cif
#   From: 2010.06.25/outbox.cif.g09.slc.cpg/sg15_22_cif.got.tgz:42129.got - 2010.06.28 07:06:18.
