data_PCOD8131497
_publ_section_title
;
Structure prediction by ZEFSAII (Michael W. Deem and Ramdas Pophale) SiO2 
 PCOD8131497
Probable space group: C 2/C
;
_chemical_formula_sum "Si O2"
_cell_formula_units_Z 56
_cell_length_a 9.439241
_cell_length_b 25.495758
_cell_length_c 18.330348
_cell_angle_alpha 90.000000
_cell_angle_beta 139.611969
_cell_angle_gamma 90.000000
_cell_volume 2858.409507
_symmetry_space_group_name_H-M "C 2/C"
_symmetry_group_IT_number 15
_symmetry_cell_setting 'monoclinic'
loop_
_space_group_symop_operation_xyz
x,y,z
-x,y,1/2-z
-x,-y,-z
x,-y,1/2+z
1/2+x,1/2+y,z
1/2-x,1/2+y,1/2-z
1/2-x,1/2-y,-z
1/2+x,1/2-y,1/2+z
loop_
_atom_site_type_symbol
_atom_site_label
_atom_site_fract_x
_atom_site_fract_y
_atom_site_fract_z
Si Si1 0.049387 0.848947 0.895323
Si Si2 0.000000 0.227659 0.250000
Si Si3 0.500000 0.097557 0.750000
Si Si4 0.820941 0.064426 0.237546
Si Si5 0.654397 0.684515 0.591115
Si Si6 0.752329 0.554678 0.780765
Si Si7 0.068332 0.151958 0.853298
Si Si8 0.986451 0.607035 0.495418
O O1 0.944186 0.808284 0.797102
O O2 0.887916 0.900214 0.834124
O O3 0.028575 0.819685 0.964973
O O4 0.298947 0.864090 0.969696
O O5 0.209081 0.262360 0.352305
O O6 0.302809 0.133289 0.646681
O O7 0.428503 0.059771 0.786361
O O8 0.000000 0.082676 0.250000
O O9 0.844887 0.003347 0.263850
O O10 0.591275 0.079280 0.109953
O O11 0.500302 0.684433 0.602109
O O12 0.551345 0.594979 0.693868
O O13 0.887406 0.563062 0.907948
O O14 0.330970 0.149053 0.957493
O O15 0.000000 0.180445 0.750000
#
# Coordination Sequence:
#
# PCOD8131497 Si02
#       8
#     8   4   4   8   8   8   8   8
#     4  11  21  40  61  88 119 150 202 252 287 350
#     4  11  22  40  68  86 108 156 206 247 300 352
#     4   9  18  34  54  86 116 148 200 239 276 352
#     4  10  20  34  56  81 119 158 196 238 285 348
#     4  10  21  39  63  86 114 153 195 252 300 341
#     4  10  18  33  55  87 116 160 201 229 285 349
#     4   9  20  37  59  86 121 149 194 243 290 354
#     4  10  18  35  61  79 120 156 191 240 296 339
#
# _framework density 19.591314000000001
#
# number of rings (size 3 to 8) (size 9 to 14) (size 15 to 20)
#    0.000    2.000    3.571    2.143    2.000    1.143 
#    2.571    2.143    0.000    0.000    0.000    0.000 
#    0.000    0.000    0.000    0.000    0.000    0.000 
#
# Total GULP energy -347027.271511 kJ/mol
# GULP energy per Si atom -12393.831125 kJ/mol
# Density = 1.954672 g / cm^3
# Si number density = 19.591314 Si / 1000 Ang^3
#
#
#
# Elastic Constant Matrix: (Units=GPa)
#
#
# Indices 1 2 3 4 5 6 
#
# 1 92.6433 13.8101 27.7776 0.0007 -16.1269 0.0003
# 2 13.8101 79.9243 28.1427 0.0000 -11.5015 0.0000
# 3 27.7776 28.1427 87.6963 0.0043 -11.1856 0.0016
# 4 0.0007 0.0000 0.0043 16.7629 0.0014 -3.9986
# 5 -16.1269 -11.5015 -11.1856 0.0014 35.2652 0.0005
# 6 0.0003 0.0000 0.0016 -3.9986 0.0005 13.0779
#
#
#
# Elastic Compliance Matrix: (Units=1/GPa)
#
#
# Indices 1 2 3 4 5 6 
#
# 1 0.012641 -0.000358 -0.003300 0.000000 0.004617 0.000000
# 2 -0.000358 0.014494 -0.004123 0.000001 0.003256 0.000001
# 3 -0.003300 -0.004123 0.013973 -0.000004 0.001578 -0.000003
# 4 0.000000 0.000001 -0.000004 0.064349 -0.000004 0.019675
# 5 0.004617 0.003256 0.001578 -0.000004 0.032030 -0.000003
# 6 0.000000 0.000001 -0.000003 0.019675 -0.000003 0.082480
#
#
# Mechanical properties :
#
#
# Convention : Reuss Voigt Hill
#
# Bulk Modulus (GPa) = 39.14502 44.41384 41.77943
# Shear Modulus (GPa) = 20.48819 25.72345 23.10582
#
# Velocity S-wave (km/s) = 3.23736 3.62747 3.43795
# Velocity P-wave (km/s) = 5.83080 6.34540 6.09353
#
# Compressibility (1/GPa) = 0.02554604
#
# Stress axis : x y z
#
# Youngs Moduli (GPa) = 79.10980 68.99491 71.56855
#
# Poissons Ratio (x) = 0.02468 0.23619
# Poissons Ratio (y) = 0.02830 0.29505
# Poissons Ratio (z) = 0.26108 0.28444
#
# Static dielectric constant tensor:
#      x y z
#    x 3.619960 0.000000 -0.083760 
#    y 0.000000 3.300060 0.000000 
#    z -0.083760 0.000000 3.712540 
# 
# 
# High freq. dielectric constant tensor:
#      x y z
#    x 1.748830 0.000000 -0.005570 
#    y 0.000000 1.746890 0.000000 
#    z -0.005570 0.000000 1.767350 
# 
# From -- ./inp_files/193941.got.cif
#   From: 2010.06.25/outbox.cif.g09.slc.cpg/sg15_97_cif.got.tgz:193941.got - 2010.06.28 07:06:18.
