data_PCOD8131715
_publ_section_title
;
Structure prediction by ZEFSAII (Michael W. Deem and Ramdas Pophale) SiO2 
 PCOD8131715
Probable space group: C 2/C
;
_chemical_formula_sum "Si O2"
_cell_formula_units_Z 60
_cell_length_a 21.079858
_cell_length_b 14.234733
_cell_length_c 11.799224
_cell_angle_alpha 90.000000
_cell_angle_beta 117.282729
_cell_angle_gamma 90.000000
_cell_volume 3146.681069
_symmetry_space_group_name_H-M "C 2/C"
_symmetry_group_IT_number 15
_symmetry_cell_setting 'monoclinic'
loop_
_space_group_symop_operation_xyz
x,y,z
-x,y,1/2-z
-x,-y,-z
x,-y,1/2+z
1/2+x,1/2+y,z
1/2-x,1/2+y,1/2-z
1/2-x,1/2-y,-z
1/2+x,1/2-y,1/2+z
loop_
_atom_site_type_symbol
_atom_site_label
_atom_site_fract_x
_atom_site_fract_y
_atom_site_fract_z
Si Si1 0.685849 0.216206 0.113748
Si Si2 0.055989 0.305240 0.671165
Si Si3 0.758893 0.088745 0.809136
Si Si4 0.407798 0.747473 0.555455
Si Si5 0.211034 0.121657 0.128459
Si Si6 0.353255 0.079880 0.603242
Si Si7 0.207783 0.395207 0.028814
Si Si8 0.000000 0.482387 0.750000
O O1 0.617495 0.190615 0.131360
O O2 0.695953 0.326885 0.098289
O O3 0.755364 0.171000 0.232730
O O4 0.667662 0.176576 0.974949
O O5 0.081362 0.243313 0.799668
O O6 0.034235 0.413183 0.683799
O O7 0.985562 0.255815 0.560593
O O8 0.677929 0.084813 0.793775
O O9 0.760916 0.113525 0.677894
O O10 0.797587 0.989681 0.862489
O O11 0.367881 0.659624 0.465399
O O12 0.364237 0.842341 0.496738
O O13 0.259337 0.148615 0.058901
O O14 0.307837 0.004039 0.497405
O O15 0.436619 0.053366 0.662329
#
# Coordination Sequence:
#
# PCOD8131715 Si02
#       8
#     8   8   8   8   8   8   8   4
#     4  12  22  38  59  83 120 157 191 236 291 352
#     4  10  20  34  60  89 115 146 187 249 298 333
#     4  11  24  37  56  85 117 155 196 237 286 344
#     4  10  18  34  56  88 115 137 188 248 293 332
#     4  11  21  35  60  87 110 150 197 244 290 328
#     4  11  23  37  55  86 123 155 182 228 297 366
#     4  11  18  34  60  87 114 143 193 241 288 346
#     4  10  20  38  58  90 124 146 190 238 302 356
#
# _framework density 19.067709000000001
#
# number of rings (size 3 to 8) (size 9 to 14) (size 15 to 20)
#    0.000    1.333    6.667    2.400    0.000    1.600 
#    0.000    0.667    0.000    1.600    0.000    0.000 
#    0.000    0.000    0.000    0.000    0.000    0.000 
#
# Total GULP energy -371803.321582 kJ/mol
# GULP energy per Si atom -12393.444053 kJ/mol
# Density = 1.902431 g / cm^3
# Si number density = 19.067709 Si / 1000 Ang^3
#
#
#
# Elastic Constant Matrix: (Units=GPa)
#
#
# Indices 1 2 3 4 5 6 
#
# 1 35.4224 24.4282 22.7647 0.0000 13.9761 0.0000
# 2 24.4282 110.5207 31.8004 0.0000 16.0621 0.0000
# 3 22.7647 31.8004 79.2609 0.0000 15.0171 0.0000
# 4 0.0000 0.0000 0.0000 26.5351 0.0000 7.8740
# 5 13.9761 16.0621 15.0171 0.0000 30.5262 0.0000
# 6 0.0000 0.0000 0.0000 7.8740 0.0000 27.6199
#
#
#
# Elastic Compliance Matrix: (Units=1/GPa)
#
#
# Indices 1 2 3 4 5 6 
#
# 1 0.041608 -0.005212 -0.007465 0.000000 -0.012635 0.000000
# 2 -0.005212 0.011277 -0.002598 0.000000 -0.002270 0.000000
# 3 -0.007465 -0.002598 0.016427 0.000000 -0.003297 0.000000
# 4 0.000000 0.000000 0.000000 0.041169 0.000000 -0.011737
# 5 -0.012635 -0.002270 -0.003297 0.000000 0.041359 0.000000
# 6 0.000000 0.000000 0.000000 -0.011737 0.000000 0.039552
#
#
# Mechanical properties :
#
#
# Convention : Reuss Voigt Hill
#
# Bulk Modulus (GPa) = 25.79809 42.57674 34.18742
# Shear Modulus (GPa) = 21.28894 26.68362 23.98628
#
# Velocity S-wave (km/s) = 3.34502 3.74493 3.55061
# Velocity P-wave (km/s) = 5.33648 6.40914 5.89725
#
# Compressibility (1/GPa) = 0.03876255
#
# Stress axis : x y z
#
# Youngs Moduli (GPa) = 24.03384 88.67292 60.87367
#
# Poissons Ratio (x) = 0.46219 0.45444
# Poissons Ratio (y) = 0.12527 0.15812
# Poissons Ratio (z) = 0.17942 0.23033
#
# Static dielectric constant tensor:
#      x y z
#    x 3.509000 0.000000 0.131660 
#    y 0.000000 3.435580 0.000000 
#    z 0.131660 0.000000 3.644130 
# 
# 
# High freq. dielectric constant tensor:
#      x y z
#    x 1.727080 0.000000 0.003620 
#    y 0.000000 1.734870 0.000000 
#    z 0.003620 0.000000 1.731100 
# 
# From -- ./inp_files/118583.got.cif
#   From: 2010.06.25/outbox.cif.g09.slc.cpg/sg15_60_cif.got.tgz:118583.got - 2010.06.28 07:06:18.
