data_PCOD8131960
_publ_section_title
;
Structure prediction by ZEFSAII (Michael W. Deem and Ramdas Pophale) SiO2 
 PCOD8131960
Probable space group: C 2/C
;
_chemical_formula_sum "Si O2"
_cell_formula_units_Z 48
_cell_length_a 20.278930
_cell_length_b 13.687848
_cell_length_c 9.744804
_cell_angle_alpha 90.000000
_cell_angle_beta 107.593945
_cell_angle_gamma 90.000000
_cell_volume 2578.384350
_symmetry_space_group_name_H-M "C 2/C"
_symmetry_group_IT_number 15
_symmetry_cell_setting 'monoclinic'
loop_
_space_group_symop_operation_xyz
x,y,z
-x,y,1/2-z
-x,-y,-z
x,-y,1/2+z
1/2+x,1/2+y,z
1/2-x,1/2+y,1/2-z
1/2-x,1/2-y,-z
1/2+x,1/2-y,1/2+z
loop_
_atom_site_type_symbol
_atom_site_label
_atom_site_fract_x
_atom_site_fract_y
_atom_site_fract_z
Si Si1 0.421943 0.827593 0.360095
Si Si2 0.851054 0.496737 0.941343
Si Si3 0.813639 0.147807 0.964627
Si Si4 0.575221 0.803940 0.455473
Si Si5 0.740597 0.033357 0.358934
Si Si6 0.286427 0.716914 0.247013
O O1 0.410556 0.926613 0.437962
O O2 0.496782 0.788517 0.457758
O O3 0.423530 0.844250 0.198407
O O4 0.361151 0.750138 0.350135
O O5 0.786866 0.509840 0.800466
O O6 0.882339 0.387829 0.938596
O O7 0.822003 0.519456 0.073724
O O8 0.809761 0.030628 0.938435
O O9 0.763328 0.191745 0.815077
O O10 0.888864 0.197997 0.000444
O O11 0.786634 0.160291 0.102415
O O12 0.759355 0.147148 0.351989
#
# Coordination Sequence:
#
# PCOD8131960 Si02
#       6
#     8   8   8   8   8   8
#     4  10  21  36  55  83 111 147 185 221 273 334
#     4  12  20  35  56  86 116 140 177 235 279 323
#     4  10  18  35  57  78 110 147 183 222 267 327
#     4  10  20  36  58  79 111 150 184 219 273 334
#     4  12  21  34  59  86 111 142 184 229 275 317
#     4  10  19  35  56  80 111 145 185 223 268 327
#
# _framework density 18.616309999999999
#
# number of rings (size 3 to 8) (size 9 to 14) (size 15 to 20)
#    0.000    1.333    6.667    1.500    0.000    0.667 
#    0.000    0.833    0.000    0.000    0.000    0.000 
#    0.000    0.000    0.000    0.000    0.000    0.000 
#
# Total GULP energy -297405.326508 kJ/mol
# GULP energy per Si atom -12391.888604 kJ/mol
# Density = 1.857394 g / cm^3
# Si number density = 18.616310 Si / 1000 Ang^3
#
#
#
# Elastic Constant Matrix: (Units=GPa)
#
#
# Indices 1 2 3 4 5 6 
#
# 1 108.3260 34.1343 19.6901 0.0000 6.9109 0.0000
# 2 34.1343 57.8915 22.3475 0.0000 1.8525 0.0000
# 3 19.6901 22.3475 38.5735 0.0000 6.8968 0.0000
# 4 0.0000 0.0000 0.0000 25.5701 0.0000 -3.1501
# 5 6.9109 1.8525 6.8968 0.0000 13.3908 0.0000
# 6 0.0000 0.0000 0.0000 -3.1501 0.0000 31.4638
#
#
#
# Elastic Compliance Matrix: (Units=1/GPa)
#
#
# Indices 1 2 3 4 5 6 
#
# 1 0.011748 -0.006148 -0.001655 0.000000 -0.004360 0.000000
# 2 -0.006148 0.025656 -0.012841 0.000000 0.006237 0.000000
# 3 -0.001655 -0.012841 0.037160 0.000000 -0.016508 0.000000
# 4 0.000000 0.000000 0.000000 0.039597 0.000000 0.003964
# 5 -0.004360 0.006237 -0.016508 0.000000 0.084568 0.000000
# 6 0.000000 0.000000 0.000000 0.003964 0.000000 0.032179
#
#
# Mechanical properties :
#
#
# Convention : Reuss Voigt Hill
#
# Bulk Modulus (GPa) = 30.05169 39.68163 34.86666
# Shear Modulus (GPa) = 17.64987 22.65954 20.15471
#
# Velocity S-wave (km/s) = 3.08244 3.49261 3.29391
# Velocity P-wave (km/s) = 5.37088 6.13402 5.76509
#
# Compressibility (1/GPa) = 0.03327599
#
# Stress axis : x y z
#
# Youngs Moduli (GPa) = 85.12236 38.97711 26.91047
#
# Poissons Ratio (x) = 0.23964 0.04454
# Poissons Ratio (y) = 0.52336 0.34555
# Poissons Ratio (z) = 0.14089 0.50049
#
# Static dielectric constant tensor:
#      x y z
#    x 3.480320 0.000000 0.057840 
#    y 0.000000 3.354860 0.000000 
#    z 0.057840 0.000000 3.301690 
# 
# 
# High freq. dielectric constant tensor:
#      x y z
#    x 1.709420 0.000000 0.007700 
#    y 0.000000 1.713330 0.000000 
#    z 0.007700 0.000000 1.707720 
# 
# From -- ./inp_files/47457.got.cif
#   From: 2010.06.25/outbox.cif.g09.slc.cpg/sg15_24_cif.got.tgz:47457.got - 2010.06.28 07:06:18.
