data_PCOD8131299
_publ_section_title
;
Structure prediction by ZEFSAII (Michael W. Deem and Ramdas Pophale) SiO2 
 PCOD8131299
Probable space group: C 2/C
;
_chemical_formula_sum "Si O2"
_cell_formula_units_Z 60
_cell_length_a 21.398106
_cell_length_b 8.568743
_cell_length_c 16.911020
_cell_angle_alpha 90.000000
_cell_angle_beta 65.469593
_cell_angle_gamma 90.000000
_cell_volume 2820.850393
_symmetry_space_group_name_H-M "C 2/C"
_symmetry_group_IT_number 15
_symmetry_cell_setting 'monoclinic'
loop_
_space_group_symop_operation_xyz
x,y,z
-x,y,1/2-z
-x,-y,-z
x,-y,1/2+z
1/2+x,1/2+y,z
1/2-x,1/2+y,1/2-z
1/2-x,1/2-y,-z
1/2+x,1/2-y,1/2+z
loop_
_atom_site_type_symbol
_atom_site_label
_atom_site_fract_x
_atom_site_fract_y
_atom_site_fract_z
Si Si1 0.861547 0.938483 0.056533
Si Si2 0.166192 0.494500 0.837935
Si Si3 0.229580 0.715744 0.677360
Si Si4 0.186803 0.796362 0.119065
Si Si5 0.409918 0.727232 0.683890
Si Si6 0.500000 0.440602 0.250000
Si Si7 0.157740 0.724042 0.971644
Si Si8 0.132218 0.887924 0.617766
O O1 0.780300 0.909876 0.111789
O O2 0.903596 0.877483 0.109342
O O3 0.881708 0.120856 0.037353
O O4 0.883510 0.842896 0.965329
O O5 0.193925 0.637862 0.771853
O O6 0.227714 0.370774 0.820730
O O7 0.099290 0.409355 0.834856
O O8 0.136997 0.568963 0.934698
O O9 0.167570 0.749606 0.648605
O O10 0.151881 0.800253 0.222389
O O11 0.262979 0.735026 0.088047
O O12 0.188011 0.972699 0.084662
O O13 0.146557 0.695891 0.072123
O O14 0.481351 0.677396 0.687370
O O15 0.436857 0.552466 0.303320
#
# Coordination Sequence:
#
# PCOD8131299 Si02
#       8
#     8   8   8   8   8   4   8   8
#     4  10  21  35  63  91 125 153 204 257 315 364
#     4  11  22  33  60  92 126 156 200 251 315 374
#     4  11  21  35  59  98 131 155 196 257 322 367
#     4   9  18  32  54  81 124 158 192 230 310 373
#     4  10  22  41  58  83 113 165 208 253 299 357
#     4  10  24  42  66  78 122 172 218 244 298 372
#     4  10  18  32  55  91 121 158 187 243 314 378
#     4  10  21  38  58  92 118 166 205 256 298 366
#
# _framework density 21.270181999999998
#
# number of rings (size 3 to 8) (size 9 to 14) (size 15 to 20)
#    0.000    1.867    1.333    3.600    7.467    0.533 
#    4.800    0.667    0.000    7.200    0.000    0.000 
#    0.000    0.000    0.000    0.000    0.000    0.000 
#
# Total GULP energy -371705.812511 kJ/mol
# GULP energy per Si atom -12390.193750 kJ/mol
# Density = 2.122177 g / cm^3
# Si number density = 21.270182 Si / 1000 Ang^3
#
#
#
# Elastic Constant Matrix: (Units=GPa)
#
#
# Indices 1 2 3 4 5 6 
#
# 1 90.3861 27.9473 19.5379 0.0000 23.2463 -0.0001
# 2 27.9473 70.8838 19.9210 0.0000 21.4345 -0.0001
# 3 19.5379 19.9210 86.1321 0.0000 36.1327 0.0000
# 4 0.0000 0.0000 0.0000 24.3049 0.0000 12.0065
# 5 23.2463 21.4345 36.1327 0.0000 35.8711 0.0000
# 6 -0.0001 -0.0001 0.0000 12.0065 0.0000 26.4988
#
#
#
# Elastic Compliance Matrix: (Units=1/GPa)
#
#
# Indices 1 2 3 4 5 6 
#
# 1 0.013952 -0.003349 0.000975 0.000000 -0.008023 0.000000
# 2 -0.003349 0.018039 0.000345 0.000000 -0.008956 0.000000
# 3 0.000975 0.000345 0.020194 0.000000 -0.021179 0.000000
# 4 0.000000 0.000000 0.000000 0.053009 0.000000 -0.024018
# 5 -0.008023 -0.008956 -0.021179 0.000000 0.059762 0.000000
# 6 0.000000 0.000000 0.000000 -0.024018 0.000000 0.048620
#
#
# Mechanical properties :
#
#
# Convention : Reuss Voigt Hill
#
# Bulk Modulus (GPa) = 20.77835 42.46827 31.62331
# Shear Modulus (GPa) = 21.39716 29.33467 25.36592
#
# Velocity S-wave (km/s) = 3.17514 3.71771 3.45709
# Velocity P-wave (km/s) = 4.81996 6.19984 5.55293
#
# Compressibility (1/GPa) = 0.04812702
#
# Stress axis : x y z
#
# Youngs Moduli (GPa) = 71.67621 55.43444 49.52005
#
# Poissons Ratio (x) = 0.18564 -0.04830
# Poissons Ratio (y) = 0.24003 -0.01706
# Poissons Ratio (z) = -0.06991 -0.01910
#
# Static dielectric constant tensor:
#      x y z
#    x 3.719740 0.000000 0.457700 
#    y 0.000000 3.846670 0.000000 
#    z 0.457700 0.000000 4.080590 
# 
# 
# High freq. dielectric constant tensor:
#      x y z
#    x 1.799750 0.000000 0.032980 
#    y 0.000000 1.819640 0.000000 
#    z 0.032980 0.000000 1.846410 
# 
# From -- ./inp_files/218219.got.cif
#   From: 2010.06.25/outbox.cif.g09.slc.cpg/sg15_110_cif.got.tgz:218219.got - 2010.06.28 07:06:18.
