data_PCOD8131462
_publ_section_title
;
Structure prediction by ZEFSAII (Michael W. Deem and Ramdas Pophale) SiO2 
 PCOD8131462
Probable space group: C 2/C
;
_chemical_formula_sum "Si O2"
_cell_formula_units_Z 40
_cell_length_a 16.761223
_cell_length_b 20.316059
_cell_length_c 11.899961
_cell_angle_alpha 90.000000
_cell_angle_beta 32.439696
_cell_angle_gamma 90.000000
_cell_volume 2173.646418
_symmetry_space_group_name_H-M "C 2/C"
_symmetry_group_IT_number 15
_symmetry_cell_setting 'monoclinic'
loop_
_space_group_symop_operation_xyz
x,y,z
-x,y,1/2-z
-x,-y,-z
x,-y,1/2+z
1/2+x,1/2+y,z
1/2-x,1/2+y,1/2-z
1/2-x,1/2-y,-z
1/2+x,1/2-y,1/2+z
loop_
_atom_site_type_symbol
_atom_site_label
_atom_site_fract_x
_atom_site_fract_y
_atom_site_fract_z
Si Si1 0.672942 0.188015 0.536541
Si Si2 0.153317 0.433774 0.619708
Si Si3 0.163670 0.390151 0.841622
Si Si4 0.340734 0.925882 0.284478
Si Si5 0.328949 0.480685 0.208826
O O1 0.500000 0.201713 0.750000
O O2 0.750000 0.250000 0.500000
O O3 0.714957 0.173621 0.354808
O O4 0.719992 0.122509 0.547550
O O5 0.210151 0.386154 0.654484
O O6 0.112417 0.504390 0.720050
O O7 0.288044 0.440373 0.370742
O O8 0.000000 0.405223 0.750000
O O9 0.230327 0.454184 0.822179
O O10 0.985174 0.394912 0.054556
O O11 0.208524 0.933599 0.351588
O O12 0.500000 0.500000 0.000000
#
# Coordination Sequence:
#
# PCOD8131462 Si02
#       5
#     8   8   8   8   8
#     4  10  21  37  56  79 106 144 191 238 274 326
#     4  11  16  32  57  78 109 147 181 218 271 344
#     4  10  19  33  53  77 106 147 187 215 272 343
#     4  10  18  33  54  76 108 145 185 213 272 341
#     4  11  21  30  50  86 117 141 173 232 283 324
#
# _framework density 18.402256999999999
#
# number of rings (size 3 to 8) (size 9 to 14) (size 15 to 20)
#    0.000    1.600    6.000    1.800    0.000    4.800 
#    0.000    0.000    0.000    1.200    0.000    0.000 
#    0.000    0.000    0.000    0.000    0.000    0.000 
#
# Total GULP energy -247871.334339 kJ/mol
# GULP energy per Si atom -12393.566717 kJ/mol
# Density = 1.836037 g / cm^3
# Si number density = 18.402257 Si / 1000 Ang^3
#
#
#
# Elastic Constant Matrix: (Units=GPa)
#
#
# Indices 1 2 3 4 5 6 
#
# 1 151.9252 55.0647 65.3090 0.0138 15.7880 -0.0070
# 2 55.0647 64.0891 13.4795 0.0082 6.3850 -0.0050
# 3 65.3090 13.4795 95.5616 0.0137 8.8913 -0.0097
# 4 0.0138 0.0082 0.0137 12.1532 -0.0161 2.9549
# 5 15.7880 6.3850 8.8913 -0.0161 29.8937 0.0090
# 6 -0.0070 -0.0050 -0.0097 2.9549 0.0090 42.8415
#
#
#
# Elastic Compliance Matrix: (Units=1/GPa)
#
#
# Indices 1 2 3 4 5 6 
#
# 1 0.013840 -0.009968 -0.007786 -0.000004 -0.002864 0.000000
# 2 -0.009968 0.023497 0.003574 -0.000010 -0.000817 0.000003
# 3 -0.007786 0.003574 0.015396 -0.000014 -0.001231 0.000004
# 4 -0.000004 -0.000010 -0.000014 0.083687 0.000055 -0.005772
# 5 -0.002864 -0.000817 -0.001231 0.000055 0.035505 -0.000012
# 6 0.000000 0.000003 0.000004 -0.005772 -0.000012 0.023740
#
#
# Mechanical properties :
#
#
# Convention : Reuss Voigt Hill
#
# Bulk Modulus (GPa) = 41.02857 64.36471 52.69664
# Shear Modulus (GPa) = 21.53792 28.82585 25.18189
#
# Velocity S-wave (km/s) = 3.42482 3.96211 3.70322
# Velocity P-wave (km/s) = 6.16303 7.48221 6.85443
#
# Compressibility (1/GPa) = 0.02437326
#
# Stress axis : x y z
#
# Youngs Moduli (GPa) = 72.25635 42.55794 64.95278
#
# Poissons Ratio (x) = 0.42422 0.50571
# Poissons Ratio (y) = 0.72025 -0.23214
# Poissons Ratio (z) = 0.56257 -0.15210
#
# Static dielectric constant tensor:
#      x y z
#    x 3.815950 -0.000010 0.316810 
#    y -0.000010 3.038100 0.000010 
#    z 0.316810 0.000010 3.301810 
# 
# 
# High freq. dielectric constant tensor:
#      x y z
#    x 1.734200 0.000000 0.015060 
#    y 0.000000 1.656860 0.000000 
#    z 0.015060 0.000000 1.697220 
# 
# From -- ./inp_files/30163.got.cif
#   From: 2010.06.25/outbox.cif.g09.slc.cpg/sg15_16_cif.got.tgz:30163.got - 2010.06.28 07:06:18.
