data_PCOD8131787
_publ_section_title
;
Structure prediction by ZEFSAII (Michael W. Deem and Ramdas Pophale) SiO2 
 PCOD8131787
Probable space group: C 2/C
;
_chemical_formula_sum "Si O2"
_cell_formula_units_Z 60
_cell_length_a 10.786595
_cell_length_b 16.541530
_cell_length_c 16.764598
_cell_angle_alpha 90.000000
_cell_angle_beta 88.982474
_cell_angle_gamma 90.000000
_cell_volume 2990.781628
_symmetry_space_group_name_H-M "C 2/C"
_symmetry_group_IT_number 15
_symmetry_cell_setting 'monoclinic'
loop_
_space_group_symop_operation_xyz
x,y,z
-x,y,1/2-z
-x,-y,-z
x,-y,1/2+z
1/2+x,1/2+y,z
1/2-x,1/2+y,1/2-z
1/2-x,1/2-y,-z
1/2+x,1/2-y,1/2+z
loop_
_atom_site_type_symbol
_atom_site_label
_atom_site_fract_x
_atom_site_fract_y
_atom_site_fract_z
Si Si1 0.124639 0.365963 0.132230
Si Si2 0.319979 0.508244 0.591121
Si Si3 0.748148 0.565996 0.245233
Si Si4 0.906502 0.727193 0.565898
Si Si5 0.356611 0.264843 0.742060
Si Si6 0.000000 0.513596 0.750000
Si Si7 0.936699 0.941932 0.330150
Si Si8 0.318868 0.369565 0.472522
O O1 0.236456 0.410309 0.084683
O O2 0.181894 0.310149 0.201473
O O3 0.035231 0.431292 0.174310
O O4 0.043551 0.311412 0.072565
O O5 0.267858 0.451332 0.661199
O O6 0.461295 0.529735 0.607605
O O7 0.315596 0.459656 0.508708
O O8 0.729385 0.660756 0.230574
O O9 0.648563 0.516854 0.194700
O O10 0.887451 0.541739 0.219674
O O11 0.837721 0.740848 0.650811
O O12 0.818867 0.666858 0.517135
O O13 0.916567 0.812251 0.518606
O O14 0.500000 0.289880 0.750000
O O15 0.856271 0.875546 0.378540
O O16 0.000000 0.903604 0.250000
#
# Coordination Sequence:
#
# PCOD8131787 Si02
#       8
#     8   8   8   8   8   4   8   8
#     4  10  20  36  64  86 123 159 210 246 298 359
#     4  10  21  37  58  90 115 158 197 256 296 365
#     4  10  20  35  61  87 119 153 210 251 300 352
#     4  10  21  36  60  90 116 168 196 247 305 365
#     4  10  18  35  62  88 118 161 209 246 291 370
#     4  10  18  34  58  92 114 158 204 254 290 354
#     4  10  22  37  63  86 113 156 205 251 300 357
#     4  11  22  38  60  86 124 153 207 249 305 366
#
# _framework density 20.061644999999999
#
# number of rings (size 3 to 8) (size 9 to 14) (size 15 to 20)
#    0.000    1.867    3.333    2.400    5.600    0.533 
#    0.000    2.000    0.000    0.000    0.000    0.000 
#    0.000    0.000    0.000    0.000    0.000    0.000 
#
# Total GULP energy -372015.189229 kJ/mol
# GULP energy per Si atom -12400.506308 kJ/mol
# Density = 2.001598 g / cm^3
# Si number density = 20.061645 Si / 1000 Ang^3
#
#
#
# Elastic Constant Matrix: (Units=GPa)
#
#
# Indices 1 2 3 4 5 6 
#
# 1 89.5401 48.0692 22.8291 0.0000 5.0250 0.0000
# 2 48.0692 118.6509 41.4477 0.0000 -2.3550 0.0000
# 3 22.8291 41.4477 82.6231 0.0000 3.3809 0.0000
# 4 0.0000 0.0000 0.0000 20.5427 0.0000 0.8697
# 5 5.0250 -2.3550 3.3809 0.0000 23.7289 0.0000
# 6 0.0000 0.0000 0.0000 0.8697 0.0000 33.6036
#
#
#
# Elastic Compliance Matrix: (Units=1/GPa)
#
#
# Indices 1 2 3 4 5 6 
#
# 1 0.014665 -0.005633 -0.001083 0.000000 -0.003510 0.000000
# 2 -0.005633 0.012455 -0.004819 0.000000 0.003116 0.000000
# 3 -0.001083 -0.004819 0.014917 0.000000 -0.002374 0.000000
# 4 0.000000 0.000000 0.000000 0.048732 0.000000 -0.001261
# 5 -0.003510 0.003116 -0.002374 0.000000 0.043534 0.000000
# 6 0.000000 0.000000 0.000000 -0.001261 0.000000 0.029791
#
#
# Mechanical properties :
#
#
# Convention : Reuss Voigt Hill
#
# Bulk Modulus (GPa) = 52.72051 57.27844 54.99948
# Shear Modulus (GPa) = 25.84145 27.47291 26.65718
#
# Velocity S-wave (km/s) = 3.59291 3.70459 3.64918
# Velocity P-wave (km/s) = 6.59911 6.84922 6.72533
#
# Compressibility (1/GPa) = 0.01896795
#
# Stress axis : x y z
#
# Youngs Moduli (GPa) = 68.18880 80.28606 67.03712
#
# Poissons Ratio (x) = 0.45223 0.07258
# Poissons Ratio (y) = 0.38409 0.32308
# Poissons Ratio (z) = 0.07383 0.38693
#
# Static dielectric constant tensor:
#      x y z
#    x 3.601590 0.000000 0.136780 
#    y 0.000000 3.595890 0.000000 
#    z 0.136780 0.000000 3.541960 
# 
# 
# High freq. dielectric constant tensor:
#      x y z
#    x 1.772260 0.000000 0.017830 
#    y 0.000000 1.778410 0.000000 
#    z 0.017830 0.000000 1.771590 
# 
# From -- ./inp_files/197915.got.cif
#   From: 2010.06.25/outbox.cif.g09.slc.cpg/sg15_99_cif.got.tgz:197915.got - 2010.06.28 07:06:18.
