data_PCOD8131357
_publ_section_title
;
Structure prediction by ZEFSAII (Michael W. Deem and Ramdas Pophale) SiO2 
 PCOD8131357
Probable space group: C 2/C
;
_chemical_formula_sum "Si O2"
_cell_formula_units_Z 60
_cell_length_a 21.173429
_cell_length_b 15.338736
_cell_length_c 14.421809
_cell_angle_alpha 90.000000
_cell_angle_beta 138.163473
_cell_angle_gamma 90.000000
_cell_volume 3124.145729
_symmetry_space_group_name_H-M "C 2/C"
_symmetry_group_IT_number 15
_symmetry_cell_setting 'monoclinic'
loop_
_space_group_symop_operation_xyz
x,y,z
-x,y,1/2-z
-x,-y,-z
x,-y,1/2+z
1/2+x,1/2+y,z
1/2-x,1/2+y,1/2-z
1/2-x,1/2-y,-z
1/2+x,1/2-y,1/2+z
loop_
_atom_site_type_symbol
_atom_site_label
_atom_site_fract_x
_atom_site_fract_y
_atom_site_fract_z
Si Si1 0.535557 0.923041 0.477347
Si Si2 0.024402 0.747468 0.088962
Si Si3 0.853249 0.191347 0.298324
Si Si4 0.764997 0.254901 0.659625
Si Si5 0.500000 0.836349 0.750000
Si Si6 0.087514 0.324518 0.289675
Si Si7 0.199346 0.611724 0.454220
Si Si8 0.716148 0.067557 0.059000
O O1 0.541358 0.835956 0.543300
O O2 0.459481 0.907978 0.312529
O O3 0.638222 0.952972 0.552270
O O4 0.500000 0.000000 0.500000
O O5 0.129015 0.785264 0.219260
O O6 0.977655 0.724743 0.136835
O O7 0.954403 0.817357 0.962278
O O8 0.775144 0.230538 0.282221
O O9 0.864428 0.257187 0.226257
O O10 0.813719 0.100345 0.214049
O O11 0.758235 0.346019 0.593600
O O12 0.707256 0.179470 0.546751
O O13 0.413478 0.899923 0.681454
O O14 0.172755 0.356449 0.447872
O O15 0.000000 0.279093 0.250000
O O16 0.243554 0.517985 0.528379
#
# Coordination Sequence:
#
# PCOD8131357 Si02
#       8
#     8   8   8   8   4   8   8   8
#     4  10  20  32  54  90 124 148 193 247 302 363
#     4  10  20  35  58  86 118 158 196 246 293 356
#     4  11  21  40  61  86 120 159 206 237 299 367
#     4  10  21  40  58  88 119 158 202 247 301 366
#     4  10  18  32  58  86 122 154 186 244 324 346
#     4   9  22  37  57  87 123 158 194 245 305 364
#     4  10  22  36  58  88 123 152 199 249 308 357
#     4  11  22  36  57  87 124 160 196 245 301 360
#
# _framework density 19.205249999999999
#
# number of rings (size 3 to 8) (size 9 to 14) (size 15 to 20)
#    0.000    1.867    2.667    1.200    8.400    0.000 
#    0.000    0.667    0.000    1.600    0.000    0.000 
#    0.000    0.000    0.000    0.000    0.000    0.000 
#
# Total GULP energy -371872.655949 kJ/mol
# GULP energy per Si atom -12395.755198 kJ/mol
# Density = 1.916154 g / cm^3
# Si number density = 19.205250 Si / 1000 Ang^3
#
#
#
# Elastic Constant Matrix: (Units=GPa)
#
#
# Indices 1 2 3 4 5 6 
#
# 1 108.2686 41.1524 29.8803 0.0000 -12.5844 0.0000
# 2 41.1524 76.1036 36.0648 0.0000 2.1178 0.0000
# 3 29.8803 36.0648 94.5959 0.0000 -1.4511 0.0000
# 4 0.0000 0.0000 0.0000 28.2281 0.0000 -5.5806
# 5 -12.5844 2.1178 -1.4511 0.0000 31.1342 0.0000
# 6 0.0000 0.0000 0.0000 -5.5806 0.0000 20.1508
#
#
#
# Elastic Compliance Matrix: (Units=1/GPa)
#
#
# Indices 1 2 3 4 5 6 
#
# 1 0.012685 -0.006289 -0.001525 0.000000 0.005484 0.000000
# 2 -0.006289 0.019215 -0.005402 0.000000 -0.004101 0.000000
# 3 -0.001525 -0.005402 0.013118 0.000000 0.000362 0.000000
# 4 0.000000 0.000000 0.000000 0.037478 0.000000 0.010379
# 5 0.005484 -0.004101 0.000362 0.000000 0.034631 0.000000
# 6 0.000000 0.000000 0.000000 0.010379 0.000000 0.052500
#
#
# Mechanical properties :
#
#
# Convention : Reuss Voigt Hill
#
# Bulk Modulus (GPa) = 53.80517 54.79591 54.30054
# Shear Modulus (GPa) = 24.72124 27.36066 26.04095
#
# Velocity S-wave (km/s) = 3.59167 3.77854 3.68629
# Velocity P-wave (km/s) = 6.72880 6.90146 6.81568
#
# Compressibility (1/GPa) = 0.01858558
#
# Stress axis : x y z
#
# Youngs Moduli (GPa) = 78.83253 52.04282 76.23081
#
# Poissons Ratio (x) = 0.32731 0.11625
# Poissons Ratio (y) = 0.49580 0.41180
# Poissons Ratio (z) = 0.12022 0.28113
#
# Static dielectric constant tensor:
#      x y z
#    x 3.570380 0.000000 -0.096350 
#    y 0.000000 3.071410 0.000000 
#    z -0.096350 0.000000 3.892170 
# 
# 
# High freq. dielectric constant tensor:
#      x y z
#    x 1.751710 0.000000 -0.011300 
#    y 0.000000 1.702330 0.000000 
#    z -0.011300 0.000000 1.764160 
# 
# From -- ./inp_files/168293.got.cif
#   From: 2010.06.25/outbox.cif.g09.slc.cpg/sg15_85_cif.got.tgz:168293.got - 2010.06.28 07:06:18.
