data_PCOD8131501
_publ_section_title
;
Structure prediction by ZEFSAII (Michael W. Deem and Ramdas Pophale) SiO2 
 PCOD8131501
Probable space group: C 2/C
;
_chemical_formula_sum "Si O2"
_cell_formula_units_Z 64
_cell_length_a 18.505060
_cell_length_b 8.680739
_cell_length_c 28.071824
_cell_angle_alpha 90.000000
_cell_angle_beta 40.989965
_cell_angle_gamma 90.000000
_cell_volume 2957.830128
_symmetry_space_group_name_H-M "C 2/C"
_symmetry_group_IT_number 15
_symmetry_cell_setting 'monoclinic'
loop_
_space_group_symop_operation_xyz
x,y,z
-x,y,1/2-z
-x,-y,-z
x,-y,1/2+z
1/2+x,1/2+y,z
1/2-x,1/2+y,1/2-z
1/2-x,1/2-y,-z
1/2+x,1/2-y,1/2+z
loop_
_atom_site_type_symbol
_atom_site_label
_atom_site_fract_x
_atom_site_fract_y
_atom_site_fract_z
Si Si1 0.258445 0.463589 0.079928
Si Si2 0.270986 0.866323 0.714637
Si Si3 0.984395 0.503214 0.573548
Si Si4 0.540406 0.544186 0.354712
Si Si5 0.081133 0.188455 0.529104
Si Si6 0.013277 0.183827 0.022923
Si Si7 0.540399 0.165268 0.643402
Si Si8 0.680458 0.950326 0.222676
O O1 0.294098 0.622021 0.034735
O O2 0.158114 0.389583 0.101789
O O3 0.230775 0.501950 0.147874
O O4 0.359409 0.344517 0.027253
O O5 0.361616 0.928975 0.631914
O O6 0.251588 0.685921 0.713190
O O7 0.156133 0.962117 0.768758
O O8 0.319654 0.898349 0.743467
O O9 0.078377 0.371482 0.528620
O O10 0.999664 0.628214 0.523413
O O11 0.002061 0.599727 0.612209
O O12 0.486009 0.375972 0.391197
O O13 0.562460 0.621743 0.395946
O O14 0.457455 0.648939 0.364117
O O15 0.024697 0.113704 0.509161
O O16 0.442871 0.111182 0.727496
#
# Coordination Sequence:
#
# PCOD8131501 Si02
#       8
#     8   8   8   8   8   8   8   8
#     4  11  21  36  56  75 108 146 176 216 262 315
#     4  10  18  33  56  78 105 133 166 220 267 304
#     4  10  21  34  51  79 111 140 175 218 268 320
#     4   9  18  33  53  78 103 135 180 217 261 318
#     4  11  21  33  54  80 107 137 179 224 266 318
#     4  10  20  33  52  80 109 138 177 222 268 317
#     4   9  21  37  54  77 104 141 181 219 259 318
#     4  10  20  35  58  83 103 132 176 218 269 319
#
# _framework density 21.637483
#
# number of rings (size 3 to 8) (size 9 to 14) (size 15 to 20)
#    0.000    2.000    0.000    6.000    0.000    5.000 
#    0.000    0.000    0.000    0.000    0.000    8.750 
#    0.000    0.000    0.000    0.000    0.000    0.000 
#
# Total GULP energy -396573.744034 kJ/mol
# GULP energy per Si atom -12392.929501 kJ/mol
# Density = 2.158823 g / cm^3
# Si number density = 21.637483 Si / 1000 Ang^3
#
#
#
# Elastic Constant Matrix: (Units=GPa)
#
#
# Indices 1 2 3 4 5 6 
#
# 1 55.2721 5.8996 18.3857 0.0002 -24.9015 0.0088
# 2 5.8996 69.9112 22.4179 0.0002 -6.1019 0.0097
# 3 18.3857 22.4179 92.6252 0.0006 -14.3645 0.0011
# 4 0.0002 0.0002 0.0006 20.7114 -0.0004 -1.3428
# 5 -24.9015 -6.1019 -14.3645 -0.0004 27.9251 -0.0015
# 6 0.0088 0.0097 0.0011 -1.3428 -0.0015 23.8272
#
#
#
# Elastic Compliance Matrix: (Units=1/GPa)
#
#
# Indices 1 2 3 4 5 6 
#
# 1 0.030589 0.000382 -0.002088 0.000000 0.026286 -0.000010
# 2 0.000382 0.015577 -0.003548 0.000000 0.001920 -0.000006
# 3 -0.002088 -0.003548 0.012671 0.000000 0.003881 0.000002
# 4 0.000000 0.000000 0.000000 0.048460 0.000000 0.002731
# 5 0.026286 0.001920 0.003881 0.000000 0.061666 -0.000007
# 6 -0.000010 -0.000006 0.000002 0.002731 -0.000007 0.042123
#
#
# Mechanical properties :
#
#
# Convention : Reuss Voigt Hill
#
# Bulk Modulus (GPa) = 20.69125 34.57944 27.63534
# Shear Modulus (GPa) = 21.03473 25.89976 23.46724
#
# Velocity S-wave (km/s) = 3.12130 3.46350 3.29685
# Velocity P-wave (km/s) = 4.75116 5.65777 5.22417
#
# Compressibility (1/GPa) = 0.04832961
#
# Stress axis : x y z
#
# Youngs Moduli (GPa) = 32.69196 64.19756 78.91873
#
# Poissons Ratio (x) = -0.02455 0.16476
# Poissons Ratio (y) = -0.01250 0.28003
# Poissons Ratio (z) = 0.06825 0.22779
#
# Static dielectric constant tensor:
#      x y z
#    x 3.451630 0.000000 0.022370 
#    y 0.000000 4.080960 0.000000 
#    z 0.022370 0.000000 4.300390 
# 
# 
# High freq. dielectric constant tensor:
#      x y z
#    x 1.806750 0.000000 0.000670 
#    y 0.000000 1.852570 0.000000 
#    z 0.000670 0.000000 1.863470 
# 
# From -- ./inp_files/315701.got.cif
#   From: 2010.06.25/outbox.cif.g09.slc.cpg/sg15_158_cif.got.tgz:315701.got - 2010.06.28 07:06:18.
