data_PCOD8131340
_publ_section_title
;
Structure prediction by ZEFSAII (Michael W. Deem and Ramdas Pophale) SiO2 
 PCOD8131340
Probable space group: C 2/C
;
_chemical_formula_sum "Si O2"
_cell_formula_units_Z 44
_cell_length_a 24.143240
_cell_length_b 13.766733
_cell_length_c 13.154996
_cell_angle_alpha 90.000000
_cell_angle_beta 146.408735
_cell_angle_gamma 90.000000
_cell_volume 2419.078789
_symmetry_space_group_name_H-M "C 2/C"
_symmetry_group_IT_number 15
_symmetry_cell_setting 'monoclinic'
loop_
_space_group_symop_operation_xyz
x,y,z
-x,y,1/2-z
-x,-y,-z
x,-y,1/2+z
1/2+x,1/2+y,z
1/2-x,1/2+y,1/2-z
1/2-x,1/2-y,-z
1/2+x,1/2-y,1/2+z
loop_
_atom_site_type_symbol
_atom_site_label
_atom_site_fract_x
_atom_site_fract_y
_atom_site_fract_z
Si Si1 0.649959 0.724426 0.716865
Si Si2 0.808663 0.398520 0.567467
Si Si3 0.221482 0.729605 0.104513
Si Si4 0.938068 0.258825 0.452296
Si Si5 0.681733 0.112019 0.862119
Si Si6 0.000000 0.351028 0.750000
O O1 0.716410 0.632052 0.853280
O O2 0.666872 0.751231 0.626253
O O3 0.532232 0.700204 0.549935
O O4 0.676215 0.817360 0.824681
O O5 0.789939 0.498997 0.597374
O O6 0.908805 0.415405 0.653540
O O7 0.337206 0.693772 0.296819
O O8 0.223310 0.830040 0.041500
O O9 0.164548 0.647022 0.952738
O O10 0.917086 0.359316 0.355753
O O11 0.957202 0.281379 0.598518
#
# Coordination Sequence:
#
# PCOD8131340 Si02
#       6
#     8   8   8   8   8   4
#     4  10  20  33  57  80 112 147 184 222 289 331
#     4  10  20  34  53  88 109 145 183 232 279 339
#     4   9  19  38  54  76 112 154 178 234 273 337
#     4   9  19  35  54  82 107 147 183 225 274 336
#     4   9  20  37  55  78 118 140 192 231 281 323
#     4  10  18  32  58  76 118 132 178 232 286 322
#
# _framework density 18.188742999999999
#
# number of rings (size 3 to 8) (size 9 to 14) (size 15 to 20)
#    1.091    1.455    1.818    0.000    0.000    8.000 
#    0.000    0.909    0.000    2.182    0.000    0.000 
#    0.000    0.000    0.000    0.000    0.000    0.000 
#
# Total GULP energy -272564.664515 kJ/mol
# GULP energy per Si atom -12389.302933 kJ/mol
# Density = 1.814734 g / cm^3
# Si number density = 18.188743 Si / 1000 Ang^3
#
#
#
# Elastic Constant Matrix: (Units=GPa)
#
#
# Indices 1 2 3 4 5 6 
#
# 1 97.6403 12.5925 29.1442 0.0000 -13.3549 0.0000
# 2 12.5925 64.8071 23.0397 0.0000 1.9819 0.0000
# 3 29.1442 23.0397 86.9934 0.0000 -15.7970 0.0000
# 4 0.0000 0.0000 0.0000 14.4040 0.0000 -2.0493
# 5 -13.3549 1.9819 -15.7970 0.0000 30.7026 0.0000
# 6 0.0000 0.0000 0.0000 -2.0493 0.0000 10.4160
#
#
#
# Elastic Compliance Matrix: (Units=1/GPa)
#
#
# Indices 1 2 3 4 5 6 
#
# 1 0.011797 -0.001370 -0.002914 0.000000 0.003721 0.000000
# 2 -0.001370 0.017599 -0.004982 0.000000 -0.004295 0.000000
# 3 -0.002914 -0.004982 0.015022 0.000000 0.006784 0.000000
# 4 0.000000 0.000000 0.000000 0.071425 0.000000 0.014052
# 5 0.003721 -0.004295 0.006784 0.000000 0.037956 0.000000
# 6 0.000000 0.000000 0.000000 0.014052 0.000000 0.098771
#
#
# Mechanical properties :
#
#
# Convention : Reuss Voigt Hill
#
# Bulk Modulus (GPa) = 38.62945 42.11041 40.36993
# Shear Modulus (GPa) = 17.87428 23.41547 20.64488
#
# Velocity S-wave (km/s) = 3.13822 3.59187 3.37268
# Velocity P-wave (km/s) = 5.86647 6.35643 6.11636
#
# Compressibility (1/GPa) = 0.02588698
#
# Stress axis : x y z
#
# Youngs Moduli (GPa) = 84.76749 56.82091 66.56684
#
# Poissons Ratio (x) = 0.07786 0.19395
# Poissons Ratio (y) = 0.11615 0.33163
# Poissons Ratio (z) = 0.24698 0.28308
#
# Static dielectric constant tensor:
#      x y z
#    x 3.404150 0.000000 -0.033770 
#    y 0.000000 2.887310 0.000000 
#    z -0.033770 0.000000 3.533140 
# 
# 
# High freq. dielectric constant tensor:
#      x y z
#    x 1.710700 0.000000 -0.013870 
#    y 0.000000 1.657410 0.000000 
#    z -0.013870 0.000000 1.711240 
# 
# From -- ./inp_files/178060.got.cif
#   From: 2010.06.25/outbox.cif.g09.slc.cpg/sg15_90_cif.got.tgz:178060.got - 2010.06.28 07:06:18.
