data_PCOD8131474
_publ_section_title
;
Structure prediction by ZEFSAII (Michael W. Deem and Ramdas Pophale) SiO2 
 PCOD8131474
Probable space group: C 2/C
;
_chemical_formula_sum "Si O2"
_cell_formula_units_Z 44
_cell_length_a 14.427391
_cell_length_b 22.628636
_cell_length_c 9.036004
_cell_angle_alpha 90.000000
_cell_angle_beta 55.846924
_cell_angle_gamma 90.000000
_cell_volume 2441.248104
_symmetry_space_group_name_H-M "C 2/C"
_symmetry_group_IT_number 15
_symmetry_cell_setting 'monoclinic'
loop_
_space_group_symop_operation_xyz
x,y,z
-x,y,1/2-z
-x,-y,-z
x,-y,1/2+z
1/2+x,1/2+y,z
1/2-x,1/2+y,1/2-z
1/2-x,1/2-y,-z
1/2+x,1/2-y,1/2+z
loop_
_atom_site_type_symbol
_atom_site_label
_atom_site_fract_x
_atom_site_fract_y
_atom_site_fract_z
Si Si1 0.939937 0.680254 0.148634
Si Si2 0.000000 0.490116 0.250000
Si Si3 0.522704 0.297254 0.558251
Si Si4 0.910979 0.422983 0.062802
Si Si5 0.686742 0.700146 0.418252
Si Si6 0.228888 0.824964 0.201766
O O1 0.807123 0.670547 0.285146
O O2 0.000000 0.696016 0.250000
O O3 0.964361 0.730486 0.008385
O O4 0.981038 0.618396 0.048519
O O5 0.917354 0.451437 0.220333
O O6 0.917218 0.528325 0.427812
O O7 0.500000 0.298257 0.750000
O O8 0.415218 0.329597 0.579770
O O9 0.638638 0.330628 0.415009
O O10 0.797517 0.385756 0.140986
O O11 0.686890 0.768946 0.362608
O O12 0.658088 0.690376 0.616787
#
# Coordination Sequence:
#
# PCOD8131474 Si02
#       6
#     8   4   8   8   8   8
#     4  11  19  34  58  77 117 150 185 216 276 335
#     4  10  24  34  58  82 114 134 204 230 296 306
#     4  11  23  32  47  86 121 152 183 215 266 348
#     4  11  20  39  55  87 107 150 178 248 271 329
#     4  10  18  33  54  82 109 155 184 209 259 358
#     4  10  19  34  58  73 113 151 189 217 273 330
#
# _framework density 18.023568000000001
#
# number of rings (size 3 to 8) (size 9 to 14) (size 15 to 20)
#    0.000    1.455    4.545    2.727    1.273    4.364 
#    0.000    0.000    0.000    0.000    0.000   31.818 
#    0.000    0.000    0.000    0.000    0.000    0.000 
#
# Total GULP energy -272687.917801 kJ/mol
# GULP energy per Si atom -12394.905355 kJ/mol
# Density = 1.798255 g / cm^3
# Si number density = 18.023568 Si / 1000 Ang^3
#
#
#
# Elastic Constant Matrix: (Units=GPa)
#
#
# Indices 1 2 3 4 5 6 
#
# 1 79.1600 36.4515 50.2887 0.0000 -0.4569 0.0000
# 2 36.4515 72.8400 32.6916 0.0000 -1.4860 0.0000
# 3 50.2887 32.6916 133.9314 0.0000 5.4978 0.0000
# 4 0.0000 0.0000 0.0000 21.2533 0.0000 -2.7120
# 5 -0.4569 -1.4860 5.4978 0.0000 22.8113 0.0000
# 6 0.0000 0.0000 0.0000 -2.7120 0.0000 24.3865
#
#
#
# Elastic Compliance Matrix: (Units=1/GPa)
#
#
# Indices 1 2 3 4 5 6 
#
# 1 0.019543 -0.007229 -0.005626 0.000000 0.001276 0.000000
# 2 -0.007229 0.018176 -0.001783 0.000000 0.001469 0.000000
# 3 -0.005626 -0.001783 0.010124 0.000000 -0.002669 0.000000
# 4 0.000000 0.000000 0.000000 0.047729 0.000000 0.005308
# 5 0.001276 0.001469 -0.002669 0.000000 0.044602 0.000000
# 6 0.000000 0.000000 0.000000 0.005308 0.000000 0.041597
#
#
# Mechanical properties :
#
#
# Convention : Reuss Voigt Hill
#
# Bulk Modulus (GPa) = 53.85632 58.31056 56.08344
# Shear Modulus (GPa) = 23.01660 24.79018 23.90339
#
# Velocity S-wave (km/s) = 3.57743 3.71270 3.64569
# Velocity P-wave (km/s) = 6.85638 7.12752 6.99326
#
# Compressibility (1/GPa) = 0.01856792
#
# Stress axis : x y z
#
# Youngs Moduli (GPa) = 51.16999 55.01660 98.77912
#
# Poissons Ratio (x) = 0.39771 0.55571
# Poissons Ratio (y) = 0.36990 0.17609
# Poissons Ratio (z) = 0.28787 0.09808
#
# Static dielectric constant tensor:
#      x y z
#    x 3.368390 0.000000 -0.052900 
#    y 0.000000 3.113560 0.000000 
#    z -0.052900 0.000000 3.447400 
# 
# 
# High freq. dielectric constant tensor:
#      x y z
#    x 1.696970 0.000000 -0.002380 
#    y 0.000000 1.658590 0.000000 
#    z -0.002380 0.000000 1.707960 
# 
# From -- ./inp_files/40618.got.cif
#   From: 2010.06.25/outbox.cif.g09.slc.cpg/sg15_21_cif.got.tgz:40618.got - 2010.06.28 07:06:18.
