data_PCOD8131157
_publ_section_title
;
Structure prediction by ZEFSAII (Michael W. Deem and Ramdas Pophale) SiO2 
 PCOD8131157
Probable space group: C 2/C
;
_chemical_formula_sum "Si O2"
_cell_formula_units_Z 56
_cell_length_a 22.244409
_cell_length_b 21.740237
_cell_length_c 10.935178
_cell_angle_alpha 90.000000
_cell_angle_beta 152.569855
_cell_angle_gamma 90.000000
_cell_volume 2436.115876
_symmetry_space_group_name_H-M "C 2/C"
_symmetry_group_IT_number 15
_symmetry_cell_setting 'monoclinic'
loop_
_space_group_symop_operation_xyz
x,y,z
-x,y,1/2-z
-x,-y,-z
x,-y,1/2+z
1/2+x,1/2+y,z
1/2-x,1/2+y,1/2-z
1/2-x,1/2-y,-z
1/2+x,1/2-y,1/2+z
loop_
_atom_site_type_symbol
_atom_site_label
_atom_site_fract_x
_atom_site_fract_y
_atom_site_fract_z
Si Si1 0.377012 0.350615 0.446215
Si Si2 0.058961 0.114956 0.071802
Si Si3 0.548682 0.265561 0.213297
Si Si4 0.327503 0.215492 0.281191
Si Si5 0.764967 0.463696 0.240197
Si Si6 0.326392 0.048538 0.585491
Si Si7 0.500000 0.131630 0.750000
Si Si8 0.500000 0.472441 0.250000
O O1 0.444495 0.391865 0.464010
O O2 0.312504 0.286829 0.290307
O O3 0.254930 0.390268 0.277239
O O4 0.500000 0.331385 0.750000
O O5 0.201158 0.093347 0.371964
O O6 0.062019 0.186013 0.031215
O O7 0.011026 0.069422 0.885011
O O8 0.500000 0.233520 0.250000
O O9 0.573092 0.213038 0.155433
O O10 0.682460 0.305073 0.479151
O O11 0.380289 0.172595 0.484283
O O12 0.816536 0.497146 0.457881
O O13 0.850686 0.476904 0.269614
O O14 0.622218 0.485231 0.947056
O O15 0.449150 0.090354 0.770045
#
# Coordination Sequence:
#
# PCOD8131157 Si02
#       8
#     8   8   8   8   8   8   4   4
#     4  11  19  37  61  94 134 157 206 265 326 385
#     4  10  19  34  62  95 122 162 201 268 323 378
#     4  10  20  40  63  92 128 166 216 262 323 388
#     4  10  24  40  63  95 130 175 210 264 329 384
#     4  11  22  40  64  98 124 168 214 270 333 381
#     4  11  25  42  67  94 128 173 222 271 326 388
#     4  12  26  45  64  90 133 178 224 262 316 400
#     4  10  18  31  60  96 123 144 202 264 328 374
#
# _framework density 22.987411999999999
#
# number of rings (size 3 to 8) (size 9 to 14) (size 15 to 20)
#    0.000    1.429    3.571    1.714    2.000    4.000 
#    2.571    2.857    1.571    0.000    0.000    0.000 
#    0.000    0.000    0.000    0.000    0.000    0.000 
#
# Total GULP energy -346918.747426 kJ/mol
# GULP energy per Si atom -12389.955265 kJ/mol
# Density = 2.293509 g / cm^3
# Si number density = 22.987412 Si / 1000 Ang^3
#
#
#
# Elastic Constant Matrix: (Units=GPa)
#
#
# Indices 1 2 3 4 5 6 
#
# 1 165.7972 41.0155 9.7012 0.0000 -30.5510 0.0000
# 2 41.0155 56.2762 12.4155 0.0000 -2.0710 0.0000
# 3 9.7012 12.4155 39.5098 0.0000 -24.9287 0.0000
# 4 0.0000 0.0000 0.0000 69.1566 0.0000 -17.0361
# 5 -30.5510 -2.0710 -24.9287 0.0000 63.4319 0.0000
# 6 0.0000 0.0000 0.0000 -17.0361 0.0000 75.4640
#
#
#
# Elastic Compliance Matrix: (Units=1/GPa)
#
#
# Indices 1 2 3 4 5 6 
#
# 1 0.008438 -0.006681 0.003263 0.000000 0.005129 0.000000
# 2 -0.006681 0.024640 -0.010139 0.000000 -0.006398 0.000000
# 3 0.003263 -0.010139 0.037868 0.000000 0.016123 0.000000
# 4 0.000000 0.000000 0.000000 0.015311 0.000000 0.003457
# 5 0.005129 -0.006398 0.016123 0.000000 0.024362 0.000000
# 6 0.000000 0.000000 0.000000 0.003457 0.000000 0.014032
#
#
# Mechanical properties :
#
#
# Convention : Reuss Voigt Hill
#
# Bulk Modulus (GPa) = 22.81439 43.09416 32.95428
# Shear Modulus (GPa) = 30.05222 54.84058 42.44640
#
# Velocity S-wave (km/s) = 3.61963 4.88964 4.30176
# Velocity P-wave (km/s) = 5.23596 7.11798 6.24824
#
# Compressibility (1/GPa) = 0.04383198
#
# Stress axis : x y z
#
# Youngs Moduli (GPa) = 118.50572 40.58364 26.40781
#
# Poissons Ratio (x) = 0.27115 -0.08618
# Poissons Ratio (y) = 0.79178 0.26776
# Poissons Ratio (z) = -0.38674 0.41149
#
# Static dielectric constant tensor:
#      x y z
#    x 4.593630 0.000000 -0.270750 
#    y 0.000000 3.884000 0.000000 
#    z -0.270750 0.000000 3.917160 
# 
# 
# High freq. dielectric constant tensor:
#      x y z
#    x 1.927050 0.000000 -0.013070 
#    y 0.000000 1.889050 0.000000 
#    z -0.013070 0.000000 1.890740 
# 
# From -- ./inp_files/119894.got.cif
#   From: 2010.06.25/outbox.cif.g09.slc.cpg/sg15_60_cif.got.tgz:119894.got - 2010.06.28 07:06:18.
