data_PCOD8131507
_publ_section_title
;
Structure prediction by ZEFSAII (Michael W. Deem and Ramdas Pophale) SiO2 
 PCOD8131507
Probable space group: C 2/C
;
_chemical_formula_sum "Si O2"
_cell_formula_units_Z 40
_cell_length_a 21.729621
_cell_length_b 14.094149
_cell_length_c 19.014926
_cell_angle_alpha 90.000000
_cell_angle_beta 19.196421
_cell_angle_gamma 90.000000
_cell_volume 1914.818302
_symmetry_space_group_name_H-M "C 2/C"
_symmetry_group_IT_number 15
_symmetry_cell_setting 'monoclinic'
loop_
_space_group_symop_operation_xyz
x,y,z
-x,y,1/2-z
-x,-y,-z
x,-y,1/2+z
1/2+x,1/2+y,z
1/2-x,1/2+y,1/2-z
1/2-x,1/2-y,-z
1/2+x,1/2-y,1/2+z
loop_
_atom_site_type_symbol
_atom_site_label
_atom_site_fract_x
_atom_site_fract_y
_atom_site_fract_z
Si Si1 0.320019 0.334847 0.638364
Si Si2 0.768500 0.872866 0.297351
Si Si3 0.787609 0.989302 0.560825
Si Si4 0.083235 0.562183 0.498450
Si Si5 0.789525 0.992524 0.399171
O O1 0.341005 0.223354 0.600780
O O2 0.515707 0.369763 0.461543
O O3 0.273624 0.388515 0.615615
O O4 0.155678 0.351562 0.872747
O O5 0.773705 0.890698 0.376403
O O6 0.659195 0.962816 0.380421
O O7 0.719504 0.975693 0.553777
O O8 0.996366 0.030806 0.336024
O O9 0.642875 0.062881 0.753512
O O10 0.165613 0.569252 0.489462
#
# Coordination Sequence:
#
# PCOD8131507 Si02
#       5
#     8   8   8   8   8
#     4  11  20  35  54  83 116 143 186 222 273 329
#     4   9  21  34  51  81 114 142 179 226 270 322
#     4  10  18  33  56  81 108 150 176 219 281 329
#     4  10  20  36  56  79 114 147 181 227 269 326
#     4   8  20  35  52  82 114 140 181 225 270 331
#
# _framework density 20.889710999999998
#
# number of rings (size 3 to 8) (size 9 to 14) (size 15 to 20)
#    1.200    1.200    0.000    3.000    0.000    0.800 
#    0.000    2.000    0.000    0.000    0.000   12.600 
#    0.000    0.000    0.000    0.000    0.000    0.000 
#
# Total GULP energy -247800.839163 kJ/mol
# GULP energy per Si atom -12390.041958 kJ/mol
# Density = 2.084217 g / cm^3
# Si number density = 20.889711 Si / 1000 Ang^3
#
#
#
# Elastic Constant Matrix: (Units=GPa)
#
#
# Indices 1 2 3 4 5 6 
#
# 1 61.2857 9.3591 6.0314 -0.0135 12.6632 0.0144
# 2 9.3591 20.2565 11.9193 -0.0927 5.6650 0.0416
# 3 6.0314 11.9193 101.3551 0.0518 1.7867 0.0022
# 4 -0.0135 -0.0927 0.0518 17.9989 -0.0030 0.9336
# 5 12.6632 5.6650 1.7867 -0.0030 23.0367 -0.0097
# 6 0.0144 0.0416 0.0022 0.9336 -0.0097 10.6869
#
#
#
# Elastic Compliance Matrix: (Units=1/GPa)
#
#
# Indices 1 2 3 4 5 6 
#
# 1 0.019142 -0.006183 -0.000254 -0.000018 -0.008982 -0.000008
# 2 -0.006183 0.058943 -0.006377 0.000329 -0.010601 -0.000258
# 3 -0.000254 -0.006377 0.010616 -0.000065 0.000884 0.000029
# 4 -0.000018 0.000329 -0.000065 0.055814 -0.000061 -0.004877
# 5 -0.008982 -0.010601 0.000884 -0.000061 0.050885 0.000105
# 6 -0.000008 -0.000258 0.000029 -0.004877 0.000105 0.093999
#
#
# Mechanical properties :
#
#
# Convention : Reuss Voigt Hill
#
# Bulk Modulus (GPa) = 15.85457 26.39077 21.12267
# Shear Modulus (GPa) = 14.87871 20.71700 17.79785
#
# Velocity S-wave (km/s) = 2.67170 3.15259 2.92206
# Velocity P-wave (km/s) = 4.13805 5.09044 4.63875
#
# Compressibility (1/GPa) = 0.06307330
#
# Stress axis : x y z
#
# Youngs Moduli (GPa) = 52.24074 16.96563 94.19948
#
# Poissons Ratio (x) = 0.10490 0.02389
# Poissons Ratio (y) = 0.32301 0.60071
# Poissons Ratio (z) = 0.01325 0.10819
#
# Static dielectric constant tensor:
#      x y z
#    x 3.835850 -0.000050 -0.125160 
#    y -0.000050 3.104930 0.000070 
#    z -0.125160 0.000070 3.848000 
# 
# 
# High freq. dielectric constant tensor:
#      x y z
#    x 1.823400 0.000000 -0.014450 
#    y 0.000000 1.750150 0.000010 
#    z -0.014450 0.000010 1.832950 
# 
# From -- ./inp_files/206063.got.cif
#   From: 2010.06.25/outbox.cif.g09.slc.cpg/sg15_104_cif.got.tgz:206063.got - 2010.06.28 07:06:18.
