data_PCOD8131224
_publ_section_title
;
Structure prediction by ZEFSAII (Michael W. Deem and Ramdas Pophale) SiO2 
 PCOD8131224
Probable space group: C 2/C
;
_chemical_formula_sum "Si O2"
_cell_formula_units_Z 60
_cell_length_a 21.479349
_cell_length_b 16.575717
_cell_length_c 18.663858
_cell_angle_alpha 90.000000
_cell_angle_beta 29.666433
_cell_angle_gamma 90.000000
_cell_volume 3288.939748
_symmetry_space_group_name_H-M "C 2/C"
_symmetry_group_IT_number 15
_symmetry_cell_setting 'monoclinic'
loop_
_space_group_symop_operation_xyz
x,y,z
-x,y,1/2-z
-x,-y,-z
x,-y,1/2+z
1/2+x,1/2+y,z
1/2-x,1/2+y,1/2-z
1/2-x,1/2-y,-z
1/2+x,1/2-y,1/2+z
loop_
_atom_site_type_symbol
_atom_site_label
_atom_site_fract_x
_atom_site_fract_y
_atom_site_fract_z
Si Si1 0.395327 0.530608 0.415222
Si Si2 0.104672 0.530608 0.705877
Si Si3 0.500001 0.250000 0.013713
Si Si4 0.613033 0.700055 0.010871
Si Si5 0.613035 0.200056 0.763061
Si Si6 0.892945 0.859162 0.476476
Si Si7 0.000000 0.250000 0.750000
Si Si8 0.107054 0.359162 0.762367
O O1 0.500000 0.543240 0.250000
O O2 0.250000 0.523719 0.530869
O O3 0.407322 0.605200 0.457367
O O4 0.433058 0.450882 0.421284
O O5 0.092678 0.605201 0.772010
O O6 0.066942 0.450882 0.787401
O O7 0.000000 0.543240 0.750000
O O8 0.387754 0.280200 0.073645
O O9 0.529658 0.326631 0.033537
O O10 0.470343 0.173369 0.092852
O O11 0.612248 0.219800 0.849151
O O12 0.749999 0.726700 0.904431
O O13 0.499999 0.749999 0.163013
O O14 0.750000 0.853524 0.642705
O O15 0.912101 0.806152 0.386256
O O16 0.912102 0.306153 0.789540
#
# Coordination Sequence:
#
# PCOD8131224 Si02
#       8
#     8   8   8   8   8   8   4   8
#     4  10  21  38  57  84 114 145 185 230 279 328
#     4  10  21  38  57  84 114 145 185 230 279 328
#     4   9  20  35  57  78 111 144 188 220 275 320
#     4   9  20  38  58  80 112 147 188 230 272 329
#     4   9  20  38  58  80 112 147 188 230 272 329
#     4  10  19  33  55  81 113 145 179 226 277 332
#     4  10  18  32  52  78 112 144 180 220 276 328
#     4  10  19  33  55  81 113 145 179 226 277 332
#
# _framework density 18.242961000000001
#
# number of rings (size 3 to 8) (size 9 to 14) (size 15 to 20)
#    0.800    1.600    1.333    1.200    0.000    2.667 
#    0.000    4.000    0.000    0.000    0.000    0.000 
#    0.000    0.000    0.000    0.000    0.000    0.000 
#
# Total GULP energy -371686.542608 kJ/mol
# GULP energy per Si atom -12389.551420 kJ/mol
# Density = 1.820144 g / cm^3
# Si number density = 18.242961 Si / 1000 Ang^3
#
#
#
# Elastic Constant Matrix: (Units=GPa)
#
#
# Indices 1 2 3 4 5 6 
#
# 1 59.0670 41.2513 41.9962 0.0002 -4.7028 0.0002
# 2 41.2513 139.2611 50.8992 0.0004 -8.0210 0.0003
# 3 41.9962 50.8992 81.6399 0.0000 -14.0611 -0.0013
# 4 0.0002 0.0004 0.0000 -25.4528 -0.0001 -96.4238
# 5 -4.7028 -8.0210 -14.0611 -0.0001 19.1420 0.0007
# 6 0.0002 0.0003 -0.0013 -96.4238 0.0007 -141.4609
#
#
#
# Elastic Compliance Matrix: (Units=1/GPa)
#
#
# Indices 1 2 3 4 5 6 
#
# 1 0.028571 -0.003975 -0.012933 0.000000 -0.004147 0.000000
# 2 -0.003975 0.009856 -0.004072 0.000000 0.000162 0.000000
# 3 -0.012933 -0.004072 0.023583 0.000000 0.012440 0.000000
# 4 0.000000 0.000000 0.000000 0.024831 0.000001 -0.016925
# 5 -0.004147 0.000162 0.012440 0.000001 0.060428 0.000000
# 6 0.000000 0.000000 0.000000 -0.016925 0.000000 0.004468
#
#
# Mechanical properties :
#
#
# Convention : Reuss Voigt Hill
#
# Bulk Modulus (GPa) = 49.87600 60.91796 55.39698
# Shear Modulus (GPa) = 24.95252 -19.83291 2.55981
#
# Velocity S-wave (km/s) = 3.70238 -3.30078 1.18584
# Velocity P-wave (km/s) = 6.75840 4.35181 5.68393
#
# Compressibility (1/GPa) = 0.02004972
#
# Stress axis : x y z
#
# Youngs Moduli (GPa) = 35.00019 101.46236 42.40332
#
# Poissons Ratio (x) = 0.40332 0.54841
# Poissons Ratio (y) = 0.13913 0.17267
# Poissons Ratio (z) = 0.45266 0.41316
#
# Static dielectric constant tensor:
#      x y z
#    x 3.180770 0.000000 -0.149590 
#    y 0.000000 3.454920 0.000000 
#    z -0.149590 0.000000 3.360750 
# 
# 
# High freq. dielectric constant tensor:
#      x y z
#    x 1.692970 0.000000 -0.009520 
#    y 0.000000 1.716980 0.000000 
#    z -0.009520 0.000000 1.704430 
# 
# From -- ./inp_files/255652.got.cif
#   From: 2010.06.25/outbox.cif.g09.slc.cpg/sg15_128_cif.got.tgz:255652.got - 2010.06.28 07:06:18.
