data_PCOD8131809
_publ_section_title
;
Structure prediction by ZEFSAII (Michael W. Deem and Ramdas Pophale) SiO2 
 PCOD8131809
Probable space group: C 2/C
;
_chemical_formula_sum "Si O2"
_cell_formula_units_Z 56
_cell_length_a 10.739472
_cell_length_b 17.811802
_cell_length_c 16.511963
_cell_angle_alpha 90.000000
_cell_angle_beta 117.242123
_cell_angle_gamma 90.000000
_cell_volume 2808.215138
_symmetry_space_group_name_H-M "C 2/C"
_symmetry_group_IT_number 15
_symmetry_cell_setting 'monoclinic'
loop_
_space_group_symop_operation_xyz
x,y,z
-x,y,1/2-z
-x,-y,-z
x,-y,1/2+z
1/2+x,1/2+y,z
1/2-x,1/2+y,1/2-z
1/2-x,1/2-y,-z
1/2+x,1/2-y,1/2+z
loop_
_atom_site_type_symbol
_atom_site_label
_atom_site_fract_x
_atom_site_fract_y
_atom_site_fract_z
Si Si1 0.987713 0.871412 0.636402
Si Si2 0.996299 0.084330 0.966722
Si Si3 0.782935 0.765990 0.789218
Si Si4 0.132850 0.882307 0.241643
Si Si5 0.446995 0.129636 0.324605
Si Si6 0.763727 0.327259 0.548809
Si Si7 0.197979 0.044704 0.294691
O O1 0.944466 0.866803 0.528964
O O2 0.057234 0.791116 0.687264
O O3 0.111602 0.933190 0.687689
O O4 0.855805 0.899852 0.649504
O O5 0.150744 0.111600 0.984917
O O6 0.893662 0.098198 0.860469
O O7 0.000000 0.000000 0.000000
O O8 0.762361 0.676249 0.786234
O O9 0.659576 0.799506 0.695222
O O10 0.757041 0.810247 0.864001
O O11 0.000000 0.846338 0.250000
O O12 0.172478 0.956934 0.304279
O O13 0.500000 0.116321 0.250000
O O14 0.580890 0.140893 0.422224
O O15 0.363193 0.056085 0.330027
O O16 0.750000 0.250000 0.500000
#
# Coordination Sequence:
#
# PCOD8131809 Si02
#       7
#     8   8   8   8   8   8   8
#     4   9  18  36  54  84 111 159 186 229 296 362
#     4  11  20  32  56  87 117 143 193 247 296 340
#     4   9  19  32  54  82 113 141 194 243 287 338
#     4  12  20  32  58  93 113 145 203 253 275 340
#     4   9  18  33  56  79 107 146 189 233 288 349
#     4  10  19  33  55  82 109 146 186 248 296 337
#     4  10  18  34  60  81 111 156 196 228 289 355
#
# _framework density 19.941490999999999
#
# number of rings (size 3 to 8) (size 9 to 14) (size 15 to 20)
#    0.000    2.000    2.857    3.857    0.000    0.000 
#    0.000    0.000    6.286   32.571    3.714    0.000 
#    0.000    0.000    0.000    0.000    0.000    0.000 
#
# Total GULP energy -346865.458095 kJ/mol
# GULP energy per Si atom -12388.052075 kJ/mol
# Density = 1.989610 g / cm^3
# Si number density = 19.941491 Si / 1000 Ang^3
#
#
#
# Elastic Constant Matrix: (Units=GPa)
#
#
# Indices 1 2 3 4 5 6 
#
# 1 101.2339 48.0508 27.2311 0.0000 6.2871 0.0000
# 2 48.0508 118.1889 12.0383 0.0000 7.5428 0.0000
# 3 27.2311 12.0383 45.5819 0.0000 -5.2648 0.0000
# 4 0.0000 0.0000 0.0000 21.3818 0.0000 -0.8915
# 5 6.2871 7.5428 -5.2648 0.0000 25.2732 0.0000
# 6 0.0000 0.0000 0.0000 -0.8915 0.0000 33.5847
#
#
#
# Elastic Compliance Matrix: (Units=1/GPa)
#
#
# Indices 1 2 3 4 5 6 
#
# 1 0.014532 -0.004868 -0.007834 0.000000 -0.003794 0.000000
# 2 -0.004868 0.010577 -0.000113 0.000000 -0.001969 0.000000
# 3 -0.007834 -0.000113 0.027540 0.000000 0.007719 0.000000
# 4 0.000000 0.000000 0.000000 0.046821 0.000000 0.001243
# 5 -0.003794 -0.001969 0.007719 0.000000 0.042707 0.000000
# 6 0.000000 0.000000 0.000000 0.001243 0.000000 0.029808
#
#
# Mechanical properties :
#
#
# Convention : Reuss Voigt Hill
#
# Bulk Modulus (GPa) = 37.01017 48.84948 42.92982
# Shear Modulus (GPa) = 24.19889 27.89354 26.04621
#
# Velocity S-wave (km/s) = 3.48730 3.74407 3.61797
# Velocity P-wave (km/s) = 5.90040 6.57574 6.24720
#
# Compressibility (1/GPa) = 0.02701960
#
# Stress axis : x y z
#
# Youngs Moduli (GPa) = 68.81580 94.54221 36.31084
#
# Poissons Ratio (x) = 0.46022 0.28446
# Poissons Ratio (y) = 0.33499 0.00410
# Poissons Ratio (z) = 0.53910 0.01067
#
# Static dielectric constant tensor:
#      x y z
#    x 3.843130 0.000000 0.030880 
#    y 0.000000 3.545880 0.000000 
#    z 0.030880 0.000000 3.648200 
# 
# 
# High freq. dielectric constant tensor:
#      x y z
#    x 1.760100 0.000000 -0.007520 
#    y 0.000000 1.764510 0.000000 
#    z -0.007520 0.000000 1.762440 
# 
# From -- ./inp_files/199271.got.cif
#   From: 2010.06.25/outbox.cif.g09.slc.cpg/sg15_100_cif.got.tgz:199271.got - 2010.06.28 07:06:18.
