data_PCOD8131653
_publ_section_title
;
Structure prediction by ZEFSAII (Michael W. Deem and Ramdas Pophale) SiO2 
 PCOD8131653
Probable space group: C 2/C
;
_chemical_formula_sum "Si O2"
_cell_formula_units_Z 52
_cell_length_a 9.054703
_cell_length_b 28.006588
_cell_length_c 18.059375
_cell_angle_alpha 90.000000
_cell_angle_beta 34.331245
_cell_angle_gamma 90.000000
_cell_volume 2582.843580
_symmetry_space_group_name_H-M "C 2/C"
_symmetry_group_IT_number 15
_symmetry_cell_setting 'monoclinic'
loop_
_space_group_symop_operation_xyz
x,y,z
-x,y,1/2-z
-x,-y,-z
x,-y,1/2+z
1/2+x,1/2+y,z
1/2-x,1/2+y,1/2-z
1/2-x,1/2-y,-z
1/2+x,1/2-y,1/2+z
loop_
_atom_site_type_symbol
_atom_site_label
_atom_site_fract_x
_atom_site_fract_y
_atom_site_fract_z
Si Si1 0.742991 0.177206 0.508350
Si Si2 0.733589 0.682000 0.796156
Si Si3 0.362785 0.577234 0.654224
Si Si4 0.696534 0.495041 0.101349
Si Si5 0.000000 0.787337 0.250000
Si Si6 0.218857 0.428690 0.051529
Si Si7 0.493312 0.749702 0.497038
O O1 0.551231 0.181278 0.661647
O O2 0.811586 0.121501 0.475913
O O3 0.638006 0.199780 0.474615
O O4 0.981255 0.210869 0.435113
O O5 0.601061 0.633434 0.880040
O O6 0.668735 0.680832 0.735531
O O7 0.631651 0.730303 0.875891
O O8 0.608603 0.555302 0.598588
O O9 0.337277 0.556392 0.582138
O O10 0.098764 0.569227 0.812348
O O11 0.500000 0.505854 0.250000
O O12 0.652283 0.534004 0.057014
O O13 0.000000 0.500000 0.000000
O O14 0.801869 0.756191 0.382105
#
# Coordination Sequence:
#
# PCOD8131653 Si02
#       7
#     8   8   8   8   4   8   8
#     4   9  19  34  61  86 112 152 206 250 291 366
#     4  10  19  35  59  87 111 157 209 247 295 357
#     4  10  21  38  69  90 120 162 213 266 310 384
#     4  12  25  43  64  95 128 161 206 262 326 381
#     4  10  22  30  50  82 126 156 194 246 298 356
#     4  10  20  41  65  95 121 158 213 261 322 376
#     4  10  18  34  53  84 118 155 197 243 298 352
#
# _framework density 20.132850999999999
#
# number of rings (size 3 to 8) (size 9 to 14) (size 15 to 20)
#    0.000    1.846    3.077    1.385    1.077    1.231 
#    0.000    6.154    0.000    0.000    0.000    0.000 
#    0.000    0.000    0.000    0.000    0.000    0.000 
#
# Total GULP energy -322096.322128 kJ/mol
# GULP energy per Si atom -12388.320082 kJ/mol
# Density = 2.008703 g / cm^3
# Si number density = 20.132851 Si / 1000 Ang^3
#
#
#
# Elastic Constant Matrix: (Units=GPa)
#
#
# Indices 1 2 3 4 5 6 
#
# 1 77.0529 26.2248 27.3173 0.0000 -4.2142 0.0000
# 2 26.2248 87.8807 26.8638 0.0000 8.6318 0.0000
# 3 27.3173 26.8638 68.9847 0.0000 9.2993 0.0000
# 4 0.0000 0.0000 0.0000 29.6466 0.0000 7.9159
# 5 -4.2142 8.6318 9.2993 0.0000 34.6476 0.0000
# 6 0.0000 0.0000 0.0000 7.9159 0.0000 30.4940
#
#
#
# Elastic Compliance Matrix: (Units=1/GPa)
#
#
# Indices 1 2 3 4 5 6 
#
# 1 0.016475 -0.003604 -0.005718 0.000000 0.004436 0.000000
# 2 -0.003604 0.013832 -0.003565 0.000000 -0.002928 0.000000
# 3 -0.005718 -0.003565 0.018803 0.000000 -0.004854 0.000000
# 4 0.000000 0.000000 0.000000 0.036243 0.000000 -0.009408
# 5 0.004436 -0.002928 -0.004854 0.000000 0.031434 0.000000
# 6 0.000000 0.000000 0.000000 -0.009408 0.000000 0.035236
#
#
# Mechanical properties :
#
#
# Convention : Reuss Voigt Hill
#
# Bulk Modulus (GPa) = 42.85335 43.85889 43.35612
# Shear Modulus (GPa) = 26.94346 29.19180 28.06763
#
# Velocity S-wave (km/s) = 3.66222 3.81196 3.73784
# Velocity P-wave (km/s) = 6.26211 6.41925 6.34117
#
# Compressibility (1/GPa) = 0.02333540
#
# Stress axis : x y z
#
# Youngs Moduli (GPa) = 60.69924 72.29762 53.18345
#
# Poissons Ratio (x) = 0.26056 0.30412
# Poissons Ratio (y) = 0.21876 0.18957
# Poissons Ratio (z) = 0.34710 0.25771
#
# Static dielectric constant tensor:
#      x y z
#    x 3.815020 0.000000 -0.009100 
#    y 0.000000 3.559430 0.000000 
#    z -0.009100 0.000000 3.512590 
# 
# 
# High freq. dielectric constant tensor:
#      x y z
#    x 1.803870 0.000000 0.011540 
#    y 0.000000 1.774240 0.000000 
#    z 0.011540 0.000000 1.759430 
# 
# From -- ./inp_files/82323.got.cif
#   From: 2010.06.25/outbox.cif.g09.slc.cpg/sg15_42_cif.got.tgz:82323.got - 2010.06.28 07:06:18.
