data_PCOD8131816
_publ_section_title
;
Structure prediction by ZEFSAII (Michael W. Deem and Ramdas Pophale) SiO2 
 PCOD8131816
Probable space group: C 2/C
;
_chemical_formula_sum "Si O2"
_cell_formula_units_Z 56
_cell_length_a 8.491541
_cell_length_b 10.972556
_cell_length_c 31.985186
_cell_angle_alpha 90.000000
_cell_angle_beta 113.077218
_cell_angle_gamma 90.000000
_cell_volume 2741.702755
_symmetry_space_group_name_H-M "C 2/C"
_symmetry_group_IT_number 15
_symmetry_cell_setting 'monoclinic'
loop_
_space_group_symop_operation_xyz
x,y,z
-x,y,1/2-z
-x,-y,-z
x,-y,1/2+z
1/2+x,1/2+y,z
1/2-x,1/2+y,1/2-z
1/2-x,1/2-y,-z
1/2+x,1/2-y,1/2+z
loop_
_atom_site_type_symbol
_atom_site_label
_atom_site_fract_x
_atom_site_fract_y
_atom_site_fract_z
Si Si1 0.039531 0.999673 0.052758
Si Si2 0.794433 0.243286 0.807353
Si Si3 0.801386 0.506313 0.806528
Si Si4 0.065617 0.752634 0.089504
Si Si5 0.643425 0.744444 0.446767
Si Si6 0.500000 0.326873 0.250000
Si Si7 0.500000 0.075407 0.750000
Si Si8 0.436620 0.009033 0.592155
O O1 0.239161 0.996777 0.085193
O O2 0.967706 0.121470 0.066766
O O3 0.959330 0.870707 0.061190
O O4 0.000000 0.000000 0.000000
O O5 0.715252 0.376597 0.806190
O O6 0.910956 0.213965 0.859415
O O7 0.907790 0.248385 0.776880
O O8 0.634490 0.154908 0.789811
O O9 0.645077 0.598880 0.789772
O O10 0.897060 0.494997 0.772085
O O11 0.940938 0.536325 0.856105
O O12 0.242516 0.741167 0.082870
O O13 0.973316 0.621396 0.073767
O O14 0.750000 0.750000 0.500000
O O15 0.535237 0.871958 0.434830
#
# Coordination Sequence:
#
# PCOD8131816 Si02
#       8
#     8   8   8   8   8   4   4   8
#     4  11  22  42  61  87 124 162 208 258 305 365
#     4  10  21  38  58  89 122 154 203 244 305 363
#     4  10  21  38  58  89 122 154 203 244 305 363
#     4  10  23  40  61  91 123 162 207 258 306 369
#     4  11  22  42  61  87 124 162 208 258 305 365
#     4  10  22  38  64  88 124 158 194 250 300 372
#     4  10  18  34  60  84 116 162 190 242 304 360
#     4  10  23  40  61  91 123 162 207 258 306 369
#
# _framework density 20.425263999999999
#
# number of rings (size 3 to 8) (size 9 to 14) (size 15 to 20)
#    0.000    1.714    2.857    2.571    0.000    6.857 
#    0.000    7.143    0.000    0.000    0.000    0.000 
#    0.000    0.000    0.000    0.000    0.000    0.000 
#
# Total GULP energy -346920.342500 kJ/mol
# GULP energy per Si atom -12390.012232 kJ/mol
# Density = 2.037878 g / cm^3
# Si number density = 20.425264 Si / 1000 Ang^3
#
#
#
# Elastic Constant Matrix: (Units=GPa)
#
#
# Indices 1 2 3 4 5 6 
#
# 1 58.7675 28.7474 15.7214 0.0000 8.1572 0.0000
# 2 28.7474 190.1509 51.6782 0.0000 7.3366 0.0000
# 3 15.7214 51.6782 111.4143 0.0000 7.9801 0.0000
# 4 0.0000 0.0000 0.0000 32.4308 0.0000 -8.8877
# 5 8.1572 7.3366 7.9801 0.0000 33.0921 0.0000
# 6 0.0000 0.0000 0.0000 -8.8877 0.0000 97.8478
#
#
#
# Elastic Compliance Matrix: (Units=1/GPa)
#
#
# Indices 1 2 3 4 5 6 
#
# 1 0.019065 -0.002377 -0.001311 0.000000 -0.003856 0.000000
# 2 -0.002377 0.006329 -0.002586 0.000000 -0.000193 0.000000
# 3 -0.001311 -0.002586 0.010477 0.000000 -0.001630 0.000000
# 4 0.000000 0.000000 0.000000 0.031622 0.000000 0.002872
# 5 -0.003856 -0.000193 -0.001630 0.000000 0.031605 0.000000
# 6 0.000000 0.000000 0.000000 0.002872 0.000000 0.010481
#
#
# Mechanical properties :
#
#
# Convention : Reuss Voigt Hill
#
# Bulk Modulus (GPa) = 42.87942 61.40296 52.14119
# Shear Modulus (GPa) = 38.49054 50.28651 44.38853
#
# Velocity S-wave (km/s) = 4.34574 4.96721 4.66683
# Velocity P-wave (km/s) = 6.79850 7.93884 7.39069
#
# Compressibility (1/GPa) = 0.02332121
#
# Stress axis : x y z
#
# Youngs Moduli (GPa) = 52.45184 158.01072 95.44821
#
# Poissons Ratio (x) = 0.37561 0.12517
# Poissons Ratio (y) = 0.12468 0.24685
# Poissons Ratio (z) = 0.06879 0.40865
#
# Static dielectric constant tensor:
#      x y z
#    x 3.785430 0.000000 -0.062170 
#    y 0.000000 4.420460 0.000000 
#    z -0.062170 0.000000 3.678560 
# 
# 
# High freq. dielectric constant tensor:
#      x y z
#    x 1.775690 0.000000 0.000230 
#    y 0.000000 1.822720 0.000000 
#    z 0.000230 0.000000 1.803470 
# 
# From -- ./inp_files/307263.got.cif
#   From: 2010.06.25/outbox.cif.g09.slc.cpg/sg15_154_cif.got.tgz:307263.got - 2010.06.28 07:06:18.
