data_PCOD8131161
_publ_section_title
;
Structure prediction by ZEFSAII (Michael W. Deem and Ramdas Pophale) SiO2 
 PCOD8131161
Probable space group: C 2/C
;
_chemical_formula_sum "Si O2"
_cell_formula_units_Z 64
_cell_length_a 26.024939
_cell_length_b 23.738905
_cell_length_c 12.121984
_cell_angle_alpha 90.000000
_cell_angle_beta 30.292698
_cell_angle_gamma 90.000000
_cell_volume 3777.585718
_symmetry_space_group_name_H-M "C 2/C"
_symmetry_group_IT_number 15
_symmetry_cell_setting 'monoclinic'
loop_
_space_group_symop_operation_xyz
x,y,z
-x,y,1/2-z
-x,-y,-z
x,-y,1/2+z
1/2+x,1/2+y,z
1/2-x,1/2+y,1/2-z
1/2-x,1/2-y,-z
1/2+x,1/2-y,1/2+z
loop_
_atom_site_type_symbol
_atom_site_label
_atom_site_fract_x
_atom_site_fract_y
_atom_site_fract_z
Si Si1 0.887447 0.177995 0.499626
Si Si2 0.065328 0.726331 0.426492
Si Si3 0.214210 0.660221 0.286068
Si Si4 0.583870 0.291819 0.187736
Si Si5 0.654509 0.442532 0.930775
Si Si6 0.471621 0.409605 0.130878
Si Si7 0.335799 0.236209 0.926157
Si Si8 0.409639 0.441027 0.004578
O O1 0.884006 0.220066 0.608310
O O2 0.828106 0.206691 0.510552
O O3 0.843400 0.116075 0.609905
O O4 0.000000 0.165378 0.250000
O O5 0.120050 0.670242 0.374781
O O6 0.087930 0.734958 0.254464
O O7 0.944733 0.724674 0.669085
O O8 0.241241 0.593640 0.247583
O O9 0.185200 0.681424 0.461312
O O10 0.308924 0.696971 0.068102
O O11 0.500000 0.283500 0.250000
O O12 0.555995 0.343582 0.320871
O O13 0.587464 0.412726 0.959734
O O14 0.598893 0.442882 0.152037
O O15 0.670284 0.507192 0.861997
O O16 0.459425 0.438483 0.034359
O O17 0.250000 0.250000 0.000000
O O18 0.500000 0.450560 0.750000
#
# Coordination Sequence:
#
# PCOD8131161 Si02
#       8
#     8   8   8   8   8   8   8   8
#     4   8  17  29  46  71  99 130 159 194 254 313
#     4  10  19  34  52  72 101 139 170 211 261 314
#     4  10  20  33  48  71 104 138 178 207 252 311
#     4  11  18  31  52  73 103 140 176 209 258 310
#     4  10  20  31  46  72 100 143 173 207 247 312
#     4  10  18  32  45  70 107 138 172 207 250 311
#     4  10  20  34  51  75 105 131 167 222 264 312
#     4  11  19  29  48  73 104 142 169 205 264 322
#
# _framework density 16.942038
#
# number of rings (size 3 to 8) (size 9 to 14) (size 15 to 20)
#    0.000    2.000    5.000    2.625    0.000    0.000 
#    0.000    0.000    0.000    0.000    0.000    0.875 
#    3.750    0.125    0.000    0.000    0.000    0.000 
#
# Total GULP energy -396503.678963 kJ/mol
# GULP energy per Si atom -12390.739968 kJ/mol
# Density = 1.690348 g / cm^3
# Si number density = 16.942038 Si / 1000 Ang^3
#
#
#
# Elastic Constant Matrix: (Units=GPa)
#
#
# Indices 1 2 3 4 5 6 
#
# 1 119.6728 38.0078 34.6758 -0.0001 -0.3091 0.0000
# 2 38.0078 95.2562 14.7076 0.0000 -8.5091 0.0000
# 3 34.6758 14.7076 50.5540 -0.0001 -5.4664 0.0000
# 4 -0.0001 0.0000 -0.0001 15.8102 0.0000 -6.1398
# 5 -0.3091 -8.5091 -5.4664 0.0000 28.7707 0.0000
# 6 0.0000 0.0000 0.0000 -6.1398 0.0000 29.8893
#
#
#
# Elastic Compliance Matrix: (Units=1/GPa)
#
#
# Indices 1 2 3 4 5 6 
#
# 1 0.011601 -0.003738 -0.007122 0.000000 -0.002334 0.000000
# 2 -0.003738 0.012405 -0.000667 0.000000 0.003502 0.000000
# 3 -0.007122 -0.000667 0.025351 0.000000 0.004543 0.000000
# 4 0.000000 0.000000 0.000000 0.068733 0.000000 0.014119
# 5 -0.002334 0.003502 0.004543 0.000000 0.036631 0.000000
# 6 0.000000 0.000000 0.000000 0.014119 0.000000 0.036357
#
#
# Mechanical properties :
#
#
# Convention : Reuss Voigt Hill
#
# Bulk Modulus (GPa) = 38.01663 48.91838 43.46751
# Shear Modulus (GPa) = 22.43159 26.76683 24.59921
#
# Velocity S-wave (km/s) = 3.64266 3.97912 3.81460
# Velocity P-wave (km/s) = 6.33876 7.07445 6.71668
#
# Compressibility (1/GPa) = 0.02630428
#
# Stress axis : x y z
#
# Youngs Moduli (GPa) = 86.20068 80.61205 39.44584
#
# Poissons Ratio (x) = 0.30130 0.28094
# Poissons Ratio (y) = 0.32219 0.02630
# Poissons Ratio (z) = 0.61394 0.05374
#
# Static dielectric constant tensor:
#      x y z
#    x 3.252190 0.000000 0.095630 
#    y 0.000000 3.403120 0.000000 
#    z 0.095630 0.000000 2.979400 
# 
# 
# High freq. dielectric constant tensor:
#      x y z
#    x 1.660760 0.000000 0.018920 
#    y 0.000000 1.638110 0.000000 
#    z 0.018920 0.000000 1.619610 
# 
# From -- ./inp_files/120243.got.cif
#   From: 2010.06.25/outbox.cif.g09.slc.cpg/sg15_61_cif.got.tgz:120243.got - 2010.06.28 07:06:18.
