data_PCOD8131456
_publ_section_title
;
Structure prediction by ZEFSAII (Michael W. Deem and Ramdas Pophale) SiO2 
 PCOD8131456
Probable space group: C 2/C
;
_chemical_formula_sum "Si O2"
_cell_formula_units_Z 56
_cell_length_a 14.905278
_cell_length_b 9.243229
_cell_length_c 25.311968
_cell_angle_alpha 90.000000
_cell_angle_beta 121.944516
_cell_angle_gamma 90.000000
_cell_volume 2959.188990
_symmetry_space_group_name_H-M "C 2/C"
_symmetry_group_IT_number 15
_symmetry_cell_setting 'monoclinic'
loop_
_space_group_symop_operation_xyz
x,y,z
-x,y,1/2-z
-x,-y,-z
x,-y,1/2+z
1/2+x,1/2+y,z
1/2-x,1/2+y,1/2-z
1/2-x,1/2-y,-z
1/2+x,1/2-y,1/2+z
loop_
_atom_site_type_symbol
_atom_site_label
_atom_site_fract_x
_atom_site_fract_y
_atom_site_fract_z
Si Si1 0.014762 0.184542 0.605731
Si Si2 0.632323 0.884042 0.414052
Si Si3 0.497920 0.362697 0.587635
Si Si4 0.093350 0.577797 0.497231
Si Si5 0.797542 0.797181 0.899860
Si Si6 0.149605 0.110706 0.554301
Si Si7 0.440164 0.855429 0.677340
O O1 0.124554 0.163823 0.606631
O O2 0.939853 0.286777 0.548564
O O3 0.017998 0.256861 0.664862
O O4 0.971614 0.022417 0.600572
O O5 0.554713 0.748817 0.389588
O O6 0.744228 0.812307 0.432500
O O7 0.645370 0.957756 0.475669
O O8 0.581086 0.990632 0.355724
O O9 0.622370 0.318990 0.624735
O O10 0.451692 0.350562 0.513245
O O11 0.178534 0.644792 0.563839
O O12 0.000000 0.500000 0.500000
O O13 0.674350 0.783796 0.846040
O O14 0.820643 0.940275 0.942261
O O15 0.500000 0.882282 0.750000
#
# Coordination Sequence:
#
# PCOD8131456 Si02
#       7
#     8   8   8   8   8   8   8
#     4  10  20  35  58  78 116 150 187 228 291 342
#     4  10  22  32  59  86 119 149 181 230 293 340
#     4  11  18  35  53  93 120 144 172 230 295 358
#     4  11  18  32  54  91 118 150 182 228 281 364
#     4  10  19  34  57  80 118 150 185 224 289 332
#     4  10  18  33  53  87 123 149 170 223 296 360
#     4  10  24  43  57  74 105 154 207 241 270 327
#
# _framework density 18.924104
#
# number of rings (size 3 to 8) (size 9 to 14) (size 15 to 20)
#    0.000    1.714    4.286    1.286    2.000    1.714 
#    0.000    5.000    0.000    0.000    0.000    0.000 
#    0.000    0.000    0.000    0.000    0.000    0.000 
#
# Total GULP energy -346898.241194 kJ/mol
# GULP energy per Si atom -12389.222900 kJ/mol
# Density = 1.888103 g / cm^3
# Si number density = 18.924104 Si / 1000 Ang^3
#
#
#
# Elastic Constant Matrix: (Units=GPa)
#
#
# Indices 1 2 3 4 5 6 
#
# 1 126.0017 33.4071 26.3895 0.0000 1.3092 0.0000
# 2 33.4071 82.0418 14.4010 0.0000 -1.6630 0.0000
# 3 26.3895 14.4010 65.1457 0.0000 2.8335 0.0000
# 4 0.0000 0.0000 0.0000 8.3714 0.0000 0.3609
# 5 1.3092 -1.6630 2.8335 0.0000 19.4135 0.0000
# 6 0.0000 0.0000 0.0000 0.3609 0.0000 33.6164
#
#
#
# Elastic Compliance Matrix: (Units=1/GPa)
#
#
# Indices 1 2 3 4 5 6 
#
# 1 0.009468 -0.003324 -0.003080 0.000000 -0.000474 0.000000
# 2 -0.003324 0.013892 -0.001797 0.000000 0.001676 0.000000
# 3 -0.003080 -0.001797 0.017101 0.000000 -0.002442 0.000000
# 4 0.000000 0.000000 0.000000 0.119510 0.000000 -0.001283
# 5 -0.000474 0.001676 -0.002442 0.000000 0.052043 0.000000
# 6 0.000000 0.000000 0.000000 -0.001283 0.000000 0.029761
#
#
# Mechanical properties :
#
#
# Convention : Reuss Voigt Hill
#
# Bulk Modulus (GPa) = 41.56542 46.84274 44.20408
# Shear Modulus (GPa) = 18.78308 25.54636 22.16472
#
# Velocity S-wave (km/s) = 3.15389 3.67814 3.42606
# Velocity P-wave (km/s) = 5.93925 6.54560 6.24978
#
# Compressibility (1/GPa) = 0.02405846
#
# Stress axis : x y z
#
# Youngs Moduli (GPa) = 105.62225 71.98400 58.47507
#
# Poissons Ratio (x) = 0.23929 0.18009
# Poissons Ratio (y) = 0.35111 0.10510
# Poissons Ratio (z) = 0.32529 0.12938
#
# Static dielectric constant tensor:
#      x y z
#    x 3.876650 0.000000 -0.095120 
#    y 0.000000 3.688030 0.000000 
#    z -0.095120 0.000000 2.959600 
# 
# 
# High freq. dielectric constant tensor:
#      x y z
#    x 1.754700 0.000000 -0.008220 
#    y 0.000000 1.747880 0.000000 
#    z -0.008220 0.000000 1.664790 
# 
# From -- ./inp_files/242803.got.cif
#   From: 2010.06.25/outbox.cif.g09.slc.cpg/sg15_122_cif.got.tgz:242803.got - 2010.06.28 07:06:18.
