data_PCOD8131317
_publ_section_title
;
Structure prediction by ZEFSAII (Michael W. Deem and Ramdas Pophale) SiO2 
 PCOD8131317
Probable space group: C 2/C
;
_chemical_formula_sum "Si O2"
_cell_formula_units_Z 48
_cell_length_a 10.541954
_cell_length_b 17.692418
_cell_length_c 14.968328
_cell_angle_alpha 90.000000
_cell_angle_beta 65.142660
_cell_angle_gamma 90.000000
_cell_volume 2533.144197
_symmetry_space_group_name_H-M "C 2/C"
_symmetry_group_IT_number 15
_symmetry_cell_setting 'monoclinic'
loop_
_space_group_symop_operation_xyz
x,y,z
-x,y,1/2-z
-x,-y,-z
x,-y,1/2+z
1/2+x,1/2+y,z
1/2-x,1/2+y,1/2-z
1/2-x,1/2-y,-z
1/2+x,1/2-y,1/2+z
loop_
_atom_site_type_symbol
_atom_site_label
_atom_site_fract_x
_atom_site_fract_y
_atom_site_fract_z
Si Si1 0.163786 0.008640 0.716210
Si Si2 0.976315 0.128521 0.031769
Si Si3 0.681584 0.496460 0.017434
Si Si4 0.643515 0.337881 0.756751
Si Si5 0.273249 0.721944 0.593702
Si Si6 0.343703 0.071192 0.818484
O O1 0.243332 0.016605 0.597875
O O2 0.235616 0.062641 0.767911
O O3 0.000000 0.028897 0.750000
O O4 0.190510 0.924062 0.740494
O O5 0.883871 0.177570 0.129544
O O6 0.882979 0.084021 0.989249
O O7 0.068005 0.064910 0.057704
O O8 0.072644 0.185625 0.946862
O O9 0.801581 0.517073 0.912431
O O10 0.500000 0.320524 0.750000
O O11 0.761362 0.286829 0.673215
O O12 0.250000 0.750000 0.500000
O O13 0.158411 0.658074 0.649806
O O14 0.500000 0.046837 0.750000
#
# Coordination Sequence:
#
# PCOD8131317 Si02
#       6
#     8   8   8   8   8   8
#     4  11  19  36  64  87 112 153 199 238 282 346
#     4  10  18  32  56  86 112 146 195 241 277 342
#     4  10  18  35  58  83 112 148 198 237 280 341
#     4  11  17  31  54  86 115 145 190 240 292 334
#     4  11  21  32  54  86 119 149 187 244 295 338
#     4  11  24  37  56  92 123 148 192 245 294 340
#
# _framework density 18.948782000000001
#
# number of rings (size 3 to 8) (size 9 to 14) (size 15 to 20)
#    0.000    1.333    6.667    3.500    0.000    0.667 
#    0.000    0.000    0.000    4.000    4.333    0.000 
#    0.000    0.000    0.000    0.000    0.000    0.000 
#
# Total GULP energy -297505.368481 kJ/mol
# GULP energy per Si atom -12396.057020 kJ/mol
# Density = 1.890565 g / cm^3
# Si number density = 18.948782 Si / 1000 Ang^3
#
#
#
# Elastic Constant Matrix: (Units=GPa)
#
#
# Indices 1 2 3 4 5 6 
#
# 1 61.4362 31.5786 42.2755 0.0000 -8.8644 0.0000
# 2 31.5786 79.5574 39.2086 0.0000 -9.2699 0.0000
# 3 42.2755 39.2086 154.3713 0.0000 -11.4354 0.0000
# 4 0.0000 0.0000 0.0000 29.1566 0.0000 -6.2124
# 5 -8.8644 -9.2699 -11.4354 0.0000 23.9228 0.0000
# 6 0.0000 0.0000 0.0000 -6.2124 0.0000 15.8058
#
#
#
# Elastic Compliance Matrix: (Units=1/GPa)
#
#
# Indices 1 2 3 4 5 6 
#
# 1 0.023274 -0.006607 -0.004402 0.000000 0.003959 0.000000
# 2 -0.006607 0.016616 -0.002193 0.000000 0.002942 0.000000
# 3 -0.004402 -0.002193 0.008352 0.000000 0.001512 0.000000
# 4 0.000000 0.000000 0.000000 0.037432 0.000000 0.014713
# 5 0.003959 0.002942 0.001512 0.000000 0.045131 0.000000
# 6 0.000000 0.000000 0.000000 0.014713 0.000000 0.069051
#
#
# Mechanical properties :
#
#
# Convention : Reuss Voigt Hill
#
# Bulk Modulus (GPa) = 45.79308 57.94339 51.86823
# Shear Modulus (GPa) = 21.40968 25.93051 23.67009
#
# Velocity S-wave (km/s) = 3.36500 3.70327 3.53818
# Velocity P-wave (km/s) = 6.27032 6.99507 6.64258
#
# Compressibility (1/GPa) = 0.02183736
#
# Stress axis : x y z
#
# Youngs Moduli (GPa) = 42.96697 60.18442 119.72607
#
# Poissons Ratio (x) = 0.39764 0.52706
# Poissons Ratio (y) = 0.28389 0.26254
# Poissons Ratio (z) = 0.18915 0.13198
#
# Static dielectric constant tensor:
#      x y z
#    x 2.991990 0.000000 -0.111370 
#    y 0.000000 3.452960 0.000000 
#    z -0.111370 0.000000 3.875420 
# 
# 
# High freq. dielectric constant tensor:
#      x y z
#    x 1.678150 0.000000 -0.007880 
#    y 0.000000 1.722860 0.000000 
#    z -0.007880 0.000000 1.767500 
# 
# From -- ./inp_files/143463.got.cif
#   From: 2010.06.25/outbox.cif.g09.slc.cpg/sg15_72_cif.got.tgz:143463.got - 2010.06.28 07:06:18.
