data_PCOD8131921
_publ_section_title
;
Structure prediction by ZEFSAII (Michael W. Deem and Ramdas Pophale) SiO2 
 PCOD8131921
Probable space group: C 2/C
;
_chemical_formula_sum "Si O2"
_cell_formula_units_Z 52
_cell_length_a 20.283268
_cell_length_b 18.380653
_cell_length_c 12.403461
_cell_angle_alpha 90.000000
_cell_angle_beta 142.268154
_cell_angle_gamma 90.000000
_cell_volume 2829.890015
_symmetry_space_group_name_H-M "C 2/C"
_symmetry_group_IT_number 15
_symmetry_cell_setting 'monoclinic'
loop_
_space_group_symop_operation_xyz
x,y,z
-x,y,1/2-z
-x,-y,-z
x,-y,1/2+z
1/2+x,1/2+y,z
1/2-x,1/2+y,1/2-z
1/2-x,1/2-y,-z
1/2+x,1/2-y,1/2+z
loop_
_atom_site_type_symbol
_atom_site_label
_atom_site_fract_x
_atom_site_fract_y
_atom_site_fract_z
Si Si1 0.303612 0.862049 0.017121
Si Si2 0.851744 0.449040 0.274382
Si Si3 0.096599 0.398555 0.580281
Si Si4 0.500000 0.782041 0.750000
Si Si5 0.619701 0.739272 0.233335
Si Si6 0.407626 0.258752 0.344570
Si Si7 0.805725 0.667711 0.869734
O O1 0.291166 0.928250 0.085663
O O2 0.370812 0.793781 0.152722
O O3 0.363550 0.892563 0.990267
O O4 0.182420 0.835775 0.835220
O O5 0.846388 0.535226 0.283199
O O6 0.795266 0.412657 0.305563
O O7 0.969897 0.413440 0.416749
O O8 0.124859 0.325927 0.682930
O O9 0.542560 0.730096 0.709668
O O10 0.402775 0.832783 0.581637
O O11 0.672684 0.775107 0.196992
O O12 0.494399 0.720882 0.049570
O O13 0.305916 0.311437 0.218459
#
# Coordination Sequence:
#
# PCOD8131921 Si02
#       7
#     8   8   8   4   8   8   8
#     4  10  18  35  54  79 115 148 181 232 280 329
#     4  10  22  35  48  87 117 144 184 224 280 350
#     4  11  20  33  55  79 118 148 173 230 286 336
#     4  10  20  34  50  80 112 140 188 216 278 332
#     4   9  19  32  56  86 107 137 196 237 273 331
#     4  11  20  35  56  84 106 149 185 234 281 325
#     4  10  19  36  53  79 113 140 189 233 272 332
#
# _framework density 18.375273
#
# number of rings (size 3 to 8) (size 9 to 14) (size 15 to 20)
#    0.000    1.846    6.154    0.923    0.000    1.231 
#    0.000    0.000    0.000    0.923    4.000    0.000 
#    0.000    0.000    0.000    0.000    0.000    0.000 
#
# Total GULP energy -322384.636734 kJ/mol
# GULP energy per Si atom -12399.409105 kJ/mol
# Density = 1.833345 g / cm^3
# Si number density = 18.375273 Si / 1000 Ang^3
#
#
#
# Elastic Constant Matrix: (Units=GPa)
#
#
# Indices 1 2 3 4 5 6 
#
# 1 98.7272 44.9490 41.6298 0.0000 -0.5154 0.0000
# 2 44.9490 88.7338 41.7187 0.0000 1.5490 0.0000
# 3 41.6298 41.7187 100.3913 0.0000 -1.2657 0.0000
# 4 0.0000 0.0000 0.0000 27.2618 0.0000 0.0926
# 5 -0.5154 1.5490 -1.2657 0.0000 25.0900 0.0000
# 6 0.0000 0.0000 0.0000 0.0926 0.0000 18.5665
#
#
#
# Elastic Compliance Matrix: (Units=1/GPa)
#
#
# Indices 1 2 3 4 5 6 
#
# 1 0.014138 -0.005488 -0.003576 0.000000 0.000449 0.000000
# 2 -0.005488 0.016170 -0.004461 0.000000 -0.001336 0.000000
# 3 -0.003576 -0.004461 0.013309 0.000000 0.000873 0.000000
# 4 0.000000 0.000000 0.000000 0.036682 0.000000 -0.000183
# 5 0.000449 -0.001336 0.000873 0.000000 0.039992 0.000000
# 6 0.000000 0.000000 0.000000 -0.000183 0.000000 0.053861
#
#
# Mechanical properties :
#
#
# Convention : Reuss Voigt Hill
#
# Bulk Modulus (GPa) = 60.36277 60.49416 60.42846
# Shear Modulus (GPa) = 24.18665 24.82062 24.50364
#
# Velocity S-wave (km/s) = 3.63197 3.67926 3.65569
# Velocity P-wave (km/s) = 7.10701 7.14438 7.12572
#
# Compressibility (1/GPa) = 0.01656650
#
# Stress axis : x y z
#
# Youngs Moduli (GPa) = 70.73164 61.84164 75.13828
#
# Poissons Ratio (x) = 0.33939 0.26872
# Poissons Ratio (y) = 0.38818 0.33518
# Poissons Ratio (z) = 0.25296 0.27586
#
# Static dielectric constant tensor:
#      x y z
#    x 3.394860 0.000000 -0.135260 
#    y 0.000000 3.221950 0.000000 
#    z -0.135260 0.000000 3.534080 
# 
# 
# High freq. dielectric constant tensor:
#      x y z
#    x 1.711780 0.000000 -0.015780 
#    y 0.000000 1.677860 0.000000 
#    z -0.015780 0.000000 1.710890 
# 
# From -- ./inp_files/98438.got.cif
#   From: 2010.06.25/outbox.cif.g09.slc.cpg/sg15_50_cif.got.tgz:98438.got - 2010.06.28 07:06:18.
