data_PCOD8131275
_publ_section_title
;
Structure prediction by ZEFSAII (Michael W. Deem and Ramdas Pophale) SiO2 
 PCOD8131275
Probable space group: C 2/C
;
_chemical_formula_sum "Si O2"
_cell_formula_units_Z 64
_cell_length_a 11.481207
_cell_length_b 28.714335
_cell_length_c 9.449626
_cell_angle_alpha 90.000000
_cell_angle_beta 86.645784
_cell_angle_gamma 90.000000
_cell_volume 3109.970734
_symmetry_space_group_name_H-M "C 2/C"
_symmetry_group_IT_number 15
_symmetry_cell_setting 'monoclinic'
loop_
_space_group_symop_operation_xyz
x,y,z
-x,y,1/2-z
-x,-y,-z
x,-y,1/2+z
1/2+x,1/2+y,z
1/2-x,1/2+y,1/2-z
1/2-x,1/2-y,-z
1/2+x,1/2-y,1/2+z
loop_
_atom_site_type_symbol
_atom_site_label
_atom_site_fract_x
_atom_site_fract_y
_atom_site_fract_z
Si Si1 0.482931 0.304119 0.094485
Si Si2 0.204969 0.866154 0.042859
Si Si3 0.949080 0.718365 0.907937
Si Si4 0.270241 0.464933 0.385398
Si Si5 0.010995 0.566608 0.903945
Si Si6 0.749758 0.852781 0.144051
Si Si7 0.765327 0.455790 0.422270
Si Si8 0.559686 0.148104 0.095188
O O1 0.500000 0.281152 0.250000
O O2 0.600347 0.329652 0.030938
O O3 0.386201 0.343454 0.117977
O O4 0.432547 0.268226 0.983556
O O5 0.163900 0.920648 0.045979
O O6 0.275777 0.860128 0.186719
O O7 0.299190 0.858500 0.909592
O O8 0.828661 0.689274 0.910837
O O9 0.000000 0.727017 0.750000
O O10 0.042809 0.693383 0.000217
O O11 0.131601 0.459749 0.412296
O O12 0.301202 0.468328 0.218294
O O13 0.304320 0.514125 0.455708
O O14 0.000000 0.592261 0.750000
O O15 0.903056 0.529830 0.916996
O O16 0.996310 0.604402 0.028099
O O17 0.730939 0.899957 0.055255
O O18 0.500000 0.156110 0.250000
#
# Coordination Sequence:
#
# PCOD8131275 Si02
#       8
#     8   8   8   8   8   8   8   8
#     4  10  23  43  64  87 114 157 207 250 290 354
#     4   9  20  41  60  84 123 158 196 242 302 354
#     4  12  22  40  62  88 121 153 195 243 307 357
#     4   9  19  31  54  82 114 156 194 236 295 353
#     4   9  17  32  51  76 117 154 190 235 298 353
#     4  10  20  40  66  84 116 161 200 241 300 358
#     4  10  18  32  54  83 116 154 194 240 290 350
#     4  11  21  34  57  89 117 155 191 241 291 348
#
# _framework density 20.578970999999999
#
# number of rings (size 3 to 8) (size 9 to 14) (size 15 to 20)
#    0.000    2.000    2.500    2.250    0.000    2.500 
#    4.500    1.250    0.000    0.000    0.000    0.000 
#    0.000    0.000    0.000    0.000    0.000    0.000 
#
# Total GULP energy -396537.209506 kJ/mol
# GULP energy per Si atom -12391.787797 kJ/mol
# Density = 2.053213 g / cm^3
# Si number density = 20.578971 Si / 1000 Ang^3
#
#
#
# Elastic Constant Matrix: (Units=GPa)
#
#
# Indices 1 2 3 4 5 6 
#
# 1 61.8642 26.7862 28.6955 0.0000 -7.1765 0.0000
# 2 26.7862 102.8557 49.9386 0.0000 1.4529 0.0000
# 3 28.6955 49.9386 104.9015 0.0000 -12.1402 0.0000
# 4 0.0000 0.0000 0.0000 32.2960 0.0000 -2.8941
# 5 -7.1765 1.4529 -12.1402 0.0000 21.0795 0.0000
# 6 0.0000 0.0000 0.0000 -2.8941 0.0000 10.2409
#
#
#
# Elastic Compliance Matrix: (Units=1/GPa)
#
#
# Indices 1 2 3 4 5 6 
#
# 1 0.019805 -0.003769 -0.003014 0.000000 0.005267 0.000000
# 2 -0.003769 0.013802 -0.006212 0.000000 -0.005812 0.000000
# 3 -0.003014 -0.006212 0.014191 0.000000 0.007575 0.000000
# 4 0.000000 0.000000 0.000000 0.031768 0.000000 0.008978
# 5 0.005267 -0.005812 0.007575 0.000000 0.053996 0.000000
# 6 0.000000 0.000000 0.000000 0.008978 0.000000 0.100185
#
#
# Mechanical properties :
#
#
# Convention : Reuss Voigt Hill
#
# Bulk Modulus (GPa) = 45.85364 53.38465 49.61914
# Shear Modulus (GPa) = 18.72612 23.67002 21.19807
#
# Velocity S-wave (km/s) = 3.01983 3.39515 3.21297
# Velocity P-wave (km/s) = 5.87276 6.43172 6.15859
#
# Compressibility (1/GPa) = 0.02180852
#
# Stress axis : x y z
#
# Youngs Moduli (GPa) = 50.49163 72.45264 70.46597
#
# Poissons Ratio (x) = 0.27306 0.21239
# Poissons Ratio (y) = 0.19029 0.43775
# Poissons Ratio (z) = 0.15218 0.45009
#
# Static dielectric constant tensor:
#      x y z
#    x 3.501140 0.000000 0.046050 
#    y 0.000000 3.674580 0.000000 
#    z 0.046050 0.000000 3.696580 
# 
# 
# High freq. dielectric constant tensor:
#      x y z
#    x 1.783890 0.000000 -0.000600 
#    y 0.000000 1.800440 0.000000 
#    z -0.000600 0.000000 1.788020 
# 
# From -- ./inp_files/35659.got.cif
#   From: 2010.06.25/outbox.cif.g09.slc.cpg/sg15_18_cif.got.tgz:35659.got - 2010.06.28 07:06:18.
