data_PCOD8131891
_publ_section_title
;
Structure prediction by ZEFSAII (Michael W. Deem and Ramdas Pophale) SiO2 
 PCOD8131891
Probable space group: C 2/C
;
_chemical_formula_sum "Si O2"
_cell_formula_units_Z 60
_cell_length_a 8.200207
_cell_length_b 13.951390
_cell_length_c 24.328539
_cell_angle_alpha 90.000000
_cell_angle_beta 101.385547
_cell_angle_gamma 90.000000
_cell_volume 2728.516794
_symmetry_space_group_name_H-M "C 2/C"
_symmetry_group_IT_number 15
_symmetry_cell_setting 'monoclinic'
loop_
_space_group_symop_operation_xyz
x,y,z
-x,y,1/2-z
-x,-y,-z
x,-y,1/2+z
1/2+x,1/2+y,z
1/2-x,1/2+y,1/2-z
1/2-x,1/2-y,-z
1/2+x,1/2-y,1/2+z
loop_
_atom_site_type_symbol
_atom_site_label
_atom_site_fract_x
_atom_site_fract_y
_atom_site_fract_z
Si Si1 0.345933 0.151187 0.895893
Si Si2 0.118579 0.669621 0.006004
Si Si3 0.236043 0.834069 0.817883
Si Si4 0.000000 0.021667 0.250000
Si Si5 0.171557 0.955663 0.914407
Si Si6 0.607732 0.441076 0.141974
Si Si7 0.066464 0.365780 0.310050
Si Si8 0.971710 0.737855 0.108085
O O1 0.499533 0.152439 0.947222
O O2 0.413622 0.158247 0.839027
O O3 0.224969 0.243459 0.896116
O O4 0.249960 0.051281 0.893742
O O5 0.250000 0.750000 0.000000
O O6 0.231778 0.573637 0.023631
O O7 0.001019 0.691133 0.050334
O O8 0.179714 0.863543 0.875484
O O9 0.162217 0.730723 0.798645
O O10 0.439779 0.826287 0.837253
O O11 0.165271 0.911857 0.770020
O O12 0.034472 0.956369 0.199015
O O13 0.973291 0.980383 0.905490
O O14 0.808177 0.444714 0.155050
O O15 0.564644 0.338443 0.114700
O O16 0.000000 0.413586 0.250000
#
# Coordination Sequence:
#
# PCOD8131891 Si02
#       8
#     8   8   8   4   8   8   8   8
#     4  11  22  39  62  92 125 164 206 265 318 372
#     4  11  21  40  68  90 122 165 210 258 323 388
#     4   9  18  38  58  86 118 159 205 251 313 379
#     4  10  18  34  66  82 120 168 202 272 314 374
#     4   9  20  38  63  89 122 156 197 263 317 369
#     4   9  20  36  59  85 121 155 211 246 322 368
#     4  11  23  38  61  88 125 167 214 256 309 385
#     4   9  20  38  60  89 124 158 204 257 316 381
#
# _framework density 21.989968000000001
#
# number of rings (size 3 to 8) (size 9 to 14) (size 15 to 20)
#    0.000    2.133    0.667    3.200    5.600    0.000 
#    0.000   15.333    2.933    0.000    0.000    0.000 
#    0.000    0.000    0.000    0.000    0.000    0.000 
#
# Total GULP energy -371650.740428 kJ/mol
# GULP energy per Si atom -12388.358014 kJ/mol
# Density = 2.193992 g / cm^3
# Si number density = 21.989968 Si / 1000 Ang^3
#
#
#
# Elastic Constant Matrix: (Units=GPa)
#
#
# Indices 1 2 3 4 5 6 
#
# 1 105.8588 18.8233 42.9961 0.0000 14.8613 0.0000
# 2 18.8233 50.5598 14.6131 0.0000 10.5693 0.0000
# 3 42.9961 14.6131 99.9662 0.0000 20.9763 0.0000
# 4 0.0000 0.0000 0.0000 31.7817 0.0000 13.9479
# 5 14.8613 10.5693 20.9763 0.0000 40.8476 0.0000
# 6 0.0000 0.0000 0.0000 13.9479 0.0000 35.1562
#
#
#
# Elastic Compliance Matrix: (Units=1/GPa)
#
#
# Indices 1 2 3 4 5 6 
#
# 1 0.011949 -0.002889 -0.004440 0.000000 -0.001320 0.000000
# 2 -0.002889 0.022030 -0.001123 0.000000 -0.004072 0.000000
# 3 -0.004440 -0.001123 0.013088 0.000000 -0.004815 0.000000
# 4 0.000000 0.000000 0.000000 0.038098 0.000000 -0.015115
# 5 -0.001320 -0.004072 -0.004815 0.000000 0.028488 0.000000
# 6 0.000000 0.000000 0.000000 -0.015115 0.000000 0.034441
#
#
# Mechanical properties :
#
#
# Convention : Reuss Voigt Hill
#
# Bulk Modulus (GPa) = 33.15481 45.47218 39.31350
# Shear Modulus (GPa) = 28.56285 33.55394 31.05839
#
# Velocity S-wave (km/s) = 3.60794 3.91048 3.76225
# Velocity P-wave (km/s) = 5.69792 6.41192 6.06543
#
# Compressibility (1/GPa) = 0.03016153
#
# Stress axis : x y z
#
# Youngs Moduli (GPa) = 83.68921 45.39229 76.40848
#
# Poissons Ratio (x) = 0.13116 0.33926
# Poissons Ratio (y) = 0.24181 0.08581
# Poissons Ratio (z) = 0.37158 0.05098
#
# Static dielectric constant tensor:
#      x y z
#    x 4.522550 0.000000 0.870750 
#    y 0.000000 4.026270 0.000000 
#    z 0.870750 0.000000 4.296150 
# 
# 
# High freq. dielectric constant tensor:
#      x y z
#    x 1.853580 0.000000 0.041320 
#    y 0.000000 1.854500 0.000000 
#    z 0.041320 0.000000 1.866770 
# 
# From -- ./inp_files/264749.got.cif
#   From: 2010.06.25/outbox.cif.g09.slc.cpg/sg15_133_cif.got.tgz:264749.got - 2010.06.28 07:06:18.
