data_PCOD8131028
_publ_section_title
;
Structure prediction by ZEFSAII (Michael W. Deem and Ramdas Pophale) SiO2 
 PCOD8131028
Probable space group: C 2/C
;
_chemical_formula_sum "Si O2"
_cell_formula_units_Z 48
_cell_length_a 20.721405
_cell_length_b 13.836554
_cell_length_c 9.802014
_cell_angle_alpha 90.000000
_cell_angle_beta 109.897432
_cell_angle_gamma 90.000000
_cell_volume 2642.594082
_symmetry_space_group_name_H-M "C 2/C"
_symmetry_group_IT_number 15
_symmetry_cell_setting 'monoclinic'
loop_
_space_group_symop_operation_xyz
x,y,z
-x,y,1/2-z
-x,-y,-z
x,-y,1/2+z
1/2+x,1/2+y,z
1/2-x,1/2+y,1/2-z
1/2-x,1/2-y,-z
1/2+x,1/2-y,1/2+z
loop_
_atom_site_type_symbol
_atom_site_label
_atom_site_fract_x
_atom_site_fract_y
_atom_site_fract_z
Si Si1 0.431120 0.451391 0.634414
Si Si2 0.854186 0.045842 0.354793
Si Si3 0.801386 0.768634 0.739263
Si Si4 0.822844 0.393982 0.954542
Si Si5 0.428533 0.764418 0.133496
Si Si6 0.718080 0.941886 0.276502
O O1 0.500000 0.491703 0.750000
O O2 0.417339 0.523234 0.498959
O O3 0.371940 0.455392 0.706749
O O4 0.442509 0.342812 0.583591
O O5 0.824255 0.152609 0.369010
O O6 0.798067 0.965337 0.345227
O O7 0.737625 0.814821 0.609223
O O8 0.867863 0.744973 0.697983
O O9 0.782299 0.665379 0.792032
O O10 0.822084 0.479284 0.842915
O O11 0.897577 0.339919 0.999529
O O12 0.814258 0.442689 0.096398
O O13 0.500000 0.804121 0.250000
#
# Coordination Sequence:
#
# PCOD8131028 Si02
#       6
#     8   8   8   8   8   8
#     4  10  19  31  49  72  99 127 157 193 238 289
#     4  10  18  31  49  72  95 125 159 196 236 282
#     4   9  18  32  51  70  98 129 159 196 238 287
#     4  10  19  33  52  73  97 126 161 201 238 281
#     4   9  17  31  51  72  94 128 165 194 233 289
#     4  10  18  32  51  71  95 125 161 200 238 278
#
# _framework density 18.163971
#
# number of rings (size 3 to 8) (size 9 to 14) (size 15 to 20)
#    0.000    2.333    0.000    6.500    0.000    0.000 
#    0.000   12.500    0.000    1.000    0.000    0.000 
#    0.000    0.000    0.000    0.000    0.000    0.000 
#
# Total GULP energy -297361.503478 kJ/mol
# GULP energy per Si atom -12390.062645 kJ/mol
# Density = 1.812263 g / cm^3
# Si number density = 18.163971 Si / 1000 Ang^3
#
#
#
# Elastic Constant Matrix: (Units=GPa)
#
#
# Indices 1 2 3 4 5 6 
#
# 1 55.6350 29.7248 29.1253 0.0000 29.1419 0.0000
# 2 29.7248 134.7139 65.1472 0.0000 22.6792 0.0000
# 3 29.1253 65.1472 96.6694 0.0000 22.9313 0.0000
# 4 0.0000 0.0000 0.0000 34.7404 0.0000 6.5930
# 5 29.1419 22.6792 22.9313 0.0000 34.4412 0.0000
# 6 0.0000 0.0000 0.0000 6.5930 0.0000 25.6132
#
#
#
# Elastic Compliance Matrix: (Units=1/GPa)
#
#
# Indices 1 2 3 4 5 6 
#
# 1 0.033804 -0.001731 -0.002973 0.000000 -0.025483 0.000000
# 2 -0.001731 0.011323 -0.006755 0.000000 -0.001494 0.000000
# 3 -0.002973 -0.006755 0.016793 0.000000 -0.004217 0.000000
# 4 0.000000 0.000000 0.000000 0.030263 0.000000 -0.007790
# 5 -0.025483 -0.001494 -0.004217 0.000000 0.054389 0.000000
# 6 0.000000 0.000000 0.000000 -0.007790 0.000000 0.041048
#
#
# Mechanical properties :
#
#
# Convention : Reuss Voigt Hill
#
# Bulk Modulus (GPa) = 25.63979 59.44590 42.54284
# Shear Modulus (GPa) = 22.36745 29.82701 26.09723
#
# Velocity S-wave (km/s) = 3.51296 4.05668 3.79457
# Velocity P-wave (km/s) = 5.53181 7.39869 6.53229
#
# Compressibility (1/GPa) = 0.03900188
#
# Stress axis : x y z
#
# Youngs Moduli (GPa) = 29.58238 88.31330 59.54851
#
# Poissons Ratio (x) = 0.15286 0.17705
# Poissons Ratio (y) = 0.05120 0.40225
# Poissons Ratio (z) = 0.08796 0.59656
#
# Static dielectric constant tensor:
#      x y z
#    x 3.311640 0.000000 0.321600 
#    y 0.000000 3.916350 0.000000 
#    z 0.321600 0.000000 3.215180 
# 
# 
# High freq. dielectric constant tensor:
#      x y z
#    x 1.690500 0.000000 0.026920 
#    y 0.000000 1.711740 0.000000 
#    z 0.026920 0.000000 1.679450 
# 
# From -- ./inp_files/55415.got.cif
#   From: 2010.06.25/outbox.cif.g09.slc.cpg/sg15_28_cif.got.tgz:55415.got - 2010.06.28 07:06:18.
