data_PCOD8131324
_publ_section_title
;
Structure prediction by ZEFSAII (Michael W. Deem and Ramdas Pophale) SiO2 
 PCOD8131324
Probable space group: C 2/C
;
_chemical_formula_sum "Si O2"
_cell_formula_units_Z 44
_cell_length_a 26.854485
_cell_length_b 8.444119
_cell_length_c 16.638970
_cell_angle_alpha 90.000000
_cell_angle_beta 41.241062
_cell_angle_gamma 90.000000
_cell_volume 2487.331106
_symmetry_space_group_name_H-M "C 2/C"
_symmetry_group_IT_number 15
_symmetry_cell_setting 'monoclinic'
loop_
_space_group_symop_operation_xyz
x,y,z
-x,y,1/2-z
-x,-y,-z
x,-y,1/2+z
1/2+x,1/2+y,z
1/2-x,1/2+y,1/2-z
1/2-x,1/2-y,-z
1/2+x,1/2-y,1/2+z
loop_
_atom_site_type_symbol
_atom_site_label
_atom_site_fract_x
_atom_site_fract_y
_atom_site_fract_z
Si Si1 0.573917 0.214534 0.527706
Si Si2 0.054828 0.221170 0.428727
Si Si3 0.314116 0.272629 0.236014
Si Si4 0.566100 0.585926 0.815353
Si Si5 0.328380 0.955139 0.142339
Si Si6 0.000000 0.082875 0.250000
O O1 0.497484 0.181190 0.570212
O O2 0.628749 0.325559 0.406079
O O3 0.556477 0.304547 0.631340
O O4 0.615686 0.044528 0.489436
O O5 0.127994 0.322501 0.360820
O O6 0.008756 0.179085 0.565501
O O7 0.083173 0.063646 0.351099
O O8 0.358931 0.304045 0.265845
O O9 0.238569 0.375702 0.326364
O O10 0.296664 0.085063 0.245194
O O11 0.552668 0.529303 0.740647
#
# Coordination Sequence:
#
# PCOD8131324 Si02
#       6
#     8   8   8   8   8   4
#     4   8  19  31  54  79 100 143 171 217 260 314
#     4   9  16  32  55  80  99 132 189 220 256 297
#     4   9  19  31  52  81 102 138 178 218 266 299
#     4   9  18  31  54  78 104 139 175 220 258 318
#     4  10  18  32  57  80 107 130 179 231 255 308
#     4  10  18  36  52  76 114 142 176 210 268 324
#
# _framework density 17.689643
#
# number of rings (size 3 to 8) (size 9 to 14) (size 15 to 20)
#    1.091    1.818    0.000    2.727    0.000    0.000 
#    0.000    1.818    0.000    2.182    0.000    0.000 
#    0.000    0.000    0.000    0.000    0.000    0.000 
#
# Total GULP energy -272544.376962 kJ/mol
# GULP energy per Si atom -12388.380771 kJ/mol
# Density = 1.764938 g / cm^3
# Si number density = 17.689643 Si / 1000 Ang^3
#
#
#
# Elastic Constant Matrix: (Units=GPa)
#
#
# Indices 1 2 3 4 5 6 
#
# 1 106.6622 41.7906 31.5433 -0.0054 -6.0945 0.0060
# 2 41.7906 79.7091 14.3425 -0.0033 -7.0257 0.0033
# 3 31.5433 14.3425 37.5845 0.0062 0.6353 -0.0056
# 4 -0.0054 -0.0033 0.0062 28.2607 0.0092 -9.4636
# 5 -6.0945 -7.0257 0.6353 0.0092 27.3450 -0.0126
# 6 0.0060 0.0033 -0.0056 -9.4636 -0.0126 25.7334
#
#
#
# Elastic Compliance Matrix: (Units=1/GPa)
#
#
# Indices 1 2 3 4 5 6 
#
# 1 0.014761 -0.005715 -0.010243 0.000003 0.002060 -0.000003
# 2 -0.005715 0.016043 -0.001375 0.000000 0.002880 0.000001
# 3 -0.010243 -0.001375 0.035786 -0.000007 -0.003467 0.000006
# 4 0.000003 0.000000 -0.000007 0.040354 -0.000006 0.014841
# 5 0.002060 0.002880 -0.003467 -0.000006 0.037849 0.000015
# 6 -0.000003 0.000001 0.000006 0.014841 0.000015 0.044318
#
#
# Mechanical properties :
#
#
# Convention : Reuss Voigt Hill
#
# Bulk Modulus (GPa) = 31.32202 44.36762 37.84482
# Shear Modulus (GPa) = 21.32946 25.35311 23.34128
#
# Velocity S-wave (km/s) = 3.47617 3.78989 3.63642
# Velocity P-wave (km/s) = 5.81864 6.65482 6.25073
#
# Compressibility (1/GPa) = 0.03192642
#
# Stress axis : x y z
#
# Youngs Moduli (GPa) = 67.74579 62.33283 27.94379
#
# Poissons Ratio (x) = 0.35620 0.28621
# Poissons Ratio (y) = 0.38713 0.03842
# Poissons Ratio (z) = 0.69389 0.08570
#
# Static dielectric constant tensor:
#      x y z
#    x 3.148470 -0.000020 -0.166540 
#    y -0.000020 3.261450 0.000020 
#    z -0.166540 0.000020 2.944140 
# 
# 
# High freq. dielectric constant tensor:
#      x y z
#    x 1.674630 0.000000 -0.024500 
#    y 0.000000 1.685450 0.000000 
#    z -0.024500 0.000000 1.642850 
# 
# From -- ./inp_files/221615.got.cif
#   From: 2010.06.25/outbox.cif.g09.slc.cpg/sg15_111_cif.got.tgz:221615.got - 2010.06.28 07:06:18.
