data_PCOD8131762
_publ_section_title
;
Structure prediction by ZEFSAII (Michael W. Deem and Ramdas Pophale) SiO2 
 PCOD8131762
Probable space group: C 2/C
;
_chemical_formula_sum "Si O2"
_cell_formula_units_Z 64
_cell_length_a 15.302748
_cell_length_b 12.124289
_cell_length_c 18.621998
_cell_angle_alpha 90.000000
_cell_angle_beta 82.433363
_cell_angle_gamma 90.000000
_cell_volume 3424.946183
_symmetry_space_group_name_H-M "C 2/C"
_symmetry_group_IT_number 15
_symmetry_cell_setting 'monoclinic'
loop_
_space_group_symop_operation_xyz
x,y,z
-x,y,1/2-z
-x,-y,-z
x,-y,1/2+z
1/2+x,1/2+y,z
1/2-x,1/2+y,1/2-z
1/2-x,1/2-y,-z
1/2+x,1/2-y,1/2+z
loop_
_atom_site_type_symbol
_atom_site_label
_atom_site_fract_x
_atom_site_fract_y
_atom_site_fract_z
Si Si1 0.855089 0.092045 0.991346
Si Si2 0.957059 0.732512 0.555468
Si Si3 0.845113 0.998680 0.145415
Si Si4 0.695885 0.069993 0.913528
Si Si5 0.304071 0.423820 0.800167
Si Si6 0.863956 0.640511 0.996223
Si Si7 0.535671 0.559386 0.119407
Si Si8 0.756368 0.787106 0.113360
O O1 0.918631 0.197416 0.992750
O O2 0.819114 0.057419 0.073615
O O3 0.775863 0.128148 0.947804
O O4 0.908052 0.986456 0.954273
O O5 0.878277 0.659893 0.599417
O O6 0.030698 0.650147 0.517774
O O7 0.001489 0.816001 0.608031
O O8 0.805001 0.877640 0.155791
O O9 0.804916 0.071603 0.214196
O O10 0.950402 0.984198 0.141792
O O11 0.733500 0.012642 0.837780
O O12 0.657318 0.979538 0.971912
O O13 0.402846 0.447128 0.817610
O O14 0.278858 0.301862 0.826990
O O15 0.825807 0.736076 0.050600
O O16 0.823907 0.656767 0.921170
#
# Coordination Sequence:
#
# PCOD8131762 Si02
#       8
#     8   8   8   8   8   8   8   8
#     4  10  20  35  55  81 114 142 183 232 279 325
#     4  11  19  31  56  86 111 137 179 234 284 309
#     4  11  20  33  57  83 107 144 186 227 274 332
#     4  10  21  35  53  83 115 144 182 231 276 333
#     4  10  22  37  54  80 112 145 185 224 278 336
#     4  10  18  34  58  83 107 142 192 228 268 330
#     4  10  20  36  57  83 110 140 187 233 270 327
#     4  10  19  35  58  80 108 147 185 228 274 328
#
# _framework density 18.686425
#
# number of rings (size 3 to 8) (size 9 to 14) (size 15 to 20)
#    0.000    1.750    2.500    4.125    0.000    2.000 
#    0.000    0.000    0.000    0.000    0.000    0.000 
#    0.000    0.000    0.000    0.000    0.000    0.000 
#
# Total GULP energy -396795.229559 kJ/mol
# GULP energy per Si atom -12399.850924 kJ/mol
# Density = 1.864389 g / cm^3
# Si number density = 18.686425 Si / 1000 Ang^3
#
#
#
# Elastic Constant Matrix: (Units=GPa)
#
#
# Indices 1 2 3 4 5 6 
#
# 1 96.2764 38.8091 28.6378 0.0000 -14.5392 0.0000
# 2 38.8091 74.3674 29.9687 0.0000 -0.9618 0.0000
# 3 28.6378 29.9687 105.1079 0.0000 -1.0584 0.0000
# 4 0.0000 0.0000 0.0000 17.9726 0.0000 -3.1449
# 5 -14.5392 -0.9618 -1.0584 0.0000 15.5612 0.0000
# 6 0.0000 0.0000 0.0000 -3.1449 0.0000 41.8857
#
#
#
# Elastic Compliance Matrix: (Units=1/GPa)
#
#
# Indices 1 2 3 4 5 6 
#
# 1 0.016208 -0.007400 -0.002160 0.000000 0.014539 0.000000
# 2 -0.007400 0.018577 -0.003341 0.000000 -0.005993 0.000000
# 3 -0.002160 -0.003341 0.011040 0.000000 -0.001474 0.000000
# 4 0.000000 0.000000 0.000000 0.056381 0.000000 0.004233
# 5 0.014539 -0.005993 -0.001474 0.000000 0.077376 0.000000
# 6 0.000000 0.000000 0.000000 0.004233 0.000000 0.024192
#
#
# Mechanical properties :
#
#
# Convention : Reuss Voigt Hill
#
# Bulk Modulus (GPa) = 49.93955 52.28699 51.11327
# Shear Modulus (GPa) = 21.16406 26.97298 24.06852
#
# Velocity S-wave (km/s) = 3.36905 3.80340 3.59280
# Velocity P-wave (km/s) = 6.47434 6.87967 6.68008
#
# Compressibility (1/GPa) = 0.02002421
#
# Stress axis : x y z
#
# Youngs Moduli (GPa) = 61.69947 53.82943 90.57775
#
# Poissons Ratio (x) = 0.39832 0.19562
# Poissons Ratio (y) = 0.45656 0.30262
# Poissons Ratio (z) = 0.13325 0.17984
#
# Static dielectric constant tensor:
#      x y z
#    x 3.625780 0.000000 -0.104540 
#    y 0.000000 3.392630 0.000000 
#    z -0.104540 0.000000 3.198370 
# 
# 
# High freq. dielectric constant tensor:
#      x y z
#    x 1.732330 0.000000 -0.008170 
#    y 0.000000 1.720240 0.000000 
#    z -0.008170 0.000000 1.702580 
# 
# From -- ./inp_files/243724.got.cif
#   From: 2010.06.25/outbox.cif.g09.slc.cpg/sg15_122_cif.got.tgz:243724.got - 2010.06.28 07:06:18.
