data_PCOD8131585
_publ_section_title
;
Structure prediction by ZEFSAII (Michael W. Deem and Ramdas Pophale) SiO2 
 PCOD8131585
Probable space group: C 2/C
;
_chemical_formula_sum "Si O2"
_cell_formula_units_Z 44
_cell_length_a 16.147908
_cell_length_b 11.997903
_cell_length_c 8.415484
_cell_angle_alpha 90.000000
_cell_angle_beta 91.941701
_cell_angle_gamma 90.000000
_cell_volume 1629.488414
_symmetry_space_group_name_H-M "C 2/C"
_symmetry_group_IT_number 15
_symmetry_cell_setting 'monoclinic'
loop_
_space_group_symop_operation_xyz
x,y,z
-x,y,1/2-z
-x,-y,-z
x,-y,1/2+z
1/2+x,1/2+y,z
1/2-x,1/2+y,1/2-z
1/2-x,1/2-y,-z
1/2+x,1/2-y,1/2+z
loop_
_atom_site_type_symbol
_atom_site_label
_atom_site_fract_x
_atom_site_fract_y
_atom_site_fract_z
Si Si1 0.903483 0.842090 0.750345
Si Si2 0.062688 0.455098 0.134333
Si Si3 0.628569 0.847964 0.854304
Si Si4 0.366527 0.457127 0.428139
Si Si5 0.000000 0.177448 0.750000
Si Si6 0.257493 0.209908 0.678959
O O1 0.868665 0.926842 0.613610
O O2 0.855612 0.721477 0.732014
O O3 0.000000 0.818520 0.750000
O O4 0.876686 0.909308 0.908658
O O5 0.108267 0.554210 0.229312
O O6 0.000000 0.387700 0.250000
O O7 0.134025 0.388236 0.039405
O O8 0.000000 0.500000 0.000000
O O9 0.556609 0.756517 0.860793
O O10 0.712770 0.791182 0.801303
O O11 0.447567 0.398680 0.363074
O O12 0.282624 0.413868 0.330282
O O13 0.250000 0.250000 0.500000
#
# Coordination Sequence:
#
# PCOD8131585 Si02
#       6
#     8   8   8   8   4   8
#     4  11  22  42  71  99 130 182 236 283 345 420
#     4   9  16  30  54  89 124 170 225 268 337 420
#     4  10  18  33  60  84 134 174 225 278 353 415
#     4  10  22  40  70  94 132 174 229 287 348 409
#     4  10  18  34  60  88 124 172 216 270 350 402
#     4   9  22  41  64  97 136 180 229 292 356 414
#
# _framework density 27.002338000000002
#
# number of rings (size 3 to 8) (size 9 to 14) (size 15 to 20)
#    0.000    2.182    3.636    0.545    0.000    2.909 
#    0.000    1.818    8.000    0.000    2.364    1.273 
#    0.000    0.000    0.000    0.000    0.000    0.000 
#
# Total GULP energy -272537.759523 kJ/mol
# GULP energy per Si atom -12388.079978 kJ/mol
# Density = 2.694088 g / cm^3
# Si number density = 27.002338 Si / 1000 Ang^3
#
#
#
# Elastic Constant Matrix: (Units=GPa)
#
#
# Indices 1 2 3 4 5 6 
#
# 1 168.7946 33.1468 22.1346 0.0000 6.1349 0.0000
# 2 33.1468 65.8494 10.8184 0.0000 8.5687 0.0000
# 3 22.1346 10.8184 117.3632 0.0000 -19.8009 0.0000
# 4 0.0000 0.0000 0.0000 23.8359 0.0000 -0.8040
# 5 6.1349 8.5687 -19.8009 0.0000 42.2788 0.0000
# 6 0.0000 0.0000 0.0000 -0.8040 0.0000 13.7905
#
#
#
# Elastic Compliance Matrix: (Units=1/GPa)
#
#
# Indices 1 2 3 4 5 6 
#
# 1 0.006709 -0.003077 -0.001130 0.000000 -0.000879 0.000000
# 2 -0.003077 0.017520 -0.001692 0.000000 -0.003897 0.000000
# 3 -0.001130 -0.001692 0.009745 0.000000 0.005071 0.000000
# 4 0.000000 0.000000 0.000000 0.042036 0.000000 0.002451
# 5 -0.000879 -0.003897 0.005071 0.000000 0.026945 0.000000
# 6 0.000000 0.000000 0.000000 0.002451 0.000000 0.072657
#
#
# Mechanical properties :
#
#
# Convention : Reuss Voigt Hill
#
# Bulk Modulus (GPa) = 45.09386 53.80076 49.44731
# Shear Modulus (GPa) = 25.66711 35.04153 30.35432
#
# Velocity S-wave (km/s) = 3.08645 3.60630 3.35645
# Velocity P-wave (km/s) = 5.42566 6.10805 5.77694
#
# Compressibility (1/GPa) = 0.02217597
#
# Stress axis : x y z
#
# Youngs Moduli (GPa) = 149.05982 57.07730 102.61472
#
# Poissons Ratio (x) = 0.17562 0.11595
# Poissons Ratio (y) = 0.45865 0.17364
# Poissons Ratio (z) = 0.16843 0.09658
#
# Static dielectric constant tensor:
#      x y z
#    x 5.451340 0.000000 -0.184850 
#    y 0.000000 4.557200 0.000000 
#    z -0.184850 0.000000 5.656680 
# 
# 
# High freq. dielectric constant tensor:
#      x y z
#    x 2.087570 0.000000 -0.006470 
#    y 0.000000 2.076830 0.000000 
#    z -0.006470 0.000000 2.102130 
# 
# From -- ./inp_files/47148.got.cif
#   From: 2010.06.25/outbox.cif.g09.slc.cpg/sg15_24_cif.got.tgz:47148.got - 2010.06.28 07:06:18.
