data_PCOD8131570
_publ_section_title
;
Structure prediction by ZEFSAII (Michael W. Deem and Ramdas Pophale) SiO2 
 PCOD8131570
Probable space group: C 2/C
;
_chemical_formula_sum "Si O2"
_cell_formula_units_Z 60
_cell_length_a 13.874684
_cell_length_b 27.758273
_cell_length_c 7.846341
_cell_angle_alpha 90.000000
_cell_angle_beta 96.234257
_cell_angle_gamma 90.000000
_cell_volume 3004.047344
_symmetry_space_group_name_H-M "C 2/C"
_symmetry_group_IT_number 15
_symmetry_cell_setting 'monoclinic'
loop_
_space_group_symop_operation_xyz
x,y,z
-x,y,1/2-z
-x,-y,-z
x,-y,1/2+z
1/2+x,1/2+y,z
1/2-x,1/2+y,1/2-z
1/2-x,1/2-y,-z
1/2+x,1/2-y,1/2+z
loop_
_atom_site_type_symbol
_atom_site_label
_atom_site_fract_x
_atom_site_fract_y
_atom_site_fract_z
Si Si1 0.778864 0.515236 0.410371
Si Si2 0.805457 0.069143 0.791512
Si Si3 0.363696 0.339725 0.818110
Si Si4 0.857557 0.741215 0.962098
Si Si5 0.310102 0.137891 0.964711
Si Si6 0.000000 0.780997 0.250000
Si Si7 0.940680 0.861578 0.478309
Si Si8 0.601253 0.051537 0.359245
O O1 0.741576 0.551730 0.542684
O O2 0.695135 0.475824 0.341506
O O3 0.808564 0.546838 0.253810
O O4 0.877026 0.487945 0.490305
O O5 0.742586 0.112793 0.703563
O O6 0.910715 0.091260 0.860514
O O7 0.385209 0.281782 0.826961
O O8 0.365086 0.355585 0.621254
O O9 0.449496 0.368067 0.934335
O O10 0.264047 0.351402 0.894160
O O11 0.861855 0.685875 0.899478
O O12 0.750000 0.750000 0.000000
O O13 0.928921 0.746122 0.135281
O O14 0.395279 0.104418 0.056849
O O15 0.933683 0.814601 0.358074
O O16 0.500000 0.041829 0.250000
#
# Coordination Sequence:
#
# PCOD8131570 Si02
#       8
#     8   8   8   8   8   4   8   8
#     4   9  20  35  53  80 107 136 178 231 275 323
#     4  10  19  35  58  79 108 142 180 224 274 328
#     4   9  19  34  55  80 110 143 181 221 263 325
#     4   9  18  34  52  77 110 145 180 222 270 315
#     4  10  20  34  54  78 109 142 181 228 262 320
#     4  10  20  34  58  80 114 148 182 226 270 324
#     4  10  18  33  59  82 103 146 185 213 269 330
#     4  10  19  33  55  75 102 140 178 221 278 325
#
# _framework density 19.973054000000001
#
# number of rings (size 3 to 8) (size 9 to 14) (size 15 to 20)
#    0.000    2.400    0.000    3.600    0.933    0.000 
#    0.000    7.333    5.867   36.000    0.000    0.000 
#    0.000    0.000    0.000    0.000    0.000    0.000 
#
# Total GULP energy -371773.489707 kJ/mol
# GULP energy per Si atom -12392.449657 kJ/mol
# Density = 1.992759 g / cm^3
# Si number density = 19.973054 Si / 1000 Ang^3
#
#
#
# Elastic Constant Matrix: (Units=GPa)
#
#
# Indices 1 2 3 4 5 6 
#
# 1 54.0244 26.4894 15.0324 0.0000 14.7550 0.0000
# 2 26.4894 112.4910 37.8108 0.0000 15.6613 0.0000
# 3 15.0324 37.8108 85.7655 0.0000 5.2260 0.0000
# 4 0.0000 0.0000 0.0000 26.4667 0.0000 0.6496
# 5 14.7550 15.6613 5.2260 0.0000 25.5881 0.0000
# 6 0.0000 0.0000 0.0000 0.6496 0.0000 22.3886
#
#
#
# Elastic Compliance Matrix: (Units=1/GPa)
#
#
# Indices 1 2 3 4 5 6 
#
# 1 0.023789 -0.003363 -0.002002 0.000000 -0.011250 0.000000
# 2 -0.003363 0.011742 -0.004321 0.000000 -0.004365 0.000000
# 3 -0.002002 -0.004321 0.013856 0.000000 0.000969 0.000000
# 4 0.000000 0.000000 0.000000 0.037810 0.000000 -0.001097
# 5 -0.011250 -0.004365 0.000969 0.000000 0.048042 0.000000
# 6 0.000000 0.000000 0.000000 -0.001097 0.000000 0.044697
#
#
# Mechanical properties :
#
#
# Convention : Reuss Voigt Hill
#
# Bulk Modulus (GPa) = 33.31543 45.66069 39.48806
# Shear Modulus (GPa) = 23.88780 26.41855 25.15317
#
# Velocity S-wave (km/s) = 3.46208 3.64085 3.55259
# Velocity P-wave (km/s) = 5.71819 6.37065 6.05322
#
# Compressibility (1/GPa) = 0.03001612
#
# Stress axis : x y z
#
# Youngs Moduli (GPa) = 42.03700 85.16764 72.16843
#
# Poissons Ratio (x) = 0.28639 0.14445
# Poissons Ratio (y) = 0.14136 0.31184
# Poissons Ratio (z) = 0.08414 0.36801
#
# Static dielectric constant tensor:
#      x y z
#    x 3.253830 0.000000 0.131720 
#    y 0.000000 4.143460 0.000000 
#    z 0.131720 0.000000 3.782010 
# 
# 
# High freq. dielectric constant tensor:
#      x y z
#    x 1.748660 0.000000 0.014370 
#    y 0.000000 1.782060 0.000000 
#    z 0.014370 0.000000 1.786420 
# 
# From -- ./inp_files/43194.got.cif
#   From: 2010.06.25/outbox.cif.g09.slc.cpg/sg15_22_cif.got.tgz:43194.got - 2010.06.28 07:06:18.
