data_PCOD8131634
_publ_section_title
;
Structure prediction by ZEFSAII (Michael W. Deem and Ramdas Pophale) SiO2 
 PCOD8131634
Probable space group: C 2/C
;
_chemical_formula_sum "Si O2"
_cell_formula_units_Z 64
_cell_length_a 16.371548
_cell_length_b 27.232014
_cell_length_c 9.662932
_cell_angle_alpha 90.000000
_cell_angle_beta 123.143885
_cell_angle_gamma 90.000000
_cell_volume 3607.111948
_symmetry_space_group_name_H-M "C 2/C"
_symmetry_group_IT_number 15
_symmetry_cell_setting 'monoclinic'
loop_
_space_group_symop_operation_xyz
x,y,z
-x,y,1/2-z
-x,-y,-z
x,-y,1/2+z
1/2+x,1/2+y,z
1/2-x,1/2+y,1/2-z
1/2-x,1/2-y,-z
1/2+x,1/2-y,1/2+z
loop_
_atom_site_type_symbol
_atom_site_label
_atom_site_fract_x
_atom_site_fract_y
_atom_site_fract_z
Si Si1 0.102375 0.677633 0.390711
Si Si2 0.618632 0.684765 0.707302
Si Si3 0.216420 0.623271 0.729367
Si Si4 0.371549 0.973423 0.268321
Si Si5 0.110757 0.343373 0.398982
Si Si6 0.591054 0.287005 0.487355
Si Si7 0.092725 0.551702 0.994747
Si Si8 0.206317 0.285634 0.721410
O O1 0.153641 0.639413 0.539154
O O2 0.078787 0.729520 0.442023
O O3 0.167950 0.683990 0.316337
O O4 0.000000 0.653686 0.250000
O O5 0.669337 0.635758 0.692927
O O6 0.510785 0.693108 0.543161
O O7 0.692053 0.728147 0.733266
O O8 0.613392 0.682668 0.868499
O O9 0.208328 0.564824 0.747002
O O10 0.177783 0.652313 0.827130
O O11 0.366677 0.979341 0.098648
O O12 0.476468 0.950306 0.402649
O O13 0.357125 0.026882 0.324588
O O14 0.120783 0.391705 0.504008
O O15 0.152213 0.299244 0.529379
O O16 0.000000 0.333080 0.250000
O O17 0.676982 0.295312 0.678583
#
# Coordination Sequence:
#
# PCOD8131634 Si02
#       8
#     8   8   8   8   8   8   8   8
#     4  11  18  30  53  74  98 136 186 220 253 302
#     4  10  19  33  54  73 106 136 179 228 265 297
#     4  11  20  34  49  78 106 140 173 211 263 318
#     4   9  18  31  52  70 106 132 165 206 258 317
#     4  11  22  35  49  73 115 145 166 212 268 312
#     4  10  18  34  51  73 102 139 176 233 262 279
#     4   9  17  35  49  73 101 140 163 206 258 314
#     4  11  20  33  52  74 101 144 182 218 255 308
#
# _framework density 17.742726000000001
#
# number of rings (size 3 to 8) (size 9 to 14) (size 15 to 20)
#    0.000    1.750    7.500    1.500    0.000    1.500 
#    2.250    0.625    0.000    0.000    0.000    0.875 
#    0.000    0.000    0.000    0.000    0.000    0.000 
#
# Total GULP energy -396709.598724 kJ/mol
# GULP energy per Si atom -12397.174960 kJ/mol
# Density = 1.770234 g / cm^3
# Si number density = 17.742726 Si / 1000 Ang^3
#
#
#
# Elastic Constant Matrix: (Units=GPa)
#
#
# Indices 1 2 3 4 5 6 
#
# 1 84.3984 20.1562 28.7581 0.0000 24.7701 0.0000
# 2 20.1562 23.9450 18.3150 0.0000 4.9430 0.0000
# 3 28.7581 18.3150 72.5107 0.0000 15.1028 0.0000
# 4 0.0000 0.0000 0.0000 17.1246 0.0000 -3.0178
# 5 24.7701 4.9430 15.1028 0.0000 30.1850 0.0000
# 6 0.0000 0.0000 0.0000 -3.0178 0.0000 24.5124
#
#
#
# Elastic Compliance Matrix: (Units=1/GPa)
#
#
# Indices 1 2 3 4 5 6 
#
# 1 0.019106 -0.012004 -0.001886 0.000000 -0.012769 0.000000
# 2 -0.012004 0.059431 -0.011470 0.000000 0.005858 0.000000
# 3 -0.001886 -0.011470 0.018668 0.000000 -0.005915 0.000000
# 4 0.000000 0.000000 0.000000 0.059691 0.000000 0.007349
# 5 -0.012769 0.005858 -0.005915 0.000000 0.045607 0.000000
# 6 0.000000 0.000000 0.000000 0.007349 0.000000 0.041700
#
#
# Mechanical properties :
#
#
# Convention : Reuss Voigt Hill
#
# Bulk Modulus (GPa) = 21.51268 35.03473 28.27371
# Shear Modulus (GPa) = 16.10725 21.93939 19.02332
#
# Velocity S-wave (km/s) = 3.01628 3.52025 3.27796
# Velocity P-wave (km/s) = 4.92765 6.02592 5.50424
#
# Compressibility (1/GPa) = 0.04648422
#
# Stress axis : x y z
#
# Youngs Moduli (GPa) = 52.34085 16.82610 53.56722
#
# Poissons Ratio (x) = 0.20198 0.10101
# Poissons Ratio (y) = 0.62831 0.61444
# Poissons Ratio (z) = 0.09870 0.19300
#
# Static dielectric constant tensor:
#      x y z
#    x 3.396970 0.000000 -0.041750 
#    y 0.000000 3.030150 0.000000 
#    z -0.041750 0.000000 3.293770 
# 
# 
# High freq. dielectric constant tensor:
#      x y z
#    x 1.678810 0.000000 -0.009150 
#    y 0.000000 1.651280 0.000000 
#    z -0.009150 0.000000 1.672350 
# 
# From -- ./inp_files/44567.got.cif
#   From: 2010.06.25/outbox.cif.g09.slc.cpg/sg15_23_cif.got.tgz:44567.got - 2010.06.28 07:06:18.
