data_PCOD8131311
_publ_section_title
;
Structure prediction by ZEFSAII (Michael W. Deem and Ramdas Pophale) SiO2 
 PCOD8131311
Probable space group: C 2/C
;
_chemical_formula_sum "Si O2"
_cell_formula_units_Z 64
_cell_length_a 24.884192
_cell_length_b 20.445683
_cell_length_c 9.157119
_cell_angle_alpha 90.000000
_cell_angle_beta 44.204189
_cell_angle_gamma 90.000000
_cell_volume 3248.271440
_symmetry_space_group_name_H-M "C 2/C"
_symmetry_group_IT_number 15
_symmetry_cell_setting 'monoclinic'
loop_
_space_group_symop_operation_xyz
x,y,z
-x,y,1/2-z
-x,-y,-z
x,-y,1/2+z
1/2+x,1/2+y,z
1/2-x,1/2+y,1/2-z
1/2-x,1/2-y,-z
1/2+x,1/2-y,1/2+z
loop_
_atom_site_type_symbol
_atom_site_label
_atom_site_fract_x
_atom_site_fract_y
_atom_site_fract_z
Si Si1 0.739873 0.285893 0.169133
Si Si2 0.823528 0.230058 0.267975
Si Si3 0.924143 0.264071 0.474513
Si Si4 0.525997 0.841970 0.856329
Si Si5 0.885552 0.652404 0.797943
Si Si6 0.718231 0.410964 0.633072
Si Si7 0.821797 0.581993 0.465679
Si Si8 0.744850 0.008634 0.172442
O O1 0.802738 0.247505 0.143065
O O2 0.650768 0.282360 0.396407
O O3 0.750000 0.250000 0.000000
O O4 0.760105 0.361690 0.121424
O O5 0.750000 0.250000 0.500000
O O6 0.889574 0.276365 0.204696
O O7 0.838367 0.152029 0.259738
O O8 0.940333 0.282263 0.611405
O O9 0.903719 0.332568 0.431604
O O10 0.000000 0.231801 0.250000
O O11 0.500000 0.813195 0.750000
O O12 0.591199 0.894995 0.699681
O O13 0.457635 0.881466 0.075626
O O14 0.807662 0.611285 0.936870
O O15 0.701146 0.459762 0.530208
O O16 0.704303 0.446542 0.816243
O O17 0.803744 0.553544 0.341687
O O18 0.814742 0.529011 0.607299
#
# Coordination Sequence:
#
# PCOD8131311 Si02
#       8
#     8   8   8   8   8   8   8   8
#     4  12  20  33  59  89 111 142 190 239 308 342
#     4  10  18  32  56  82 106 142 186 236 300 350
#     4  10  21  35  52  83 119 144 176 227 295 368
#     4  11  21  36  53  79 116 149 185 235 292 332
#     4  10  20  35  56  79 110 151 188 231 299 347
#     4  10  18  34  50  74 109 143 192 234 274 328
#     4  11  22  38  56  79 117 152 193 243 273 332
#     4  10  22  35  51  76 112 153 200 234 263 328
#
# _framework density 19.702788000000002
#
# number of rings (size 3 to 8) (size 9 to 14) (size 15 to 20)
#    0.000    1.500    3.750    4.500    0.000    0.000 
#    0.000    6.875    0.000    0.000    0.000    0.875 
#    0.000    0.000    0.000    0.000    0.000    0.000 
#
# Total GULP energy -396517.294789 kJ/mol
# GULP energy per Si atom -12391.165462 kJ/mol
# Density = 1.965794 g / cm^3
# Si number density = 19.702788 Si / 1000 Ang^3
#
#
#
# Elastic Constant Matrix: (Units=GPa)
#
#
# Indices 1 2 3 4 5 6 
#
# 1 44.3042 11.8575 14.3288 0.0000 26.8721 0.0000
# 2 11.8575 90.3967 20.5249 0.0000 13.8864 0.0000
# 3 14.3288 20.5249 69.4357 0.0000 18.3909 0.0000
# 4 0.0000 0.0000 0.0000 22.7563 0.0000 7.9446
# 5 26.8721 13.8864 18.3909 0.0000 43.3191 0.0000
# 6 0.0000 0.0000 0.0000 7.9446 0.0000 21.8695
#
#
#
# Elastic Compliance Matrix: (Units=1/GPa)
#
#
# Indices 1 2 3 4 5 6 
#
# 1 0.036473 -0.001128 -0.001461 0.000000 -0.021644 0.000000
# 2 -0.001128 0.012160 -0.002833 0.000000 -0.001996 0.000000
# 3 -0.001461 -0.002833 0.016968 0.000000 -0.005389 0.000000
# 4 0.000000 0.000000 0.000000 0.050327 0.000000 -0.018282
# 5 -0.021644 -0.001996 -0.005389 0.000000 0.039439 0.000000
# 6 0.000000 0.000000 0.000000 -0.018282 0.000000 0.052367
#
#
# Mechanical properties :
#
#
# Convention : Reuss Voigt Hill
#
# Bulk Modulus (GPa) = 18.26210 33.06211 25.66210
# Shear Modulus (GPa) = 21.11220 28.08399 24.59810
#
# Velocity S-wave (km/s) = 3.27698 3.77952 3.53719
# Velocity P-wave (km/s) = 4.85871 5.98859 5.45299
#
# Compressibility (1/GPa) = 0.05475821
#
# Stress axis : x y z
#
# Youngs Moduli (GPa) = 27.41744 82.23593 58.93380
#
# Poissons Ratio (x) = 0.09274 0.08608
# Poissons Ratio (y) = 0.03092 0.16697
# Poissons Ratio (z) = 0.04005 0.23299
#
# Static dielectric constant tensor:
#      x y z
#    x 4.115750 0.000000 0.123430 
#    y 0.000000 3.092840 0.000000 
#    z 0.123430 0.000000 3.768230 
# 
# 
# High freq. dielectric constant tensor:
#      x y z
#    x 1.759920 0.000000 0.035850 
#    y 0.000000 1.742520 0.000000 
#    z 0.035850 0.000000 1.771840 
# 
# From -- ./inp_files/67427.got.cif
#   From: 2010.06.25/outbox.cif.g09.slc.cpg/sg15_34_cif.got.tgz:67427.got - 2010.06.28 07:06:18.
