data_PCOD8131549
_publ_section_title
;
Structure prediction by ZEFSAII (Michael W. Deem and Ramdas Pophale) SiO2 
 PCOD8131549
Probable space group: C 2/C
;
_chemical_formula_sum "Si O2"
_cell_formula_units_Z 60
_cell_length_a 20.033117
_cell_length_b 9.308417
_cell_length_c 16.469828
_cell_angle_alpha 90.000000
_cell_angle_beta 95.114108
_cell_angle_gamma 90.000000
_cell_volume 3059.011494
_symmetry_space_group_name_H-M "C 2/C"
_symmetry_group_IT_number 15
_symmetry_cell_setting 'monoclinic'
loop_
_space_group_symop_operation_xyz
x,y,z
-x,y,1/2-z
-x,-y,-z
x,-y,1/2+z
1/2+x,1/2+y,z
1/2-x,1/2+y,1/2-z
1/2-x,1/2-y,-z
1/2+x,1/2-y,1/2+z
loop_
_atom_site_type_symbol
_atom_site_label
_atom_site_fract_x
_atom_site_fract_y
_atom_site_fract_z
Si Si1 0.120851 0.215390 0.369806
Si Si2 0.083853 0.941871 0.455903
Si Si3 0.000000 0.161249 0.250000
Si Si4 0.750538 0.447482 0.897535
Si Si5 0.324846 0.720177 0.822171
Si Si6 0.806320 0.231220 0.631391
Si Si7 0.556701 0.533705 0.618389
Si Si8 0.221803 0.447944 0.416250
O O1 0.060463 0.250890 0.299349
O O2 0.185443 0.122762 0.344260
O O3 0.149336 0.368167 0.404530
O O4 0.089848 0.112019 0.435117
O O5 0.133841 0.838173 0.414184
O O6 0.009273 0.891676 0.425563
O O7 0.094050 0.934859 0.554315
O O8 0.040756 0.063087 0.193108
O O9 0.815893 0.372836 0.866789
O O10 0.755266 0.618105 0.882265
O O11 0.744059 0.414008 0.993161
O O12 0.322929 0.749540 0.726771
O O13 0.398220 0.665189 0.848857
O O14 0.269122 0.607144 0.848500
O O15 0.787337 0.382163 0.590689
#
# Coordination Sequence:
#
# PCOD8131549 Si02
#       8
#     8   8   4   8   8   8   8   8
#     4   9  18  36  55  80 108 145 187 223 277 333
#     4   9  19  35  57  80 110 147 191 235 274 338
#     4  10  20  34  60  86 114 146 186 242 282 338
#     4  10  20  36  57  80 112 149 187 228 277 336
#     4  11  20  34  57  84 113 146 186 235 285 339
#     4  11  22  36  53  83 116 145 187 237 284 331
#     4  10  18  33  58  84 107 146 193 232 279 332
#     4  11  22  37  58  82 115 151 187 234 284 340
#
# _framework density 19.614180000000001
#
# number of rings (size 3 to 8) (size 9 to 14) (size 15 to 20)
#    0.000    1.867    0.000    7.600    0.000    1.067 
#    0.000    2.667    0.000   12.800    0.000    0.000 
#    0.000    0.000    0.000    0.000    0.000    0.000 
#
# Total GULP energy -371744.506550 kJ/mol
# GULP energy per Si atom -12391.483552 kJ/mol
# Density = 1.956954 g / cm^3
# Si number density = 19.614180 Si / 1000 Ang^3
#
#
#
# Elastic Constant Matrix: (Units=GPa)
#
#
# Indices 1 2 3 4 5 6 
#
# 1 52.4943 32.7495 21.9159 0.0000 5.5734 0.0000
# 2 32.7495 129.6875 24.2002 0.0000 2.5079 0.0000
# 3 21.9159 24.2002 99.2225 0.0000 -8.4486 0.0000
# 4 0.0000 0.0000 0.0000 22.7873 0.0000 -1.2184
# 5 5.5734 2.5079 -8.4486 0.0000 43.5492 0.0000
# 6 0.0000 0.0000 0.0000 -1.2184 0.0000 29.2409
#
#
#
# Elastic Compliance Matrix: (Units=1/GPa)
#
#
# Indices 1 2 3 4 5 6 
#
# 1 0.024620 -0.005314 -0.004458 0.000000 -0.003710 0.000000
# 2 -0.005314 0.009257 -0.001090 0.000000 -0.000064 0.000000
# 3 -0.004458 -0.001090 0.011574 0.000000 0.002879 0.000000
# 4 0.000000 0.000000 0.000000 0.043982 0.000000 0.001833
# 5 -0.003710 -0.000064 0.002879 0.000000 0.023999 0.000000
# 6 0.000000 0.000000 0.000000 0.001833 0.000000 0.034275
#
#
# Mechanical properties :
#
#
# Convention : Reuss Voigt Hill
#
# Bulk Modulus (GPa) = 42.14307 48.79284 45.46796
# Shear Modulus (GPa) = 28.19463 32.61806 30.40634
#
# Velocity S-wave (km/s) = 3.79550 4.08239 3.94156
# Velocity P-wave (km/s) = 6.38282 6.86670 6.62918
#
# Compressibility (1/GPa) = 0.02372869
#
# Stress axis : x y z
#
# Youngs Moduli (GPa) = 40.61806 108.02366 86.40154
#
# Poissons Ratio (x) = 0.57399 0.38516
# Poissons Ratio (y) = 0.21582 0.09415
# Poissons Ratio (z) = 0.18107 0.11771
#
# Static dielectric constant tensor:
#      x y z
#    x 3.711360 0.000000 0.048300 
#    y 0.000000 3.524280 0.000000 
#    z 0.048300 0.000000 3.737620 
# 
# 
# High freq. dielectric constant tensor:
#      x y z
#    x 1.759880 0.000000 0.000350 
#    y 0.000000 1.739240 0.000000 
#    z 0.000350 0.000000 1.775740 
# 
# From -- ./inp_files/213923.got.cif
#   From: 2010.06.25/outbox.cif.g09.slc.cpg/sg15_107_cif.got.tgz:213923.got - 2010.06.28 07:06:18.
