data_PCOD8131008
_publ_section_title
;
Structure prediction by ZEFSAII (Michael W. Deem and Ramdas Pophale) SiO2 
 PCOD8131008
Probable space group: C 2/C
;
_chemical_formula_sum "Si O2"
_cell_formula_units_Z 44
_cell_length_a 22.063860
_cell_length_b 23.904976
_cell_length_c 5.482585
_cell_angle_alpha 90.000000
_cell_angle_beta 65.381608
_cell_angle_gamma 90.000000
_cell_volume 2628.863279
_symmetry_space_group_name_H-M "C 2/C"
_symmetry_group_IT_number 15
_symmetry_cell_setting 'monoclinic'
loop_
_space_group_symop_operation_xyz
x,y,z
-x,y,1/2-z
-x,-y,-z
x,-y,1/2+z
1/2+x,1/2+y,z
1/2-x,1/2+y,1/2-z
1/2-x,1/2-y,-z
1/2+x,1/2-y,1/2+z
loop_
_atom_site_type_symbol
_atom_site_label
_atom_site_fract_x
_atom_site_fract_y
_atom_site_fract_z
Si Si1 0.000000 0.165854 0.750000
Si Si2 0.615235 0.358856 0.364705
Si Si3 0.198827 0.301983 0.091119
Si Si4 0.578491 0.469083 0.623761
Si Si5 0.933050 0.758494 0.745237
Si Si6 0.251551 0.817367 0.991766
O O1 0.950441 0.125421 0.685186
O O2 0.048248 0.205473 0.517973
O O3 0.618983 0.410005 0.549048
O O4 0.602921 0.298883 0.504173
O O5 0.680905 0.349217 0.093539
O O6 0.120693 0.287433 0.240725
O O7 0.213867 0.337580 0.312071
O O8 0.250000 0.250000 0.000000
O O9 0.209860 0.336404 0.819937
O O10 0.500000 0.458087 0.750000
O O11 0.600477 0.502876 0.342459
O O12 0.000000 0.731157 0.750000
O O13 0.250000 0.750000 0.000000
#
# Coordination Sequence:
#
# PCOD8131008 Si02
#       6
#     4   8   8   8   8   8
#     4  10  20  28  44  66  88 118 158 208 236 276
#     4  11  21  32  49  67  88 122 164 208 245 283
#     4  10  18  31  45  64  91 119 149 196 225 285
#     4  10  23  37  49  65  91 124 163 210 255 280
#     4  10  20  29  44  68  92 122 161 199 236 270
#     4  10  19  31  49  66  89 116 153 196 235 288
#
# _framework density 16.737271
#
# number of rings (size 3 to 8) (size 9 to 14) (size 15 to 20)
#    0.000    1.818    3.636    3.818    8.909    0.000 
#    0.000    0.000    0.000    0.000    0.000    0.000 
#    0.000    0.000    0.000    0.000    0.000   18.182 
#
# Total GULP energy -272577.117832 kJ/mol
# GULP energy per Si atom -12389.868992 kJ/mol
# Density = 1.669918 g / cm^3
# Si number density = 16.737271 Si / 1000 Ang^3
#
#
#
# Elastic Constant Matrix: (Units=GPa)
#
#
# Indices 1 2 3 4 5 6 
#
# 1 86.0950 24.3665 48.1946 0.0000 0.4903 0.0000
# 2 24.3665 30.3315 17.4872 0.0000 -7.0790 0.0000
# 3 48.1946 17.4872 110.0485 0.0000 14.1678 0.0000
# 4 0.0000 0.0000 0.0000 19.4080 0.0000 1.0192
# 5 0.4903 -7.0790 14.1678 0.0000 34.8838 0.0000
# 6 0.0000 0.0000 0.0000 1.0192 0.0000 26.0681
#
#
#
# Elastic Compliance Matrix: (Units=1/GPa)
#
#
# Indices 1 2 3 4 5 6 
#
# 1 0.018229 -0.011043 -0.006233 0.000000 0.000034 0.000000
# 2 -0.011043 0.046819 -0.004059 0.000000 0.011305 0.000000
# 3 -0.006233 -0.004059 0.013249 0.000000 -0.006117 0.000000
# 4 0.000000 0.000000 0.000000 0.051631 0.000000 -0.002019
# 5 0.000034 0.011305 -0.006117 0.000000 0.033445 0.000000
# 6 0.000000 0.000000 0.000000 -0.002019 0.000000 0.038440
#
#
# Mechanical properties :
#
#
# Convention : Reuss Voigt Hill
#
# Bulk Modulus (GPa) = 28.06823 45.17462 36.62142
# Shear Modulus (GPa) = 19.50397 25.16710 22.33554
#
# Velocity S-wave (km/s) = 3.41735 3.88191 3.65702
# Velocity P-wave (km/s) = 5.69011 6.86595 6.30550
#
# Compressibility (1/GPa) = 0.03562747
#
# Stress axis : x y z
#
# Youngs Moduli (GPa) = 54.85670 21.35905 75.47678
#
# Poissons Ratio (x) = 0.23586 0.47045
# Poissons Ratio (y) = 0.60577 0.30636
# Poissons Ratio (z) = 0.34192 0.08670
#
# Static dielectric constant tensor:
#      x y z
#    x 3.569780 0.000000 -0.108370 
#    y 0.000000 2.690090 0.000000 
#    z -0.108370 0.000000 5.082740 
# 
# 
# High freq. dielectric constant tensor:
#      x y z
#    x 1.636570 0.000000 0.017950 
#    y 0.000000 1.564580 0.000000 
#    z 0.017950 0.000000 1.670680 
# 
# From -- ./inp_files/8520.got.cif
#   From: 2010.06.25/outbox.cif.g09.slc.cpg/sg15_5_cif.got.tgz:8520.got - 2010.06.28 07:06:18.
