data_PCOD8131943
_publ_section_title
;
Structure prediction by ZEFSAII (Michael W. Deem and Ramdas Pophale) SiO2 
 PCOD8131943
Probable space group: C 2/C
;
_chemical_formula_sum "Si O2"
_cell_formula_units_Z 48
_cell_length_a 20.877605
_cell_length_b 12.648853
_cell_length_c 9.123152
_cell_angle_alpha 90.000000
_cell_angle_beta 68.086028
_cell_angle_gamma 90.000000
_cell_volume 2235.143865
_symmetry_space_group_name_H-M "C 2/C"
_symmetry_group_IT_number 15
_symmetry_cell_setting 'monoclinic'
loop_
_space_group_symop_operation_xyz
x,y,z
-x,y,1/2-z
-x,-y,-z
x,-y,1/2+z
1/2+x,1/2+y,z
1/2-x,1/2+y,1/2-z
1/2-x,1/2-y,-z
1/2+x,1/2-y,1/2+z
loop_
_atom_site_type_symbol
_atom_site_label
_atom_site_fract_x
_atom_site_fract_y
_atom_site_fract_z
Si Si1 0.572225 0.979926 0.514640
Si Si2 0.651701 0.095588 0.667625
Si Si3 0.180886 0.144659 0.725660
Si Si4 0.923845 0.267581 0.841662
Si Si5 0.685597 0.729956 0.326915
Si Si6 0.289743 0.482298 0.573079
O O1 0.625154 0.941839 0.348221
O O2 0.567804 0.893973 0.649855
O O3 0.500000 0.000000 0.500000
O O4 0.598242 0.085562 0.577903
O O5 0.671490 0.220241 0.676217
O O6 0.715790 0.019984 0.577403
O O7 0.122712 0.236022 0.760171
O O8 0.257050 0.195098 0.644553
O O9 0.169354 0.062621 0.601362
O O10 0.171204 0.082144 0.886517
O O11 0.000000 0.217742 0.750000
O O12 0.886089 0.225793 0.020664
O O13 0.715741 0.610715 0.297163
#
# Coordination Sequence:
#
# PCOD8131943 Si02
#       6
#     8   8   8   8   8   8
#     4  11  21  33  52  78 109 141 174 215 267 325
#     4  10  19  33  52  78 106 138 175 216 264 316
#     4  10  20  35  57  80 107 141 179 221 267 316
#     4  10  19  34  54  77 104 141 179 214 263 321
#     4   9  19  34  56  79 107 141 177 220 266 315
#     4  10  18  35  56  78 105 138 177 222 266 313
#
# _framework density 21.475127000000001
#
# number of rings (size 3 to 8) (size 9 to 14) (size 15 to 20)
#    0.000    2.000    0.000    7.500    0.000    0.000 
#    0.000   14.167    0.000    4.000    0.000    0.000 
#    0.000    0.000    0.000    0.000    0.000    0.000 
#
# Total GULP energy -297352.227024 kJ/mol
# GULP energy per Si atom -12389.676126 kJ/mol
# Density = 2.142625 g / cm^3
# Si number density = 21.475127 Si / 1000 Ang^3
#
#
#
# Elastic Constant Matrix: (Units=GPa)
#
#
# Indices 1 2 3 4 5 6 
#
# 1 144.2122 42.1700 29.3430 0.0000 15.8309 0.0000
# 2 42.1700 62.9394 8.0342 0.0000 15.0661 0.0000
# 3 29.3430 8.0342 37.9211 0.0000 3.6063 0.0000
# 4 0.0000 0.0000 0.0000 31.8135 0.0000 13.3331
# 5 15.8309 15.0661 3.6063 0.0000 39.6117 0.0000
# 6 0.0000 0.0000 0.0000 13.3331 0.0000 31.4791
#
#
#
# Elastic Compliance Matrix: (Units=1/GPa)
#
#
# Indices 1 2 3 4 5 6 
#
# 1 0.010020 -0.005581 -0.006448 0.000000 -0.001295 0.000000
# 2 -0.005581 0.020956 0.000428 0.000000 -0.005779 0.000000
# 3 -0.006448 0.000428 0.031311 0.000000 -0.000436 0.000000
# 4 0.000000 0.000000 0.000000 0.038217 0.000000 -0.016187
# 5 -0.001295 -0.005779 -0.000436 0.000000 0.028000 0.000000
# 6 0.000000 0.000000 0.000000 -0.016187 0.000000 0.038623
#
#
# Mechanical properties :
#
#
# Convention : Reuss Voigt Hill
#
# Bulk Modulus (GPa) = 25.58477 44.90745 35.24611
# Shear Modulus (GPa) = 24.58718 31.61589 28.10153
#
# Velocity S-wave (km/s) = 3.38733 3.84110 3.62133
# Velocity P-wave (km/s) = 5.21902 6.37408 5.82525
#
# Compressibility (1/GPa) = 0.03908576
#
# Stress axis : x y z
#
# Youngs Moduli (GPa) = 99.79809 47.71880 31.93781
#
# Poissons Ratio (x) = 0.26630 0.20594
# Poissons Ratio (y) = 0.55693 -0.01367
# Poissons Ratio (z) = 0.64351 -0.02042
#
# Static dielectric constant tensor:
#      x y z
#    x 3.949420 0.000000 0.078580 
#    y 0.000000 4.202900 0.000000 
#    z 0.078580 0.000000 3.560630 
# 
# 
# High freq. dielectric constant tensor:
#      x y z
#    x 1.833680 0.000000 0.010030 
#    y 0.000000 1.833480 0.000000 
#    z 0.010030 0.000000 1.822480 
# 
# From -- ./inp_files/55204.got.cif
#   From: 2010.06.25/outbox.cif.g09.slc.cpg/sg15_28_cif.got.tgz:55204.got - 2010.06.28 07:06:18.
