data_PCOD8131393
_publ_section_title
;
Structure prediction by ZEFSAII (Michael W. Deem and Ramdas Pophale) SiO2 
 PCOD8131393
Probable space group: C 2/C
;
_chemical_formula_sum "Si O2"
_cell_formula_units_Z 60
_cell_length_a 21.422053
_cell_length_b 15.230443
_cell_length_c 10.295455
_cell_angle_alpha 90.000000
_cell_angle_beta 59.399100
_cell_angle_gamma 90.000000
_cell_volume 2891.266630
_symmetry_space_group_name_H-M "C 2/C"
_symmetry_group_IT_number 15
_symmetry_cell_setting 'monoclinic'
loop_
_space_group_symop_operation_xyz
x,y,z
-x,y,1/2-z
-x,-y,-z
x,-y,1/2+z
1/2+x,1/2+y,z
1/2-x,1/2+y,1/2-z
1/2-x,1/2-y,-z
1/2+x,1/2-y,1/2+z
loop_
_atom_site_type_symbol
_atom_site_label
_atom_site_fract_x
_atom_site_fract_y
_atom_site_fract_z
Si Si1 0.231631 0.251540 0.869384
Si Si2 0.435218 0.745544 0.513831
Si Si3 0.002223 0.374396 0.895590
Si Si4 0.984505 0.070431 0.124576
Si Si5 0.682282 0.420642 0.714848
Si Si6 0.760161 0.055107 0.640350
Si Si7 0.097257 0.531008 0.828614
Si Si8 0.500000 0.122608 0.750000
O O1 0.147823 0.264924 0.927005
O O2 0.277154 0.334828 0.767201
O O3 0.250715 0.154837 0.794272
O O4 0.250000 0.250000 0.000000
O O5 0.463672 0.775136 0.626934
O O6 0.456688 0.647131 0.457348
O O7 0.483078 0.814534 0.385880
O O8 0.058679 0.440021 0.909436
O O9 0.000000 0.398735 0.750000
O O10 0.922679 0.394576 0.041741
O O11 0.902337 0.104841 0.202739
O O12 0.000000 0.029205 0.250000
O O13 0.000000 0.000000 0.000000
O O14 0.691000 0.501200 0.807597
O O15 0.708073 0.446714 0.540959
O O16 0.681799 0.010968 0.725795
O O17 0.068662 0.563289 0.717886
#
# Coordination Sequence:
#
# PCOD8131393 Si02
#       8
#     8   8   8   8   8   8   8   4
#     4  10  21  39  63  91 125 164 214 261 323 385
#     4  11  22  37  63  92 122 167 212 266 312 383
#     4  10  22  37  59  92 132 164 212 252 321 379
#     4  12  25  44  70  93 126 168 227 277 324 378
#     4  11  24  42  65  98 126 171 215 269 326 388
#     4  11  24  40  66  91 134 165 215 264 330 384
#     4  10  21  36  61  92 126 171 202 260 309 393
#     4  10  18  32  62  90 120 154 216 246 310 368
#
# _framework density 20.752151000000001
#
# number of rings (size 3 to 8) (size 9 to 14) (size 15 to 20)
#    0.000    1.333    1.333    5.600    5.600    0.533 
#    0.000    2.000    0.000    0.000    0.000    0.000 
#    0.000    0.000    0.000    0.000    0.000    0.000 
#
# Total GULP energy -371706.623609 kJ/mol
# GULP energy per Si atom -12390.220787 kJ/mol
# Density = 2.070492 g / cm^3
# Si number density = 20.752151 Si / 1000 Ang^3
#
#
#
# Elastic Constant Matrix: (Units=GPa)
#
#
# Indices 1 2 3 4 5 6 
#
# 1 108.1255 28.1989 35.2170 0.0000 -10.2963 0.0000
# 2 28.1989 108.9444 30.5127 0.0000 10.7486 0.0000
# 3 35.2170 30.5127 76.3860 0.0000 1.9035 0.0000
# 4 0.0000 0.0000 0.0000 773.0829 0.0000 613.7110
# 5 -10.2963 10.7486 1.9035 0.0000 40.8458 0.0000
# 6 0.0000 0.0000 0.0000 613.7110 0.0000 539.9922
#
#
#
# Elastic Compliance Matrix: (Units=1/GPa)
#
#
# Indices 1 2 3 4 5 6 
#
# 1 0.011653 -0.002084 -0.004632 0.000000 0.003702 0.000000
# 2 -0.002084 0.010976 -0.003342 0.000000 -0.003258 0.000000
# 3 -0.004632 -0.003342 0.016589 0.000000 -0.001061 0.000000
# 4 0.000000 0.000000 0.000000 0.013229 0.000000 -0.015035
# 5 0.003702 -0.003258 -0.001061 0.000000 0.026322 0.000000
# 6 0.000000 0.000000 0.000000 -0.015035 0.000000 0.018940
#
#
# Mechanical properties :
#
#
# Convention : Reuss Voigt Hill
#
# Bulk Modulus (GPa) = 52.35529 53.47925 52.91727
# Shear Modulus (GPa) = 40.25953 284.08600 162.17277
#
# Velocity S-wave (km/s) = 4.40934 11.71290 8.84969
# Velocity P-wave (km/s) = 7.15588 14.44815 11.40078
#
# Compressibility (1/GPa) = 0.01910027
#
# Stress axis : x y z
#
# Youngs Moduli (GPa) = 85.81218 91.10796 60.28201
#
# Poissons Ratio (x) = 0.18988 0.27925
# Poissons Ratio (y) = 0.17884 0.20148
# Poissons Ratio (z) = 0.39752 0.30451
#
# Static dielectric constant tensor:
#      x y z
#    x 4.263430 0.000000 0.910920 
#    y 0.000000 4.148290 0.000000 
#    z 0.910920 0.000000 5.709190 
# 
# 
# High freq. dielectric constant tensor:
#      x y z
#    x 1.820950 0.000000 -0.003240 
#    y 0.000000 1.815060 0.000000 
#    z -0.003240 0.000000 1.794950 
# 
# From -- ./inp_files/112689.got.cif
#   From: 2010.06.25/outbox.cif.g09.slc.cpg/sg15_57_cif.got.tgz:112689.got - 2010.06.28 07:06:18.
