data_PCOD8131918
_publ_section_title
;
Structure prediction by ZEFSAII (Michael W. Deem and Ramdas Pophale) SiO2 
 PCOD8131918
Probable space group: C 2/C
;
_chemical_formula_sum "Si O2"
_cell_formula_units_Z 56
_cell_length_a 8.394242
_cell_length_b 17.637681
_cell_length_c 21.475396
_cell_angle_alpha 90.000000
_cell_angle_beta 62.451997
_cell_angle_gamma 90.000000
_cell_volume 2819.054476
_symmetry_space_group_name_H-M "C 2/C"
_symmetry_group_IT_number 15
_symmetry_cell_setting 'monoclinic'
loop_
_space_group_symop_operation_xyz
x,y,z
-x,y,1/2-z
-x,-y,-z
x,-y,1/2+z
1/2+x,1/2+y,z
1/2-x,1/2+y,1/2-z
1/2-x,1/2-y,-z
1/2+x,1/2-y,1/2+z
loop_
_atom_site_type_symbol
_atom_site_label
_atom_site_fract_x
_atom_site_fract_y
_atom_site_fract_z
Si Si1 0.683687 0.347365 0.186233
Si Si2 0.340846 0.721791 0.230148
Si Si3 0.947898 0.392516 0.560719
Si Si4 0.488514 0.942167 0.088797
Si Si5 0.090171 0.824096 0.587193
Si Si6 0.016155 0.745645 0.369132
Si Si7 0.779668 0.833042 0.067505
O O1 0.500000 0.375816 0.250000
O O2 0.812192 0.307795 0.213163
O O3 0.788402 0.421848 0.146909
O O4 0.645813 0.284460 0.139041
O O5 0.500000 0.720824 0.250000
O O6 0.400484 0.669289 0.159587
O O7 0.152409 0.700161 0.297438
O O8 0.999813 0.467226 0.590085
O O9 0.734802 0.374724 0.598852
O O10 0.053092 0.319784 0.570994
O O11 0.007425 0.404805 0.479776
O O12 0.653852 0.907557 0.099032
O O13 0.082302 0.848055 0.515724
O O14 0.146050 0.735972 0.577128
O O15 0.111459 0.814783 0.389436
#
# Coordination Sequence:
#
# PCOD8131918 Si02
#       7
#     8   8   8   8   8   8   8
#     4  10  22  34  52  80 112 137 173 225 266 314
#     4  11  17  32  56  76 101 140 181 219 257 312
#     4   9  19  32  56  79 104 139 175 225 257 320
#     4  10  18  35  54  77 108 138 178 213 274 309
#     4   9  16  29  51  81  95 132 186 213 248 305
#     4  10  20  34  53  81 108 134 182 218 267 310
#     4   9  16  30  55  74 101 134 181 214 247 322
#
# _framework density 19.864816000000001
#
# number of rings (size 3 to 8) (size 9 to 14) (size 15 to 20)
#    0.000    2.286    4.286    0.857    0.000    0.571 
#    2.571    0.000    3.143   10.286    0.000    0.000 
#    0.000    0.000    0.000    0.000    0.000    0.000 
#
# Total GULP energy -346874.291178 kJ/mol
# GULP energy per Si atom -12388.367542 kJ/mol
# Density = 1.981960 g / cm^3
# Si number density = 19.864816 Si / 1000 Ang^3
#
#
#
# Elastic Constant Matrix: (Units=GPa)
#
#
# Indices 1 2 3 4 5 6 
#
# 1 25.0415 21.1842 19.1747 0.0000 1.3208 0.0000
# 2 21.1842 89.1242 14.2096 0.0000 4.5810 0.0000
# 3 19.1747 14.2096 80.5856 0.0000 -2.2650 0.0000
# 4 0.0000 0.0000 0.0000 18.2368 0.0000 0.2255
# 5 1.3208 4.5810 -2.2650 0.0000 20.6821 0.0000
# 6 0.0000 0.0000 0.0000 0.2255 0.0000 21.4220
#
#
#
# Elastic Compliance Matrix: (Units=1/GPa)
#
#
# Indices 1 2 3 4 5 6 
#
# 1 0.059575 -0.012104 -0.012110 0.000000 -0.002450 0.000000
# 2 -0.012104 0.014167 0.000317 0.000000 -0.002330 0.000000
# 3 -0.012110 0.000317 0.015302 0.000000 0.002379 0.000000
# 4 0.000000 0.000000 0.000000 0.054841 0.000000 -0.000577
# 5 -0.002450 -0.002330 0.002379 0.000000 0.049284 0.000000
# 6 0.000000 0.000000 0.000000 -0.000577 0.000000 0.046687
#
#
# Mechanical properties :
#
#
# Convention : Reuss Voigt Hill
#
# Bulk Modulus (GPa) = 24.24314 33.76537 29.00426
# Shear Modulus (GPa) = 16.58921 21.41369 19.00145
#
# Velocity S-wave (km/s) = 2.89295 3.28681 3.09615
# Velocity P-wave (km/s) = 4.83627 5.60702 5.23584
#
# Compressibility (1/GPa) = 0.04124877
#
# Stress axis : x y z
#
# Youngs Moduli (GPa) = 16.78547 70.58839 65.35228
#
# Poissons Ratio (x) = 0.85440 0.79142
# Poissons Ratio (y) = 0.20317 -0.02069
# Poissons Ratio (z) = 0.20327 -0.02234
#
# Static dielectric constant tensor:
#      x y z
#    x 3.401720 0.000000 0.033440 
#    y 0.000000 3.372720 0.000000 
#    z 0.033440 0.000000 4.192410 
# 
# 
# High freq. dielectric constant tensor:
#      x y z
#    x 1.750930 0.000000 0.003580 
#    y 0.000000 1.730410 0.000000 
#    z 0.003580 0.000000 1.788490 
# 
# From -- ./inp_files/265164.got.cif
#   From: 2010.06.25/outbox.cif.g09.slc.cpg/sg15_133_cif.got.tgz:265164.got - 2010.06.28 07:06:18.
