data_PCOD8131636
_publ_section_title
;
Structure prediction by ZEFSAII (Michael W. Deem and Ramdas Pophale) SiO2 
 PCOD8131636
Probable space group: C 2/C
;
_chemical_formula_sum "Si O2"
_cell_formula_units_Z 44
_cell_length_a 7.613937
_cell_length_b 34.578616
_cell_length_c 12.007396
_cell_angle_alpha 90.000000
_cell_angle_beta 52.500486
_cell_angle_gamma 90.000000
_cell_volume 2508.044286
_symmetry_space_group_name_H-M "C 2/C"
_symmetry_group_IT_number 15
_symmetry_cell_setting 'monoclinic'
loop_
_space_group_symop_operation_xyz
x,y,z
-x,y,1/2-z
-x,-y,-z
x,-y,1/2+z
1/2+x,1/2+y,z
1/2-x,1/2+y,1/2-z
1/2-x,1/2-y,-z
1/2+x,1/2-y,1/2+z
loop_
_atom_site_type_symbol
_atom_site_label
_atom_site_fract_x
_atom_site_fract_y
_atom_site_fract_z
Si Si1 0.474100 0.710389 0.580293
Si Si2 0.158040 0.030879 0.275106
Si Si3 0.500000 0.023764 0.750000
Si Si4 0.262417 0.929428 0.524500
Si Si5 0.338495 0.154122 0.913426
Si Si6 0.857399 0.714994 0.596865
O O1 0.387877 0.673304 0.545157
O O2 0.699815 0.699682 0.558139
O O3 0.283885 0.723848 0.738607
O O4 0.518096 0.745566 0.480272
O O5 0.000000 0.006142 0.250000
O O6 0.988860 0.057640 0.412826
O O7 0.293121 0.003552 0.303392
O O8 0.310405 0.058359 0.135442
O O9 0.555844 0.049984 0.622992
O O10 0.276811 0.883628 0.506780
O O11 0.500000 0.142727 0.750000
O O12 0.459033 0.182740 0.952236
#
# Coordination Sequence:
#
# PCOD8131636 Si02
#       6
#     8   8   4   8   8   8
#     4   9  18  33  52  75 101 133 175 206 243 302
#     4   8  22  36  50  82 103 128 172 221 248 318
#     4  12  16  38  64  70 102 144 168 212 268 302
#     4   9  20  36  53  81 107 131 176 215 257 313
#     4  10  18  34  52  74 105 137 165 211 257 293
#     4   9  18  33  52  75 101 133 175 206 243 302
#
# _framework density 17.543551000000001
#
# number of rings (size 3 to 8) (size 9 to 14) (size 15 to 20)
#    1.091    1.455    0.909    1.636    0.000    0.000 
#    9.818    0.000    0.000    0.000    0.000    0.000 
#    0.000    0.000    0.000    0.000    0.000    0.000 
#
# Total GULP energy -272601.153552 kJ/mol
# GULP energy per Si atom -12390.961525 kJ/mol
# Density = 1.750362 g / cm^3
# Si number density = 17.543551 Si / 1000 Ang^3
#
#
#
# Elastic Constant Matrix: (Units=GPa)
#
#
# Indices 1 2 3 4 5 6 
#
# 1 62.3431 21.6664 -1.4190 0.0000 -3.9646 0.0000
# 2 21.6664 77.3874 21.7826 0.0000 1.9311 0.0000
# 3 -1.4190 21.7826 56.5834 0.0000 -2.3438 0.0000
# 4 0.0000 0.0000 0.0000 15.5324 0.0000 -8.5603
# 5 -3.9646 1.9311 -2.3438 0.0000 18.1934 0.0000
# 6 0.0000 0.0000 0.0000 -8.5603 0.0000 13.8734
#
#
#
# Elastic Compliance Matrix: (Units=1/GPa)
#
#
# Indices 1 2 3 4 5 6 
#
# 1 0.018587 -0.006193 0.003061 0.000000 0.005102 0.000000
# 2 -0.006193 0.016649 -0.006730 0.000000 -0.003984 0.000000
# 3 0.003061 -0.006730 0.020507 0.000000 0.004023 0.000000
# 4 0.000000 0.000000 0.000000 0.097557 0.000000 0.060196
# 5 0.005102 -0.003984 0.004023 0.000000 0.057018 0.000000
# 6 0.000000 0.000000 0.000000 0.060196 0.000000 0.109223
#
#
# Mechanical properties :
#
#
# Convention : Reuss Voigt Hill
#
# Bulk Modulus (GPa) = 27.76152 31.15264 29.45708
# Shear Modulus (GPa) = 14.23403 19.80543 17.01973
#
# Velocity S-wave (km/s) = 2.85152 3.36360 3.11809
# Velocity P-wave (km/s) = 5.16723 5.73419 5.45808
#
# Compressibility (1/GPa) = 0.03602108
#
# Stress axis : x y z
#
# Youngs Moduli (GPa) = 53.80217 60.06199 48.76343
#
# Poissons Ratio (x) = 0.37195 -0.14929
# Poissons Ratio (y) = 0.33318 0.32817
# Poissons Ratio (z) = -0.16471 0.40420
#
# Static dielectric constant tensor:
#      x y z
#    x 3.195240 0.000000 -0.059410 
#    y 0.000000 3.014540 0.000000 
#    z -0.059410 0.000000 3.290020 
# 
# 
# High freq. dielectric constant tensor:
#      x y z
#    x 1.667410 0.000000 -0.003610 
#    y 0.000000 1.660100 0.000000 
#    z -0.003610 0.000000 1.682950 
# 
# From -- ./inp_files/138170.got.cif
#   From: 2010.06.25/outbox.cif.g09.slc.cpg/sg15_70_cif.got.tgz:138170.got - 2010.06.28 07:06:18.
