data_PCOD8131120
_publ_section_title
;
Structure prediction by ZEFSAII (Michael W. Deem and Ramdas Pophale) SiO2 
 PCOD8131120
Probable space group: C 2/C
;
_chemical_formula_sum "Si O2"
_cell_formula_units_Z 64
_cell_length_a 14.513177
_cell_length_b 13.055704
_cell_length_c 21.866363
_cell_angle_alpha 90.000000
_cell_angle_beta 70.618238
_cell_angle_gamma 90.000000
_cell_volume 3908.428965
_symmetry_space_group_name_H-M "C 2/C"
_symmetry_group_IT_number 15
_symmetry_cell_setting 'monoclinic'
loop_
_space_group_symop_operation_xyz
x,y,z
-x,y,1/2-z
-x,-y,-z
x,-y,1/2+z
1/2+x,1/2+y,z
1/2-x,1/2+y,1/2-z
1/2-x,1/2-y,-z
1/2+x,1/2-y,1/2+z
loop_
_atom_site_type_symbol
_atom_site_label
_atom_site_fract_x
_atom_site_fract_y
_atom_site_fract_z
Si Si1 0.235375 0.460510 0.924662
Si Si2 0.644597 0.381861 0.174085
Si Si3 0.744462 0.297008 0.908980
Si Si4 0.589963 0.210510 0.424662
Si Si5 0.391999 0.394432 0.986151
Si Si6 0.371849 0.144432 0.486151
Si Si7 0.931318 0.131861 0.674085
Si Si8 0.096558 0.952992 0.908980
O O1 0.301059 0.514353 0.858107
O O2 0.172953 0.375000 0.904093
O O3 0.301788 0.402555 0.959829
O O4 0.162900 0.541736 0.972347
O O5 0.711904 0.285729 0.145867
O O6 0.624312 0.375000 0.250000
O O7 0.547216 0.375000 0.155567
O O8 0.829972 0.356600 0.926397
O O9 0.685262 0.375000 0.879477
O O10 0.668501 0.246822 0.973099
O O11 0.614754 0.291736 0.472347
O O12 0.488383 0.152555 0.459829
O O13 0.590834 0.264353 0.358107
O O14 0.493630 0.393400 0.926397
O O15 0.391600 0.496822 0.026901
O O16 0.892229 0.035729 0.645867
#
# Coordination Sequence:
#
# PCOD8131120 Si02
#       8
#     8   8   8   8   8   8   8   8
#     4  11  21  34  53  79 111 139 164 217 263 314
#     4  10  21  36  54  75 100 138 185 219 249 300
#     4  10  18  31  55  76 102 134 167 213 255 308
#     4  11  21  34  53  79 111 139 164 217 263 314
#     4  10  19  31  50  82 106 130 168 203 264 316
#     4  10  19  31  50  82 106 130 168 203 264 316
#     4  10  21  36  54  75 100 138 185 219 249 300
#     4  10  18  31  55  76 102 134 167 213 255 308
#
# _framework density 16.374866999999998
#
# number of rings (size 3 to 8) (size 9 to 14) (size 15 to 20)
#    0.000    1.750    5.000    0.750    0.000    1.000 
#    0.000    0.000    0.000    0.000    0.000    1.750 
#    0.000    0.000    0.000    0.000    0.000    0.000 
#
# Total GULP energy -396835.278592 kJ/mol
# GULP energy per Si atom -12401.102456 kJ/mol
# Density = 1.633760 g / cm^3
# Si number density = 16.374867 Si / 1000 Ang^3
#
#
#
# Elastic Constant Matrix: (Units=GPa)
#
#
# Indices 1 2 3 4 5 6 
#
# 1 123.4426 63.7640 52.3945 0.0000 -0.5628 0.0000
# 2 63.7640 98.4847 38.8813 0.0000 -0.4018 0.0000
# 3 52.3945 38.8813 71.4250 0.0000 -0.2772 0.0000
# 4 0.0000 0.0000 0.0000 13.0872 0.0000 -0.4093
# 5 -0.5628 -0.4018 -0.2772 0.0000 18.1033 0.0000
# 6 0.0000 0.0000 0.0000 -0.4093 0.0000 38.4266
#
#
#
# Elastic Compliance Matrix: (Units=1/GPa)
#
#
# Indices 1 2 3 4 5 6 
#
# 1 0.014505 -0.006611 -0.007041 0.000000 0.000196 0.000000
# 2 -0.006611 0.015947 -0.003831 0.000000 0.000090 0.000000
# 3 -0.007041 -0.003831 0.021251 0.000000 0.000022 0.000000
# 4 0.000000 0.000000 0.000000 0.076436 0.000000 0.000814
# 5 0.000196 0.000090 0.000022 0.000000 0.055247 0.000000
# 6 0.000000 0.000000 0.000000 0.000814 0.000000 0.026032
#
#
# Mechanical properties :
#
#
# Convention : Reuss Voigt Hill
#
# Bulk Modulus (GPa) = 59.74606 67.04800 63.39703
# Shear Modulus (GPa) = 20.00290 23.14426 21.57358
#
# Velocity S-wave (km/s) = 3.49888 3.76360 3.63365
# Velocity P-wave (km/s) = 7.27245 7.74085 7.51030
#
# Compressibility (1/GPa) = 0.01673751
#
# Stress axis : x y z
#
# Youngs Moduli (GPa) = 68.94133 62.70794 47.05612
#
# Poissons Ratio (x) = 0.41455 0.33132
# Poissons Ratio (y) = 0.45576 0.18028
# Poissons Ratio (z) = 0.48541 0.24025
#
# Static dielectric constant tensor:
#      x y z
#    x 3.138550 0.000000 -0.004340 
#    y 0.000000 3.025030 0.000000 
#    z -0.004340 0.000000 2.869800 
# 
# 
# High freq. dielectric constant tensor:
#      x y z
#    x 1.639020 0.000000 -0.000480 
#    y 0.000000 1.630330 0.000000 
#    z -0.000480 0.000000 1.609470 
# 
# From -- ./inp_files/244213.got.cif
#   From: 2010.06.25/outbox.cif.g09.slc.cpg/sg15_123_cif.got.tgz:244213.got - 2010.06.28 07:06:18.
