data_PCOD8131834
_publ_section_title
;
Structure prediction by ZEFSAII (Michael W. Deem and Ramdas Pophale) SiO2 
 PCOD8131834
Probable space group: C 2/C
;
_chemical_formula_sum "Si O2"
_cell_formula_units_Z 60
_cell_length_a 14.362843
_cell_length_b 15.363663
_cell_length_c 13.651907
_cell_angle_alpha 90.000000
_cell_angle_beta 117.267935
_cell_angle_gamma 90.000000
_cell_volume 2677.741186
_symmetry_space_group_name_H-M "C 2/C"
_symmetry_group_IT_number 15
_symmetry_cell_setting 'monoclinic'
loop_
_space_group_symop_operation_xyz
x,y,z
-x,y,1/2-z
-x,-y,-z
x,-y,1/2+z
1/2+x,1/2+y,z
1/2-x,1/2+y,1/2-z
1/2-x,1/2-y,-z
1/2+x,1/2-y,1/2+z
loop_
_atom_site_type_symbol
_atom_site_label
_atom_site_fract_x
_atom_site_fract_y
_atom_site_fract_z
Si Si1 0.257875 0.713730 0.825692
Si Si2 0.000000 0.894760 0.750000
Si Si3 0.589011 0.106919 0.859309
Si Si4 0.763697 0.166013 0.619556
Si Si5 0.295984 0.410321 0.746795
Si Si6 0.848940 0.838835 0.964438
Si Si7 0.456511 0.728305 0.050906
Si Si8 0.124129 0.492343 0.046243
O O1 0.167659 0.654247 0.825191
O O2 0.304986 0.664625 0.751914
O O3 0.206497 0.806666 0.775150
O O4 0.343153 0.725344 0.949070
O O5 0.101840 0.949883 0.761596
O O6 0.041393 0.838102 0.859442
O O7 0.500000 0.060422 0.750000
O O8 0.527635 0.174341 0.901142
O O9 0.650485 0.036432 0.954409
O O10 0.847806 0.130882 0.578691
O O11 0.740406 0.266214 0.586767
O O12 0.658795 0.107590 0.560050
O O13 0.316987 0.417869 0.874564
O O14 0.189797 0.458684 0.664015
O O15 0.959976 0.796567 0.991549
O O16 0.000000 0.500000 0.000000
#
# Coordination Sequence:
#
# PCOD8131834 Si02
#       8
#     8   4   8   8   8   8   8   8
#     4  11  21  36  64  93 121 160 217 270 308 374
#     4  10  18  34  60  94 122 154 200 268 312 372
#     4  12  21  36  62  99 130 159 204 266 332 378
#     4  10  23  42  56  83 125 173 212 254 300 379
#     4  10  20  38  63  92 122 163 210 263 327 374
#     4   9  21  41  63  79 119 172 219 251 296 380
#     4  11  18  33  63  95 117 149 210 265 316 358
#     4  12  25  39  62  95 137 164 199 261 335 388
#
# _framework density 22.406945
#
# number of rings (size 3 to 8) (size 9 to 14) (size 15 to 20)
#    0.000    1.333    3.333    4.400    0.000    2.667 
#    0.000    1.333    0.000    4.000    0.000    0.000 
#    0.000    0.000    0.000    0.000    0.000    0.000 
#
# Total GULP energy -371792.731476 kJ/mol
# GULP energy per Si atom -12393.091049 kJ/mol
# Density = 2.235595 g / cm^3
# Si number density = 22.406945 Si / 1000 Ang^3
#
#
#
# Elastic Constant Matrix: (Units=GPa)
#
#
# Indices 1 2 3 4 5 6 
#
# 1 123.5092 5.7549 40.4222 0.0000 -23.6961 0.0000
# 2 5.7549 33.2914 12.1789 0.0000 -9.0745 0.0000
# 3 40.4222 12.1789 93.4387 0.0000 -12.3760 0.0000
# 4 0.0000 0.0000 0.0000 25.5953 0.0000 9.5783
# 5 -23.6961 -9.0745 -12.3760 0.0000 36.1732 0.0000
# 6 0.0000 0.0000 0.0000 9.5783 0.0000 14.4001
#
#
#
# Elastic Compliance Matrix: (Units=1/GPa)
#
#
# Indices 1 2 3 4 5 6 
#
# 1 0.010430 0.001205 -0.003901 0.000000 0.005800 0.000000
# 2 0.001205 0.033371 -0.003831 0.000000 0.007850 0.000000
# 3 -0.003901 -0.003831 0.013013 0.000000 0.000936 0.000000
# 4 0.000000 0.000000 0.000000 0.052018 0.000000 -0.034600
# 5 0.005800 0.007850 0.000936 0.000000 0.033734 0.000000
# 6 0.000000 0.000000 0.000000 -0.034600 0.000000 0.092458
#
#
# Mechanical properties :
#
#
# Convention : Reuss Voigt Hill
#
# Bulk Modulus (GPa) = 22.85206 40.77236 31.81221
# Shear Modulus (GPa) = 19.03576 28.02593 23.53084
#
# Velocity S-wave (km/s) = 2.91786 3.54046 3.24413
# Velocity P-wave (km/s) = 4.64464 5.91176 5.31609
#
# Compressibility (1/GPa) = 0.04375973
#
# Stress axis : x y z
#
# Youngs Moduli (GPa) = 95.87843 29.96634 76.84602
#
# Poissons Ratio (x) = -0.03611 0.29977
# Poissons Ratio (y) = -0.11554 0.29441
# Poissons Ratio (z) = 0.37401 0.11480
#
# Static dielectric constant tensor:
#      x y z
#    x 4.213570 0.000000 -0.382910 
#    y 0.000000 3.774530 0.000000 
#    z -0.382910 0.000000 4.388230 
# 
# 
# High freq. dielectric constant tensor:
#      x y z
#    x 1.884200 0.000000 -0.016580 
#    y 0.000000 1.848790 0.000000 
#    z -0.016580 0.000000 1.894370 
# 
# From -- ./inp_files/154271.got.cif
#   From: 2010.06.25/outbox.cif.g09.slc.cpg/sg15_78_cif.got.tgz:154271.got - 2010.06.28 07:06:18.
