data_PCOD8131151
_publ_section_title
;
Structure prediction by ZEFSAII (Michael W. Deem and Ramdas Pophale) SiO2 
 PCOD8131151
Probable space group: C 2/C
;
_chemical_formula_sum "Si O2"
_cell_formula_units_Z 52
_cell_length_a 16.367638
_cell_length_b 18.853236
_cell_length_c 8.848608
_cell_angle_alpha 90.000000
_cell_angle_beta 63.857372
_cell_angle_gamma 90.000000
_cell_volume 2451.196358
_symmetry_space_group_name_H-M "C 2/C"
_symmetry_group_IT_number 15
_symmetry_cell_setting 'monoclinic'
loop_
_space_group_symop_operation_xyz
x,y,z
-x,y,1/2-z
-x,-y,-z
x,-y,1/2+z
1/2+x,1/2+y,z
1/2-x,1/2+y,1/2-z
1/2-x,1/2-y,-z
1/2+x,1/2-y,1/2+z
loop_
_atom_site_type_symbol
_atom_site_label
_atom_site_fract_x
_atom_site_fract_y
_atom_site_fract_z
Si Si1 0.607007 0.964374 0.138854
Si Si2 0.500000 0.496050 0.250000
Si Si3 0.893520 0.920784 0.582540
Si Si4 0.834370 0.734756 0.131394
Si Si5 0.976196 0.219779 0.100273
Si Si6 0.683678 0.917633 0.762071
Si Si7 0.330377 0.176297 0.797474
O O1 0.500000 0.956465 0.250000
O O2 0.661395 0.908893 0.204040
O O3 0.641654 0.043467 0.149724
O O4 0.627350 0.947461 0.949095
O O5 0.424507 0.447948 0.393391
O O6 0.549135 0.544311 0.331567
O O7 0.910605 0.836783 0.574516
O O8 0.788716 0.938213 0.694498
O O9 0.825501 0.667615 0.251844
O O10 0.758208 0.795735 0.222325
O O11 0.823095 0.704156 0.973524
O O12 0.932498 0.771104 0.072755
O O13 0.922211 0.293960 0.146753
O O14 0.000000 0.194123 0.250000
#
# Coordination Sequence:
#
# PCOD8131151 Si02
#       7
#     8   4   8   8   8   8   8
#     4  11  23  38  62  92 125 160 204 257 310 365
#     4  10  24  36  58  88 124 156 204 240 314 362
#     4  11  21  39  59  88 119 161 197 254 301 373
#     4   9  18  31  56  86 115 153 199 251 296 351
#     4  10  18  31  58  85 115 151 202 250 299 349
#     4  11  22  39  63  90 123 160 207 251 310 368
#     4   9  17  32  53  86 117 148 201 250 292 351
#
# _framework density 21.214129
#
# number of rings (size 3 to 8) (size 9 to 14) (size 15 to 20)
#    0.000    1.846    2.308    3.692    2.154    2.462 
#    0.000    0.000    5.077    1.846    0.000    0.000 
#    0.000    0.000    0.000    0.000    0.000    0.000 
#
# Total GULP energy -322406.590030 kJ/mol
# GULP energy per Si atom -12400.253463 kJ/mol
# Density = 2.116585 g / cm^3
# Si number density = 21.214129 Si / 1000 Ang^3
#
#
#
# Elastic Constant Matrix: (Units=GPa)
#
#
# Indices 1 2 3 4 5 6 
#
# 1 78.2192 20.6789 24.9850 0.0000 -33.7453 0.0000
# 2 20.6789 80.4893 3.7571 0.0000 -1.5724 0.0000
# 3 24.9850 3.7571 53.1003 0.0000 -20.3490 0.0000
# 4 0.0000 0.0000 0.0000 25.1984 0.0000 -0.9012
# 5 -33.7453 -1.5724 -20.3490 0.0000 35.4584 0.0000
# 6 0.0000 0.0000 0.0000 -0.9012 0.0000 32.1449
#
#
#
# Elastic Compliance Matrix: (Units=1/GPa)
#
#
# Indices 1 2 3 4 5 6 
#
# 1 0.024427 -0.005723 -0.002919 0.000000 0.021318 0.000000
# 2 -0.005723 0.013806 -0.000175 0.000000 -0.004935 0.000000
# 3 -0.002919 -0.000175 0.024550 0.000000 0.011303 0.000000
# 4 0.000000 0.000000 0.000000 0.039725 0.000000 0.001114
# 5 0.021318 -0.004935 0.011303 0.000000 0.054757 0.000000
# 6 0.000000 0.000000 0.000000 0.001114 0.000000 0.031140
#
#
# Mechanical properties :
#
#
# Convention : Reuss Voigt Hill
#
# Bulk Modulus (GPa) = 22.14934 34.51675 28.33305
# Shear Modulus (GPa) = 22.61531 29.38618 26.00075
#
# Velocity S-wave (km/s) = 3.26858 3.72589 3.50470
# Velocity P-wave (km/s) = 4.97075 5.90048 5.45546
#
# Compressibility (1/GPa) = 0.04514808
#
# Stress axis : x y z
#
# Youngs Moduli (GPa) = 40.93853 72.43189 40.73377
#
# Poissons Ratio (x) = 0.41452 0.11891
# Poissons Ratio (y) = 0.23429 0.00713
# Poissons Ratio (z) = 0.11951 0.01269
#
# Static dielectric constant tensor:
#      x y z
#    x 3.680750 0.000000 -0.310170 
#    y 0.000000 3.972440 0.000000 
#    z -0.310170 0.000000 3.728970 
# 
# 
# High freq. dielectric constant tensor:
#      x y z
#    x 1.822190 0.000000 -0.033100 
#    y 0.000000 1.834840 0.000000 
#    z -0.033100 0.000000 1.809080 
# 
# From -- ./inp_files/48959.got.cif
#   From: 2010.06.25/outbox.cif.g09.slc.cpg/sg15_25_cif.got.tgz:48959.got - 2010.06.28 07:06:18.
