data_PCOD8131171
_publ_section_title
;
Structure prediction by ZEFSAII (Michael W. Deem and Ramdas Pophale) SiO2 
 PCOD8131171
Probable space group: C 2/C
;
_chemical_formula_sum "Si O2"
_cell_formula_units_Z 56
_cell_length_a 15.528855
_cell_length_b 23.502556
_cell_length_c 13.974249
_cell_angle_alpha 90.000000
_cell_angle_beta 138.458669
_cell_angle_gamma 90.000000
_cell_volume 3382.216669
_symmetry_space_group_name_H-M "C 2/C"
_symmetry_group_IT_number 15
_symmetry_cell_setting 'monoclinic'
loop_
_space_group_symop_operation_xyz
x,y,z
-x,y,1/2-z
-x,-y,-z
x,-y,1/2+z
1/2+x,1/2+y,z
1/2-x,1/2+y,1/2-z
1/2-x,1/2-y,-z
1/2+x,1/2-y,1/2+z
loop_
_atom_site_type_symbol
_atom_site_label
_atom_site_fract_x
_atom_site_fract_y
_atom_site_fract_z
Si Si1 0.436137 0.608539 0.096401
Si Si2 0.450784 0.927412 0.383256
Si Si3 0.533143 0.799984 0.164999
Si Si4 0.682378 0.990562 0.068884
Si Si5 0.386895 0.538807 0.368981
Si Si6 0.698104 0.275287 0.054324
Si Si7 0.760477 0.492323 0.090382
O O1 0.500000 0.625274 0.250000
O O2 0.552342 0.599135 0.114809
O O3 0.342247 0.658954 0.986642
O O4 0.354408 0.550518 0.035787
O O5 0.471530 0.861226 0.386228
O O6 0.371945 0.936811 0.416771
O O7 0.376358 0.955634 0.232151
O O8 0.592075 0.954646 0.510110
O O9 0.500000 0.803798 0.250000
O O10 0.678173 0.773286 0.270740
O O11 0.428062 0.761460 0.020139
O O12 0.823525 0.007934 0.224780
O O13 0.690683 0.974941 0.963645
O O14 0.500000 0.500000 0.500000
O O15 0.283741 0.541499 0.371038
O O16 0.750000 0.250000 0.000000
#
# Coordination Sequence:
#
# PCOD8131171 Si02
#       7
#     8   8   8   8   8   8   8
#     4  11  18  30  47  67  97 130 160 202 249 289
#     4  10  20  31  49  72  99 135 168 201 248 299
#     4  10  19  33  48  68 100 131 165 207 250 296
#     4  10  19  31  48  72  97 133 170 198 246 304
#     4   9  20  30  45  71  96 130 166 200 243 302
#     4  10  21  31  46  72  96 132 171 201 249 305
#     4  10  18  32  49  68 101 131 162 201 247 291
#
# _framework density 16.557189000000001
#
# number of rings (size 3 to 8) (size 9 to 14) (size 15 to 20)
#    0.000    2.000    2.857    2.571    2.000    1.143 
#    0.000    0.000    0.000    0.000    0.000    1.000 
#    0.000    2.286    0.000    0.000    0.000    0.000 
#
# Total GULP energy -347001.227843 kJ/mol
# GULP energy per Si atom -12392.900994 kJ/mol
# Density = 1.651950 g / cm^3
# Si number density = 16.557189 Si / 1000 Ang^3
#
#
#
# Elastic Constant Matrix: (Units=GPa)
#
#
# Indices 1 2 3 4 5 6 
#
# 1 83.6253 35.1664 25.8427 0.0000 -8.1518 0.0000
# 2 35.1664 69.1957 28.4188 0.0000 7.7195 0.0000
# 3 25.8427 28.4188 95.9743 0.0000 14.5210 0.0000
# 4 0.0000 0.0000 0.0000 21.0877 0.0000 4.4352
# 5 -8.1518 7.7195 14.5210 0.0000 28.9447 0.0000
# 6 0.0000 0.0000 0.0000 4.4352 0.0000 26.1989
#
#
#
# Elastic Compliance Matrix: (Units=1/GPa)
#
#
# Indices 1 2 3 4 5 6 
#
# 1 0.017471 -0.008413 -0.003568 0.000000 0.008954 0.000000
# 2 -0.008413 0.020623 -0.002868 0.000000 -0.006430 0.000000
# 3 -0.003568 -0.002868 0.013273 0.000000 -0.006899 0.000000
# 4 0.000000 0.000000 0.000000 0.049172 0.000000 -0.008324
# 5 0.008954 -0.006430 -0.006899 0.000000 0.042247 0.000000
# 6 0.000000 0.000000 0.000000 -0.008324 0.000000 0.039579
#
#
# Mechanical properties :
#
#
# Convention : Reuss Voigt Hill
#
# Bulk Modulus (GPa) = 46.14903 47.51680 46.83292
# Shear Modulus (GPa) = 22.80127 25.87075 24.33601
#
# Velocity S-wave (km/s) = 3.71499 3.95715 3.83798
# Velocity P-wave (km/s) = 6.80695 7.04554 6.92727
#
# Compressibility (1/GPa) = 0.02166893
#
# Stress axis : x y z
#
# Youngs Moduli (GPa) = 57.23633 48.49034 75.33859
#
# Poissons Ratio (x) = 0.40794 0.26882
# Poissons Ratio (y) = 0.48151 0.21610
# Poissons Ratio (z) = 0.20423 0.13909
#
# Static dielectric constant tensor:
#      x y z
#    x 3.428880 0.000000 0.283680 
#    y 0.000000 2.967880 0.000000 
#    z 0.283680 0.000000 3.498890 
# 
# 
# High freq. dielectric constant tensor:
#      x y z
#    x 1.618750 0.000000 0.025250 
#    y 0.000000 1.602660 0.000000 
#    z 0.025250 0.000000 1.658090 
# 
# From -- ./inp_files/51311.got.cif
#   From: 2010.06.25/outbox.cif.g09.slc.cpg/sg15_26_cif.got.tgz:51311.got - 2010.06.28 07:06:18.
