data_PCOD8131072
_publ_section_title
;
Structure prediction by ZEFSAII (Michael W. Deem and Ramdas Pophale) SiO2 
 PCOD8131072
Probable space group: C 2/C
;
_chemical_formula_sum "Si O2"
_cell_formula_units_Z 56
_cell_length_a 11.546047
_cell_length_b 33.177146
_cell_length_c 8.484747
_cell_angle_alpha 90.000000
_cell_angle_beta 121.320482
_cell_angle_gamma 90.000000
_cell_volume 2776.565686
_symmetry_space_group_name_H-M "C 2/C"
_symmetry_group_IT_number 15
_symmetry_cell_setting 'monoclinic'
loop_
_space_group_symop_operation_xyz
x,y,z
-x,y,1/2-z
-x,-y,-z
x,-y,1/2+z
1/2+x,1/2+y,z
1/2-x,1/2+y,1/2-z
1/2-x,1/2-y,-z
1/2+x,1/2-y,1/2+z
loop_
_atom_site_type_symbol
_atom_site_label
_atom_site_fract_x
_atom_site_fract_y
_atom_site_fract_z
Si Si1 0.709888 0.908676 0.155421
Si Si2 0.689074 0.825175 0.747896
Si Si3 0.967439 0.044246 0.910218
Si Si4 0.385564 0.177232 0.941817
Si Si5 0.281289 0.588282 0.340712
Si Si6 0.467922 0.042941 0.410094
Si Si7 0.851167 0.755106 0.712686
O O1 0.817956 0.935916 0.331384
O O2 0.692451 0.861520 0.190245
O O3 0.746932 0.912042 0.999783
O O4 0.560982 0.926746 0.075406
O O5 0.549361 0.824717 0.549621
O O6 0.759506 0.867451 0.757514
O O7 0.799672 0.792267 0.779438
O O8 0.659296 0.818691 0.909983
O O9 0.000000 0.042802 0.750000
O O10 0.064295 0.074926 0.072939
O O11 0.000000 0.000000 0.000000
O O12 0.340219 0.215676 0.812125
O O13 0.187835 0.556366 0.178511
O O14 0.500000 0.044841 0.250000
O O15 0.500000 0.000000 0.500000
O O16 0.750000 0.750000 0.500000
O O17 0.000000 0.763475 0.750000
#
# Coordination Sequence:
#
# PCOD8131072 Si02
#       7
#     8   8   8   8   8   8   8
#     4   9  18  34  58  83 110 150 195 247 293 335
#     4  10  20  40  67  91 116 156 214 257 295 356
#     4  10  20  35  54  80 119 155 191 240 298 352
#     4  10  20  40  67  91 116 156 213 260 291 357
#     4   9  18  34  58  82 110 149 194 250 292 332
#     4  10  18  31  52  80 110 144 188 235 290 346
#     4  12  25  42  61  90 132 166 190 243 324 378
#
# _framework density 20.168800000000001
#
# number of rings (size 3 to 8) (size 9 to 14) (size 15 to 20)
#    0.000    2.000    2.857    1.286    0.000    1.143 
#    0.000    5.714    0.000    0.000    0.000    0.000 
#    0.000    0.000    0.000    0.000    0.000    0.000 
#
# Total GULP energy -346989.403797 kJ/mol
# GULP energy per Si atom -12392.478707 kJ/mol
# Density = 2.012289 g / cm^3
# Si number density = 20.168800 Si / 1000 Ang^3
#
#
#
# Elastic Constant Matrix: (Units=GPa)
#
#
# Indices 1 2 3 4 5 6 
#
# 1 72.0687 44.2546 36.4801 0.0000 29.3213 0.0000
# 2 44.2546 182.5211 67.4526 0.0000 23.4189 0.0000
# 3 36.4801 67.4526 96.2092 0.0000 37.7823 0.0000
# 4 0.0000 0.0000 0.0000 40.0514 0.0000 12.3827
# 5 29.3213 23.4189 37.7823 0.0000 29.0319 0.0000
# 6 0.0000 0.0000 0.0000 12.3827 0.0000 28.9390
#
#
#
# Elastic Compliance Matrix: (Units=1/GPa)
#
#
# Indices 1 2 3 4 5 6 
#
# 1 0.025757 -0.004196 0.004218 0.000000 -0.028118 0.000000
# 2 -0.004196 0.008115 -0.006528 0.000000 0.006188 0.000000
# 3 0.004218 -0.006528 0.026541 0.000000 -0.033534 0.000000
# 4 0.000000 0.000000 0.000000 0.028775 0.000000 -0.012312
# 5 -0.028118 0.006188 -0.033534 0.000000 0.101492 0.000000
# 6 0.000000 0.000000 0.000000 -0.012312 0.000000 0.039824
#
#
# Mechanical properties :
#
#
# Convention : Reuss Voigt Hill
#
# Bulk Modulus (GPa) = 21.09741 71.90820 46.50280
# Shear Modulus (GPa) = 19.28138 33.11191 26.19665
#
# Velocity S-wave (km/s) = 3.09528 4.05623 3.60789
# Velocity P-wave (km/s) = 4.82260 7.59394 6.36103
#
# Compressibility (1/GPa) = 0.04739918
#
# Stress axis : x y z
#
# Youngs Moduli (GPa) = 38.82402 123.23030 37.67754
#
# Poissons Ratio (x) = 0.51708 -0.15891
# Poissons Ratio (y) = 0.16291 0.24598
# Poissons Ratio (z) = -0.16374 0.80450
#
# Static dielectric constant tensor:
#      x y z
#    x 5.383020 0.000000 1.195320 
#    y 0.000000 4.019120 0.000000 
#    z 1.195320 0.000000 4.182120 
# 
# 
# High freq. dielectric constant tensor:
#      x y z
#    x 1.771420 0.000000 0.022700 
#    y 0.000000 1.801550 0.000000 
#    z 0.022700 0.000000 1.783980 
# 
# From -- ./inp_files/35746.got.cif
#   From: 2010.06.25/outbox.cif.g09.slc.cpg/sg15_18_cif.got.tgz:35746.got - 2010.06.28 07:06:18.
