data_PCOD8131287
_publ_section_title
;
Structure prediction by ZEFSAII (Michael W. Deem and Ramdas Pophale) SiO2 
 PCOD8131287
Probable space group: C 2/C
;
_chemical_formula_sum "Si O2"
_cell_formula_units_Z 60
_cell_length_a 13.264261
_cell_length_b 26.545915
_cell_length_c 18.825667
_cell_angle_alpha 90.000000
_cell_angle_beta 28.795289
_cell_angle_gamma 90.000000
_cell_volume 3192.943296
_symmetry_space_group_name_H-M "C 2/C"
_symmetry_group_IT_number 15
_symmetry_cell_setting 'monoclinic'
loop_
_space_group_symop_operation_xyz
x,y,z
-x,y,1/2-z
-x,-y,-z
x,-y,1/2+z
1/2+x,1/2+y,z
1/2-x,1/2+y,1/2-z
1/2-x,1/2-y,-z
1/2+x,1/2-y,1/2+z
loop_
_atom_site_type_symbol
_atom_site_label
_atom_site_fract_x
_atom_site_fract_y
_atom_site_fract_z
Si Si1 0.636458 0.103870 0.100611
Si Si2 0.000000 0.283716 0.250000
Si Si3 0.222181 0.643777 0.267875
Si Si4 0.108888 0.426951 0.957922
Si Si5 0.559141 0.841172 0.350245
Si Si6 0.522957 0.338729 0.023908
Si Si7 0.601789 0.231665 0.438011
Si Si8 0.260702 0.533033 0.905431
O O1 0.500000 0.083609 0.250000
O O2 0.500230 0.138965 0.133672
O O3 0.825320 0.139528 0.009410
O O4 0.702132 0.052899 0.019757
O O5 0.050322 0.318114 0.151022
O O6 0.791930 0.251045 0.369014
O O7 0.248859 0.599229 0.309750
O O8 0.214478 0.698444 0.308272
O O9 0.411820 0.640470 0.094374
O O10 0.233695 0.473226 0.914808
O O11 0.074163 0.389328 0.044601
O O12 0.881260 0.441479 0.067617
O O13 0.558774 0.800739 0.415169
O O14 0.793467 0.858003 0.185910
O O15 0.524655 0.277643 0.020396
O O16 0.500000 0.548936 0.750000
#
# Coordination Sequence:
#
# PCOD8131287 Si02
#       8
#     8   4   8   8   8   8   8   8
#     4   9  19  35  56  80 107 139 170 221 271 316
#     4  10  20  34  52  74 104 144 178 218 256 308
#     4   9  19  36  53  76 111 143 178 213 258 313
#     4   9  20  38  55  76 108 136 176 227 259 319
#     4  10  20  35  52  79 108 138 179 222 261 304
#     4  10  18  32  55  81 108 140 174 215 269 312
#     4  10  20  35  53  76 107 147 180 214 254 313
#     4  10  19  37  59  79 101 137 180 217 272 322
#
# _framework density 18.791439
#
# number of rings (size 3 to 8) (size 9 to 14) (size 15 to 20)
#    0.000    2.400    0.000    2.800    0.000    1.600 
#   10.800    1.333    0.000    6.400    0.000    0.000 
#    0.000    0.000    0.000    0.000    0.000    0.000 
#
# Total GULP energy -371929.385546 kJ/mol
# GULP energy per Si atom -12397.646185 kJ/mol
# Density = 1.874867 g / cm^3
# Si number density = 18.791439 Si / 1000 Ang^3
#
#
#
# Elastic Constant Matrix: (Units=GPa)
#
#
# Indices 1 2 3 4 5 6 
#
# 1 85.3037 40.8167 39.2138 0.0216 8.7577 -0.0068
# 2 40.8167 102.5712 30.6710 0.0072 10.1817 -0.0071
# 3 39.2138 30.6710 100.0001 0.0157 6.7411 -0.0272
# 4 0.0216 0.0072 0.0157 18.8539 0.0080 4.8734
# 5 8.7577 10.1817 6.7411 0.0080 27.2609 0.0059
# 6 -0.0068 -0.0071 -0.0272 4.8734 0.0059 31.7309
#
#
#
# Elastic Compliance Matrix: (Units=1/GPa)
#
#
# Indices 1 2 3 4 5 6 
#
# 1 0.016520 -0.004906 -0.004820 -0.000012 -0.002283 0.000001
# 2 -0.004906 0.012481 -0.001725 0.000003 -0.002659 0.000000
# 3 -0.004820 -0.001725 0.012479 -0.000007 -0.000893 0.000010
# 4 -0.000012 0.000003 -0.000007 0.055232 -0.000010 -0.008483
# 5 -0.002283 -0.002659 -0.000893 -0.000010 0.038630 -0.000007
# 6 0.000001 0.000000 0.000010 -0.008483 -0.000007 0.032818
#
#
# Mechanical properties :
#
#
# Convention : Reuss Voigt Hill
#
# Bulk Modulus (GPa) = 53.82312 56.58645 55.20478
# Shear Modulus (GPa) = 25.34780 27.38070 26.36425
#
# Velocity S-wave (km/s) = 3.67672 3.82132 3.74972
# Velocity P-wave (km/s) = 6.83586 7.04615 6.94180
#
# Compressibility (1/GPa) = 0.01857938
#
# Stress axis : x y z
#
# Youngs Moduli (GPa) = 60.53155 80.11881 80.13327
#
# Poissons Ratio (x) = 0.39308 0.38621
# Poissons Ratio (y) = 0.29698 0.13823
# Poissons Ratio (z) = 0.29173 0.13821
#
# Static dielectric constant tensor:
#      x y z
#    x 3.501440 -0.000040 0.180730 
#    y -0.000040 3.427110 0.000130 
#    z 0.180730 0.000130 3.472290 
# 
# 
# High freq. dielectric constant tensor:
#      x y z
#    x 1.727060 0.000000 0.011020 
#    y 0.000000 1.724240 0.000010 
#    z 0.011020 0.000010 1.734280 
# 
# From -- ./inp_files/201250.got.cif
#   From: 2010.06.25/outbox.cif.g09.slc.cpg/sg15_101_cif.got.tgz:201250.got - 2010.06.28 07:06:18.
