data_PCOD8131388
_publ_section_title
;
Structure prediction by ZEFSAII (Michael W. Deem and Ramdas Pophale) SiO2 
 PCOD8131388
Probable space group: C 2/C
;
_chemical_formula_sum "Si O2"
_cell_formula_units_Z 40
_cell_length_a 13.750022
_cell_length_b 12.651702
_cell_length_c 10.821194
_cell_angle_alpha 90.000000
_cell_angle_beta 73.690783
_cell_angle_gamma 90.000000
_cell_volume 1806.717430
_symmetry_space_group_name_H-M "C 2/C"
_symmetry_group_IT_number 15
_symmetry_cell_setting 'monoclinic'
loop_
_space_group_symop_operation_xyz
x,y,z
-x,y,1/2-z
-x,-y,-z
x,-y,1/2+z
1/2+x,1/2+y,z
1/2-x,1/2+y,1/2-z
1/2-x,1/2-y,-z
1/2+x,1/2-y,1/2+z
loop_
_atom_site_type_symbol
_atom_site_label
_atom_site_fract_x
_atom_site_fract_y
_atom_site_fract_z
Si Si1 0.154042 0.769721 0.649983
Si Si2 0.214951 0.462522 0.911407
Si Si3 0.021461 0.847824 0.909398
Si Si4 0.880220 0.540927 0.798796
Si Si5 0.420474 0.562702 0.877155
O O1 0.253439 0.837682 0.572711
O O2 0.065378 0.756950 0.575868
O O3 0.175758 0.654619 0.698483
O O4 0.105820 0.845109 0.773070
O O5 0.154301 0.467232 0.803441
O O6 0.308714 0.543280 0.863383
O O7 0.151284 0.502408 0.053849
O O8 0.956511 0.954350 0.924852
O O9 0.080047 0.844787 0.018676
O O10 0.000000 0.553068 0.750000
O O11 0.500000 0.605584 0.750000
#
# Coordination Sequence:
#
# PCOD8131388 Si02
#       5
#     8   8   8   8   8
#     4  10  19  40  66  90 121 165 211 263 312 393
#     4  11  24  40  66 100 123 169 222 259 316 387
#     4   9  16  32  60  89 122 154 200 245 327 371
#     4  12  25  45  67  87 131 179 218 260 313 374
#     4  10  18  32  61  94 130 152 194 273 332 366
#
# _framework density 22.139600000000002
#
# number of rings (size 3 to 8) (size 9 to 14) (size 15 to 20)
#    0.000    1.600    6.000    2.400    5.600    0.000 
#    0.000    4.000    0.000    0.000    0.000    0.000 
#    0.000    0.000    0.000    0.000    0.000    0.000 
#
# Total GULP energy -247812.882511 kJ/mol
# GULP energy per Si atom -12390.644126 kJ/mol
# Density = 2.208921 g / cm^3
# Si number density = 22.139600 Si / 1000 Ang^3
#
#
#
# Elastic Constant Matrix: (Units=GPa)
#
#
# Indices 1 2 3 4 5 6 
#
# 1 78.3984 18.3949 48.3357 0.0000 0.7958 0.0000
# 2 18.3949 43.9538 4.4406 0.0000 10.2574 0.0000
# 3 48.3357 4.4406 114.0294 0.0000 -6.0556 0.0000
# 4 0.0000 0.0000 0.0000 5.7803 0.0000 4.1436
# 5 0.7958 10.2574 -6.0556 0.0000 40.3471 0.0000
# 6 0.0000 0.0000 0.0000 4.1436 0.0000 21.0545
#
#
#
# Elastic Compliance Matrix: (Units=1/GPa)
#
#
# Indices 1 2 3 4 5 6 
#
# 1 0.019353 -0.007373 -0.007900 0.000000 0.000307 0.000000
# 2 -0.007373 0.027181 0.001721 0.000000 -0.006507 0.000000
# 3 -0.007900 0.001721 0.012133 0.000000 0.001539 0.000000
# 4 0.000000 0.000000 0.000000 0.201417 0.000000 -0.039640
# 5 0.000307 -0.006507 0.001539 0.000000 0.026664 0.000000
# 6 0.000000 0.000000 0.000000 -0.039640 0.000000 0.055297
#
#
# Mechanical properties :
#
#
# Convention : Reuss Voigt Hill
#
# Bulk Modulus (GPa) = 31.68171 42.08046 36.88109
# Shear Modulus (GPa) = 13.16934 24.45041 18.80987
#
# Velocity S-wave (km/s) = 2.44156 3.32682 2.91796
# Velocity P-wave (km/s) = 4.72116 5.81422 5.29596
#
# Compressibility (1/GPa) = 0.03156396
#
# Stress axis : x y z
#
# Youngs Moduli (GPa) = 51.67204 36.79012 82.41912
#
# Poissons Ratio (x) = 0.27124 0.65111
# Poissons Ratio (y) = 0.38097 -0.14186
# Poissons Ratio (z) = 0.40821 -0.06332
#
# Static dielectric constant tensor:
#      x y z
#    x 4.173510 0.000000 0.139170 
#    y 0.000000 3.723090 0.000000 
#    z 0.139170 0.000000 4.190590 
# 
# 
# High freq. dielectric constant tensor:
#      x y z
#    x 1.860110 0.000000 -0.011230 
#    y 0.000000 1.828350 0.000000 
#    z -0.011230 0.000000 1.887360 
# 
# From -- ./inp_files/85552.got.cif
#   From: 2010.06.25/outbox.cif.g09.slc.cpg/sg15_43_cif.got.tgz:85552.got - 2010.06.28 07:06:18.
