data_PCOD8131356
_publ_section_title
;
Structure prediction by ZEFSAII (Michael W. Deem and Ramdas Pophale) SiO2 
 PCOD8131356
Probable space group: C 2/C
;
_chemical_formula_sum "Si O2"
_cell_formula_units_Z 56
_cell_length_a 16.268732
_cell_length_b 11.274665
_cell_length_c 15.650121
_cell_angle_alpha 90.000000
_cell_angle_beta 105.037743
_cell_angle_gamma 90.000000
_cell_volume 2772.311788
_symmetry_space_group_name_H-M "C 2/C"
_symmetry_group_IT_number 15
_symmetry_cell_setting 'monoclinic'
loop_
_space_group_symop_operation_xyz
x,y,z
-x,y,1/2-z
-x,-y,-z
x,-y,1/2+z
1/2+x,1/2+y,z
1/2-x,1/2+y,1/2-z
1/2-x,1/2-y,-z
1/2+x,1/2-y,1/2+z
loop_
_atom_site_type_symbol
_atom_site_label
_atom_site_fract_x
_atom_site_fract_y
_atom_site_fract_z
Si Si1 0.552204 0.591129 0.341898
Si Si2 0.536628 0.106781 0.456848
Si Si3 0.594980 0.285391 0.610720
Si Si4 0.169728 0.439389 0.433352
Si Si5 0.359672 0.486959 0.479062
Si Si6 0.370398 0.774309 0.917150
Si Si7 0.808422 0.749396 0.699596
O O1 0.500000 0.528769 0.250000
O O2 0.495073 0.698938 0.364890
O O3 0.579119 0.495515 0.421280
O O4 0.638842 0.646033 0.329875
O O5 0.589275 0.193891 0.532177
O O6 0.456024 0.176277 0.393552
O O7 0.500000 0.000000 0.500000
O O8 0.602557 0.048624 0.407164
O O9 0.622716 0.413743 0.585598
O O10 0.665774 0.234634 0.694740
O O11 0.261725 0.492710 0.481196
O O12 0.145596 0.344496 0.499199
O O13 0.174480 0.375055 0.343208
O O14 0.385273 0.361941 0.444618
O O15 0.290718 0.786411 0.831969
#
# Coordination Sequence:
#
# PCOD8131356 Si02
#       7
#     8   8   8   8   8   8   8
#     4  10  18  32  58  86 115 154 203 247 286 356
#     4  10  21  38  60  87 117 161 199 247 310 365
#     4  11  23  35  60  92 120 151 205 257 303 354
#     4  10  19  37  64  84 116 166 202 240 305 373
#     4  11  19  36  60  89 120 160 201 248 309 358
#     4  10  18  37  62  86 119 159 206 244 307 366
#     4  10  19  38  62  89 114 155 212 247 288 370
#
# _framework density 20.199749000000001
#
# number of rings (size 3 to 8) (size 9 to 14) (size 15 to 20)
#    0.000    1.714    4.286    2.143    0.000    0.571 
#   10.286    0.000    0.000    1.714    0.000    0.000 
#    0.000    0.000    0.000    0.000    0.000    0.000 
#
# Total GULP energy -347112.824806 kJ/mol
# GULP energy per Si atom -12396.886600 kJ/mol
# Density = 2.015377 g / cm^3
# Si number density = 20.199749 Si / 1000 Ang^3
#
#
#
# Elastic Constant Matrix: (Units=GPa)
#
#
# Indices 1 2 3 4 5 6 
#
# 1 110.8997 57.2776 58.5155 0.0000 35.8981 0.0000
# 2 57.2776 90.7359 35.6611 0.0000 8.1217 0.0000
# 3 58.5155 35.6611 118.2611 0.0000 33.5071 0.0000
# 4 0.0000 0.0000 0.0000 28.7950 0.0000 -5.3450
# 5 35.8981 8.1217 33.5071 0.0000 29.1132 0.0000
# 6 0.0000 0.0000 0.0000 -5.3450 0.0000 39.1975
#
#
#
# Elastic Compliance Matrix: (Units=1/GPa)
#
#
# Indices 1 2 3 4 5 6 
#
# 1 0.024243 -0.012636 -0.001060 0.000000 -0.025148 0.000000
# 2 -0.012636 0.019120 -0.003586 0.000000 0.014374 0.000000
# 3 -0.001060 -0.003586 0.013960 0.000000 -0.013760 0.000000
# 4 0.000000 0.000000 0.000000 0.035630 0.000000 0.004859
# 5 -0.025148 0.014374 -0.013760 0.000000 0.077184 0.000000
# 6 0.000000 0.000000 0.000000 0.004859 0.000000 0.026174
#
#
# Mechanical properties :
#
#
# Convention : Reuss Voigt Hill
#
# Bulk Modulus (GPa) = 43.93707 69.20057 56.56882
# Shear Modulus (GPa) = 20.96770 30.65065 25.80918
#
# Velocity S-wave (km/s) = 3.22532 3.89958 3.57837
# Velocity P-wave (km/s) = 5.97234 7.38973 6.71852
#
# Compressibility (1/GPa) = 0.02275982
#
# Stress axis : x y z
#
# Youngs Moduli (GPa) = 41.24911 52.30048 71.63189
#
# Poissons Ratio (x) = 0.66087 0.07592
# Poissons Ratio (y) = 0.52122 0.25687
# Poissons Ratio (z) = 0.04372 0.18755
#
# Static dielectric constant tensor:
#      x y z
#    x 4.042900 0.000000 0.277960 
#    y 0.000000 3.333230 0.000000 
#    z 0.277960 0.000000 3.637460 
# 
# 
# High freq. dielectric constant tensor:
#      x y z
#    x 1.798560 0.000000 0.026450 
#    y 0.000000 1.767120 0.000000 
#    z 0.026450 0.000000 1.767030 
# 
# From -- ./inp_files/160996.got.cif
#   From: 2010.06.25/outbox.cif.g09.slc.cpg/sg15_81_cif.got.tgz:160996.got - 2010.06.28 07:06:18.
