data_PCOD8131841
_publ_section_title
;
Structure prediction by ZEFSAII (Michael W. Deem and Ramdas Pophale) SiO2 
 PCOD8131841
Probable space group: C 2/C
;
_chemical_formula_sum "Si O2"
_cell_formula_units_Z 48
_cell_length_a 8.393438
_cell_length_b 28.837818
_cell_length_c 11.646775
_cell_angle_alpha 90.000000
_cell_angle_beta 129.672689
_cell_angle_gamma 90.000000
_cell_volume 2169.859843
_symmetry_space_group_name_H-M "C 2/C"
_symmetry_group_IT_number 15
_symmetry_cell_setting 'monoclinic'
loop_
_space_group_symop_operation_xyz
x,y,z
-x,y,1/2-z
-x,-y,-z
x,-y,1/2+z
1/2+x,1/2+y,z
1/2-x,1/2+y,1/2-z
1/2-x,1/2-y,-z
1/2+x,1/2-y,1/2+z
loop_
_atom_site_type_symbol
_atom_site_label
_atom_site_fract_x
_atom_site_fract_y
_atom_site_fract_z
Si Si1 0.543976 0.918487 0.402889
Si Si2 0.484201 0.262077 0.614675
Si Si3 0.065847 0.841148 0.472105
Si Si4 0.005200 0.067490 0.437099
Si Si5 0.830627 0.018781 0.764015
Si Si6 0.686334 0.167158 0.636508
O O1 0.500000 0.908651 0.250000
O O2 0.786415 0.925891 0.544296
O O3 0.399012 0.962351 0.375993
O O4 0.492311 0.871207 0.446143
O O5 0.500000 0.282684 0.750000
O O6 0.250000 0.250000 0.500000
O O7 0.550818 0.298352 0.550242
O O8 0.619690 0.216418 0.655971
O O9 0.107191 0.885788 0.571708
O O10 0.862872 0.851299 0.303485
O O11 0.247484 0.829073 0.466203
O O12 0.095947 0.040346 0.585157
O O13 0.837319 0.037181 0.287651
O O14 0.000000 0.034898 0.750000
#
# Coordination Sequence:
#
# PCOD8131841 Si02
#       6
#     8   8   8   8   8   8
#     4  10  18  34  61  89 120 157 215 257 300 380
#     4  12  24  41  65  97 129 166 213 261 315 380
#     4  11  22  39  65  91 131 162 206 264 319 377
#     4  10  21  36  58  90 119 161 208 255 314 375
#     4  10  20  35  57  84 120 159 209 255 312 364
#     4  11  21  39  65  95 122 166 214 258 315 380
#
# _framework density 22.121245999999999
#
# number of rings (size 3 to 8) (size 9 to 14) (size 15 to 20)
#    0.000    1.333    5.000    3.000    0.000    1.333 
#    0.000    3.333    0.000    2.000    0.000    0.000 
#    0.000    0.000    0.000    0.000    0.000    0.000 
#
# Total GULP energy -297442.983222 kJ/mol
# GULP energy per Si atom -12393.457634 kJ/mol
# Density = 2.207090 g / cm^3
# Si number density = 22.121246 Si / 1000 Ang^3
#
#
#
# Elastic Constant Matrix: (Units=GPa)
#
#
# Indices 1 2 3 4 5 6 
#
# 1 129.0788 46.6419 20.2280 0.0000 -30.0708 0.0000
# 2 46.6419 129.8799 19.1051 0.0000 -14.4296 0.0000
# 3 20.2280 19.1051 35.4204 0.0000 -18.5335 0.0000
# 4 0.0000 0.0000 0.0000 75.4620 0.0000 -8.9159
# 5 -30.0708 -14.4296 -18.5335 0.0000 23.4834 0.0000
# 6 0.0000 0.0000 0.0000 -8.9159 0.0000 42.3990
#
#
#
# Elastic Compliance Matrix: (Units=1/GPa)
#
#
# Indices 1 2 3 4 5 6 
#
# 1 0.012102 -0.003018 0.003160 0.000000 0.016135 0.000000
# 2 -0.003018 0.009217 -0.003929 0.000000 -0.001302 0.000000
# 3 0.003160 -0.003929 0.050083 0.000000 0.041158 0.000000
# 4 0.000000 0.000000 0.000000 0.013589 0.000000 0.002858
# 5 0.016135 -0.001302 0.041158 0.000000 0.094927 0.000000
# 6 0.000000 0.000000 0.000000 0.002858 0.000000 0.024186
#
#
# Mechanical properties :
#
#
# Convention : Reuss Voigt Hill
#
# Bulk Modulus (GPa) = 15.66768 51.81433 33.74100
# Shear Modulus (GPa) = 21.46350 42.16249 31.81300
#
# Velocity S-wave (km/s) = 3.11829 4.37048 3.79637
# Velocity P-wave (km/s) = 4.47917 6.99585 5.87388
#
# Compressibility (1/GPa) = 0.06382567
#
# Stress axis : x y z
#
# Youngs Moduli (GPa) = 82.63396 108.50098 19.96699
#
# Poissons Ratio (x) = 0.32745 -0.06309
# Poissons Ratio (y) = 0.24939 0.07845
# Poissons Ratio (z) = -0.26109 0.42631
#
# Static dielectric constant tensor:
#      x y z
#    x 4.754030 0.000000 -0.074920 
#    y 0.000000 4.084410 0.000000 
#    z -0.074920 0.000000 3.775550 
# 
# 
# High freq. dielectric constant tensor:
#      x y z
#    x 1.883900 0.000000 -0.019970 
#    y 0.000000 1.877790 0.000000 
#    z -0.019970 0.000000 1.844430 
# 
# From -- ./inp_files/80950.got.cif
#   From: 2010.06.25/outbox.cif.g09.slc.cpg/sg15_41_cif.got.tgz:80950.got - 2010.06.28 07:06:18.
