data_PCOD8131823
_publ_section_title
;
Structure prediction by ZEFSAII (Michael W. Deem and Ramdas Pophale) SiO2 
 PCOD8131823
Probable space group: C 2/C
;
_chemical_formula_sum "Si O2"
_cell_formula_units_Z 56
_cell_length_a 17.914583
_cell_length_b 8.821373
_cell_length_c 15.898251
_cell_angle_alpha 90.000000
_cell_angle_beta 90.561349
_cell_angle_gamma 90.000000
_cell_volume 2512.299401
_symmetry_space_group_name_H-M "C 2/C"
_symmetry_group_IT_number 15
_symmetry_cell_setting 'monoclinic'
loop_
_space_group_symop_operation_xyz
x,y,z
-x,y,1/2-z
-x,-y,-z
x,-y,1/2+z
1/2+x,1/2+y,z
1/2-x,1/2+y,1/2-z
1/2-x,1/2-y,-z
1/2+x,1/2-y,1/2+z
loop_
_atom_site_type_symbol
_atom_site_label
_atom_site_fract_x
_atom_site_fract_y
_atom_site_fract_z
Si Si1 0.472221 0.114823 0.616602
Si Si2 0.742199 0.928208 0.986763
Si Si3 0.360521 0.874021 0.646251
Si Si4 0.577216 0.294798 0.211606
Si Si5 0.100385 0.887767 0.467443
Si Si6 0.897690 0.584181 0.439936
Si Si7 0.488337 0.430314 0.866027
O O1 0.431559 0.144618 0.527217
O O2 0.481253 0.270894 0.669871
O O3 0.419756 0.004020 0.671243
O O4 0.553621 0.045460 0.603357
O O5 0.825438 0.987110 0.009651
O O6 0.685692 0.017870 0.047993
O O7 0.750000 0.750000 0.000000
O O8 0.717955 0.948515 0.886911
O O9 0.355752 0.753891 0.723251
O O10 0.386623 0.787234 0.560532
O O11 0.500000 0.227859 0.250000
O O12 0.600059 0.229525 0.121352
O O13 0.565901 0.478229 0.199517
O O14 0.050967 0.880139 0.548967
O O15 0.057897 0.960521 0.387471
#
# Coordination Sequence:
#
# PCOD8131823 Si02
#       7
#     8   8   8   8   8   8   8
#     4  10  18  34  60  90 113 150 214 252 287 366
#     4   9  19  36  63  87 115 160 208 248 292 360
#     4  10  20  39  62  85 121 163 201 251 310 366
#     4  12  22  39  56  89 125 161 194 251 324 365
#     4  10  19  37  60  90 120 159 203 249 301 367
#     4  10  19  35  62  88 117 157 201 252 301 369
#     4  11  21  34  61  89 123 154 202 259 307 361
#
# _framework density 22.290336
#
# number of rings (size 3 to 8) (size 9 to 14) (size 15 to 20)
#    0.000    1.714    2.857    5.143    0.000    0.000 
#    2.571    9.286    0.000    0.000    0.000    0.000 
#    0.000    0.000    0.000    0.000    0.000    0.000 
#
# Total GULP energy -346893.462560 kJ/mol
# GULP energy per Si atom -12389.052234 kJ/mol
# Density = 2.223960 g / cm^3
# Si number density = 22.290336 Si / 1000 Ang^3
#
#
#
# Elastic Constant Matrix: (Units=GPa)
#
#
# Indices 1 2 3 4 5 6 
#
# 1 85.9683 26.0072 5.7445 0.0000 13.5810 0.0000
# 2 26.0072 120.5733 24.7387 0.0000 8.0565 0.0000
# 3 5.7445 24.7387 72.1849 0.0000 18.4985 0.0000
# 4 0.0000 0.0000 0.0000 23.9320 0.0000 1.6742
# 5 13.5810 8.0565 18.4985 0.0000 22.1666 0.0000
# 6 0.0000 0.0000 0.0000 1.6742 0.0000 22.4249
#
#
#
# Elastic Compliance Matrix: (Units=1/GPa)
#
#
# Indices 1 2 3 4 5 6 
#
# 1 0.013806 -0.002818 0.002254 0.000000 -0.009316 0.000000
# 2 -0.002818 0.009510 -0.003297 0.000000 0.001021 0.000000
# 3 0.002254 -0.003297 0.018890 0.000000 -0.015948 0.000000
# 4 0.000000 0.000000 0.000000 0.042004 0.000000 -0.003136
# 5 -0.009316 0.001021 -0.015948 0.000000 0.063758 0.000000
# 6 0.000000 0.000000 0.000000 -0.003136 0.000000 0.044827
#
#
# Mechanical properties :
#
#
# Convention : Reuss Voigt Hill
#
# Bulk Modulus (GPa) = 28.99765 43.52303 36.26034
# Shear Modulus (GPa) = 23.58371 28.52044 26.05207
#
# Velocity S-wave (km/s) = 3.25626 3.58089 3.42242
# Velocity P-wave (km/s) = 5.21296 6.05516 5.64977
#
# Compressibility (1/GPa) = 0.03448555
#
# Stress axis : x y z
#
# Youngs Moduli (GPa) = 72.43405 105.15634 52.93675
#
# Poissons Ratio (x) = 0.29632 -0.11934
# Poissons Ratio (y) = 0.20411 0.17451
# Poissons Ratio (z) = -0.16329 0.34665
#
# Static dielectric constant tensor:
#      x y z
#    x 4.458300 0.000000 0.389930 
#    y 0.000000 4.023160 0.000000 
#    z 0.389930 0.000000 3.918720 
# 
# 
# High freq. dielectric constant tensor:
#      x y z
#    x 1.851060 0.000000 0.021260 
#    y 0.000000 1.876220 0.000000 
#    z 0.021260 0.000000 1.865550 
# 
# From -- ./inp_files/213403.got.cif
#   From: 2010.06.25/outbox.cif.g09.slc.cpg/sg15_107_cif.got.tgz:213403.got - 2010.06.28 07:06:18.
