data_PCOD8131056
_publ_section_title
;
Structure prediction by ZEFSAII (Michael W. Deem and Ramdas Pophale) SiO2 
 PCOD8131056
Probable space group: C 2/C
;
_chemical_formula_sum "Si O2"
_cell_formula_units_Z 64
_cell_length_a 12.003882
_cell_length_b 21.043137
_cell_length_c 27.843669
_cell_angle_alpha 90.000000
_cell_angle_beta 31.187661
_cell_angle_gamma 90.000000
_cell_volume 3642.139667
_symmetry_space_group_name_H-M "C 2/C"
_symmetry_group_IT_number 15
_symmetry_cell_setting 'monoclinic'
loop_
_space_group_symop_operation_xyz
x,y,z
-x,y,1/2-z
-x,-y,-z
x,-y,1/2+z
1/2+x,1/2+y,z
1/2-x,1/2+y,1/2-z
1/2-x,1/2-y,-z
1/2+x,1/2-y,1/2+z
loop_
_atom_site_type_symbol
_atom_site_label
_atom_site_fract_x
_atom_site_fract_y
_atom_site_fract_z
Si Si1 0.425297 0.467198 0.662532
Si Si2 0.477688 0.195271 0.150134
Si Si3 0.424152 0.461318 0.481978
Si Si4 0.430963 0.318802 0.514112
Si Si5 0.725329 0.151687 0.187220
Si Si6 0.297797 0.415302 0.859573
Si Si7 0.240248 0.772779 0.645774
Si Si8 0.549578 0.951421 0.865995
O O1 0.451727 0.521992 0.613020
O O2 0.368758 0.402804 0.656757
O O3 0.643021 0.451993 0.613088
O O4 0.233522 0.489491 0.768752
O O5 0.727386 0.215180 0.063232
O O6 0.339369 0.206686 0.250214
O O7 0.379042 0.233579 0.142973
O O8 0.451575 0.120399 0.151783
O O9 0.500000 0.500000 0.500000
O O10 0.461015 0.387802 0.479422
O O11 0.179001 0.482127 0.561411
O O12 0.374416 0.319596 0.591016
O O13 0.652739 0.279773 0.428116
O O14 0.500000 0.122680 0.250000
O O15 0.500000 0.414946 0.750000
O O16 0.240879 0.340665 0.888316
O O17 0.103301 0.451563 0.903522
O O18 0.000000 0.754630 0.750000
#
# Coordination Sequence:
#
# PCOD8131056 Si02
#       8
#     8   8   8   8   8   8   8   8
#     4  10  18  31  52  71  98 131 165 214 252 284
#     4   8  16  31  54  70  91 126 173 212 241 287
#     4  11  21  32  47  73 105 134 172 202 242 308
#     4  10  19  32  47  74 103 132 165 202 250 308
#     4   9  16  29  49  71  92 124 172 211 238 283
#     4   8  16  33  54  74  92 120 175 217 250 289
#     4  10  18  32  50  75 103 128 157 208 260 304
#     4   8  17  32  51  73  91 126 172 214 247 285
#
# _framework density 17.572088000000001
#
# number of rings (size 3 to 8) (size 9 to 14) (size 15 to 20)
#    0.000    2.750    1.250    3.375    0.000    0.500 
#    2.250    2.500    0.000    0.000    0.000    6.125 
#    0.000    0.000    0.000    0.000    0.000    0.000 
#
# Total GULP energy -396520.179632 kJ/mol
# GULP energy per Si atom -12391.255614 kJ/mol
# Density = 1.753209 g / cm^3
# Si number density = 17.572088 Si / 1000 Ang^3
#
#
#
# Elastic Constant Matrix: (Units=GPa)
#
#
# Indices 1 2 3 4 5 6 
#
# 1 92.0201 16.5969 24.5255 0.0401 -3.8477 -0.0222
# 2 16.5969 40.7271 29.4620 -0.0133 3.1445 0.0079
# 3 24.5255 29.4620 88.4602 0.0182 0.2761 0.0069
# 4 0.0401 -0.0133 0.0182 19.0362 -0.0163 -1.9656
# 5 -3.8477 3.1445 0.2761 -0.0163 28.9662 0.0129
# 6 -0.0222 0.0079 0.0069 -1.9656 0.0129 19.1579
#
#
#
# Elastic Compliance Matrix: (Units=1/GPa)
#
#
# Indices 1 2 3 4 5 6 
#
# 1 0.012175 -0.003519 -0.002210 -0.000023 0.002020 0.000013
# 2 -0.003519 0.033704 -0.010237 0.000037 -0.004029 -0.000008
# 3 -0.002210 -0.010237 0.015325 -0.000017 0.000672 -0.000006
# 4 -0.000023 0.000037 -0.000017 0.053094 0.000021 0.005448
# 5 0.002020 -0.004029 0.000672 0.000021 0.035222 -0.000018
# 6 0.000013 -0.000008 -0.000006 0.005448 -0.000018 0.052757
#
#
# Mechanical properties :
#
#
# Convention : Reuss Voigt Hill
#
# Bulk Modulus (GPa) = 34.16202 40.26400 37.21301
# Shear Modulus (GPa) = 20.49458 23.47360 21.98409
#
# Velocity S-wave (km/s) = 3.41884 3.65889 3.54090
# Velocity P-wave (km/s) = 5.92182 6.38853 6.15959
#
# Compressibility (1/GPa) = 0.02927227
#
# Stress axis : x y z
#
# Youngs Moduli (GPa) = 82.13303 29.66976 65.25439
#
# Poissons Ratio (x) = 0.10441 0.14421
# Poissons Ratio (y) = 0.28903 0.66802
# Poissons Ratio (z) = 0.18151 0.30373
#
# Static dielectric constant tensor:
#      x y z
#    x 3.814510 -0.000010 -0.014030 
#    y -0.000010 2.803440 0.000120 
#    z -0.014030 0.000120 3.375020 
# 
# 
# High freq. dielectric constant tensor:
#      x y z
#    x 1.699070 0.000000 -0.001410 
#    y 0.000000 1.625580 0.000010 
#    z -0.001410 0.000010 1.673840 
# 
# From -- ./inp_files/293743.got.cif
#   From: 2010.06.25/outbox.cif.g09.slc.cpg/sg15_147_cif.got.tgz:293743.got - 2010.06.28 07:06:18.
