data_PCOD8131044
_publ_section_title
;
Structure prediction by ZEFSAII (Michael W. Deem and Ramdas Pophale) SiO2 
 PCOD8131044
Probable space group: C 2/C
;
_chemical_formula_sum "Si O2"
_cell_formula_units_Z 64
_cell_length_a 22.057161
_cell_length_b 18.638791
_cell_length_c 17.299978
_cell_angle_alpha 90.000000
_cell_angle_beta 32.113001
_cell_angle_gamma 90.000000
_cell_volume 3780.857836
_symmetry_space_group_name_H-M "C 2/C"
_symmetry_group_IT_number 15
_symmetry_cell_setting 'monoclinic'
loop_
_space_group_symop_operation_xyz
x,y,z
-x,y,1/2-z
-x,-y,-z
x,-y,1/2+z
1/2+x,1/2+y,z
1/2-x,1/2+y,1/2-z
1/2-x,1/2-y,-z
1/2+x,1/2-y,1/2+z
loop_
_atom_site_type_symbol
_atom_site_label
_atom_site_fract_x
_atom_site_fract_y
_atom_site_fract_z
Si Si1 0.566372 0.041751 0.256360
Si Si2 0.763564 0.418031 0.421148
Si Si3 0.966245 0.149008 0.371006
Si Si4 0.164638 0.373138 0.315175
Si Si5 0.677853 0.248426 0.376092
Si Si6 0.216160 0.874002 0.638094
Si Si7 0.579224 0.862469 0.873885
Si Si8 0.139777 0.483565 0.923799
O O1 0.500000 0.060338 0.250000
O O2 0.598726 0.117932 0.262408
O O3 0.476940 0.997504 0.404624
O O4 0.684771 0.997226 0.116382
O O5 0.632747 0.413083 0.528796
O O6 0.844216 0.384161 0.268181
O O7 0.766152 0.371420 0.496773
O O8 0.928192 0.218501 0.461793
O O9 0.000000 0.178135 0.250000
O O10 0.079358 0.115381 0.287774
O O11 0.257863 0.313987 0.232282
O O12 0.197228 0.444795 0.327323
O O13 0.049224 0.339487 0.471085
O O14 0.750499 0.200416 0.357204
O O15 0.652180 0.202680 0.327286
O O16 0.267794 0.943542 0.623719
O O17 0.605728 0.936466 0.887895
#
# Coordination Sequence:
#
# PCOD8131044 Si02
#       8
#     8   8   8   8   8   8   8   8
#     4  11  18  31  53  82  96 126 171 213 266 292
#     4  10  18  31  51  74 105 131 162 208 255 302
#     4   9  20  34  47  73 110 144 165 195 250 307
#     4  10  18  32  51  72 103 135 167 207 260 296
#     4  10  21  32  50  72 103 146 168 202 251 303
#     4  10  20  33  48  76 104 133 176 202 247 314
#     4  10  19  32  51  75 104 129 168 224 249 292
#     4  10  18  31  53  77  99 131 167 221 253 290
#
# _framework density 16.927375999999999
#
# number of rings (size 3 to 8) (size 9 to 14) (size 15 to 20)
#    0.000    2.000    3.750    1.500    0.000    5.500 
#    0.000    2.500    2.750    3.000    0.000    0.000 
#    0.000    0.000    0.000    0.000    0.000    0.000 
#
# Total GULP energy -396486.944581 kJ/mol
# GULP energy per Si atom -12390.217018 kJ/mol
# Density = 1.688885 g / cm^3
# Si number density = 16.927376 Si / 1000 Ang^3
#
#
#
# Elastic Constant Matrix: (Units=GPa)
#
#
# Indices 1 2 3 4 5 6 
#
# 1 96.5468 42.4254 31.9248 0.0001 -0.0157 -0.0001
# 2 42.4254 86.0072 43.1101 -0.0001 5.3286 -0.0001
# 3 31.9248 43.1101 64.8604 0.0002 -3.9832 -0.0002
# 4 0.0001 -0.0001 0.0002 23.7968 -0.0001 -11.9359
# 5 -0.0157 5.3286 -3.9832 -0.0001 19.2166 0.0001
# 6 -0.0001 -0.0001 -0.0002 -11.9359 0.0001 -26.1231
#
#
#
# Elastic Compliance Matrix: (Units=1/GPa)
#
#
# Indices 1 2 3 4 5 6 
#
# 1 0.013711 -0.005177 -0.003260 0.000000 0.000771 0.000000
# 2 -0.005177 0.020473 -0.011555 0.000000 -0.008076 0.000000
# 3 -0.003260 -0.011555 0.025221 0.000000 0.008429 0.000000
# 4 0.000000 0.000000 0.000000 0.034188 0.000000 -0.015621
# 5 0.000771 -0.008076 0.008429 0.000000 0.056026 0.000000
# 6 0.000000 0.000000 0.000000 -0.015621 0.000000 -0.031143
#
#
# Mechanical properties :
#
#
# Convention : Reuss Voigt Hill
#
# Bulk Modulus (GPa) = 51.49585 53.59276 52.54430
# Shear Modulus (GPa) = 30.31543 12.04168 21.17856
#
# Velocity S-wave (km/s) = 4.23651 2.67005 3.54099
# Velocity P-wave (km/s) = 7.37688 6.42143 6.91567
#
# Compressibility (1/GPa) = 0.01941904
#
# Stress axis : x y z
#
# Youngs Moduli (GPa) = 72.93582 48.84509 39.65006
#
# Poissons Ratio (x) = 0.25285 0.12928
# Poissons Ratio (y) = 0.37756 0.45818
# Poissons Ratio (z) = 0.23780 0.56443
#
# Static dielectric constant tensor:
#      x y z
#    x 3.334840 0.000000 -0.032700 
#    y 0.000000 3.074430 0.000000 
#    z -0.032700 0.000000 3.292890 
# 
# 
# High freq. dielectric constant tensor:
#      x y z
#    x 1.654660 0.000000 -0.001990 
#    y 0.000000 1.630350 0.000000 
#    z -0.001990 0.000000 1.645700 
# 
# From -- ./inp_files/107307.got.cif
#   From: 2010.06.25/outbox.cif.g09.slc.cpg/sg15_54_cif.got.tgz:107307.got - 2010.06.28 07:06:18.
