data_PCOD8131488
_publ_section_title
;
Structure prediction by ZEFSAII (Michael W. Deem and Ramdas Pophale) SiO2 
 PCOD8131488
Probable space group: C 2/C
;
_chemical_formula_sum "Si O2"
_cell_formula_units_Z 64
_cell_length_a 11.945242
_cell_length_b 16.472529
_cell_length_c 21.279345
_cell_angle_alpha 90.000000
_cell_angle_beta 53.249282
_cell_angle_gamma 90.000000
_cell_volume 3354.899649
_symmetry_space_group_name_H-M "C 2/C"
_symmetry_group_IT_number 15
_symmetry_cell_setting 'monoclinic'
loop_
_space_group_symop_operation_xyz
x,y,z
-x,y,1/2-z
-x,-y,-z
x,-y,1/2+z
1/2+x,1/2+y,z
1/2-x,1/2+y,1/2-z
1/2-x,1/2-y,-z
1/2+x,1/2-y,1/2+z
loop_
_atom_site_type_symbol
_atom_site_label
_atom_site_fract_x
_atom_site_fract_y
_atom_site_fract_z
Si Si1 0.945088 0.302519 0.922164
Si Si2 0.336972 0.733178 0.209379
Si Si3 0.804602 0.217389 0.079811
Si Si4 0.343549 0.343518 0.156101
Si Si5 0.913715 0.873424 0.874481
Si Si6 0.450976 0.589936 0.499259
Si Si7 0.206353 0.396417 0.837795
Si Si8 0.097524 0.978801 0.267446
O O1 0.841104 0.316323 0.898804
O O2 0.039274 0.224701 0.874125
O O3 0.039363 0.383697 0.900069
O O4 0.860836 0.288351 0.015176
O O5 0.284453 0.754246 0.156394
O O6 0.302902 0.809388 0.267035
O O7 0.502735 0.712751 0.153685
O O8 0.252868 0.654879 0.261456
O O9 0.907947 0.141664 0.049034
O O10 0.337761 0.372329 0.085807
O O11 0.385626 0.424551 0.177967
O O12 0.775364 0.861612 0.879073
O O13 0.874363 0.903224 0.957739
O O14 0.012693 0.939737 0.810318
O O15 0.500000 0.500000 0.500000
O O16 0.251925 0.490490 0.811017
O O17 0.000000 0.930585 0.250000
#
# Coordination Sequence:
#
# PCOD8131488 Si02
#       8
#     8   8   8   8   8   8   8   8
#     4   9  19  35  52  78 103 138 177 220 266 314
#     4   9  18  31  50  77 105 134 173 219 261 305
#     4   9  19  34  54  77 105 136 178 223 267 307
#     4  10  19  29  51  82 104 131 177 220 258 311
#     4   9  17  34  53  75 101 142 174 211 260 315
#     4  10  18  33  55  80 105 137 178 217 261 316
#     4   9  18  33  53  74 105 136 178 210 261 324
#     4   9  17  28  48  77 103 132 169 217 262 310
#
# _framework density 19.076577
#
# number of rings (size 3 to 8) (size 9 to 14) (size 15 to 20)
#    0.000    2.750    1.250    1.125    1.750    1.500 
#    0.000   11.250    0.000   10.500    0.000    0.000 
#    0.000    0.000    0.000    0.000    0.000    0.000 
#
# Total GULP energy -396550.977615 kJ/mol
# GULP energy per Si atom -12392.218050 kJ/mol
# Density = 1.903316 g / cm^3
# Si number density = 19.076577 Si / 1000 Ang^3
#
#
#
# Elastic Constant Matrix: (Units=GPa)
#
#
# Indices 1 2 3 4 5 6 
#
# 1 86.4247 4.8289 47.3432 0.0000 12.2884 0.0000
# 2 4.8289 40.8258 25.2420 0.0000 2.1066 0.0000
# 3 47.3432 25.2420 104.4518 0.0000 24.3551 0.0000
# 4 0.0000 0.0000 0.0000 22.0367 0.0000 7.9729
# 5 12.2884 2.1066 24.3551 0.0000 31.4493 0.0000
# 6 0.0000 0.0000 0.0000 7.9729 0.0000 14.3384
#
#
#
# Elastic Compliance Matrix: (Units=1/GPa)
#
#
# Indices 1 2 3 4 5 6 
#
# 1 0.015700 0.002954 -0.007753 0.000000 -0.000328 0.000000
# 2 0.002954 0.029820 -0.009531 0.000000 0.004230 0.000000
# 3 -0.007753 -0.009531 0.017739 0.000000 -0.010070 0.000000
# 4 0.000000 0.000000 0.000000 0.056807 0.000000 -0.031588
# 5 -0.000328 0.004230 -0.010070 0.000000 0.039440 0.000000
# 6 0.000000 0.000000 0.000000 -0.031588 0.000000 0.087307
#
#
# Mechanical properties :
#
#
# Convention : Reuss Voigt Hill
#
# Bulk Modulus (GPa) = 28.90425 42.94781 35.92603
# Shear Modulus (GPa) = 17.42113 23.85077 20.63595
#
# Velocity S-wave (km/s) = 3.02523 3.53974 3.29255
# Velocity P-wave (km/s) = 5.23329 6.26647 5.77304
#
# Compressibility (1/GPa) = 0.03459698
#
# Stress axis : x y z
#
# Youngs Moduli (GPa) = 63.69612 33.53479 56.37202
#
# Poissons Ratio (x) = -0.09905 0.43706
# Poissons Ratio (y) = -0.18814 0.53730
# Poissons Ratio (z) = 0.49385 0.31963
#
# Static dielectric constant tensor:
#      x y z
#    x 3.716920 0.000000 0.231010 
#    y 0.000000 3.313410 0.000000 
#    z 0.231010 0.000000 3.806670 
# 
# 
# High freq. dielectric constant tensor:
#      x y z
#    x 1.728550 0.000000 0.021930 
#    y 0.000000 1.714410 0.000000 
#    z 0.021930 0.000000 1.743540 
# 
# From -- ./inp_files/239806.got.cif
#   From: 2010.06.25/outbox.cif.g09.slc.cpg/sg15_120_cif.got.tgz:239806.got - 2010.06.28 07:06:18.
