data_PCOD8131845
_publ_section_title
;
Structure prediction by ZEFSAII (Michael W. Deem and Ramdas Pophale) SiO2 
 PCOD8131845
Probable space group: C 2/C
;
_chemical_formula_sum "Si O2"
_cell_formula_units_Z 64
_cell_length_a 9.058255
_cell_length_b 17.691538
_cell_length_c 28.504413
_cell_angle_alpha 90.000000
_cell_angle_beta 38.766248
_cell_angle_gamma 90.000000
_cell_volume 2860.203137
_symmetry_space_group_name_H-M "C 2/C"
_symmetry_group_IT_number 15
_symmetry_cell_setting 'monoclinic'
loop_
_space_group_symop_operation_xyz
x,y,z
-x,y,1/2-z
-x,-y,-z
x,-y,1/2+z
1/2+x,1/2+y,z
1/2-x,1/2+y,1/2-z
1/2-x,1/2-y,-z
1/2+x,1/2-y,1/2+z
loop_
_atom_site_type_symbol
_atom_site_label
_atom_site_fract_x
_atom_site_fract_y
_atom_site_fract_z
Si Si1 0.037961 0.897067 0.075827
Si Si2 0.370651 0.953125 0.385700
Si Si3 0.306459 0.624765 0.478949
Si Si4 0.914359 0.738940 0.577840
Si Si5 0.250457 0.829492 0.211103
Si Si6 0.492599 0.905536 0.601462
Si Si7 0.424383 0.742397 0.654306
Si Si8 0.254587 0.485335 0.916120
O O1 0.853144 0.947785 0.092797
O O2 0.897684 0.818124 0.118659
O O3 0.093642 0.937365 0.113139
O O4 0.280598 0.886624 0.986926
O O5 0.299896 0.930700 0.456029
O O6 0.596608 0.903698 0.313919
O O7 0.436904 0.042039 0.371677
O O8 0.524097 0.672761 0.445159
O O9 0.389304 0.577095 0.413830
O O10 0.113790 0.684539 0.507581
O O11 0.885755 0.722421 0.640138
O O12 0.690269 0.725378 0.602367
O O13 0.237589 0.777958 0.261010
O O14 0.000000 0.853583 0.250000
O O15 0.378174 0.827561 0.648626
O O16 0.283535 0.953403 0.626806
O O17 0.000000 0.500000 0.000000
#
# Coordination Sequence:
#
# PCOD8131845 Si02
#       8
#     8   8   8   8   8   8   8   8
#     4  11  23  37  65  99 133 165 207 262 332 380
#     4  11  22  39  67  95 126 168 214 264 319 384
#     4  10  18  34  61  93 131 156 208 260 325 370
#     4   9  19  34  62  93 120 167 209 263 315 374
#     4   9  22  42  66  86 123 175 222 255 316 386
#     4  11  23  38  66  98 133 162 212 264 327 380
#     4  11  23  40  63  88 133 169 213 260 313 378
#     4  10  20  35  58  94 132 164 199 251 318 386
#
# _framework density 22.376034000000001
#
# number of rings (size 3 to 8) (size 9 to 14) (size 15 to 20)
#    0.000    1.750    2.500    3.000    5.250    3.500 
#    0.000    1.250    5.500    0.000    0.000    0.000 
#    0.000    0.000    0.000    0.000    0.000    0.000 
#
# Total GULP energy -396635.667704 kJ/mol
# GULP energy per Si atom -12394.864616 kJ/mol
# Density = 2.232511 g / cm^3
# Si number density = 22.376034 Si / 1000 Ang^3
#
#
#
# Elastic Constant Matrix: (Units=GPa)
#
#
# Indices 1 2 3 4 5 6 
#
# 1 73.1303 30.6609 6.9411 -0.0143 8.0093 -0.0009
# 2 30.6609 144.4279 21.7017 -0.0384 9.4334 0.0018
# 3 6.9411 21.7017 54.1396 -0.0716 2.4653 -0.0069
# 4 -0.0143 -0.0384 -0.0716 21.1889 -0.0141 4.1215
# 5 8.0093 9.4334 2.4653 -0.0141 19.6504 -0.0064
# 6 -0.0009 0.0018 -0.0069 4.1215 -0.0064 38.2806
#
#
#
# Elastic Compliance Matrix: (Units=1/GPa)
#
#
# Indices 1 2 3 4 5 6 
#
# 1 0.015469 -0.002876 -0.000610 0.000000 -0.004848 0.000000
# 2 -0.002876 0.008106 -0.002773 0.000002 -0.002371 -0.000002
# 3 -0.000610 -0.002773 0.019701 0.000061 -0.000892 -0.000003
# 4 0.000000 0.000002 0.000061 0.048204 0.000024 -0.005190
# 5 -0.004848 -0.002371 -0.000892 0.000024 0.054116 0.000006
# 6 0.000000 -0.000002 -0.000003 -0.005190 0.000006 0.026682
#
#
# Mechanical properties :
#
#
# Convention : Reuss Voigt Hill
#
# Bulk Modulus (GPa) = 32.51008 43.36724 37.93866
# Shear Modulus (GPa) = 25.63493 29.98358 27.80926
#
# Velocity S-wave (km/s) = 3.38841 3.66455 3.52918
# Velocity P-wave (km/s) = 5.46525 6.10970 5.79644
#
# Compressibility (1/GPa) = 0.03075969
#
# Stress axis : x y z
#
# Youngs Moduli (GPa) = 64.64676 123.36802 50.75877
#
# Poissons Ratio (x) = 0.35476 0.03095
# Poissons Ratio (y) = 0.18590 0.14073
# Poissons Ratio (z) = 0.03942 0.34204
#
# Static dielectric constant tensor:
#      x y z
#    x 4.213450 0.000230 0.032850 
#    y 0.000230 4.421480 0.000090 
#    z 0.032850 0.000090 3.714760 
# 
# 
# High freq. dielectric constant tensor:
#      x y z
#    x 1.884650 0.000000 -0.005140 
#    y 0.000000 1.893710 0.000000 
#    z -0.005140 0.000000 1.835960 
# 
# From -- ./inp_files/308775.got.cif
#   From: 2010.06.25/outbox.cif.g09.slc.cpg/sg15_155_cif.got.tgz:308775.got - 2010.06.28 07:06:18.
