data_PCOD8131702
_publ_section_title
;
Structure prediction by ZEFSAII (Michael W. Deem and Ramdas Pophale) SiO2 
 PCOD8131702
Probable space group: C 2/C
;
_chemical_formula_sum "Si O2"
_cell_formula_units_Z 56
_cell_length_a 8.941463
_cell_length_b 24.066487
_cell_length_c 14.545829
_cell_angle_alpha 90.000000
_cell_angle_beta 70.552476
_cell_angle_gamma 90.000000
_cell_volume 2951.528380
_symmetry_space_group_name_H-M "C 2/C"
_symmetry_group_IT_number 15
_symmetry_cell_setting 'monoclinic'
loop_
_space_group_symop_operation_xyz
x,y,z
-x,y,1/2-z
-x,-y,-z
x,-y,1/2+z
1/2+x,1/2+y,z
1/2-x,1/2+y,1/2-z
1/2-x,1/2-y,-z
1/2+x,1/2-y,1/2+z
loop_
_atom_site_type_symbol
_atom_site_label
_atom_site_fract_x
_atom_site_fract_y
_atom_site_fract_z
Si Si1 0.669431 0.135954 0.763749
Si Si2 0.051628 0.206805 0.843674
Si Si3 0.353696 0.059159 0.111780
Si Si4 0.759483 0.137851 0.952645
Si Si5 0.514084 0.831834 0.857214
Si Si6 0.285629 0.979535 0.977786
Si Si7 0.310766 0.014019 0.780180
O O1 0.500000 0.140630 0.750000
O O2 0.776965 0.178666 0.684301
O O3 0.667143 0.148171 0.874341
O O4 0.746729 0.075178 0.736355
O O5 0.000000 0.205305 0.750000
O O6 0.920375 0.173307 0.928372
O O7 0.068926 0.270176 0.873403
O O8 0.355363 0.125700 0.126492
O O9 0.532499 0.037781 0.069969
O O10 0.260521 0.030639 0.214540
O O11 0.266647 0.037457 0.037811
O O12 0.654556 0.157418 0.060387
O O13 0.803450 0.072378 0.955885
O O14 0.500000 0.841138 0.750000
O O15 0.220002 0.994182 0.890570
O O16 0.500000 0.015531 0.750000
#
# Coordination Sequence:
#
# PCOD8131702 Si02
#       7
#     8   8   8   8   8   8   8
#     4  10  20  34  55  79 106 137 179 222 265 319
#     4   9  20  36  53  78 106 142 182 223 266 316
#     4   9  15  25  43  74 105 125 168 215 261 304
#     4  10  18  34  56  79 107 140 174 223 270 318
#     4  10  19  31  52  81 107 137 184 226 263 311
#     4   9  16  25  45  75 101 131 166 209 266 310
#     4   9  16  27  46  75 104 128 168 219 260 310
#
# _framework density 18.973222
#
# number of rings (size 3 to 8) (size 9 to 14) (size 15 to 20)
#    0.000    2.571    1.429    2.571    6.000    0.000 
#    0.000    1.429    0.000    0.000    3.714    0.000 
#    0.000    0.000    0.000    0.000    0.000    0.000 
#
# Total GULP energy -346965.022273 kJ/mol
# GULP energy per Si atom -12391.607938 kJ/mol
# Density = 1.893004 g / cm^3
# Si number density = 18.973222 Si / 1000 Ang^3
#
#
#
# Elastic Constant Matrix: (Units=GPa)
#
#
# Indices 1 2 3 4 5 6 
#
# 1 41.8603 39.1000 31.3452 0.0000 -2.3937 0.0000
# 2 39.1000 168.2332 59.7925 0.0000 -11.1223 0.0000
# 3 31.3452 59.7925 124.1139 0.0000 3.4075 0.0000
# 4 0.0000 0.0000 0.0000 32.6174 0.0000 -0.9821
# 5 -2.3937 -11.1223 3.4075 0.0000 15.4404 0.0000
# 6 0.0000 0.0000 0.0000 -0.9821 0.0000 9.7229
#
#
#
# Elastic Compliance Matrix: (Units=1/GPa)
#
#
# Indices 1 2 3 4 5 6 
#
# 1 0.033631 -0.005559 -0.005884 0.000000 0.002508 0.000000
# 2 -0.005559 0.008682 -0.002945 0.000000 0.006042 0.000000
# 3 -0.005884 -0.002945 0.011112 0.000000 -0.005486 0.000000
# 4 0.000000 0.000000 0.000000 0.030752 0.000000 0.003106
# 5 0.002508 0.006042 -0.005486 0.000000 0.070717 0.000000
# 6 0.000000 0.000000 0.000000 0.003106 0.000000 0.103164
#
#
# Mechanical properties :
#
#
# Convention : Reuss Voigt Hill
#
# Bulk Modulus (GPa) = 40.56862 66.07587 53.32225
# Shear Modulus (GPa) = 16.94620 25.15412 21.05016
#
# Velocity S-wave (km/s) = 2.99183 3.64506 3.33448
# Velocity P-wave (km/s) = 5.77609 7.25374 6.55667
#
# Compressibility (1/GPa) = 0.02464959
#
# Stress axis : x y z
#
# Youngs Moduli (GPa) = 29.73421 115.17830 89.98984
#
# Poissons Ratio (x) = 0.64031 0.52953
# Poissons Ratio (y) = 0.16530 0.26498
# Poissons Ratio (z) = 0.17496 0.33915
#
# Static dielectric constant tensor:
#      x y z
#    x 2.913890 0.000000 0.045870 
#    y 0.000000 3.943850 0.000000 
#    z 0.045870 0.000000 3.728280 
# 
# 
# High freq. dielectric constant tensor:
#      x y z
#    x 1.670540 0.000000 0.004200 
#    y 0.000000 1.746830 0.000000 
#    z 0.004200 0.000000 1.749010 
# 
# From -- ./inp_files/137258.got.cif
#   From: 2010.06.25/outbox.cif.g09.slc.cpg/sg15_69_cif.got.tgz:137258.got - 2010.06.28 07:06:18.
