data_PCOD8131977
_publ_section_title
;
Structure prediction by ZEFSAII (Michael W. Deem and Ramdas Pophale) SiO2 
 PCOD8131977
Probable space group: C 2/C
;
_chemical_formula_sum "Si O2"
_cell_formula_units_Z 48
_cell_length_a 28.425889
_cell_length_b 16.311159
_cell_length_c 11.644119
_cell_angle_alpha 90.000000
_cell_angle_beta 25.755362
_cell_angle_gamma 90.000000
_cell_volume 2345.982807
_symmetry_space_group_name_H-M "C 2/C"
_symmetry_group_IT_number 15
_symmetry_cell_setting 'monoclinic'
loop_
_space_group_symop_operation_xyz
x,y,z
-x,y,1/2-z
-x,-y,-z
x,-y,1/2+z
1/2+x,1/2+y,z
1/2-x,1/2+y,1/2-z
1/2-x,1/2-y,-z
1/2+x,1/2-y,1/2+z
loop_
_atom_site_type_symbol
_atom_site_label
_atom_site_fract_x
_atom_site_fract_y
_atom_site_fract_z
Si Si1 0.705467 0.584795 0.183708
Si Si2 0.906208 0.371324 0.577752
Si Si3 0.853886 0.112875 0.441006
Si Si4 0.500000 0.509838 0.750000
Si Si5 0.821714 0.422747 0.992557
Si Si6 0.868288 0.702057 0.929005
Si Si7 0.000000 0.482611 0.750000
O O1 0.588017 0.569572 0.498637
O O2 0.787735 0.515221 0.041724
O O3 0.757458 0.670668 0.112547
O O4 0.697103 0.582536 0.065321
O O5 0.857800 0.308122 0.590512
O O6 0.910224 0.462266 0.513193
O O7 0.829915 0.370772 0.857006
O O8 0.029123 0.349207 0.342057
O O9 0.764472 0.120478 0.736635
O O10 0.896848 0.204950 0.332128
O O11 0.948407 0.049412 0.266884
O O12 0.938849 0.424076 0.794761
#
# Coordination Sequence:
#
# PCOD8131977 Si02
#       7
#     8   8   8   4   8   8   4
#     4  11  22  41  64  90 121 161 208 260 297 364
#     4  10  20  37  63  90 120 156 193 249 309 374
#     4  11  24  42  61  88 125 165 204 255 307 370
#     4  10  24  43  63  90 118 172 216 246 304 371
#     4  11  22  35  65  95 117 155 208 249 304 364
#     4  10  22  41  61  88 130 160 196 255 321 355
#     4  10  18  35  57  92 122 146 188 254 306 351
#
# _framework density 20.460508000000001
#
# number of rings (size 3 to 8) (size 9 to 14) (size 15 to 20)
#    0.000    1.667    3.333    3.500    4.667    0.667 
#    3.000    0.000    0.000    0.000    0.000    0.000 
#    0.000    0.000    0.000    0.000    0.000    0.000 
#
# Total GULP energy -297631.011328 kJ/mol
# GULP energy per Si atom -12401.292139 kJ/mol
# Density = 2.041394 g / cm^3
# Si number density = 20.460508 Si / 1000 Ang^3
#
#
#
# Elastic Constant Matrix: (Units=GPa)
#
#
# Indices 1 2 3 4 5 6 
#
# 1 111.1151 8.0758 43.8072 0.0000 -1.1891 0.0000
# 2 8.0758 46.9502 13.9304 0.0000 -0.0231 0.0000
# 3 43.8072 13.9304 95.2799 0.0000 13.0179 0.0000
# 4 0.0000 0.0000 0.0000 13.7432 0.0000 0.6616
# 5 -1.1891 -0.0231 13.0179 0.0000 35.4188 0.0000
# 6 0.0000 0.0000 0.0000 0.6616 0.0000 14.8700
#
#
#
# Elastic Compliance Matrix: (Units=1/GPa)
#
#
# Indices 1 2 3 4 5 6 
#
# 1 0.011185 -0.000315 -0.005420 0.000000 0.002367 0.000000
# 2 -0.000315 0.022329 -0.003285 0.000000 0.001212 0.000000
# 3 -0.005420 -0.003285 0.014206 0.000000 -0.005405 0.000000
# 4 0.000000 0.000000 0.000000 0.072920 0.000000 -0.003245
# 5 0.002367 0.001212 -0.005405 0.000000 0.030301 0.000000
# 6 0.000000 0.000000 0.000000 -0.003245 0.000000 0.067394
#
#
# Mechanical properties :
#
#
# Convention : Reuss Voigt Hill
#
# Bulk Modulus (GPa) = 33.69303 42.77468 38.23385
# Shear Modulus (GPa) = 20.30321 25.30852 22.80586
#
# Velocity S-wave (km/s) = 3.15352 3.52084 3.34223
# Velocity P-wave (km/s) = 5.45552 6.12207 5.79838
#
# Compressibility (1/GPa) = 0.02967973
#
# Stress axis : x y z
#
# Youngs Moduli (GPa) = 89.40820 44.78542 70.39181
#
# Poissons Ratio (x) = 0.01409 0.38151
# Poissons Ratio (y) = 0.02813 0.23127
# Poissons Ratio (z) = 0.48458 0.14714
#
# Static dielectric constant tensor:
#      x y z
#    x 3.876550 0.000000 0.048560 
#    y 0.000000 3.425280 0.000000 
#    z 0.048560 0.000000 3.558690 
# 
# 
# High freq. dielectric constant tensor:
#      x y z
#    x 1.813550 0.000000 -0.002890 
#    y 0.000000 1.779640 0.000000 
#    z -0.002890 0.000000 1.786610 
# 
# From -- ./inp_files/87327.got.cif
#   From: 2010.06.25/outbox.cif.g09.slc.cpg/sg15_44_cif.got.tgz:87327.got - 2010.06.28 07:06:18.
