data_PCOD8131026
_publ_section_title
;
Structure prediction by ZEFSAII (Michael W. Deem and Ramdas Pophale) SiO2 
 PCOD8131026
Probable space group: C 2/C
;
_chemical_formula_sum "Si O2"
_cell_formula_units_Z 56
_cell_length_a 18.418350
_cell_length_b 26.393799
_cell_length_c 8.598600
_cell_angle_alpha 90.000000
_cell_angle_beta 136.713869
_cell_angle_gamma 90.000000
_cell_volume 2866.011262
_symmetry_space_group_name_H-M "C 2/C"
_symmetry_group_IT_number 15
_symmetry_cell_setting 'monoclinic'
loop_
_space_group_symop_operation_xyz
x,y,z
-x,y,1/2-z
-x,-y,-z
x,-y,1/2+z
1/2+x,1/2+y,z
1/2-x,1/2+y,1/2-z
1/2-x,1/2-y,-z
1/2+x,1/2-y,1/2+z
loop_
_atom_site_type_symbol
_atom_site_label
_atom_site_fract_x
_atom_site_fract_y
_atom_site_fract_z
Si Si1 0.618138 0.117607 0.447979
Si Si2 0.886841 0.479657 0.375460
Si Si3 0.745809 0.312078 0.143684
Si Si4 0.357626 0.707802 0.319821
Si Si5 0.061597 0.761136 0.008356
Si Si6 0.126678 0.569417 0.954400
Si Si7 0.688054 0.838907 0.743203
O O1 0.500000 0.140969 0.250000
O O2 0.606932 0.058040 0.466178
O O3 0.680269 0.142070 0.688709
O O4 0.683445 0.127676 0.391654
O O5 0.827035 0.529878 0.344557
O O6 0.829555 0.449759 0.144933
O O7 0.000000 0.500000 0.500000
O O8 0.821345 0.264773 0.229979
O O9 0.683911 0.326558 0.889062
O O10 0.661433 0.298395 0.146739
O O11 0.485610 0.712270 0.519707
O O12 0.306032 0.684835 0.397421
O O13 0.000000 0.754752 0.750000
O O14 0.102098 0.705916 0.124555
O O15 0.000000 0.568904 0.750000
O O16 0.163142 0.625819 0.055150
#
# Coordination Sequence:
#
# PCOD8131026 Si02
#       7
#     8   8   8   8   8   8   8
#     4  12  22  33  48  73 107 138 169 208 253 310
#     4  10  20  33  49  71 102 136 168 207 255 305
#     4   9  19  33  51  73  99 138 179 211 259 309
#     4   9  18  34  52  72  98 131 178 225 257 300
#     4   9  18  34  53  74 103 138 178 222 258 297
#     4  10  18  31  49  71 100 132 169 206 251 305
#     4  11  21  31  51  77 102 138 177 209 259 310
#
# _framework density 19.539352000000001
#
# number of rings (size 3 to 8) (size 9 to 14) (size 15 to 20)
#    0.000    2.000    0.000    6.857    0.000    2.286 
#    0.000    2.143    0.000    0.000    0.000    1.000 
#    0.000    2.286    0.000    0.000    0.000    0.000 
#
# Total GULP energy -346929.681781 kJ/mol
# GULP energy per Si atom -12390.345778 kJ/mol
# Density = 1.949488 g / cm^3
# Si number density = 19.539352 Si / 1000 Ang^3
#
#
#
# Elastic Constant Matrix: (Units=GPa)
#
#
# Indices 1 2 3 4 5 6 
#
# 1 108.4573 36.2913 17.6198 0.0000 2.8782 0.0000
# 2 36.2913 86.5590 20.8274 0.0000 3.8868 0.0000
# 3 17.6198 20.8274 29.7803 0.0000 4.6521 0.0000
# 4 0.0000 0.0000 0.0000 21.3597 0.0000 -11.8640
# 5 2.8782 3.8868 4.6521 0.0000 27.9674 0.0000
# 6 0.0000 0.0000 0.0000 -11.8640 0.0000 32.1121
#
#
#
# Elastic Compliance Matrix: (Units=1/GPa)
#
#
# Indices 1 2 3 4 5 6 
#
# 1 0.011105 -0.003697 -0.003990 0.000000 0.000035 0.000000
# 2 -0.003697 0.015124 -0.008338 0.000000 -0.000335 0.000000
# 3 -0.003990 -0.008338 0.042633 0.000000 -0.005522 0.000000
# 4 0.000000 0.000000 0.000000 0.058905 0.000000 0.021763
# 5 0.000035 -0.000335 -0.005522 0.000000 0.036717 0.000000
# 6 0.000000 0.000000 0.000000 0.021763 0.000000 0.039181
#
#
# Mechanical properties :
#
#
# Convention : Reuss Voigt Hill
#
# Bulk Modulus (GPa) = 27.16436 41.58597 34.37517
# Shear Modulus (GPa) = 20.16238 26.29169 23.22704
#
# Velocity S-wave (km/s) = 3.21578 3.67219 3.45154
# Velocity P-wave (km/s) = 5.26507 6.26972 5.78923
#
# Compressibility (1/GPa) = 0.03681294
#
# Stress axis : x y z
#
# Youngs Moduli (GPa) = 90.05232 66.11935 23.45577
#
# Poissons Ratio (x) = 0.24447 0.09358
# Poissons Ratio (y) = 0.33296 0.19556
# Poissons Ratio (z) = 0.35929 0.55127
#
# Static dielectric constant tensor:
#      x y z
#    x 3.783070 0.000000 -0.221620 
#    y 0.000000 3.596910 0.000000 
#    z -0.221620 0.000000 3.428630 
# 
# 
# High freq. dielectric constant tensor:
#      x y z
#    x 1.758210 0.000000 -0.028240 
#    y 0.000000 1.751750 0.000000 
#    z -0.028240 0.000000 1.725490 
# 
# From -- ./inp_files/51560.got.cif
#   From: 2010.06.25/outbox.cif.g09.slc.cpg/sg15_26_cif.got.tgz:51560.got - 2010.06.28 07:06:18.
