data_PCOD8131528
_publ_section_title
;
Structure prediction by ZEFSAII (Michael W. Deem and Ramdas Pophale) SiO2 
 PCOD8131528
Probable space group: C 2/C
;
_chemical_formula_sum "Si O2"
_cell_formula_units_Z 40
_cell_length_a 9.809878
_cell_length_b 18.341232
_cell_length_c 15.296282
_cell_angle_alpha 90.000000
_cell_angle_beta 42.594376
_cell_angle_gamma 90.000000
_cell_volume 1862.690609
_symmetry_space_group_name_H-M "C 2/C"
_symmetry_group_IT_number 15
_symmetry_cell_setting 'monoclinic'
loop_
_space_group_symop_operation_xyz
x,y,z
-x,y,1/2-z
-x,-y,-z
x,-y,1/2+z
1/2+x,1/2+y,z
1/2-x,1/2+y,1/2-z
1/2-x,1/2-y,-z
1/2+x,1/2-y,1/2+z
loop_
_atom_site_type_symbol
_atom_site_label
_atom_site_fract_x
_atom_site_fract_y
_atom_site_fract_z
Si Si1 0.506966 0.630346 0.641989
Si Si2 0.902466 0.430665 0.157760
Si Si3 0.620671 0.782328 0.781926
Si Si4 0.567850 0.920293 0.561279
Si Si5 0.965970 0.274549 0.365574
O O1 0.500000 0.636722 0.750000
O O2 0.325216 0.577505 0.697894
O O3 0.473806 0.712768 0.622159
O O4 0.713964 0.601526 0.502896
O O5 0.033066 0.362425 0.128556
O O6 0.994064 0.507385 0.147752
O O7 0.899895 0.435144 0.055015
O O8 0.500000 0.796988 0.750000
O O9 0.593177 0.855147 0.852300
O O10 0.858840 0.763385 0.657751
O O11 0.000000 0.249462 0.250000
O O12 0.750000 0.250000 0.500000
#
# Coordination Sequence:
#
# PCOD8131528 Si02
#       5
#     8   8   8   8   8
#     4   8  16  31  51  77 106 142 192 244 286 338
#     4   9  20  34  52  83 118 156 196 246 307 363
#     4  10  21  36  59  86 113 152 205 250 297 358
#     4  10  18  33  57  82 115 156 203 248 299 363
#     4  11  24  42  63  90 126 163 202 252 309 365
#
# _framework density 21.474311
#
# number of rings (size 3 to 8) (size 9 to 14) (size 15 to 20)
#    0.000    2.400    0.000    3.000    0.000    5.600 
#    0.000    4.000    0.000    8.400    0.000    0.000 
#    0.000    0.000    0.000    0.000    0.000    0.000 
#
# Total GULP energy -247894.554811 kJ/mol
# GULP energy per Si atom -12394.727741 kJ/mol
# Density = 2.142543 g / cm^3
# Si number density = 21.474311 Si / 1000 Ang^3
#
#
#
# Elastic Constant Matrix: (Units=GPa)
#
#
# Indices 1 2 3 4 5 6 
#
# 1 70.0184 25.9035 37.4547 0.0004 -27.9781 -0.0009
# 2 25.9035 182.2184 77.9405 0.0000 -43.7557 -0.0005
# 3 37.4547 77.9405 111.9687 -0.0014 -40.9082 0.0000
# 4 0.0004 0.0000 -0.0014 26.4017 0.0000 -7.8017
# 5 -27.9781 -43.7557 -40.9082 0.0000 39.4252 0.0001
# 6 -0.0009 -0.0005 0.0000 -7.8017 0.0001 25.0213
#
#
#
# Elastic Compliance Matrix: (Units=1/GPa)
#
#
# Indices 1 2 3 4 5 6 
#
# 1 0.020642 0.001584 -0.003243 0.000000 0.013042 0.000001
# 2 0.001584 0.008566 -0.004201 0.000000 0.006272 0.000000
# 3 -0.003243 -0.004201 0.016743 0.000001 0.010409 0.000000
# 4 0.000000 0.000000 0.000001 0.041720 0.000001 0.013008
# 5 0.013042 0.006272 0.010409 0.000001 0.052381 0.000001
# 6 0.000001 0.000000 0.000000 0.013008 0.000001 0.044022
#
#
# Mechanical properties :
#
#
# Convention : Reuss Voigt Hill
#
# Bulk Modulus (GPa) = 29.21247 71.86697 50.53972
# Shear Modulus (GPa) = 24.13080 33.03009 28.58044
#
# Velocity S-wave (km/s) = 3.35581 3.92614 3.65213
# Velocity P-wave (km/s) = 5.35241 7.35472 6.43196
#
# Compressibility (1/GPa) = 0.03423195
#
# Stress axis : x y z
#
# Youngs Moduli (GPa) = 48.44513 116.74549 59.72575
#
# Poissons Ratio (x) = -0.18498 0.19368
# Poissons Ratio (y) = -0.07676 0.25091
# Poissons Ratio (z) = 0.15710 0.49045
#
# Static dielectric constant tensor:
#      x y z
#    x 3.846910 0.000000 -0.345700 
#    y 0.000000 4.132010 0.000000 
#    z -0.345700 0.000000 3.779320 
# 
# 
# High freq. dielectric constant tensor:
#      x y z
#    x 1.824830 0.000000 -0.020670 
#    y 0.000000 1.845470 0.000000 
#    z -0.020670 0.000000 1.828810 
# 
# From -- ./inp_files/77734.got.cif
#   From: 2010.06.25/outbox.cif.g09.slc.cpg/sg15_39_cif.got.tgz:77734.got - 2010.06.28 07:06:18.
