data_PCOD8131523
_publ_section_title
;
Structure prediction by ZEFSAII (Michael W. Deem and Ramdas Pophale) SiO2 
 PCOD8131523
Probable space group: C 2/C
;
_chemical_formula_sum "Si O2"
_cell_formula_units_Z 64
_cell_length_a 21.155294
_cell_length_b 17.873481
_cell_length_c 17.571944
_cell_angle_alpha 90.000000
_cell_angle_beta 149.025264
_cell_angle_gamma 90.000000
_cell_volume 3419.546310
_symmetry_space_group_name_H-M "C 2/C"
_symmetry_group_IT_number 15
_symmetry_cell_setting 'monoclinic'
loop_
_space_group_symop_operation_xyz
x,y,z
-x,y,1/2-z
-x,-y,-z
x,-y,1/2+z
1/2+x,1/2+y,z
1/2-x,1/2+y,1/2-z
1/2-x,1/2-y,-z
1/2+x,1/2-y,1/2+z
loop_
_atom_site_type_symbol
_atom_site_label
_atom_site_fract_x
_atom_site_fract_y
_atom_site_fract_z
Si Si1 0.240370 0.900632 0.051784
Si Si2 0.385887 0.437163 0.314646
Si Si3 0.041205 0.187542 0.418028
Si Si4 0.349267 0.519072 0.430673
Si Si5 0.687894 0.588222 0.329675
Si Si6 0.068191 0.663902 0.647618
Si Si7 0.708432 0.702325 0.727481
Si Si8 0.821758 0.633214 0.321186
O O1 0.369035 0.894032 0.229376
O O2 0.174322 0.975888 0.014746
O O3 0.156328 0.826514 0.980118
O O4 0.264056 0.905851 0.986415
O O5 0.374209 0.457056 0.392070
O O6 0.528794 0.429300 0.437246
O O7 0.318508 0.500700 0.196430
O O8 0.311572 0.358580 0.225152
O O9 0.089168 0.183697 0.553433
O O10 0.948023 0.120965 0.302037
O O11 0.982317 0.269816 0.349644
O O12 0.229607 0.568459 0.286202
O O13 0.751427 0.636250 0.329250
O O14 0.164088 0.693519 0.684580
O O15 0.963956 0.621353 0.490742
O O16 0.698466 0.788251 0.744186
#
# Coordination Sequence:
#
# PCOD8131523 Si02
#       8
#     8   8   8   8   8   8   8   8
#     4  11  22  37  53  78 114 147 177 221 266 316
#     4  10  18  33  57  77 102 135 185 232 263 307
#     4  10  18  34  52  77 107 139 174 212 261 320
#     4  10  19  34  56  80 101 138 184 227 267 311
#     4  11  21  35  54  82 105 142 183 220 264 315
#     4  10  21  35  49  76 113 148 177 211 264 330
#     4  10  18  35  54  78 107 140 178 228 272 309
#     4  10  22  34  54  80 109 140 182 222 266 329
#
# _framework density 18.715933
#
# number of rings (size 3 to 8) (size 9 to 14) (size 15 to 20)
#    0.000    1.750    5.000    1.875    1.750    1.500 
#    4.500    0.000    0.000    0.750    0.000    0.000 
#    0.000    0.000    0.000    0.000    0.000    0.000 
#
# Total GULP energy -396631.339738 kJ/mol
# GULP energy per Si atom -12394.729367 kJ/mol
# Density = 1.867334 g / cm^3
# Si number density = 18.715933 Si / 1000 Ang^3
#
#
#
# Elastic Constant Matrix: (Units=GPa)
#
#
# Indices 1 2 3 4 5 6 
#
# 1 31.6755 26.2662 10.1318 -0.0003 1.1701 -0.0001
# 2 26.2662 98.7775 28.6215 -0.0002 7.0450 -0.0001
# 3 10.1318 28.6215 70.8371 -0.0002 20.1726 -0.0001
# 4 -0.0003 -0.0002 -0.0002 26.6803 -0.0002 6.3443
# 5 1.1701 7.0450 20.1726 -0.0002 16.6845 -0.0001
# 6 -0.0001 -0.0001 -0.0001 6.3443 -0.0001 23.8987
#
#
#
# Elastic Compliance Matrix: (Units=1/GPa)
#
#
# Indices 1 2 3 4 5 6 
#
# 1 0.040982 -0.010351 -0.003211 0.000000 0.005379 0.000000
# 2 -0.010351 0.014095 -0.004158 0.000000 -0.000198 0.000000
# 3 -0.003211 -0.004158 0.023932 0.000000 -0.026955 0.000000
# 4 0.000000 0.000000 0.000000 0.040006 0.000000 -0.010620
# 5 0.005379 -0.000198 -0.026955 0.000000 0.092232 0.000000
# 6 0.000000 0.000000 0.000000 -0.010620 0.000000 0.044663
#
#
# Mechanical properties :
#
#
# Convention : Reuss Voigt Hill
#
# Bulk Modulus (GPa) = 22.95219 36.81432 29.88326
# Shear Modulus (GPa) = 16.34663 22.53740 19.44202
#
# Velocity S-wave (km/s) = 2.95855 3.47390 3.22653
# Velocity P-wave (km/s) = 4.89498 5.98359 5.46645
#
# Compressibility (1/GPa) = 0.04356882
#
# Stress axis : x y z
#
# Youngs Moduli (GPa) = 24.40110 70.94645 41.78455
#
# Poissons Ratio (x) = 0.73435 0.13418
# Poissons Ratio (y) = 0.25257 0.17375
# Poissons Ratio (z) = 0.07836 0.29501
#
# Static dielectric constant tensor:
#      x y z
#    x 3.111900 0.000000 0.226740 
#    y 0.000000 3.524500 0.000000 
#    z 0.226740 0.000000 3.443250 
# 
# 
# High freq. dielectric constant tensor:
#      x y z
#    x 1.682410 0.000000 0.026120 
#    y 0.000000 1.723680 0.000000 
#    z 0.026120 0.000000 1.719570 
# 
# From -- ./inp_files/216182.got.cif
#   From: 2010.06.25/outbox.cif.g09.slc.cpg/sg15_109_cif.got.tgz:216182.got - 2010.06.28 07:06:18.
