data_PCOD8131222
_publ_section_title
;
Structure prediction by ZEFSAII (Michael W. Deem and Ramdas Pophale) SiO2 
 PCOD8131222
Probable space group: C 2/C
;
_chemical_formula_sum "Si O2"
_cell_formula_units_Z 56
_cell_length_a 17.476169
_cell_length_b 25.674491
_cell_length_c 7.520035
_cell_angle_alpha 90.000000
_cell_angle_beta 64.521342
_cell_angle_gamma 90.000000
_cell_volume 3046.023937
_symmetry_space_group_name_H-M "C 2/C"
_symmetry_group_IT_number 15
_symmetry_cell_setting 'monoclinic'
loop_
_space_group_symop_operation_xyz
x,y,z
-x,y,1/2-z
-x,-y,-z
x,-y,1/2+z
1/2+x,1/2+y,z
1/2-x,1/2+y,1/2-z
1/2-x,1/2-y,-z
1/2+x,1/2-y,1/2+z
loop_
_atom_site_type_symbol
_atom_site_label
_atom_site_fract_x
_atom_site_fract_y
_atom_site_fract_z
Si Si1 0.739004 0.688902 0.511047
Si Si2 0.667609 0.381561 0.788844
Si Si3 0.338152 0.059578 0.710694
Si Si4 0.838128 0.440470 0.613356
Si Si5 0.667617 0.618456 0.876057
Si Si6 0.500007 0.560984 0.042507
Si Si7 0.592826 0.872865 0.657019
O O1 0.750000 0.750000 0.500000
O O2 0.688624 0.669317 0.386111
O O3 0.688644 0.669334 0.736752
O O4 0.835760 0.670548 0.414254
O O5 0.741257 0.423724 0.742299
O O6 0.659158 0.364149 0.590911
O O7 0.583164 0.409683 0.948736
O O8 0.241282 0.076308 0.775363
O O9 0.400864 0.091845 0.524450
O O10 0.346120 0.000035 0.653882
O O11 0.366508 0.069913 0.883686
O O12 0.900825 0.408273 0.674455
O O13 0.583180 0.590323 0.884989
O O14 0.500000 0.567680 0.250000
O O15 0.500000 0.500000 0.000000
O O16 0.500000 0.846274 0.750000
#
# Coordination Sequence:
#
# PCOD8131222 Si02
#       7
#     8   8   8   8   8   8   8
#     4  10  22  41  62  80  99 148 194 238 290 323
#     4   9  20  35  54  81 117 146 188 229 271 340
#     4  10  18  32  52  77 109 153 179 210 265 325
#     4  10  18  32  52  77 109 153 179 210 265 325
#     4   9  20  35  54  81 117 146 188 229 271 340
#     4  10  20  32  52  88 126 160 182 225 281 343
#     4  10  22  38  53  77 112 134 181 234 266 328
#
# _framework density 18.384622
#
# number of rings (size 3 to 8) (size 9 to 14) (size 15 to 20)
#    0.000    2.286    1.429    0.857    2.000    1.714 
#    2.571    0.000    0.000    0.000    0.000    0.000 
#    0.000    0.000    0.000    0.000    0.000    0.000 
#
# Total GULP energy -347151.043555 kJ/mol
# GULP energy per Si atom -12398.251556 kJ/mol
# Density = 1.834278 g / cm^3
# Si number density = 18.384622 Si / 1000 Ang^3
#
#
#
# Elastic Constant Matrix: (Units=GPa)
#
#
# Indices 1 2 3 4 5 6 
#
# 1 101.6766 51.3512 65.3480 0.0000 -15.6584 0.0000
# 2 51.3512 140.1214 48.6705 0.0000 -2.6819 0.0000
# 3 65.3480 48.6705 93.4378 0.0000 7.7680 0.0000
# 4 0.0000 0.0000 0.0000 17.0455 0.0000 -0.1509
# 5 -15.6584 -2.6819 7.7680 0.0000 29.6917 0.0000
# 6 0.0000 0.0000 0.0000 -0.1509 0.0000 17.1500
#
#
#
# Elastic Compliance Matrix: (Units=1/GPa)
#
#
# Indices 1 2 3 4 5 6 
#
# 1 0.025449 -0.002793 -0.017825 0.000000 0.017832 0.000000
# 2 -0.002793 0.009140 -0.002814 0.000000 0.000089 0.000000
# 3 -0.017825 -0.002814 0.026003 0.000000 -0.016458 0.000000
# 4 0.000000 0.000000 0.000000 0.058671 0.000000 0.000516
# 5 0.017832 0.000089 -0.016458 0.000000 0.047397 0.000000
# 6 0.000000 0.000000 0.000000 0.000516 0.000000 0.058314
#
#
# Mechanical properties :
#
#
# Convention : Reuss Voigt Hill
#
# Bulk Modulus (GPa) = 72.86108 73.99724 73.42916
# Shear Modulus (GPa) = 18.08874 24.10183 21.09529
#
# Velocity S-wave (km/s) = 3.14013 3.62467 3.39107
# Velocity P-wave (km/s) = 7.27082 7.60622 7.44041
#
# Compressibility (1/GPa) = 0.01372475
#
# Stress axis : x y z
#
# Youngs Moduli (GPa) = 39.29498 109.41298 38.45678
#
# Poissons Ratio (x) = 0.30564 0.68551
# Poissons Ratio (y) = 0.10977 0.10824
# Poissons Ratio (z) = 0.70045 0.30794
#
# Static dielectric constant tensor:
#      x y z
#    x 3.629250 0.000000 0.131800 
#    y 0.000000 2.992390 0.000000 
#    z 0.131800 0.000000 3.778660 
# 
# 
# High freq. dielectric constant tensor:
#      x y z
#    x 1.720220 0.000000 0.004650 
#    y 0.000000 1.681820 0.000000 
#    z 0.004650 0.000000 1.725620 
# 
# From -- ./inp_files/51166.got.cif
#   From: 2010.06.25/outbox.cif.g09.slc.cpg/sg15_26_cif.got.tgz:51166.got - 2010.06.28 07:06:18.
