data_PCOD8131457
_publ_section_title
;
Structure prediction by ZEFSAII (Michael W. Deem and Ramdas Pophale) SiO2 
 PCOD8131457
Probable space group: C 2/C
;
_chemical_formula_sum "Si O2"
_cell_formula_units_Z 56
_cell_length_a 9.241759
_cell_length_b 14.907548
_cell_length_c 25.559957
_cell_angle_alpha 90.000000
_cell_angle_beta 122.760172
_cell_angle_gamma 90.000000
_cell_volume 2961.334815
_symmetry_space_group_name_H-M "C 2/C"
_symmetry_group_IT_number 15
_symmetry_cell_setting 'monoclinic'
loop_
_space_group_symop_operation_xyz
x,y,z
-x,y,1/2-z
-x,-y,-z
x,-y,1/2+z
1/2+x,1/2+y,z
1/2-x,1/2+y,1/2-z
1/2-x,1/2-y,-z
1/2+x,1/2-y,1/2+z
loop_
_atom_site_type_symbol
_atom_site_label
_atom_site_fract_x
_atom_site_fract_y
_atom_site_fract_z
Si Si1 0.731266 0.080536 0.912357
Si Si2 0.147928 0.613017 0.400446
Si Si3 0.089004 0.219007 0.822630
Si Si4 0.513856 0.209221 0.586711
Si Si5 0.525833 0.420387 0.394067
Si Si6 0.470357 0.601401 0.054311
Si Si7 0.082578 0.404234 0.003204
O O1 0.584940 0.153419 0.888956
O O2 0.871510 0.118168 0.899260
O O3 0.632647 0.989096 0.875753
O O4 0.829920 0.061065 0.986818
O O5 0.053761 0.688082 0.346937
O O6 0.354518 0.627872 0.442650
O O7 0.049914 0.621673 0.436745
O O8 0.292370 0.210670 0.854831
O O9 0.010503 0.129241 0.834992
O O10 0.000000 0.228271 0.750000
O O11 0.414162 0.304434 0.568096
O O12 0.495707 0.167004 0.525185
O O13 0.503992 0.529313 0.393335
O O14 0.713414 0.396752 0.451220
O O15 0.000000 0.500000 0.000000
#
# Coordination Sequence:
#
# PCOD8131457 Si02
#       7
#     8   8   8   8   8   8   8
#     4  11  18  35  54  96 118 142 170 229 297 359
#     4  10  19  34  58  81 117 151 186 222 285 341
#     4  10  24  43  57  74 105 154 206 241 267 322
#     4  10  22  32  58  83 120 146 186 226 286 345
#     4  10  20  35  58  79 117 148 184 225 291 333
#     4  10  18  33  53  87 124 147 169 220 298 361
#     4  11  18  32  54  91 120 148 180 228 277 356
#
# _framework density 18.910391000000001
#
# number of rings (size 3 to 8) (size 9 to 14) (size 15 to 20)
#    0.000    1.714    4.286    1.286    2.000    1.714 
#    0.000    5.000    0.000    0.000    0.000    0.000 
#    0.000    0.000    0.000    0.000    0.000    0.000 
#
# Total GULP energy -346901.009107 kJ/mol
# GULP energy per Si atom -12389.321754 kJ/mol
# Density = 1.886735 g / cm^3
# Si number density = 18.910391 Si / 1000 Ang^3
#
#
#
# Elastic Constant Matrix: (Units=GPa)
#
#
# Indices 1 2 3 4 5 6 
#
# 1 92.3669 47.5725 32.4167 0.0000 -13.5634 0.0000
# 2 47.5725 143.4431 49.7365 0.0000 -14.2469 0.0000
# 3 32.4167 49.7365 95.9338 0.0000 -15.8832 0.0000
# 4 0.0000 0.0000 0.0000 19.8956 0.0000 -7.3819
# 5 -13.5634 -14.2469 -15.8832 0.0000 11.2659 0.0000
# 6 0.0000 0.0000 0.0000 -7.3819 0.0000 35.7285
#
#
#
# Elastic Compliance Matrix: (Units=1/GPa)
#
#
# Indices 1 2 3 4 5 6 
#
# 1 0.014684 -0.003243 -0.001347 0.000000 0.011679 0.000000
# 2 -0.003243 0.009529 -0.003256 0.000000 0.003556 0.000000
# 3 -0.001347 -0.003256 0.015154 0.000000 0.015626 0.000000
# 4 0.000000 0.000000 0.000000 0.054435 0.000000 0.011247
# 5 0.011679 0.003556 0.015626 0.000000 0.129351 0.000000
# 6 0.000000 0.000000 0.000000 0.011247 0.000000 0.030313
#
#
# Mechanical properties :
#
#
# Convention : Reuss Voigt Hill
#
# Bulk Modulus (GPa) = 42.23711 65.68836 53.96273
# Shear Modulus (GPa) = 18.04734 26.84590 22.44662
#
# Velocity S-wave (km/s) = 3.09263 3.77190 3.44902
# Velocity P-wave (km/s) = 5.92759 7.33360 6.66776
#
# Compressibility (1/GPa) = 0.02367586
#
# Stress axis : x y z
#
# Youngs Moduli (GPa) = 68.09969 104.94307 65.98913
#
# Poissons Ratio (x) = 0.34033 0.08889
# Poissons Ratio (y) = 0.22085 0.21484
# Poissons Ratio (z) = 0.09173 0.34166
#
# Static dielectric constant tensor:
#      x y z
#    x 3.712160 0.000000 -0.123760 
#    y 0.000000 3.875570 0.000000 
#    z -0.123760 0.000000 2.962440 
# 
# 
# High freq. dielectric constant tensor:
#      x y z
#    x 1.747150 0.000000 -0.002840 
#    y 0.000000 1.754320 0.000000 
#    z -0.002840 0.000000 1.664680 
# 
# From -- ./inp_files/264590.got.cif
#   From: 2010.06.25/outbox.cif.g09.slc.cpg/sg15_133_cif.got.tgz:264590.got - 2010.06.28 07:06:18.
