data_PCOD8131854
_publ_section_title
;
Structure prediction by ZEFSAII (Michael W. Deem and Ramdas Pophale) SiO2 
 PCOD8131854
Probable space group: C 2/C
;
_chemical_formula_sum "Si O2"
_cell_formula_units_Z 52
_cell_length_a 9.474494
_cell_length_b 23.645671
_cell_length_c 12.938799
_cell_angle_alpha 90.000000
_cell_angle_beta 66.863447
_cell_angle_gamma 90.000000
_cell_volume 2665.550445
_symmetry_space_group_name_H-M "C 2/C"
_symmetry_group_IT_number 15
_symmetry_cell_setting 'monoclinic'
loop_
_space_group_symop_operation_xyz
x,y,z
-x,y,1/2-z
-x,-y,-z
x,-y,1/2+z
1/2+x,1/2+y,z
1/2-x,1/2+y,1/2-z
1/2-x,1/2-y,-z
1/2+x,1/2-y,1/2+z
loop_
_atom_site_type_symbol
_atom_site_label
_atom_site_fract_x
_atom_site_fract_y
_atom_site_fract_z
Si Si1 0.915599 0.780293 0.455533
Si Si2 0.763712 0.046502 0.802509
Si Si3 0.500000 0.992376 0.250000
Si Si4 0.000000 0.861473 0.250000
Si Si5 0.862725 0.136058 0.141194
Si Si6 0.500000 0.447664 0.750000
Si Si7 0.122730 0.579834 0.058626
Si Si8 0.416968 0.177689 0.164553
O O1 0.750000 0.750000 0.500000
O O2 0.942196 0.812653 0.556147
O O3 0.919060 0.824239 0.360429
O O4 0.056676 0.736230 0.404578
O O5 0.645077 0.044924 0.741674
O O6 0.874591 0.097118 0.735160
O O7 0.682060 0.059989 0.932534
O O8 0.849082 0.986606 0.795333
O O9 0.538175 0.028725 0.138594
O O10 0.988540 0.093379 0.152864
O O11 0.760441 0.101188 0.090361
O O12 0.761202 0.162934 0.264065
O O13 0.996761 0.628384 0.075739
O O14 0.500000 0.184083 0.250000
#
# Coordination Sequence:
#
# PCOD8131854 Si02
#       8
#     8   8   4   4   8   4   8   8
#     4  12  19  35  63  91 114 152 198 243 294 350
#     4  11  24  37  60  87 122 158 198 245 296 345
#     4  12  22  39  60  88 118 161 198 240 292 358
#     4  11  22  35  54  94 122 145 198 247 288 348
#     4  11  21  37  60  86 119 154 198 242 293 353
#     4  11  24  42  58  84 124 162 194 249 296 340
#     4  11  19  37  60  89 112 153 203 240 283 360
#     4  10  18  34  62  89 113 146 197 245 285 349
#
# _framework density 19.508165000000002
#
# number of rings (size 3 to 8) (size 9 to 14) (size 15 to 20)
#    0.000    0.923    9.231    0.462    0.000    1.846 
#    0.000    0.769    0.000    6.462    0.000    0.000 
#    0.000    0.000    0.000    0.000    0.000    0.000 
#
# Total GULP energy -322385.998334 kJ/mol
# GULP energy per Si atom -12399.461474 kJ/mol
# Density = 1.946376 g / cm^3
# Si number density = 19.508165 Si / 1000 Ang^3
#
#
#
# Elastic Constant Matrix: (Units=GPa)
#
#
# Indices 1 2 3 4 5 6 
#
# 1 89.2794 55.2742 29.2568 0.0000 -2.5298 0.0000
# 2 55.2742 132.6906 58.0934 0.0000 0.2558 0.0000
# 3 29.2568 58.0934 89.3514 0.0000 -4.2636 0.0000
# 4 0.0000 0.0000 0.0000 -126.4449 0.0000 -161.8943
# 5 -2.5298 0.2558 -4.2636 0.0000 17.4598 0.0000
# 6 0.0000 0.0000 0.0000 -161.8943 0.0000 -134.5051
#
#
#
# Elastic Compliance Matrix: (Units=1/GPa)
#
#
# Indices 1 2 3 4 5 6 
#
# 1 0.015256 -0.005892 -0.001068 0.000000 0.002036 0.000000
# 2 -0.005892 0.012870 -0.006565 0.000000 -0.002645 0.000000
# 3 -0.001068 -0.006565 0.015993 0.000000 0.003847 0.000000
# 4 0.000000 0.000000 0.000000 0.014617 0.000000 -0.017593
# 5 0.002036 -0.002645 0.003847 0.000000 0.058547 0.000000
# 6 0.000000 0.000000 0.000000 -0.017593 0.000000 0.013741
#
#
# Mechanical properties :
#
#
# Convention : Reuss Voigt Hill
#
# Bulk Modulus (GPa) = 58.57891 66.28558 62.43225
# Shear Modulus (GPa) = 30.53228 -37.45156 -3.45964
#
# Velocity S-wave (km/s) = 3.96043 -4.38629 -1.33315
# Velocity P-wave (km/s) = 7.14188 2.89817 5.45004
#
# Compressibility (1/GPa) = 0.01707099
#
# Stress axis : x y z
#
# Youngs Moduli (GPa) = 65.54840 77.70203 62.52734
#
# Poissons Ratio (x) = 0.45779 0.06676
# Poissons Ratio (y) = 0.38618 0.41047
# Poissons Ratio (z) = 0.06998 0.51008
#
# Static dielectric constant tensor:
#      x y z
#    x 3.287100 0.000000 -0.164970 
#    y 0.000000 3.959740 0.000000 
#    z -0.164970 0.000000 3.724730 
# 
# 
# High freq. dielectric constant tensor:
#      x y z
#    x 1.723470 0.000000 -0.015690 
#    y 0.000000 1.774570 0.000000 
#    z -0.015690 0.000000 1.763960 
# 
# From -- ./inp_files/137229.got.cif
#   From: 2010.06.25/outbox.cif.g09.slc.cpg/sg15_69_cif.got.tgz:137229.got - 2010.06.28 07:06:18.
