data_PCOD8131030
_publ_section_title
;
Structure prediction by ZEFSAII (Michael W. Deem and Ramdas Pophale) SiO2 
 PCOD8131030
Probable space group: C 2/C
;
_chemical_formula_sum "Si O2"
_cell_formula_units_Z 64
_cell_length_a 19.150217
_cell_length_b 14.553948
_cell_length_c 19.216226
_cell_angle_alpha 90.000000
_cell_angle_beta 139.763756
_cell_angle_gamma 90.000000
_cell_volume 3459.515481
_symmetry_space_group_name_H-M "C 2/C"
_symmetry_group_IT_number 15
_symmetry_cell_setting 'monoclinic'
loop_
_space_group_symop_operation_xyz
x,y,z
-x,y,1/2-z
-x,-y,-z
x,-y,1/2+z
1/2+x,1/2+y,z
1/2-x,1/2+y,1/2-z
1/2-x,1/2-y,-z
1/2+x,1/2-y,1/2+z
loop_
_atom_site_type_symbol
_atom_site_label
_atom_site_fract_x
_atom_site_fract_y
_atom_site_fract_z
Si Si1 0.426825 0.713312 0.635486
Si Si2 0.157889 0.230994 0.147209
Si Si3 0.716185 0.078105 0.199199
Si Si4 0.621671 0.990025 0.340508
Si Si5 0.602883 0.985164 0.482962
Si Si6 0.997935 0.321262 0.930595
Si Si7 0.368438 0.907627 0.290383
Si Si8 0.737583 0.165471 0.406847
O O1 0.500000 0.662676 0.750000
O O2 0.507714 0.767656 0.646437
O O3 0.348982 0.788278 0.609859
O O4 0.350427 0.645240 0.533936
O O5 0.171154 0.133731 0.199537
O O6 0.180949 0.312865 0.219102
O O7 0.241401 0.226712 0.145694
O O8 0.040566 0.252453 0.024108
O O9 0.623356 0.150829 0.147131
O O10 0.710191 0.987541 0.241680
O O11 0.699034 0.050639 0.105662
O O12 0.500000 0.028152 0.250000
O O13 0.653664 0.969841 0.444570
O O14 0.630310 0.903657 0.293675
O O15 0.694088 0.065017 0.355865
O O16 0.491803 0.927461 0.410628
O O17 0.578782 0.091228 0.483971
#
# Coordination Sequence:
#
# PCOD8131030 Si02
#       8
#     8   8   8   8   8   8   8   8
#     4  10  19  27  42  73 110 138 164 202 272 327
#     4  11  20  31  50  78 108 141 174 216 267 319
#     4  11  19  31  54  76 106 141 177 219 265 312
#     4  10  19  32  55  80 109 131 171 225 278 310
#     4  10  18  32  54  79 104 135 172 230 271 302
#     4  10  18  31  49  75 111 131 174 224 260 321
#     4  10  19  34  51  79 109 139 175 217 267 317
#     4  10  19  29  46  76 105 140 167 215 266 321
#
# _framework density 18.499701000000002
#
# number of rings (size 3 to 8) (size 9 to 14) (size 15 to 20)
#    0.000    1.750    5.000    1.875    1.750    0.000 
#    0.000    0.625    0.000    0.750    3.250    0.000 
#    0.000    6.250    0.000    0.000    0.000    0.000 
#
# Total GULP energy -396420.197762 kJ/mol
# GULP energy per Si atom -12388.131180 kJ/mol
# Density = 1.845760 g / cm^3
# Si number density = 18.499701 Si / 1000 Ang^3
#
#
#
# Elastic Constant Matrix: (Units=GPa)
#
#
# Indices 1 2 3 4 5 6 
#
# 1 63.7814 24.4099 27.2357 0.0000 -19.8022 0.0000
# 2 24.4099 60.0232 22.7301 0.0000 -7.9846 0.0000
# 3 27.2357 22.7301 77.1253 0.0000 -27.0046 0.0000
# 4 0.0000 0.0000 0.0000 31.3759 0.0000 2.8915
# 5 -19.8022 -7.9846 -27.0046 0.0000 28.6896 0.0000
# 6 0.0000 0.0000 0.0000 2.8915 0.0000 19.6253
#
#
#
# Elastic Compliance Matrix: (Units=1/GPa)
#
#
# Indices 1 2 3 4 5 6 
#
# 1 0.022905 -0.007031 -0.001739 0.000000 0.012215 0.000000
# 2 -0.007031 0.020912 -0.004984 0.000000 -0.003725 0.000000
# 3 -0.001739 -0.004984 0.021096 0.000000 0.017269 0.000000
# 4 0.000000 0.000000 0.000000 0.032310 0.000000 -0.004760
# 5 0.012215 -0.003725 0.017269 0.000000 0.058505 0.000000
# 6 0.000000 0.000000 0.000000 -0.004760 0.000000 0.051656
#
#
# Mechanical properties :
#
#
# Convention : Reuss Voigt Hill
#
# Bulk Modulus (GPa) = 26.73598 38.85347 32.79472
# Shear Modulus (GPa) = 20.21346 24.37511 22.29429
#
# Velocity S-wave (km/s) = 3.30909 3.63381 3.47524
# Velocity P-wave (km/s) = 5.39292 6.21722 5.81969
#
# Compressibility (1/GPa) = 0.03740278
#
# Stress axis : x y z
#
# Youngs Moduli (GPa) = 43.65933 47.82034 47.40342
#
# Poissons Ratio (x) = 0.33623 0.08244
# Poissons Ratio (y) = 0.30698 0.23627
# Poissons Ratio (z) = 0.07593 0.23835
#
# Static dielectric constant tensor:
#      x y z
#    x 3.320720 0.000000 -0.318920 
#    y 0.000000 3.149980 0.000000 
#    z -0.318920 0.000000 3.735190 
# 
# 
# High freq. dielectric constant tensor:
#      x y z
#    x 1.698730 0.000000 -0.035060 
#    y 0.000000 1.671050 0.000000 
#    z -0.035060 0.000000 1.721970 
# 
# From -- ./inp_files/252602.got.cif
#   From: 2010.06.25/outbox.cif.g09.slc.cpg/sg15_127_cif.got.tgz:252602.got - 2010.06.28 07:06:18.
