data_PCOD8131924
_publ_section_title
;
Structure prediction by ZEFSAII (Michael W. Deem and Ramdas Pophale) SiO2 
 PCOD8131924
Probable space group: C 2/C
;
_chemical_formula_sum "Si O2"
_cell_formula_units_Z 56
_cell_length_a 9.176179
_cell_length_b 27.411330
_cell_length_c 14.013138
_cell_angle_alpha 90.000000
_cell_angle_beta 120.759229
_cell_angle_gamma 90.000000
_cell_volume 3028.895897
_symmetry_space_group_name_H-M "C 2/C"
_symmetry_group_IT_number 15
_symmetry_cell_setting 'monoclinic'
loop_
_space_group_symop_operation_xyz
x,y,z
-x,y,1/2-z
-x,-y,-z
x,-y,1/2+z
1/2+x,1/2+y,z
1/2-x,1/2+y,1/2-z
1/2-x,1/2-y,-z
1/2+x,1/2-y,1/2+z
loop_
_atom_site_type_symbol
_atom_site_label
_atom_site_fract_x
_atom_site_fract_y
_atom_site_fract_z
Si Si1 0.157267 0.179991 0.019288
Si Si2 0.834699 0.989922 0.382332
Si Si3 0.168820 0.175336 0.244579
Si Si4 0.447123 0.585793 0.629809
Si Si5 0.185757 0.070527 0.285951
Si Si6 0.685614 0.001852 0.022440
Si Si7 0.001389 0.267344 0.639335
O O1 0.116193 0.181640 0.117148
O O2 0.353443 0.193661 0.064538
O O3 0.121219 0.126548 0.964649
O O4 0.028873 0.217716 0.927793
O O5 0.875034 0.938110 0.347060
O O6 0.795465 0.031198 0.291661
O O7 0.679158 0.989674 0.405476
O O8 0.000000 0.000000 0.500000
O O9 0.265007 0.122605 0.284408
O O10 0.313023 0.213057 0.327296
O O11 0.000000 0.183998 0.250000
O O12 0.500000 0.608013 0.750000
O O13 0.301219 0.544389 0.590997
O O14 0.000000 0.086516 0.250000
O O15 0.248289 0.050781 0.407387
O O16 0.500000 0.000000 0.000000
O O17 0.000000 0.254744 0.750000
#
# Coordination Sequence:
#
# PCOD8131924 Si02
#       7
#     8   8   8   8   8   8   8
#     4  10  21  37  62  84 111 151 191 241 292 334
#     4  10  18  35  55  73 111 151 186 226 274 330
#     4  10  22  35  60  87 116 151 189 228 293 348
#     4  11  20  37  58  83 107 153 194 227 285 349
#     4  11  19  37  55  82 115 153 191 234 271 349
#     4  11  23  34  53  82 116 148 190 236 281 325
#     4   9  20  41  59  86 114 140 191 249 285 338
#
# _framework density 18.488583999999999
#
# number of rings (size 3 to 8) (size 9 to 14) (size 15 to 20)
#    0.000    1.714    4.286    2.143    4.000    1.143 
#    2.571    0.000    0.000    0.000    0.000    0.000 
#    0.000    0.000    0.000    0.000    0.000    0.000 
#
# Total GULP energy -346951.420446 kJ/mol
# GULP energy per Si atom -12391.122159 kJ/mol
# Density = 1.844650 g / cm^3
# Si number density = 18.488584 Si / 1000 Ang^3
#
#
#
# Elastic Constant Matrix: (Units=GPa)
#
#
# Indices 1 2 3 4 5 6 
#
# 1 121.3764 42.6760 33.9476 0.0000 -5.7682 0.0000
# 2 42.6760 106.7469 45.1082 0.0000 1.8521 0.0000
# 3 33.9476 45.1082 83.8641 0.0000 -9.8473 0.0000
# 4 0.0000 0.0000 0.0000 0.7559 0.0000 -18.9395
# 5 -5.7682 1.8521 -9.8473 0.0000 26.6544 0.0000
# 6 0.0000 0.0000 0.0000 -18.9395 0.0000 10.1923
#
#
#
# Elastic Compliance Matrix: (Units=1/GPa)
#
#
# Indices 1 2 3 4 5 6 
#
# 1 0.010020 -0.003102 -0.002203 0.000000 0.001570 0.000000
# 2 -0.003102 0.013386 -0.006410 0.000000 -0.003970 0.000000
# 3 -0.002203 -0.006410 0.016997 0.000000 0.006248 0.000000
# 4 0.000000 0.000000 0.000000 -0.029038 0.000000 -0.053959
# 5 0.001570 -0.003970 0.006248 0.000000 0.040441 0.000000
# 6 0.000000 0.000000 0.000000 -0.053959 0.000000 -0.002154
#
#
# Mechanical properties :
#
#
# Convention : Reuss Voigt Hill
#
# Bulk Modulus (GPa) = 58.91949 61.71678 60.31813
# Shear Modulus (GPa) = 63.49827 20.20424 41.85125
#
# Velocity S-wave (km/s) = 5.86678 3.30933 4.76292
# Velocity P-wave (km/s) = 8.82210 6.93222 7.93364
#
# Compressibility (1/GPa) = 0.01697231
#
# Stress axis : x y z
#
# Youngs Moduli (GPa) = 99.79627 74.70574 58.83232
#
# Poissons Ratio (x) = 0.23176 0.12962
# Poissons Ratio (y) = 0.30959 0.37713
# Poissons Ratio (z) = 0.21987 0.47888
#
# Static dielectric constant tensor:
#      x y z
#    x 3.673390 0.000000 -0.305900 
#    y 0.000000 3.377730 0.000000 
#    z -0.305900 0.000000 3.624290 
# 
# 
# High freq. dielectric constant tensor:
#      x y z
#    x 1.709720 0.000000 -0.013360 
#    y 0.000000 1.710990 0.000000 
#    z -0.013360 0.000000 1.725280 
# 
# From -- ./inp_files/81405.got.cif
#   From: 2010.06.25/outbox.cif.g09.slc.cpg/sg15_41_cif.got.tgz:81405.got - 2010.06.28 07:06:18.
