data_PCOD8131327
_publ_section_title
;
Structure prediction by ZEFSAII (Michael W. Deem and Ramdas Pophale) SiO2 
 PCOD8131327
Probable space group: C 2/C
;
_chemical_formula_sum "Si O2"
_cell_formula_units_Z 44
_cell_length_a 6.731779
_cell_length_b 19.323093
_cell_length_c 19.901439
_cell_angle_alpha 90.000000
_cell_angle_beta 106.477660
_cell_angle_gamma 90.000000
_cell_volume 2482.436003
_symmetry_space_group_name_H-M "C 2/C"
_symmetry_group_IT_number 15
_symmetry_cell_setting 'monoclinic'
loop_
_space_group_symop_operation_xyz
x,y,z
-x,y,1/2-z
-x,-y,-z
x,-y,1/2+z
1/2+x,1/2+y,z
1/2-x,1/2+y,1/2-z
1/2-x,1/2-y,-z
1/2+x,1/2-y,1/2+z
loop_
_atom_site_type_symbol
_atom_site_label
_atom_site_fract_x
_atom_site_fract_y
_atom_site_fract_z
Si Si1 0.068035 0.884869 0.185806
Si Si2 0.019117 0.074499 0.534022
Si Si3 0.307530 0.180379 0.045510
Si Si4 0.360470 0.823554 0.014048
Si Si5 0.000000 0.681827 0.750000
Si Si6 0.711036 0.223410 0.642658
O O1 0.311863 0.866903 0.207159
O O2 0.000000 0.922490 0.250000
O O3 0.025128 0.931772 0.115921
O O4 0.930415 0.815334 0.169305
O O5 0.820212 0.115247 0.490601
O O6 0.218293 0.114298 0.524661
O O7 0.000000 0.000000 0.500000
O O8 0.262130 0.199503 0.119037
O O9 0.250000 0.250000 0.000000
O O10 0.548518 0.162353 0.052487
O O11 0.559118 0.821685 0.081560
O O12 0.250000 0.750000 0.000000
O O13 0.091678 0.731970 0.701535
#
# Coordination Sequence:
#
# PCOD8131327 Si02
#       6
#     8   8   8   8   4   8
#     4  10  20  36  53  84 114 150 196 244 288 351
#     4  12  23  36  58  92 117 149 201 245 292 349
#     4  10  19  34  56  84 117 147 184 239 286 342
#     4  11  18  33  60  83 114 153 182 232 296 339
#     4  10  20  30  58  86 112 150 200 246 284 346
#     4  10  18  32  57  83 113 145 196 239 281 338
#
# _framework density 17.724526000000001
#
# number of rings (size 3 to 8) (size 9 to 14) (size 15 to 20)
#    0.000    1.455    9.091    0.000    0.000    0.727 
#    0.000    0.000    2.000    0.000    7.091    0.000 
#    0.000    0.000    0.000    0.000    0.000    0.000 
#
# Total GULP energy -272546.512997 kJ/mol
# GULP energy per Si atom -12388.477864 kJ/mol
# Density = 1.768418 g / cm^3
# Si number density = 17.724526 Si / 1000 Ang^3
#
#
#
# Elastic Constant Matrix: (Units=GPa)
#
#
# Indices 1 2 3 4 5 6 
#
# 1 143.4242 48.1176 54.6812 0.0000 -15.0373 0.0000
# 2 48.1176 98.2826 50.7169 0.0000 -10.7831 0.0000
# 3 54.6812 50.7169 108.0465 0.0000 -26.0430 0.0000
# 4 0.0000 0.0000 0.0000 20.7063 0.0000 -2.9738
# 5 -15.0373 -10.7831 -26.0430 0.0000 44.9529 0.0000
# 6 0.0000 0.0000 0.0000 -2.9738 0.0000 20.5737
#
#
#
# Elastic Compliance Matrix: (Units=1/GPa)
#
#
# Indices 1 2 3 4 5 6 
#
# 1 0.009187 -0.002780 -0.003213 0.000000 0.000545 0.000000
# 2 -0.002780 0.014278 -0.005456 0.000000 -0.000666 0.000000
# 3 -0.003213 -0.005456 0.014956 0.000000 0.006281 0.000000
# 4 0.000000 0.000000 0.000000 0.049318 0.000000 0.007129
# 5 0.000545 -0.000666 0.006281 0.000000 0.025907 0.000000
# 6 0.000000 0.000000 0.000000 0.007129 0.000000 0.049636
#
#
# Mechanical properties :
#
#
# Convention : Reuss Voigt Hill
#
# Bulk Modulus (GPa) = 64.41734 72.97608 68.69671
# Shear Modulus (GPa) = 26.12938 30.32908 28.22923
#
# Velocity S-wave (km/s) = 3.84369 4.14108 3.99515
# Velocity P-wave (km/s) = 7.49140 8.00790 7.75395
#
# Compressibility (1/GPa) = 0.01552377
#
# Stress axis : x y z
#
# Youngs Moduli (GPa) = 108.84727 70.03775 66.86114
#
# Poissons Ratio (x) = 0.19470 0.21485
# Poissons Ratio (y) = 0.30259 0.36477
# Poissons Ratio (z) = 0.34976 0.38210
#
# Static dielectric constant tensor:
#      x y z
#    x 4.097590 0.000000 -0.478480 
#    y 0.000000 3.109870 0.000000 
#    z -0.478480 0.000000 3.815740 
# 
# 
# High freq. dielectric constant tensor:
#      x y z
#    x 1.720900 0.000000 -0.010810 
#    y 0.000000 1.621860 0.000000 
#    z -0.010810 0.000000 1.683890 
# 
# From -- ./inp_files/227390.got.cif
#   From: 2010.06.25/outbox.cif.g09.slc.cpg/sg15_114_cif.got.tgz:227390.got - 2010.06.28 07:06:18.
