data_PCOD8131376
_publ_section_title
;
Structure prediction by ZEFSAII (Michael W. Deem and Ramdas Pophale) SiO2 
 PCOD8131376
Probable space group: C 2/C
;
_chemical_formula_sum "Si O2"
_cell_formula_units_Z 56
_cell_length_a 25.450272
_cell_length_b 17.535343
_cell_length_c 9.019912
_cell_angle_alpha 90.000000
_cell_angle_beta 50.549632
_cell_angle_gamma 90.000000
_cell_volume 3108.314073
_symmetry_space_group_name_H-M "C 2/C"
_symmetry_group_IT_number 15
_symmetry_cell_setting 'monoclinic'
loop_
_space_group_symop_operation_xyz
x,y,z
-x,y,1/2-z
-x,-y,-z
x,-y,1/2+z
1/2+x,1/2+y,z
1/2-x,1/2+y,1/2-z
1/2-x,1/2-y,-z
1/2+x,1/2-y,1/2+z
loop_
_atom_site_type_symbol
_atom_site_label
_atom_site_fract_x
_atom_site_fract_y
_atom_site_fract_z
Si Si1 0.955947 0.550371 0.188889
Si Si2 0.536678 0.437102 0.030922
Si Si3 0.846505 0.954250 0.178288
Si Si4 0.437630 0.161442 0.963507
Si Si5 0.964757 0.162691 0.460663
Si Si6 0.254402 0.514487 0.587164
Si Si7 0.336254 0.059433 0.001611
O O1 0.890810 0.506090 0.367473
O O2 0.000000 0.578518 0.250000
O O3 0.933378 0.622985 0.132607
O O4 0.000000 0.500000 0.000000
O O5 0.500000 0.435662 0.250000
O O6 0.500000 0.500000 0.000000
O O7 0.615603 0.462673 0.902376
O O8 0.522725 0.353768 0.982060
O O9 0.794399 0.956006 0.408506
O O10 0.806905 0.938104 0.095013
O O11 0.897197 0.884934 0.116502
O O12 0.500000 0.131950 0.750000
O O13 0.442913 0.250417 0.985637
O O14 0.371507 0.139305 0.983912
O O15 0.000000 0.131554 0.250000
O O16 0.210979 0.571604 0.559025
O O17 0.206103 0.465848 0.779576
#
# Coordination Sequence:
#
# PCOD8131376 Si02
#       7
#     8   8   8   8   8   8   8
#     4  12  19  33  59  81 103 135 183 233 286 324
#     4  10  18  32  60  85 111 144 181 229 283 329
#     4  10  18  35  54  84 108 145 186 227 264 327
#     4  11  22  36  56  85 112 145 178 234 294 336
#     4  10  21  36  56  82 119 146 178 229 294 336
#     4  10  21  31  57  80 104 144 197 223 259 320
#     4  11  19  35  53  80 107 138 188 237 266 326
#
# _framework density 18.016197999999999
#
# number of rings (size 3 to 8) (size 9 to 14) (size 15 to 20)
#    0.000    1.429    4.286    4.286    0.000    0.571 
#    0.000    1.429    0.000    0.000    0.000    0.000 
#    0.000    0.000    0.000    0.000    0.000    0.000 
#
# Total GULP energy -347016.143228 kJ/mol
# GULP energy per Si atom -12393.433687 kJ/mol
# Density = 1.797519 g / cm^3
# Si number density = 18.016198 Si / 1000 Ang^3
#
#
#
# Elastic Constant Matrix: (Units=GPa)
#
#
# Indices 1 2 3 4 5 6 
#
# 1 136.0462 44.6182 43.4985 0.0000 10.1217 0.0000
# 2 44.6182 77.1364 30.1257 0.0000 0.2517 0.0000
# 3 43.4985 30.1257 121.5304 0.0000 6.9728 0.0000
# 4 0.0000 0.0000 0.0000 19.0155 0.0000 1.4667
# 5 10.1217 0.2517 6.9728 0.0000 34.6964 0.0000
# 6 0.0000 0.0000 0.0000 1.4667 0.0000 23.4797
#
#
#
# Elastic Compliance Matrix: (Units=1/GPa)
#
#
# Indices 1 2 3 4 5 6 
#
# 1 0.009803 -0.004811 -0.002179 0.000000 -0.002387 0.000000
# 2 -0.004811 0.016728 -0.002527 0.000000 0.001790 0.000000
# 3 -0.002179 -0.002527 0.009709 0.000000 -0.001297 0.000000
# 4 0.000000 0.000000 0.000000 0.052843 0.000000 -0.003301
# 5 -0.002387 0.001790 -0.001297 0.000000 0.029765 0.000000
# 6 0.000000 0.000000 0.000000 -0.003301 0.000000 0.042796
#
#
# Mechanical properties :
#
#
# Convention : Reuss Voigt Hill
#
# Bulk Modulus (GPa) = 58.12322 63.46643 60.79483
# Shear Modulus (GPa) = 26.82180 29.86968 28.34574
#
# Velocity S-wave (km/s) = 3.86263 4.07619 3.97085
# Velocity P-wave (km/s) = 7.22668 7.58009 7.40549
#
# Compressibility (1/GPa) = 0.01720483
#
# Stress axis : x y z
#
# Youngs Moduli (GPa) = 102.01296 59.77883 102.99494
#
# Poissons Ratio (x) = 0.28762 0.22442
# Poissons Ratio (y) = 0.49082 0.26030
# Poissons Ratio (z) = 0.22228 0.15108
#
# Static dielectric constant tensor:
#      x y z
#    x 4.048430 0.000000 0.120370 
#    y 0.000000 3.133300 0.000000 
#    z 0.120370 0.000000 3.661730 
# 
# 
# High freq. dielectric constant tensor:
#      x y z
#    x 1.714650 0.000000 0.007990 
#    y 0.000000 1.650940 0.000000 
#    z 0.007990 0.000000 1.718530 
# 
# From -- ./inp_files/62689.got.cif
#   From: 2010.06.25/outbox.cif.g09.slc.cpg/sg15_32_cif.got.tgz:62689.got - 2010.06.28 07:06:18.
