data_PCOD8131606
_publ_section_title
;
Structure prediction by ZEFSAII (Michael W. Deem and Ramdas Pophale) SiO2 
 PCOD8131606
Probable space group: C 2/C
;
_chemical_formula_sum "Si O2"
_cell_formula_units_Z 60
_cell_length_a 27.948601
_cell_length_b 24.990223
_cell_length_c 15.370622
_cell_angle_alpha 90.000000
_cell_angle_beta 162.016208
_cell_angle_gamma 90.000000
_cell_volume 3314.558758
_symmetry_space_group_name_H-M "C 2/C"
_symmetry_group_IT_number 15
_symmetry_cell_setting 'monoclinic'
loop_
_space_group_symop_operation_xyz
x,y,z
-x,y,1/2-z
-x,-y,-z
x,-y,1/2+z
1/2+x,1/2+y,z
1/2-x,1/2+y,1/2-z
1/2-x,1/2-y,-z
1/2+x,1/2-y,1/2+z
loop_
_atom_site_type_symbol
_atom_site_label
_atom_site_fract_x
_atom_site_fract_y
_atom_site_fract_z
Si Si1 0.857219 0.464937 0.777806
Si Si2 0.436321 0.749955 0.320481
Si Si3 0.323511 0.976465 0.917319
Si Si4 0.000000 0.283179 0.250000
Si Si5 0.070301 0.155633 0.664755
Si Si6 0.848796 0.344221 0.766946
Si Si7 0.227908 0.142250 0.246387
Si Si8 0.358188 0.538681 0.757357
O O1 0.796727 0.484193 0.767679
O O2 0.917068 0.403862 0.878911
O O3 0.724473 0.472110 0.477386
O O4 0.000000 0.500000 0.000000
O O5 0.505611 0.745243 0.343282
O O6 0.511049 0.699480 0.495753
O O7 0.504251 0.804570 0.479937
O O8 0.250000 0.750000 0.000000
O O9 0.258331 0.918379 0.828789
O O10 0.241930 0.023807 0.830577
O O11 0.500000 0.978642 0.250000
O O12 0.150289 0.320248 0.492443
O O13 0.086832 0.100032 0.641001
O O14 0.948111 0.153669 0.532088
O O15 0.237025 0.171098 0.993416
O O16 0.746107 0.343798 0.676663
O O17 0.500000 0.500000 0.000000
#
# Coordination Sequence:
#
# PCOD8131606 Si02
#       8
#     8   8   8   4   8   8   8   8
#     4  10  21  37  60  88 119 156 200 241 290 353
#     4  11  22  38  62  83 115 153 194 241 295 349
#     4  11  20  35  62  87 121 158 197 243 298 354
#     4  10  20  36  56  94 108 142 198 244 282 346
#     4  11  21  38  59  85 119 154 189 243 305 342
#     4   9  22  36  58  89 117 144 198 247 287 341
#     4  10  18  33  62  88 113 144 197 249 287 333
#     4  11  23  37  58  89 122 154 196 249 298 353
#
# _framework density 18.101956999999999
#
# number of rings (size 3 to 8) (size 9 to 14) (size 15 to 20)
#    0.000    1.600    4.667    0.800    0.000    1.600 
#    0.000    2.667    0.000    0.000    0.000    0.000 
#    0.000    0.000    0.000    0.000    0.000    0.000 
#
# Total GULP energy -371907.544184 kJ/mol
# GULP energy per Si atom -12396.918139 kJ/mol
# Density = 1.806076 g / cm^3
# Si number density = 18.101957 Si / 1000 Ang^3
#
#
#
# Elastic Constant Matrix: (Units=GPa)
#
#
# Indices 1 2 3 4 5 6 
#
# 1 103.6167 66.2332 49.2886 0.0000 -10.1254 0.0000
# 2 66.2332 119.5779 66.7200 0.0000 -14.2077 0.0000
# 3 49.2886 66.7200 102.9715 0.0000 -10.7435 0.0000
# 4 0.0000 0.0000 0.0000 34.5613 0.0000 1.2513
# 5 -10.1254 -14.2077 -10.7435 0.0000 21.7536 0.0000
# 6 0.0000 0.0000 0.0000 1.2513 0.0000 24.3263
#
#
#
# Elastic Compliance Matrix: (Units=1/GPa)
#
#
# Indices 1 2 3 4 5 6 
#
# 1 0.015512 -0.006841 -0.002852 0.000000 0.001344 0.000000
# 2 -0.006841 0.016567 -0.007025 0.000000 0.004166 0.000000
# 3 -0.002852 -0.007025 0.015827 0.000000 0.001901 0.000000
# 4 0.000000 0.000000 0.000000 0.028988 0.000000 -0.001491
# 5 0.001344 0.004166 0.001901 0.000000 0.050255 0.000000
# 6 0.000000 0.000000 0.000000 -0.001491 0.000000 0.041184
#
#
# Mechanical properties :
#
#
# Convention : Reuss Voigt Hill
#
# Bulk Modulus (GPa) = 69.11371 76.73885 72.92628
# Shear Modulus (GPa) = 24.20236 25.72320 24.96278
#
# Velocity S-wave (km/s) = 3.66047 3.77373 3.71753
# Velocity P-wave (km/s) = 7.49190 7.84045 7.66815
#
# Compressibility (1/GPa) = 0.01446891
#
# Stress axis : x y z
#
# Youngs Moduli (GPa) = 64.46753 60.36260 63.18345
#
# Poissons Ratio (x) = 0.41292 0.18022
# Poissons Ratio (y) = 0.44100 0.44387
# Poissons Ratio (z) = 0.18388 0.42406
#
# Static dielectric constant tensor:
#      x y z
#    x 3.528390 0.000000 -0.258310 
#    y 0.000000 3.442660 0.000000 
#    z -0.258310 0.000000 3.938280 
# 
# 
# High freq. dielectric constant tensor:
#      x y z
#    x 1.698130 0.000000 -0.008110 
#    y 0.000000 1.697250 0.000000 
#    z -0.008110 0.000000 1.712370 
# 
# From -- ./inp_files/137792.got.cif
#   From: 2010.06.25/outbox.cif.g09.slc.cpg/sg15_69_cif.got.tgz:137792.got - 2010.06.28 07:06:18.
