data_PCOD8131731
_publ_section_title
;
Structure prediction by ZEFSAII (Michael W. Deem and Ramdas Pophale) SiO2 
 PCOD8131731
Probable space group: C 2/C
;
_chemical_formula_sum "Si O2"
_cell_formula_units_Z 64
_cell_length_a 24.513727
_cell_length_b 18.038834
_cell_length_c 15.033937
_cell_angle_alpha 90.000000
_cell_angle_beta 151.429801
_cell_angle_gamma 90.000000
_cell_volume 3179.303661
_symmetry_space_group_name_H-M "C 2/C"
_symmetry_group_IT_number 15
_symmetry_cell_setting 'monoclinic'
loop_
_space_group_symop_operation_xyz
x,y,z
-x,y,1/2-z
-x,-y,-z
x,-y,1/2+z
1/2+x,1/2+y,z
1/2-x,1/2+y,1/2-z
1/2-x,1/2-y,-z
1/2+x,1/2-y,1/2+z
loop_
_atom_site_type_symbol
_atom_site_label
_atom_site_fract_x
_atom_site_fract_y
_atom_site_fract_z
Si Si1 0.790359 0.290751 0.927650
Si Si2 0.258761 0.840610 0.602324
Si Si3 0.818222 0.996102 0.492285
Si Si4 0.184266 0.354135 0.351652
Si Si5 0.049206 0.282187 0.496518
Si Si6 0.505322 0.479042 0.403612
Si Si7 0.415759 0.775111 0.696886
Si Si8 0.050278 0.817955 0.519976
O O1 0.765128 0.209806 0.929581
O O2 0.687426 0.319166 0.716908
O O3 0.805717 0.351884 0.026962
O O4 0.909465 0.282292 0.046068
O O5 0.247052 0.926468 0.605995
O O6 0.315559 0.829731 0.585608
O O7 0.137765 0.797546 0.428989
O O8 0.339623 0.803251 0.789474
O O9 0.887060 0.988138 0.497375
O O10 0.895423 0.993928 0.691765
O O11 0.725235 0.931578 0.368447
O O12 0.052713 0.341521 0.135952
O O13 0.000080 0.199247 0.452285
O O14 0.500000 0.500000 0.500000
O O15 0.506027 0.390262 0.406265
O O16 0.500000 0.817723 0.750000
O O17 0.498726 0.752807 0.896009
#
# Coordination Sequence:
#
# PCOD8131731 Si02
#       8
#     8   8   8   8   8   8   8   8
#     4  10  20  39  61  84 114 156 208 257 297 348
#     4  10  21  35  58  88 116 160 192 239 306 353
#     4  11  23  41  58  87 132 157 196 255 309 368
#     4  10  23  39  57  87 118 160 203 248 306 362
#     4  10  21  37  62  86 115 159 206 253 294 357
#     4  11  23  38  60  90 118 162 197 248 313 361
#     4  10  18  34  57  84 119 152 193 240 288 354
#     4  10  20  35  59  89 115 146 205 247 301 356
#
# _framework density 20.130193999999999
#
# number of rings (size 3 to 8) (size 9 to 14) (size 15 to 20)
#    0.000    1.750    1.250    3.375    1.750    0.500 
#    4.500    2.500    0.000    0.000    0.000    0.000 
#    0.000    0.000    0.000    0.000    0.000    0.000 
#
# Total GULP energy -396597.261212 kJ/mol
# GULP energy per Si atom -12393.664413 kJ/mol
# Density = 2.008438 g / cm^3
# Si number density = 20.130194 Si / 1000 Ang^3
#
#
#
# Elastic Constant Matrix: (Units=GPa)
#
#
# Indices 1 2 3 4 5 6 
#
# 1 141.3600 30.1913 28.7689 0.0000 19.3892 0.0000
# 2 30.1913 56.2173 5.8861 0.0000 8.6020 0.0000
# 3 28.7689 5.8861 82.0316 0.0000 -0.5352 0.0000
# 4 0.0000 0.0000 0.0000 29.2953 0.0000 0.5006
# 5 19.3892 8.6020 -0.5352 0.0000 30.7964 0.0000
# 6 0.0000 0.0000 0.0000 0.5006 0.0000 25.0685
#
#
#
# Elastic Compliance Matrix: (Units=1/GPa)
#
#
# Indices 1 2 3 4 5 6 
#
# 1 0.009155 -0.003883 -0.002963 0.000000 -0.004731 0.000000
# 2 -0.003883 0.020384 -0.000122 0.000000 -0.003251 0.000000
# 3 -0.002963 -0.000122 0.013252 0.000000 0.002130 0.000000
# 4 0.000000 0.000000 0.000000 0.034147 0.000000 -0.000682
# 5 -0.004731 -0.003251 0.002130 0.000000 0.036395 0.000000
# 6 0.000000 0.000000 0.000000 -0.000682 0.000000 0.039904
#
#
# Mechanical properties :
#
#
# Convention : Reuss Voigt Hill
#
# Bulk Modulus (GPa) = 34.65562 45.47794 40.06678
# Shear Modulus (GPa) = 28.28184 31.34952 29.81568
#
# Velocity S-wave (km/s) = 3.75233 3.95059 3.85274
# Velocity P-wave (km/s) = 6.00220 6.59170 6.30385
#
# Compressibility (1/GPa) = 0.02885535
#
# Stress axis : x y z
#
# Youngs Moduli (GPa) = 109.22565 49.05914 75.45880
#
# Poissons Ratio (x) = 0.19048 0.22359
# Poissons Ratio (y) = 0.42409 0.00922
# Poissons Ratio (z) = 0.32365 0.00599
#
# Static dielectric constant tensor:
#      x y z
#    x 4.104380 0.000000 0.054000 
#    y 0.000000 3.332140 0.000000 
#    z 0.054000 0.000000 3.608530 
# 
# 
# High freq. dielectric constant tensor:
#      x y z
#    x 1.805340 0.000000 0.001230 
#    y 0.000000 1.748210 0.000000 
#    z 0.001230 0.000000 1.792670 
# 
# From -- ./inp_files/174247.got.cif
#   From: 2010.06.25/outbox.cif.g09.slc.cpg/sg15_88_cif.got.tgz:174247.got - 2010.06.28 07:06:18.
