data_PCOD8131177
_publ_section_title
;
Structure prediction by ZEFSAII (Michael W. Deem and Ramdas Pophale) SiO2 
 PCOD8131177
Probable space group: C 2/C
;
_chemical_formula_sum "Si O2"
_cell_formula_units_Z 52
_cell_length_a 22.966176
_cell_length_b 12.247108
_cell_length_c 12.512349
_cell_angle_alpha 90.000000
_cell_angle_beta 119.554431
_cell_angle_gamma 90.000000
_cell_volume 3061.428891
_symmetry_space_group_name_H-M "C 2/C"
_symmetry_group_IT_number 15
_symmetry_cell_setting 'monoclinic'
loop_
_space_group_symop_operation_xyz
x,y,z
-x,y,1/2-z
-x,-y,-z
x,-y,1/2+z
1/2+x,1/2+y,z
1/2-x,1/2+y,1/2-z
1/2-x,1/2-y,-z
1/2+x,1/2-y,1/2+z
loop_
_atom_site_type_symbol
_atom_site_label
_atom_site_fract_x
_atom_site_fract_y
_atom_site_fract_z
Si Si1 0.147644 0.247407 0.334417
Si Si2 0.000000 0.710157 0.750000
Si Si3 0.345893 0.087797 0.316846
Si Si4 0.876343 0.659215 0.903692
Si Si5 0.266674 0.906004 0.952332
Si Si6 0.705029 0.856233 0.962550
Si Si7 0.515966 0.877640 0.488696
O O1 0.069248 0.221385 0.291852
O O2 0.157095 0.262071 0.215007
O O3 0.194371 0.146569 0.411629
O O4 0.175002 0.355938 0.419557
O O5 0.984439 0.630860 0.638872
O O6 0.287273 0.115906 0.347845
O O7 0.325350 0.120911 0.180186
O O8 0.412165 0.160239 0.401583
O O9 0.365496 0.961774 0.346743
O O10 0.954936 0.692278 0.982736
O O11 0.850384 0.672789 0.999574
O O12 0.256505 0.034597 0.965381
O O13 0.750000 0.750000 0.000000
O O14 0.500000 0.000000 0.500000
#
# Coordination Sequence:
#
# PCOD8131177 Si02
#       7
#     8   4   8   8   8   8   8
#     4  10  18  34  55  76 104 127 177 216 261 304
#     4  10  18  32  50  80 102 134 168 216 268 312
#     4  10  18  32  49  77 106 133 170 210 263 312
#     4   9  19  31  50  77 103 136 166 213 262 313
#     4  10  20  33  53  78  98 137 172 222 254 300
#     4  11  22  35  50  73 108 142 176 209 257 311
#     4   9  18  27  48  74 105 132 161 213 266 312
#
# _framework density 16.985531999999999
#
# number of rings (size 3 to 8) (size 9 to 14) (size 15 to 20)
#    0.000    2.154    3.077    0.923    0.000    0.615 
#    0.000    0.000    0.000    1.846    0.000    5.385 
#    0.000    0.000    0.000    0.000    0.000    0.000 
#
# Total GULP energy -322102.785876 kJ/mol
# GULP energy per Si atom -12388.568688 kJ/mol
# Density = 1.694687 g / cm^3
# Si number density = 16.985532 Si / 1000 Ang^3
#
#
#
# Elastic Constant Matrix: (Units=GPa)
#
#
# Indices 1 2 3 4 5 6 
#
# 1 123.7666 46.4613 74.7089 0.0000 -2.1365 0.0000
# 2 46.4613 61.1554 28.4581 0.0000 4.2456 0.0000
# 3 74.7089 28.4581 117.5752 0.0000 -12.0870 0.0000
# 4 0.0000 0.0000 0.0000 15.1980 0.0000 -1.7457
# 5 -2.1365 4.2456 -12.0870 0.0000 37.6947 0.0000
# 6 0.0000 0.0000 0.0000 -1.7457 0.0000 17.6357
#
#
#
# Elastic Compliance Matrix: (Units=1/GPa)
#
#
# Indices 1 2 3 4 5 6 
#
# 1 0.016296 -0.008413 -0.008403 0.000000 -0.000823 0.000000
# 2 -0.008413 0.023262 -0.000624 0.000000 -0.003297 0.000000
# 3 -0.008403 -0.000624 0.014429 0.000000 0.004221 0.000000
# 4 0.000000 0.000000 0.000000 0.066555 0.000000 0.006588
# 5 -0.000823 -0.003297 0.004221 0.000000 0.028207 0.000000
# 6 0.000000 0.000000 0.000000 0.006588 0.000000 0.057355
#
#
# Mechanical properties :
#
#
# Convention : Reuss Voigt Hill
#
# Bulk Modulus (GPa) = 52.33278 66.86153 59.59716
# Shear Modulus (GPa) = 20.21394 24.29695 22.25545
#
# Velocity S-wave (km/s) = 3.45348 3.78623 3.62368
# Velocity P-wave (km/s) = 6.83953 7.65267 7.25749
#
# Compressibility (1/GPa) = 0.01910848
#
# Stress axis : x y z
#
# Youngs Moduli (GPa) = 61.36462 42.98764 69.30263
#
# Poissons Ratio (x) = 0.36166 0.58235
# Poissons Ratio (y) = 0.51627 0.04322
# Poissons Ratio (z) = 0.51565 0.02681
#
# Static dielectric constant tensor:
#      x y z
#    x 3.356830 0.000000 0.465750 
#    y 0.000000 2.505640 0.000000 
#    z 0.465750 0.000000 3.083540 
# 
# 
# High freq. dielectric constant tensor:
#      x y z
#    x 1.668700 0.000000 -0.005430 
#    y 0.000000 1.606420 0.000000 
#    z -0.005430 0.000000 1.665280 
# 
# From -- ./inp_files/112467.got.cif
#   From: 2010.06.25/outbox.cif.g09.slc.cpg/sg15_57_cif.got.tgz:112467.got - 2010.06.28 07:06:18.
