data_PCOD8131258
_publ_section_title
;
Structure prediction by ZEFSAII (Michael W. Deem and Ramdas Pophale) SiO2 
 PCOD8131258
Probable space group: C 2/C
;
_chemical_formula_sum "Si O2"
_cell_formula_units_Z 48
_cell_length_a 9.137319
_cell_length_b 14.393760
_cell_length_c 20.720089
_cell_angle_alpha 90.000000
_cell_angle_beta 59.827080
_cell_angle_gamma 90.000000
_cell_volume 2355.894905
_symmetry_space_group_name_H-M "C 2/C"
_symmetry_group_IT_number 15
_symmetry_cell_setting 'monoclinic'
loop_
_space_group_symop_operation_xyz
x,y,z
-x,y,1/2-z
-x,-y,-z
x,-y,1/2+z
1/2+x,1/2+y,z
1/2-x,1/2+y,1/2-z
1/2-x,1/2-y,-z
1/2+x,1/2-y,1/2+z
loop_
_atom_site_type_symbol
_atom_site_label
_atom_site_fract_x
_atom_site_fract_y
_atom_site_fract_z
Si Si1 0.804980 0.974906 0.792251
Si Si2 0.198541 0.918882 0.330279
Si Si3 0.688333 0.221685 0.285862
Si Si4 0.812883 0.964238 0.551805
Si Si5 0.794061 0.078787 0.917740
Si Si6 0.293883 0.776784 0.867594
O O1 0.786505 0.864659 0.794245
O O2 0.000000 0.004000 0.750000
O O3 0.723174 0.023105 0.747197
O O4 0.720925 0.014338 0.876533
O O5 0.249195 0.811187 0.313107
O O6 0.996459 0.927747 0.375447
O O7 0.276992 0.963435 0.378659
O O8 0.738585 0.239251 0.200764
O O9 0.489954 0.201733 0.337233
O O10 0.718978 0.957261 0.503078
O O11 0.818895 0.862231 0.582706
O O12 0.000000 0.000000 0.500000
O O13 0.736023 0.184722 0.918623
#
# Coordination Sequence:
#
# PCOD8131258 Si02
#       6
#     8   8   8   8   8   8
#     4  10  18  33  53  76 105 137 175 210 255 311
#     4   9  17  32  52  75 106 134 173 217 253 303
#     4  10  19  32  53  79 103 135 174 221 261 296
#     4  10  19  32  53  81 107 136 171 214 260 311
#     4   9  18  31  53  78 100 135 174 217 260 301
#     4  10  18  32  54  79 104 131 175 224 258 297
#
# _framework density 20.374424999999999
#
# number of rings (size 3 to 8) (size 9 to 14) (size 15 to 20)
#    0.000    2.333    3.333    0.500    0.000    0.000 
#    0.000    3.333    0.000    0.000    0.000    0.000 
#    0.000    0.000    0.000    0.000    0.000    0.000 
#
# Total GULP energy -297500.103426 kJ/mol
# GULP energy per Si atom -12395.837643 kJ/mol
# Density = 2.032805 g / cm^3
# Si number density = 20.374425 Si / 1000 Ang^3
#
#
#
# Elastic Constant Matrix: (Units=GPa)
#
#
# Indices 1 2 3 4 5 6 
#
# 1 16.0154 21.1124 30.4726 0.0000 9.5039 0.0000
# 2 21.1124 165.1440 79.2815 0.0000 22.6323 0.0000
# 3 30.4726 79.2815 136.2270 0.0000 38.0658 0.0000
# 4 0.0000 0.0000 0.0000 40.6234 0.0000 6.9379
# 5 9.5039 22.6323 38.0658 0.0000 18.4202 0.0000
# 6 0.0000 0.0000 0.0000 6.9379 0.0000 31.6811
#
#
#
# Elastic Compliance Matrix: (Units=1/GPa)
#
#
# Indices 1 2 3 4 5 6 
#
# 1 0.111348 -0.003104 -0.019201 0.000000 -0.013957 0.000000
# 2 -0.003104 0.008492 -0.004212 0.000000 -0.000128 0.000000
# 3 -0.019201 -0.004212 0.023364 0.000000 -0.033202 0.000000
# 4 0.000000 0.000000 0.000000 0.025573 0.000000 -0.005600
# 5 -0.013957 -0.000128 -0.033202 0.000000 0.130258 0.000000
# 6 0.000000 0.000000 0.000000 -0.005600 0.000000 0.032791
#
#
# Mechanical properties :
#
#
# Convention : Reuss Voigt Hill
#
# Bulk Modulus (GPa) = 11.09018 64.34661 37.71840
# Shear Modulus (GPa) = 12.05061 30.57960 21.31510
#
# Velocity S-wave (km/s) = 2.43463 3.87832 3.23796
# Velocity P-wave (km/s) = 3.65489 7.19068 5.70368
#
# Compressibility (1/GPa) = 0.09016983
#
# Stress axis : x y z
#
# Youngs Moduli (GPa) = 8.98086 117.76146 42.80015
#
# Poissons Ratio (x) = 0.36559 0.82179
# Poissons Ratio (y) = 0.02788 0.18027
# Poissons Ratio (z) = 0.17244 0.49600
#
# Static dielectric constant tensor:
#      x y z
#    x 3.191670 0.000000 0.463980 
#    y 0.000000 3.768500 0.000000 
#    z 0.463980 0.000000 4.205330 
# 
# 
# High freq. dielectric constant tensor:
#      x y z
#    x 1.739500 0.000000 0.025820 
#    y 0.000000 1.806880 0.000000 
#    z 0.025820 0.000000 1.804680 
# 
# From -- ./inp_files/196214.got.cif
#   From: 2010.06.25/outbox.cif.g09.slc.cpg/sg15_99_cif.got.tgz:196214.got - 2010.06.28 07:06:18.
