data_PCOD8131089
_publ_section_title
;
Structure prediction by ZEFSAII (Michael W. Deem and Ramdas Pophale) SiO2 
 PCOD8131089
Probable space group: C 2/C
;
_chemical_formula_sum "Si O2"
_cell_formula_units_Z 48
_cell_length_a 8.349730
_cell_length_b 18.412381
_cell_length_c 18.811571
_cell_angle_alpha 90.000000
_cell_angle_beta 63.649475
_cell_angle_gamma 90.000000
_cell_volume 2591.562484
_symmetry_space_group_name_H-M "C 2/C"
_symmetry_group_IT_number 15
_symmetry_cell_setting 'monoclinic'
loop_
_space_group_symop_operation_xyz
x,y,z
-x,y,1/2-z
-x,-y,-z
x,-y,1/2+z
1/2+x,1/2+y,z
1/2-x,1/2+y,1/2-z
1/2-x,1/2-y,-z
1/2+x,1/2-y,1/2+z
loop_
_atom_site_type_symbol
_atom_site_label
_atom_site_fract_x
_atom_site_fract_y
_atom_site_fract_z
Si Si1 0.684152 0.556403 0.178973
Si Si2 0.542098 0.943598 0.321027
Si Si3 0.837531 0.834526 0.233096
Si Si4 0.303722 0.165474 0.266904
Si Si5 0.029129 0.920351 0.909230
Si Si6 0.347590 0.579649 0.590770
O O1 0.500000 0.525314 0.250000
O O2 0.846252 0.500000 0.153748
O O3 0.741274 0.629727 0.206380
O O4 0.649400 0.577507 0.103983
O O5 0.500000 0.974686 0.250000
O O6 0.654035 0.870274 0.293619
O O7 0.357366 0.922493 0.396017
O O8 0.803721 0.750000 0.250000
O O9 0.880860 0.858520 0.143547
O O10 0.000000 0.861400 0.250000
O O11 0.500000 0.138600 0.250000
O O12 0.167953 0.141480 0.356453
O O13 0.977247 0.901559 1.000000
O O14 0.115447 0.000000 0.884553
#
# Coordination Sequence:
#
# PCOD8131089 Si02
#       6
#     8   8   8   8   8   8
#     4  10  18  31  53  78 104 141 184 221 258 314
#     4  10  18  31  53  78 104 141 184 221 258 314
#     4  10  20  36  56  78 105 143 185 219 260 317
#     4  10  20  36  56  78 105 143 185 219 260 317
#     4  10  21  36  55  81 112 140 172 222 273 313
#     4  10  21  36  55  81 112 140 172 222 273 313
#
# _framework density 18.521646
#
# number of rings (size 3 to 8) (size 9 to 14) (size 15 to 20)
#    0.000    2.000    0.000    7.000    0.000    6.667 
#    0.000    8.333    0.000    0.000    0.000    0.000 
#    0.000    0.000    0.000    0.000    0.000    0.000 
#
# Total GULP energy -297539.352301 kJ/mol
# GULP energy per Si atom -12397.473013 kJ/mol
# Density = 1.847949 g / cm^3
# Si number density = 18.521646 Si / 1000 Ang^3
#
#
#
# Elastic Constant Matrix: (Units=GPa)
#
#
# Indices 1 2 3 4 5 6 
#
# 1 139.4468 47.7669 50.9536 0.0000 -6.2936 0.0000
# 2 47.7669 91.9980 61.3482 0.0000 1.8149 0.0000
# 3 50.9536 61.3482 98.0637 0.0000 0.7641 0.0000
# 4 0.0000 0.0000 0.0000 26.1057 0.0000 -0.9628
# 5 -6.2936 1.8149 0.7641 0.0000 21.6393 0.0000
# 6 0.0000 0.0000 0.0000 -0.9628 0.0000 33.3114
#
#
#
# Elastic Compliance Matrix: (Units=1/GPa)
#
#
# Indices 1 2 3 4 5 6 
#
# 1 0.009440 -0.002875 -0.003130 0.000000 0.003097 0.000000
# 2 -0.002875 0.019554 -0.010723 0.000000 -0.002097 0.000000
# 3 -0.003130 -0.010723 0.018538 0.000000 -0.000666 0.000000
# 4 0.000000 0.000000 0.000000 0.038347 0.000000 0.001108
# 5 0.003097 -0.002097 -0.000666 0.000000 0.047312 0.000000
# 6 0.000000 0.000000 0.000000 0.001108 0.000000 0.030052
#
#
# Mechanical properties :
#
#
# Convention : Reuss Voigt Hill
#
# Bulk Modulus (GPa) = 71.04848 72.18286 71.61567
# Shear Modulus (GPa) = 24.82736 27.50726 26.16731
#
# Velocity S-wave (km/s) = 3.66519 3.85793 3.76280
# Velocity P-wave (km/s) = 7.50696 7.67474 7.59131
#
# Compressibility (1/GPa) = 0.01407490
#
# Stress axis : x y z
#
# Youngs Moduli (GPa) = 105.93694 51.13935 53.94455
#
# Poissons Ratio (x) = 0.14701 0.16887
# Poissons Ratio (y) = 0.30454 0.57845
# Poissons Ratio (z) = 0.33163 0.54837
#
# Static dielectric constant tensor:
#      x y z
#    x 3.868980 0.000000 -0.089780 
#    y 0.000000 3.212180 0.000000 
#    z -0.089780 0.000000 3.197060 
# 
# 
# High freq. dielectric constant tensor:
#      x y z
#    x 1.741060 0.000000 -0.006030 
#    y 0.000000 1.710890 0.000000 
#    z -0.006030 0.000000 1.695900 
# 
# From -- ./inp_files/189912.got.cif
#   From: 2010.06.25/outbox.cif.g09.slc.cpg/sg15_95_cif.got.tgz:189912.got - 2010.06.28 07:06:18.
