data_PCOD8131781
_publ_section_title
;
Structure prediction by ZEFSAII (Michael W. Deem and Ramdas Pophale) SiO2 
 PCOD8131781
Probable space group: C 2/C
;
_chemical_formula_sum "Si O2"
_cell_formula_units_Z 56
_cell_length_a 20.897193
_cell_length_b 14.488596
_cell_length_c 8.609033
_cell_angle_alpha 90.000000
_cell_angle_beta 110.040653
_cell_angle_gamma 90.000000
_cell_volume 2448.737129
_symmetry_space_group_name_H-M "C 2/C"
_symmetry_group_IT_number 15
_symmetry_cell_setting 'monoclinic'
loop_
_space_group_symop_operation_xyz
x,y,z
-x,y,1/2-z
-x,-y,-z
x,-y,1/2+z
1/2+x,1/2+y,z
1/2-x,1/2+y,1/2-z
1/2-x,1/2-y,-z
1/2+x,1/2-y,1/2+z
loop_
_atom_site_type_symbol
_atom_site_label
_atom_site_fract_x
_atom_site_fract_y
_atom_site_fract_z
Si Si1 0.199586 0.126597 0.783419
Si Si2 0.500000 0.742958 0.250000
Si Si3 0.067814 0.618152 0.014385
Si Si4 0.063949 0.907689 0.648509
Si Si5 0.279435 0.800197 0.872617
Si Si6 0.801295 0.060230 0.383201
Si Si7 0.000000 0.531614 0.250000
Si Si8 0.051616 0.893241 0.174327
O O1 0.235488 0.222170 0.771057
O O2 0.121198 0.162196 0.719237
O O3 0.209044 0.048847 0.657274
O O4 0.226816 0.087079 0.970431
O O5 0.484021 0.802857 0.084633
O O6 0.432721 0.680849 0.235279
O O7 0.054486 0.528691 0.894004
O O8 0.143981 0.658193 0.054287
O O9 0.047316 0.593781 0.174943
O O10 0.119707 0.907308 0.557729
O O11 0.986280 0.902449 0.521288
O O12 0.072838 0.003026 0.751827
O O13 0.234894 0.887705 0.788288
O O14 0.250000 0.750000 0.000000
O O15 0.000000 0.843764 0.250000
#
# Coordination Sequence:
#
# PCOD8131781 Si02
#       8
#     8   4   8   8   8   8   4   8
#     4  11  24  42  63  94 128 169 226 266 327 388
#     4  11  20  36  58  93 128 162 208 277 332 383
#     4  10  23  43  72  97 128 166 220 282 341 394
#     4  10  20  32  57  88 126 168 210 254 322 388
#     4  12  26  45  66  96 134 179 225 273 332 405
#     4  11  24  41  64  89 132 177 218 267 322 398
#     4   9  22  48  72 101 126 164 226 283 344 399
#     4  10  18  34  58  88 124 166 208 260 314 378
#
# _framework density 22.868931
#
# number of rings (size 3 to 8) (size 9 to 14) (size 15 to 20)
#    0.000    1.429    2.143    3.000    0.000    4.571 
#    2.571    5.714    0.000    0.000    0.000    0.000 
#    0.000    0.000    0.000    0.000    0.000    0.000 
#
# Total GULP energy -346931.392741 kJ/mol
# GULP energy per Si atom -12390.406884 kJ/mol
# Density = 2.281688 g / cm^3
# Si number density = 22.868931 Si / 1000 Ang^3
#
#
#
# Elastic Constant Matrix: (Units=GPa)
#
#
# Indices 1 2 3 4 5 6 
#
# 1 83.7002 35.7502 30.0037 0.0000 -9.5407 0.0000
# 2 35.7502 98.7671 22.4905 0.0000 -10.0220 0.0000
# 3 30.0037 22.4905 84.0334 0.0000 -17.1669 0.0000
# 4 0.0000 0.0000 0.0000 32.3201 0.0000 -2.3204
# 5 -9.5407 -10.0220 -17.1669 0.0000 37.1700 0.0000
# 6 0.0000 0.0000 0.0000 -2.3204 0.0000 31.8632
#
#
#
# Elastic Compliance Matrix: (Units=1/GPa)
#
#
# Indices 1 2 3 4 5 6 
#
# 1 0.015478 -0.004577 -0.004132 0.000000 0.000831 0.000000
# 2 -0.004577 0.012238 -0.001333 0.000000 0.001509 0.000000
# 3 -0.004132 -0.001333 0.014842 0.000000 0.005435 0.000000
# 4 0.000000 0.000000 0.000000 0.031103 0.000000 0.002265
# 5 0.000831 0.001509 0.005435 0.000000 0.030034 0.000000
# 6 0.000000 0.000000 0.000000 0.002265 0.000000 0.031549
#
#
# Mechanical properties :
#
#
# Convention : Reuss Voigt Hill
#
# Bulk Modulus (GPa) = 44.49378 49.22105 46.85742
# Shear Modulus (GPa) = 30.70871 32.15441 31.43156
#
# Velocity S-wave (km/s) = 3.66842 3.75378 3.71134
# Velocity P-wave (km/s) = 6.11893 6.35276 6.23694
#
# Compressibility (1/GPa) = 0.02247505
#
# Stress axis : x y z
#
# Youngs Moduli (GPa) = 64.60667 81.71037 67.37540
#
# Poissons Ratio (x) = 0.37403 0.27837
# Poissons Ratio (y) = 0.29574 0.08979
# Poissons Ratio (z) = 0.26693 0.10890
#
# Static dielectric constant tensor:
#      x y z
#    x 4.067090 0.000000 -0.048520 
#    y 0.000000 4.271000 0.000000 
#    z -0.048520 0.000000 3.955380 
# 
# 
# High freq. dielectric constant tensor:
#      x y z
#    x 1.884660 0.000000 -0.012000 
#    y 0.000000 1.906370 0.000000 
#    z -0.012000 0.000000 1.905190 
# 
# From -- ./inp_files/61635.got.cif
#   From: 2010.06.25/outbox.cif.g09.slc.cpg/sg15_31_cif.got.tgz:61635.got - 2010.06.28 07:06:18.
