data_PCOD8131166
_publ_section_title
;
Structure prediction by ZEFSAII (Michael W. Deem and Ramdas Pophale) SiO2 
 PCOD8131166
Probable space group: C 2/C
;
_chemical_formula_sum "Si O2"
_cell_formula_units_Z 64
_cell_length_a 12.980374
_cell_length_b 23.064579
_cell_length_c 17.506152
_cell_angle_alpha 90.000000
_cell_angle_beta 134.598544
_cell_angle_gamma 90.000000
_cell_volume 3731.901703
_symmetry_space_group_name_H-M "C 2/C"
_symmetry_group_IT_number 15
_symmetry_cell_setting 'monoclinic'
loop_
_space_group_symop_operation_xyz
x,y,z
-x,y,1/2-z
-x,-y,-z
x,-y,1/2+z
1/2+x,1/2+y,z
1/2-x,1/2+y,1/2-z
1/2-x,1/2-y,-z
1/2+x,1/2-y,1/2+z
loop_
_atom_site_type_symbol
_atom_site_label
_atom_site_fract_x
_atom_site_fract_y
_atom_site_fract_z
Si Si1 0.228375 0.906813 0.290194
Si Si2 0.982621 0.486917 0.401039
Si Si3 0.243328 0.980168 0.532632
Si Si4 0.726541 0.140788 0.527037
Si Si5 0.054919 0.313272 0.694382
Si Si6 0.958211 0.980158 0.809757
Si Si7 0.022671 0.186049 0.671752
Si Si8 0.780556 0.572933 0.219291
O O1 0.376093 0.931802 0.329579
O O2 0.269191 0.863211 0.379561
O O3 0.129609 0.962045 0.258911
O O4 0.126688 0.863375 0.186822
O O5 0.919549 0.545309 0.331591
O O6 0.000000 0.500000 0.500000
O O7 0.132312 0.475242 0.433326
O O8 0.257827 0.925012 0.488010
O O9 0.259118 0.960862 0.628460
O O10 0.089481 0.009441 0.436525
O O11 0.571707 0.165535 0.425853
O O12 0.856215 0.178635 0.555166
O O13 0.094227 0.248111 0.687271
O O14 0.189176 0.358017 0.769534
O O15 0.000000 0.305408 0.750000
O O16 0.000000 0.952124 0.750000
O O17 0.859979 0.933754 0.802044
O O18 0.000000 0.174293 0.750000
#
# Coordination Sequence:
#
# PCOD8131166 Si02
#       8
#     8   8   8   8   8   8   8   8
#     4  10  18  32  48  73  95 132 172 200 231 298
#     4  11  19  31  51  71  99 138 166 197 244 296
#     4  12  19  32  49  72 106 133 158 205 254 293
#     4  11  17  29  48  68 102 132 162 198 247 297
#     4  11  19  31  45  69 103 132 159 200 252 297
#     4  11  20  34  52  71  99 133 168 202 250 304
#     4   9  19  30  47  68  97 135 168 199 240 295
#     4  11  22  32  48  75 102 131 164 208 253 297
#
# _framework density 17.149432999999998
#
# number of rings (size 3 to 8) (size 9 to 14) (size 15 to 20)
#    0.000    1.250    6.250    2.250    0.000    0.000 
#    0.000    0.000    0.000    0.000    0.000    4.375 
#    0.000    0.000    0.000    0.000    0.000    0.000 
#
# Total GULP energy -396420.596088 kJ/mol
# GULP energy per Si atom -12388.143628 kJ/mol
# Density = 1.711040 g / cm^3
# Si number density = 17.149433 Si / 1000 Ang^3
#
#
#
# Elastic Constant Matrix: (Units=GPa)
#
#
# Indices 1 2 3 4 5 6 
#
# 1 80.0586 33.3196 31.4463 -0.0004 13.1819 -0.0001
# 2 33.3196 83.8667 13.9344 -0.0001 16.7783 0.0000
# 3 31.4463 13.9344 67.7148 -0.0013 11.3714 -0.0013
# 4 -0.0004 -0.0001 -0.0013 17.4426 -0.0007 10.3475
# 5 13.1819 16.7783 11.3714 -0.0007 22.4251 -0.0007
# 6 -0.0001 0.0000 -0.0013 10.3475 -0.0007 25.6523
#
#
#
# Elastic Compliance Matrix: (Units=1/GPa)
#
#
# Indices 1 2 3 4 5 6 
#
# 1 0.017852 -0.005365 -0.006666 0.000000 -0.003100 0.000000
# 2 -0.005365 0.015729 0.000767 0.000000 -0.009003 0.000000
# 3 -0.006666 0.000767 0.018740 0.000001 -0.006158 0.000000
# 4 0.000000 0.000000 0.000001 0.075365 0.000001 -0.030401
# 5 -0.003100 -0.009003 -0.006158 0.000001 0.056274 0.000001
# 6 0.000000 0.000000 0.000000 -0.030401 0.000001 0.051246
#
#
# Mechanical properties :
#
#
# Convention : Reuss Voigt Hill
#
# Bulk Modulus (GPa) = 33.56529 43.22673 38.39601
# Shear Modulus (GPa) = 18.68001 23.29998 20.99000
#
# Velocity S-wave (km/s) = 3.30396 3.68998 3.50229
# Velocity P-wave (km/s) = 5.84548 6.58902 6.22836
#
# Compressibility (1/GPa) = 0.02979268
#
# Stress axis : x y z
#
# Youngs Moduli (GPa) = 56.01484 63.57686 53.36238
#
# Poissons Ratio (x) = 0.34109 0.35571
# Poissons Ratio (y) = 0.30052 -0.04091
# Poissons Ratio (z) = 0.37339 -0.04874
#
# Static dielectric constant tensor:
#      x y z
#    x 3.237660 0.000000 0.065170 
#    y 0.000000 3.273400 0.000000 
#    z 0.065170 0.000000 3.790710 
# 
# 
# High freq. dielectric constant tensor:
#      x y z
#    x 1.625660 0.000000 0.017730 
#    y 0.000000 1.639160 0.000000 
#    z 0.017730 0.000000 1.681660 
# 
# From -- ./inp_files/124445.got.cif
#   From: 2010.06.25/outbox.cif.g09.slc.cpg/sg15_63_cif.got.tgz:124445.got - 2010.06.28 07:06:18.
