data_PCOD8131734
_publ_section_title
;
Structure prediction by ZEFSAII (Michael W. Deem and Ramdas Pophale) SiO2 
 PCOD8131734
Probable space group: C 2/C
;
_chemical_formula_sum "Si O2"
_cell_formula_units_Z 56
_cell_length_a 20.537481
_cell_length_b 17.234515
_cell_length_c 14.252057
_cell_angle_alpha 90.000000
_cell_angle_beta 30.879731
_cell_angle_gamma 90.000000
_cell_volume 2589.061201
_symmetry_space_group_name_H-M "C 2/C"
_symmetry_group_IT_number 15
_symmetry_cell_setting 'monoclinic'
loop_
_space_group_symop_operation_xyz
x,y,z
-x,y,1/2-z
-x,-y,-z
x,-y,1/2+z
1/2+x,1/2+y,z
1/2-x,1/2+y,1/2-z
1/2-x,1/2-y,-z
1/2+x,1/2-y,1/2+z
loop_
_atom_site_type_symbol
_atom_site_label
_atom_site_fract_x
_atom_site_fract_y
_atom_site_fract_z
Si Si1 0.016845 0.886562 0.052672
Si Si2 0.000000 0.884736 0.750000
Si Si3 0.187724 0.236630 0.424857
Si Si4 0.500000 0.845890 0.750000
Si Si5 0.742032 0.010134 0.272506
Si Si6 0.821642 0.004559 0.875889
Si Si7 0.659729 0.348908 0.389060
Si Si8 0.153320 0.406659 0.718379
O O1 0.065256 0.806609 0.036023
O O2 0.122398 0.952653 0.920796
O O3 0.898939 0.916834 0.259005
O O4 0.967010 0.867254 0.011862
O O5 0.102502 0.833528 0.564318
O O6 0.918222 0.936035 0.779058
O O7 0.265437 0.274732 0.242720
O O8 0.280441 0.177388 0.362705
O O9 0.129848 0.299028 0.569104
O O10 0.526895 0.897734 0.810755
O O11 0.729260 0.015863 0.401396
O O12 0.743469 0.921668 0.234599
O O13 0.633610 0.060179 0.349877
O O14 0.738074 0.025181 0.068860
#
# Coordination Sequence:
#
# PCOD8131734 Si02
#       8
#     8   4   8   4   8   8   8   8
#     4  10  18  34  57  86 125 154 190 258 310 351
#     4  12  18  33  66  90 121 146 206 268 300 341
#     4  11  23  37  58  89 131 164 201 243 314 377
#     4  12  22  39  56  88 125 170 204 248 300 383
#     4  10  19  34  58  89 120 152 198 265 306 353
#     4  11  18  35  62  97 117 146 212 258 312 358
#     4  11  20  36  58  95 117 160 207 254 301 361
#     4  11  23  38  61  89 124 162 201 254 313 369
#
# _framework density 21.629460999999999
#
# number of rings (size 3 to 8) (size 9 to 14) (size 15 to 20)
#    0.000    1.143    4.286    5.571    0.000    0.000 
#    0.000    3.571    0.000    0.000    0.000    1.000 
#    0.000    0.000    0.000    0.000    0.000    0.000 
#
# Total GULP energy -347013.287214 kJ/mol
# GULP energy per Si atom -12393.331686 kJ/mol
# Density = 2.158023 g / cm^3
# Si number density = 21.629461 Si / 1000 Ang^3
#
#
#
# Elastic Constant Matrix: (Units=GPa)
#
#
# Indices 1 2 3 4 5 6 
#
# 1 134.9564 44.9721 21.3132 0.0000 2.1052 0.0000
# 2 44.9721 59.8368 16.4935 0.0000 -0.0986 0.0000
# 3 21.3132 16.4935 55.6615 0.0000 18.7362 0.0000
# 4 0.0000 0.0000 0.0000 27.5205 0.0000 8.4021
# 5 2.1052 -0.0986 18.7362 0.0000 31.3485 0.0000
# 6 0.0000 0.0000 0.0000 8.4021 0.0000 20.8421
#
#
#
# Elastic Compliance Matrix: (Units=1/GPa)
#
#
# Indices 1 2 3 4 5 6 
#
# 1 0.010045 -0.007020 -0.001917 0.000000 0.000449 0.000000
# 2 -0.007020 0.023537 -0.005596 0.000000 0.003890 0.000000
# 3 -0.001917 -0.005596 0.025438 0.000000 -0.015093 0.000000
# 4 0.000000 0.000000 0.000000 0.041436 0.000000 -0.016704
# 5 0.000449 0.003890 -0.015093 0.000000 0.040902 0.000000
# 6 0.000000 0.000000 0.000000 -0.016704 0.000000 0.054714
#
#
# Mechanical properties :
#
#
# Convention : Reuss Voigt Hill
#
# Bulk Modulus (GPa) = 33.38468 46.22359 39.80413
# Shear Modulus (GPa) = 21.26533 27.12061 24.19297
#
# Velocity S-wave (km/s) = 3.13895 3.54485 3.34806
# Velocity P-wave (km/s) = 5.34843 6.17832 5.77829
#
# Compressibility (1/GPa) = 0.02995386
#
# Stress axis : x y z
#
# Youngs Moduli (GPa) = 99.55179 42.48563 39.31071
#
# Poissons Ratio (x) = 0.29827 0.07537
# Poissons Ratio (y) = 0.69889 0.21997
# Poissons Ratio (z) = 0.19087 0.23774
#
# Static dielectric constant tensor:
#      x y z
#    x 4.346790 0.000000 0.200270 
#    y 0.000000 3.824870 0.000000 
#    z 0.200270 0.000000 3.550410 
# 
# 
# High freq. dielectric constant tensor:
#      x y z
#    x 1.862940 0.000000 0.009190 
#    y 0.000000 1.827480 0.000000 
#    z 0.009190 0.000000 1.818440 
# 
# From -- ./inp_files/119290.got.cif
#   From: 2010.06.25/outbox.cif.g09.slc.cpg/sg15_60_cif.got.tgz:119290.got - 2010.06.28 07:06:18.
