data_PCOD8131358
_publ_section_title
;
Structure prediction by ZEFSAII (Michael W. Deem and Ramdas Pophale) SiO2 
 PCOD8131358
Probable space group: C 2/C
;
_chemical_formula_sum "Si O2"
_cell_formula_units_Z 52
_cell_length_a 11.346756
_cell_length_b 16.840970
_cell_length_c 14.687397
_cell_angle_alpha 90.000000
_cell_angle_beta 62.491085
_cell_angle_gamma 90.000000
_cell_volume 2489.300878
_symmetry_space_group_name_H-M "C 2/C"
_symmetry_group_IT_number 15
_symmetry_cell_setting 'monoclinic'
loop_
_space_group_symop_operation_xyz
x,y,z
-x,y,1/2-z
-x,-y,-z
x,-y,1/2+z
1/2+x,1/2+y,z
1/2-x,1/2+y,1/2-z
1/2-x,1/2-y,-z
1/2+x,1/2-y,1/2+z
loop_
_atom_site_type_symbol
_atom_site_label
_atom_site_fract_x
_atom_site_fract_y
_atom_site_fract_z
Si Si1 0.204284 0.988506 0.895119
Si Si2 0.959256 0.888213 0.944556
Si Si3 0.140377 0.521571 0.330353
Si Si4 0.480328 0.205859 0.958284
Si Si5 0.500000 0.782801 0.250000
Si Si6 0.717003 0.661765 0.146040
Si Si7 0.134788 0.425817 0.504076
O O1 0.322522 0.012271 0.782382
O O2 0.251119 0.929029 0.960036
O O3 0.145267 0.072777 0.948082
O O4 0.088846 0.941486 0.884768
O O5 0.005200 0.799792 0.957274
O O6 0.890538 0.888694 0.871334
O O7 0.209188 0.608325 0.305555
O O8 0.196239 0.469077 0.393742
O O9 0.983185 0.525296 0.404433
O O10 0.490828 0.170670 0.850077
O O11 0.327731 0.193361 0.037436
O O12 0.582177 0.160828 0.990514
O O13 0.635133 0.732856 0.220766
#
# Coordination Sequence:
#
# PCOD8131358 Si02
#       7
#     8   8   8   8   4   8   8
#     4  11  22  38  61  84 119 160 196 236 299 358
#     4  10  21  38  58  88 116 157 196 244 293 351
#     4  10  20  37  60  82 115 155 198 245 289 352
#     4  10  22  37  59  86 122 149 196 253 291 344
#     4  10  18  32  58  88 108 158 190 242 308 346
#     4  10  19  37  58  83 118 146 202 249 286 344
#     4  10  22  39  55  89 118 152 195 248 294 347
#
# _framework density 20.889400999999999
#
# number of rings (size 3 to 8) (size 9 to 14) (size 15 to 20)
#    0.000    1.846    1.538    4.154    0.000    3.077 
#    0.000    0.000    0.000    3.692    0.000    0.000 
#    0.000    0.000    0.000    0.000    0.000    0.000 
#
# Total GULP energy -322138.034641 kJ/mol
# GULP energy per Si atom -12389.924409 kJ/mol
# Density = 2.084186 g / cm^3
# Si number density = 20.889401 Si / 1000 Ang^3
#
#
#
# Elastic Constant Matrix: (Units=GPa)
#
#
# Indices 1 2 3 4 5 6 
#
# 1 57.5046 6.4599 17.2471 0.0000 3.5306 0.0000
# 2 6.4599 50.5195 26.8881 0.0000 1.4637 0.0000
# 3 17.2471 26.8881 135.5344 0.0000 -2.0492 0.0000
# 4 0.0000 0.0000 0.0000 15.3258 0.0000 -3.8055
# 5 3.5306 1.4637 -2.0492 0.0000 20.5082 0.0000
# 6 0.0000 0.0000 0.0000 -3.8055 0.0000 23.7380
#
#
#
# Elastic Compliance Matrix: (Units=1/GPa)
#
#
# Indices 1 2 3 4 5 6 
#
# 1 0.018367 -0.001098 -0.002169 0.000000 -0.003300 0.000000
# 2 -0.001098 0.022281 -0.004308 0.000000 -0.001832 0.000000
# 3 -0.002169 -0.004308 0.008532 0.000000 0.001533 0.000000
# 4 0.000000 0.000000 0.000000 0.067955 0.000000 0.010894
# 5 -0.003300 -0.001832 0.001533 0.000000 0.049613 0.000000
# 6 0.000000 0.000000 0.000000 0.010894 0.000000 0.043873
#
#
# Mechanical properties :
#
#
# Convention : Reuss Voigt Hill
#
# Bulk Modulus (GPa) = 29.38756 38.30540 33.84648
# Shear Modulus (GPa) = 21.08689 24.77862 22.93276
#
# Velocity S-wave (km/s) = 3.18064 3.44784 3.31693
# Velocity P-wave (km/s) = 5.25236 5.85040 5.55943
#
# Compressibility (1/GPa) = 0.03402801
#
# Stress axis : x y z
#
# Youngs Moduli (GPa) = 54.44690 44.88179 117.20476
#
# Poissons Ratio (x) = 0.04930 0.25424
# Poissons Ratio (y) = 0.05981 0.50493
# Poissons Ratio (z) = 0.11810 0.19335
#
# Static dielectric constant tensor:
#      x y z
#    x 3.658840 0.000000 -0.151830 
#    y 0.000000 3.669410 0.000000 
#    z -0.151830 0.000000 3.996160 
# 
# 
# High freq. dielectric constant tensor:
#      x y z
#    x 1.806890 0.000000 -0.011990 
#    y 0.000000 1.798370 0.000000 
#    z -0.011990 0.000000 1.833200 
# 
# From -- ./inp_files/145471.got.cif
#   From: 2010.06.25/outbox.cif.g09.slc.cpg/sg15_73_cif.got.tgz:145471.got - 2010.06.28 07:06:18.
