data_PCOD8131514
_publ_section_title
;
Structure prediction by ZEFSAII (Michael W. Deem and Ramdas Pophale) SiO2 
 PCOD8131514
Probable space group: C 2/C
;
_chemical_formula_sum "Si O2"
_cell_formula_units_Z 52
_cell_length_a 18.088147
_cell_length_b 24.704848
_cell_length_c 12.577373
_cell_angle_alpha 90.000000
_cell_angle_beta 150.828287
_cell_angle_gamma 90.000000
_cell_volume 2739.537481
_symmetry_space_group_name_H-M "C 2/C"
_symmetry_group_IT_number 15
_symmetry_cell_setting 'monoclinic'
loop_
_space_group_symop_operation_xyz
x,y,z
-x,y,1/2-z
-x,-y,-z
x,-y,1/2+z
1/2+x,1/2+y,z
1/2-x,1/2+y,1/2-z
1/2-x,1/2-y,-z
1/2+x,1/2-y,1/2+z
loop_
_atom_site_type_symbol
_atom_site_label
_atom_site_fract_x
_atom_site_fract_y
_atom_site_fract_z
Si Si1 0.892554 0.528684 0.013104
Si Si2 0.392566 0.831183 0.770013
Si Si3 0.941807 0.224110 0.949043
Si Si4 0.780814 0.360598 0.407734
Si Si5 0.577774 0.924227 0.550016
Si Si6 0.000000 0.371166 0.250000
Si Si7 0.721692 0.778996 0.573675
O O1 0.000000 0.519589 0.250000
O O2 0.991548 0.550924 0.040819
O O3 0.765449 0.573766 0.882280
O O4 0.820103 0.471744 0.879045
O O5 0.379222 0.768984 0.788072
O O6 0.285208 0.841669 0.535270
O O7 0.336210 0.870845 0.795884
O O8 0.567676 0.842807 0.963104
O O9 0.864360 0.166521 0.828399
O O10 0.900215 0.243472 0.014953
O O11 0.121764 0.216005 0.164144
O O12 0.465658 0.905860 0.313328
O O13 0.152390 0.337538 0.463243
O O14 0.750000 0.750000 0.500000
#
# Coordination Sequence:
#
# PCOD8131514 Si02
#       7
#     8   8   8   8   8   4   8
#     4  10  18  33  56  84 114 146 192 254 284 329
#     4  10  18  35  54  83 115 154 190 245 278 351
#     4  12  22  37  57  82 119 157 191 235 290 354
#     4  10  20  34  56  82 118 147 197 236 299 333
#     4  10  19  32  56  86 110 146 199 240 287 334
#     4  12  22  36  60  84 116 150 196 236 286 354
#     4  12  23  37  55  83 118 154 189 236 287 341
#
# _framework density 18.981306
#
# number of rings (size 3 to 8) (size 9 to 14) (size 15 to 20)
#    0.000    1.231    8.462    0.462    2.154    0.000 
#    0.000    0.000    0.000    0.923    0.000    2.154 
#    0.000    0.000    0.000    0.000    0.000    0.000 
#
# Total GULP energy -322139.252476 kJ/mol
# GULP energy per Si atom -12389.971249 kJ/mol
# Density = 1.893810 g / cm^3
# Si number density = 18.981306 Si / 1000 Ang^3
#
#
#
# Elastic Constant Matrix: (Units=GPa)
#
#
# Indices 1 2 3 4 5 6 
#
# 1 76.9772 22.1939 24.4390 0.0000 -25.9512 0.0000
# 2 22.1939 117.0480 33.8124 0.0000 -9.5938 0.0000
# 3 24.4390 33.8124 57.1641 0.0000 -6.9486 0.0000
# 4 0.0000 0.0000 0.0000 25.7038 0.0000 -3.8415
# 5 -25.9512 -9.5938 -6.9486 0.0000 32.7070 0.0000
# 6 0.0000 0.0000 0.0000 -3.8415 0.0000 6.5070
#
#
#
# Elastic Compliance Matrix: (Units=1/GPa)
#
#
# Indices 1 2 3 4 5 6 
#
# 1 0.020078 -0.000790 -0.006373 0.000000 0.014345 0.000000
# 2 -0.000790 0.010436 -0.005686 0.000000 0.001226 0.000000
# 3 -0.006373 -0.005686 0.023367 0.000000 -0.001760 0.000000
# 4 0.000000 0.000000 0.000000 0.042670 0.000000 0.025191
# 5 0.014345 0.001226 -0.001760 0.000000 0.041942 0.000000
# 6 0.000000 0.000000 0.000000 0.025191 0.000000 0.168553
#
#
# Mechanical properties :
#
#
# Convention : Reuss Voigt Hill
#
# Bulk Modulus (GPa) = 35.48162 45.78664 40.63413
# Shear Modulus (GPa) = 14.61391 24.36650 19.49020
#
# Velocity S-wave (km/s) = 2.77774 3.58678 3.20786
# Velocity P-wave (km/s) = 5.38714 6.42866 5.93081
#
# Compressibility (1/GPa) = 0.02818360
#
# Stress axis : x y z
#
# Youngs Moduli (GPa) = 49.80549 95.81777 42.79467
#
# Poissons Ratio (x) = 0.07573 0.27271
# Poissons Ratio (y) = 0.03937 0.24334
# Poissons Ratio (z) = 0.31739 0.54484
#
# Static dielectric constant tensor:
#      x y z
#    x 3.327390 0.000000 -0.279790 
#    y 0.000000 4.191290 0.000000 
#    z -0.279790 0.000000 3.247220 
# 
# 
# High freq. dielectric constant tensor:
#      x y z
#    x 1.734850 0.000000 -0.047630 
#    y 0.000000 1.753870 0.000000 
#    z -0.047630 0.000000 1.698730 
# 
# From -- ./inp_files/108360.got.cif
#   From: 2010.06.25/outbox.cif.g09.slc.cpg/sg15_55_cif.got.tgz:108360.got - 2010.06.28 07:06:18.
