data_PCOD8131323
_publ_section_title
;
Structure prediction by ZEFSAII (Michael W. Deem and Ramdas Pophale) SiO2 
 PCOD8131323
Probable space group: C 2/C
;
_chemical_formula_sum "Si O2"
_cell_formula_units_Z 56
_cell_length_a 9.500345
_cell_length_b 15.944017
_cell_length_c 28.901725
_cell_angle_alpha 90.000000
_cell_angle_beta 41.407193
_cell_angle_gamma 90.000000
_cell_volume 2895.536475
_symmetry_space_group_name_H-M "C 2/C"
_symmetry_group_IT_number 15
_symmetry_cell_setting 'monoclinic'
loop_
_space_group_symop_operation_xyz
x,y,z
-x,y,1/2-z
-x,-y,-z
x,-y,1/2+z
1/2+x,1/2+y,z
1/2-x,1/2+y,1/2-z
1/2-x,1/2-y,-z
1/2+x,1/2-y,1/2+z
loop_
_atom_site_type_symbol
_atom_site_label
_atom_site_fract_x
_atom_site_fract_y
_atom_site_fract_z
Si Si1 0.674719 0.410204 0.415535
Si Si2 0.683672 0.933314 0.841477
Si Si3 0.942673 0.905243 0.689084
Si Si4 0.134597 0.379198 0.327745
Si Si5 0.271942 0.792279 0.826352
Si Si6 0.735343 0.931660 0.205000
Si Si7 0.727335 0.600651 0.426681
O O1 0.673241 0.381206 0.361993
O O2 0.685625 0.511721 0.412309
O O3 0.464988 0.375604 0.491864
O O4 0.878422 0.372475 0.391828
O O5 0.786684 0.891229 0.770897
O O6 0.440114 0.904157 0.905316
O O7 0.810849 0.904594 0.855745
O O8 0.709094 0.033354 0.831059
O O9 0.912747 0.829555 0.660770
O O10 0.890687 0.991444 0.676218
O O11 0.240206 0.307913 0.333427
O O12 0.218933 0.371390 0.253837
O O13 0.500000 0.819080 0.750000
O O14 0.247583 0.826059 0.884140
O O15 0.500000 0.966972 0.250000
#
# Coordination Sequence:
#
# PCOD8131323 Si02
#       7
#     8   8   8   8   8   8   8
#     4   9  18  36  60  82 113 161 191 227 278 355
#     4   9  19  36  54  82 112 145 186 235 283 335
#     4  10  18  32  57  78 112 144 183 240 281 322
#     4   9  21  34  57  85 112 143 190 239 287 332
#     4  12  22  34  56  90 112 143 189 246 288 334
#     4   9  16  33  57  81 107 149 195 229 277 347
#     4  10  19  35  60  84 116 150 199 229 279 341
#
# _framework density 19.340112999999999
#
# number of rings (size 3 to 8) (size 9 to 14) (size 15 to 20)
#    0.000    2.286    2.857    1.286    4.000    0.571 
#    7.714    0.714    0.000    3.429    0.000    0.000 
#    0.000    0.000    0.000    0.000    0.000    0.000 
#
# Total GULP energy -347201.636724 kJ/mol
# GULP energy per Si atom -12400.058454 kJ/mol
# Density = 1.929609 g / cm^3
# Si number density = 19.340113 Si / 1000 Ang^3
#
#
#
# Elastic Constant Matrix: (Units=GPa)
#
#
# Indices 1 2 3 4 5 6 
#
# 1 107.7198 24.5628 41.1002 -0.0005 -5.9139 0.0008
# 2 24.5628 60.7928 21.1828 -0.0006 4.7467 0.0005
# 3 41.1002 21.1828 117.0321 -0.0004 -10.5604 0.0010
# 4 -0.0005 -0.0006 -0.0004 16.0479 0.0001 2.5589
# 5 -5.9139 4.7467 -10.5604 0.0001 21.8557 -0.0006
# 6 0.0008 0.0005 0.0010 2.5589 -0.0006 29.9247
#
#
#
# Elastic Compliance Matrix: (Units=1/GPa)
#
#
# Indices 1 2 3 4 5 6 
#
# 1 0.011460 -0.003725 -0.003134 0.000000 0.002396 0.000000
# 2 -0.003725 0.019447 -0.002806 0.000001 -0.006587 0.000000
# 3 -0.003134 -0.002806 0.010594 0.000000 0.004880 0.000000
# 4 0.000000 0.000001 0.000000 0.063175 -0.000001 -0.005402
# 5 0.002396 -0.006587 0.004880 -0.000001 0.050191 0.000001
# 6 0.000000 0.000000 0.000000 -0.005402 0.000001 0.033879
#
#
# Mechanical properties :
#
#
# Convention : Reuss Voigt Hill
#
# Bulk Modulus (GPa) = 45.10736 51.02625 48.06681
# Shear Modulus (GPa) = 23.20549 26.81227 25.00888
#
# Velocity S-wave (km/s) = 3.46766 3.72742 3.59988
# Velocity P-wave (km/s) = 6.27748 6.70565 6.49510
#
# Compressibility (1/GPa) = 0.02216933
#
# Stress axis : x y z
#
# Youngs Moduli (GPa) = 87.25857 51.42301 94.39682
#
# Poissons Ratio (x) = 0.19157 0.29586
# Poissons Ratio (y) = 0.32507 0.26487
# Poissons Ratio (z) = 0.27349 0.14429
#
# Static dielectric constant tensor:
#      x y z
#    x 3.622740 0.000000 -0.049210 
#    y 0.000000 3.156340 0.000000 
#    z -0.049210 0.000000 3.442640 
# 
# 
# High freq. dielectric constant tensor:
#      x y z
#    x 1.760360 0.000000 -0.005850 
#    y 0.000000 1.721140 0.000000 
#    z -0.005850 0.000000 1.730620 
# 
# From -- ./inp_files/289382.got.cif
#   From: 2010.06.25/outbox.cif.g09.slc.cpg/sg15_145_cif.got.tgz:289382.got - 2010.06.28 07:06:18.
