data_PCOD8131980
_publ_section_title
;
Structure prediction by ZEFSAII (Michael W. Deem and Ramdas Pophale) SiO2 
 PCOD8131980
Probable space group: C 2/C
;
_chemical_formula_sum "Si O2"
_cell_formula_units_Z 56
_cell_length_a 23.812690
_cell_length_b 20.144278
_cell_length_c 17.858437
_cell_angle_alpha 90.000000
_cell_angle_beta 21.152751
_cell_angle_gamma 90.000000
_cell_volume 3091.270909
_symmetry_space_group_name_H-M "C 2/C"
_symmetry_group_IT_number 15
_symmetry_cell_setting 'monoclinic'
loop_
_space_group_symop_operation_xyz
x,y,z
-x,y,1/2-z
-x,-y,-z
x,-y,1/2+z
1/2+x,1/2+y,z
1/2-x,1/2+y,1/2-z
1/2-x,1/2-y,-z
1/2+x,1/2-y,1/2+z
loop_
_atom_site_type_symbol
_atom_site_label
_atom_site_fract_x
_atom_site_fract_y
_atom_site_fract_z
Si Si1 0.108074 0.442052 0.329814
Si Si2 0.599661 0.386198 0.002032
Si Si3 0.528738 0.994759 0.627942
Si Si4 0.866362 0.048816 0.190819
Si Si5 0.434683 0.133044 0.155651
Si Si6 0.463900 0.532012 0.379552
Si Si7 0.428053 0.743800 0.761035
O O1 0.000000 0.500000 0.500000
O O2 0.076733 0.447605 0.279968
O O3 0.045544 0.374225 0.444521
O O4 0.289208 0.449923 0.121985
O O5 0.639530 0.391577 0.863169
O O6 0.754494 0.371667 0.856857
O O7 0.517205 0.452718 0.135343
O O8 0.476127 0.328201 0.170560
O O9 0.500000 0.001570 0.750000
O O10 0.475101 0.922649 0.666909
O O11 0.707668 0.007638 0.386328
O O12 0.914927 0.070554 0.215374
O O13 0.000000 0.000000 0.000000
O O14 0.477190 0.204004 0.136508
O O15 0.500000 0.554542 0.250000
O O16 0.500000 0.763081 0.750000
O O17 0.250000 0.750000 0.000000
#
# Coordination Sequence:
#
# PCOD8131980 Si02
#       7
#     8   8   8   8   8   8   8
#     4  10  18  35  58  79 110 152 189 225 289 347
#     4  11  21  39  56  77 119 156 186 232 280 334
#     4  11  20  33  58  88 112 142 189 236 289 343
#     4  10  21  34  55  85 112 150 190 230 284 348
#     4  11  21  38  57  77 115 156 189 233 277 336
#     4  11  21  34  58  88 120 148 179 239 297 335
#     4  12  26  39  57  84 115 156 202 230 268 334
#
# _framework density 18.115527
#
# number of rings (size 3 to 8) (size 9 to 14) (size 15 to 20)
#    0.000    1.143    5.714    4.286    0.000    4.571 
#    0.000    0.000    0.000    0.000    0.000    6.000 
#    0.000    0.000    0.000    0.000    0.000    0.000 
#
# Total GULP energy -347031.111664 kJ/mol
# GULP energy per Si atom -12393.968274 kJ/mol
# Density = 1.807429 g / cm^3
# Si number density = 18.115527 Si / 1000 Ang^3
#
#
#
# Elastic Constant Matrix: (Units=GPa)
#
#
# Indices 1 2 3 4 5 6 
#
# 1 140.7414 38.5162 34.4124 -0.0074 0.0920 0.0081
# 2 38.5162 73.8479 47.4787 -0.0141 1.6628 0.0194
# 3 34.4124 47.4787 99.8629 -0.0064 -10.9592 0.0048
# 4 -0.0074 -0.0141 -0.0064 26.7232 0.0020 2.2214
# 5 0.0920 1.6628 -10.9592 0.0020 36.8328 -0.0060
# 6 0.0081 0.0194 0.0048 2.2214 -0.0060 24.3576
#
#
#
# Elastic Compliance Matrix: (Units=1/GPa)
#
#
# Indices 1 2 3 4 5 6 
#
# 1 0.008383 -0.003593 -0.001204 0.000000 -0.000217 0.000000
# 2 -0.003593 0.021561 -0.009426 0.000010 -0.003769 -0.000016
# 3 -0.001204 -0.009426 0.015462 -0.000003 0.005029 0.000006
# 4 0.000000 0.000010 -0.000003 0.037707 -0.000004 -0.003439
# 5 -0.000217 -0.003769 0.005029 -0.000004 0.028817 0.000010
# 6 0.000000 -0.000016 0.000006 -0.003439 0.000010 0.041369
#
#
# Mechanical properties :
#
#
# Convention : Reuss Voigt Hill
#
# Bulk Modulus (GPa) = 58.96683 61.69633 60.33158
# Shear Modulus (GPa) = 26.68115 30.51902 28.60008
#
# Velocity S-wave (km/s) = 3.84191 4.10895 3.97767
# Velocity P-wave (km/s) = 7.23198 7.52611 7.38051
#
# Compressibility (1/GPa) = 0.01695869
#
# Stress axis : x y z
#
# Youngs Moduli (GPa) = 119.28673 46.38081 64.67373
#
# Poissons Ratio (x) = 0.16665 0.07789
# Poissons Ratio (y) = 0.42862 0.60963
# Poissons Ratio (z) = 0.14366 0.43719
#
# Static dielectric constant tensor:
#      x y z
#    x 5.103480 0.000300 -0.372410 
#    y 0.000300 2.885790 -0.000150 
#    z -0.372410 -0.000150 3.718990 
# 
# 
# High freq. dielectric constant tensor:
#      x y z
#    x 1.731340 0.000000 -0.008620 
#    y 0.000000 1.645670 0.000000 
#    z -0.008620 0.000000 1.710040 
# 
# From -- ./inp_files/220180.got.cif
#   From: 2010.06.25/outbox.cif.g09.slc.cpg/sg15_111_cif.got.tgz:220180.got - 2010.06.28 07:06:18.
