data_PCOD8131380
_publ_section_title
;
Structure prediction by ZEFSAII (Michael W. Deem and Ramdas Pophale) SiO2 
 PCOD8131380
Probable space group: C 2/C
;
_chemical_formula_sum "Si O2"
_cell_formula_units_Z 60
_cell_length_a 11.774124
_cell_length_b 16.517825
_cell_length_c 15.605102
_cell_angle_alpha 90.000000
_cell_angle_beta 102.147201
_cell_angle_gamma 90.000000
_cell_volume 2966.974475
_symmetry_space_group_name_H-M "C 2/C"
_symmetry_group_IT_number 15
_symmetry_cell_setting 'monoclinic'
loop_
_space_group_symop_operation_xyz
x,y,z
-x,y,1/2-z
-x,-y,-z
x,-y,1/2+z
1/2+x,1/2+y,z
1/2-x,1/2+y,1/2-z
1/2-x,1/2-y,-z
1/2+x,1/2-y,1/2+z
loop_
_atom_site_type_symbol
_atom_site_label
_atom_site_fract_x
_atom_site_fract_y
_atom_site_fract_z
Si Si1 0.928638 0.384438 0.384478
Si Si2 0.284051 0.317471 0.403019
Si Si3 0.874768 0.239352 0.261366
Si Si4 0.000000 0.504265 0.250000
Si Si5 0.251692 0.012788 0.381597
Si Si6 0.876677 0.341225 0.962238
Si Si7 0.630768 0.516425 0.542655
Si Si8 0.245316 0.076477 0.208746
O O1 0.900070 0.296567 0.344747
O O2 0.997062 0.444238 0.331192
O O3 0.810119 0.425401 0.396335
O O4 0.001739 0.368380 0.480817
O O5 0.182626 0.297187 0.319531
O O6 0.224379 0.330034 0.484665
O O7 0.380985 0.246083 0.415950
O O8 0.350184 0.402245 0.397258
O O9 0.785956 0.169784 0.276409
O O10 0.000000 0.203761 0.250000
O O11 0.884512 0.559747 0.224196
O O12 0.343893 0.087462 0.391212
O O13 0.178149 0.023404 0.454291
O O14 0.189534 0.022862 0.278504
O O15 0.500000 0.500000 0.500000
O O16 0.686327 0.445192 0.608482
#
# Coordination Sequence:
#
# PCOD8131380 Si02
#       8
#     8   8   8   4   8   8   8   8
#     4  11  20  36  68  91 126 167 227 280 331 396
#     4  10  20  37  56  91 127 162 216 270 336 381
#     4  12  23  39  66 101 131 175 229 287 331 402
#     4  10  20  44  62  96 130 178 218 286 338 404
#     4  10  22  41  64  97 127 175 225 269 345 403
#     4  10  18  32  60  92 120 151 207 287 319 383
#     4  11  26  43  65  95 140 180 224 279 344 420
#     4  11  25  41  68  98 137 177 228 280 345 410
#
# _framework density 20.222621
#
# number of rings (size 3 to 8) (size 9 to 14) (size 15 to 20)
#    0.000    1.333    3.333    3.600    3.733    1.067 
#    0.000    2.000    0.000    0.000    0.000    0.000 
#    0.000    0.000    0.000    0.000    0.000    0.000 
#
# Total GULP energy -371733.926098 kJ/mol
# GULP energy per Si atom -12391.130870 kJ/mol
# Density = 2.017659 g / cm^3
# Si number density = 20.222621 Si / 1000 Ang^3
#
#
#
# Elastic Constant Matrix: (Units=GPa)
#
#
# Indices 1 2 3 4 5 6 
#
# 1 86.2741 47.2902 39.2534 0.0000 14.6116 0.0000
# 2 47.2902 95.2496 6.5394 0.0000 5.5146 0.0000
# 3 39.2534 6.5394 75.7364 0.0000 6.0889 0.0000
# 4 0.0000 0.0000 0.0000 25.7682 0.0000 5.2295
# 5 14.6116 5.5146 6.0889 0.0000 26.6906 0.0000
# 6 0.0000 0.0000 0.0000 5.2295 0.0000 34.8278
#
#
#
# Elastic Compliance Matrix: (Units=1/GPa)
#
#
# Indices 1 2 3 4 5 6 
#
# 1 0.023612 -0.010509 -0.010661 0.000000 -0.008323 0.000000
# 2 -0.010509 0.015346 0.003987 0.000000 0.001673 0.000000
# 3 -0.010661 0.003987 0.018318 0.000000 0.000834 0.000000
# 4 0.000000 0.000000 0.000000 0.040027 0.000000 -0.006010
# 5 -0.008323 0.001673 0.000834 0.000000 0.041487 0.000000
# 6 0.000000 0.000000 0.000000 -0.006010 0.000000 0.029615
#
#
# Mechanical properties :
#
#
# Convention : Reuss Voigt Hill
#
# Bulk Modulus (GPa) = 43.65032 49.26956 46.45994
# Shear Modulus (GPa) = 23.76350 28.40248 26.08299
#
# Velocity S-wave (km/s) = 3.43168 3.75172 3.59526
# Velocity P-wave (km/s) = 6.11013 6.57143 6.34497
#
# Compressibility (1/GPa) = 0.02290934
#
# Stress axis : x y z
#
# Youngs Moduli (GPa) = 42.35206 65.16465 54.59118
#
# Poissons Ratio (x) = 0.68482 0.58201
# Poissons Ratio (y) = 0.44508 -0.21767
# Poissons Ratio (z) = 0.45152 -0.25983
#
# Static dielectric constant tensor:
#      x y z
#    x 3.276960 0.000000 0.340750 
#    y 0.000000 4.219450 0.000000 
#    z 0.340750 0.000000 3.622010 
# 
# 
# High freq. dielectric constant tensor:
#      x y z
#    x 1.754790 0.000000 0.013670 
#    y 0.000000 1.797600 0.000000 
#    z 0.013670 0.000000 1.802800 
# 
# From -- ./inp_files/146123.got.cif
#   From: 2010.06.25/outbox.cif.g09.slc.cpg/sg15_74_cif.got.tgz:146123.got - 2010.06.28 07:06:18.
