data_PCOD8131216
_publ_section_title
;
Structure prediction by ZEFSAII (Michael W. Deem and Ramdas Pophale) SiO2 
 PCOD8131216
Probable space group: C 2/C
;
_chemical_formula_sum "Si O2"
_cell_formula_units_Z 48
_cell_length_a 13.724850
_cell_length_b 22.487290
_cell_length_c 9.799964
_cell_angle_alpha 90.000000
_cell_angle_beta 108.580860
_cell_angle_gamma 90.000000
_cell_volume 2866.950762
_symmetry_space_group_name_H-M "C 2/C"
_symmetry_group_IT_number 15
_symmetry_cell_setting 'monoclinic'
loop_
_space_group_symop_operation_xyz
x,y,z
-x,y,1/2-z
-x,-y,-z
x,-y,1/2+z
1/2+x,1/2+y,z
1/2-x,1/2+y,1/2-z
1/2-x,1/2-y,-z
1/2+x,1/2-y,1/2+z
loop_
_atom_site_type_symbol
_atom_site_label
_atom_site_fract_x
_atom_site_fract_y
_atom_site_fract_z
Si Si1 0.377698 0.444442 0.352649
Si Si2 0.188923 0.177749 0.103105
Si Si3 0.115867 0.238997 0.325109
Si Si4 0.382384 0.555719 0.539815
Si Si5 0.694692 0.318731 0.125260
Si Si6 0.385820 0.247487 0.167239
O O1 0.348326 0.500547 0.431780
O O2 0.497663 0.429418 0.421842
O O3 0.351701 0.457574 0.182723
O O4 0.310923 0.390009 0.383044
O O5 0.148464 0.185164 0.239136
O O6 0.310398 0.191640 0.151143
O O7 0.179127 0.111487 0.045238
O O8 0.122834 0.225649 0.987801
O O9 0.187624 0.296900 0.335537
O O10 0.125509 0.212601 0.480080
O O11 0.000000 0.260442 0.250000
O O12 0.646449 0.301196 0.248361
O O13 0.500000 0.224691 0.250000
#
# Coordination Sequence:
#
# PCOD8131216 Si02
#       6
#     8   8   8   8   8   8
#     4  10  20  33  50  70  99 131 162 202 244 291
#     4  10  20  31  51  76  99 131 165 199 248 294
#     4  10  20  32  50  75 102 132 164 198 244 296
#     4  10  20  33  49  72  98 130 164 199 246 292
#     4  10  20  33  49  74 103 132 161 201 248 287
#     4  10  18  32  52  75 100 128 162 205 247 293
#
# _framework density 16.742526000000002
#
# number of rings (size 3 to 8) (size 9 to 14) (size 15 to 20)
#    0.000    2.000    1.667    3.000    2.333    0.000 
#    0.000    0.000    0.000    1.000    0.000    2.333 
#    0.000    0.000    0.000    0.000    0.000    0.000 
#
# Total GULP energy -297661.981236 kJ/mol
# GULP energy per Si atom -12402.582551 kJ/mol
# Density = 1.670442 g / cm^3
# Si number density = 16.742526 Si / 1000 Ang^3
#
#
#
# Elastic Constant Matrix: (Units=GPa)
#
#
# Indices 1 2 3 4 5 6 
#
# 1 86.2381 49.8530 36.2661 0.0000 19.8020 0.0000
# 2 49.8530 113.9477 43.0711 0.0000 5.0190 0.0000
# 3 36.2661 43.0711 76.0524 0.0000 6.9611 0.0000
# 4 0.0000 0.0000 0.0000 27.4976 0.0000 3.3855
# 5 19.8020 5.0190 6.9611 0.0000 28.0783 0.0000
# 6 0.0000 0.0000 0.0000 3.3855 0.0000 16.5644
#
#
#
# Elastic Compliance Matrix: (Units=1/GPa)
#
#
# Indices 1 2 3 4 5 6 
#
# 1 0.020055 -0.006423 -0.004846 0.000000 -0.011794 0.000000
# 2 -0.006423 0.013229 -0.004735 0.000000 0.003339 0.000000
# 3 -0.004846 -0.004735 0.018163 0.000000 -0.000239 0.000000
# 4 0.000000 0.000000 0.000000 0.037306 0.000000 -0.007625
# 5 -0.011794 0.003339 -0.000239 0.000000 0.043395 0.000000
# 6 0.000000 0.000000 0.000000 -0.007625 0.000000 0.061929
#
#
# Mechanical properties :
#
#
# Convention : Reuss Voigt Hill
#
# Bulk Modulus (GPa) = 51.44304 59.40206 55.42255
# Shear Modulus (GPa) = 21.49956 24.23126 22.86541
#
# Velocity S-wave (km/s) = 3.58736 3.80845 3.69956
# Velocity P-wave (km/s) = 6.92471 7.40917 7.17103
#
# Compressibility (1/GPa) = 0.01943898
#
# Stress axis : x y z
#
# Youngs Moduli (GPa) = 49.86293 75.59391 55.05668
#
# Poissons Ratio (x) = 0.48553 0.26682
# Poissons Ratio (y) = 0.32026 0.26067
# Poissons Ratio (z) = 0.24165 0.35791
#
# Static dielectric constant tensor:
#      x y z
#    x 3.018220 0.000000 -0.032720 
#    y 0.000000 2.922370 0.000000 
#    z -0.032720 0.000000 3.407400 
# 
# 
# High freq. dielectric constant tensor:
#      x y z
#    x 1.626070 0.000000 -0.008260 
#    y 0.000000 1.623980 0.000000 
#    z -0.008260 0.000000 1.668540 
# 
# From -- ./inp_files/31901.got.cif
#   From: 2010.06.25/outbox.cif.g09.slc.cpg/sg15_16_cif.got.tgz:31901.got - 2010.06.28 07:06:18.
