data_PCOD8131776
_publ_section_title
;
Structure prediction by ZEFSAII (Michael W. Deem and Ramdas Pophale) SiO2 
 PCOD8131776
Probable space group: C 2/C
;
_chemical_formula_sum "Si O2"
_cell_formula_units_Z 60
_cell_length_a 9.298279
_cell_length_b 18.668258
_cell_length_c 18.483185
_cell_angle_alpha 90.000000
_cell_angle_beta 105.760246
_cell_angle_gamma 90.000000
_cell_volume 3087.747700
_symmetry_space_group_name_H-M "C 2/C"
_symmetry_group_IT_number 15
_symmetry_cell_setting 'monoclinic'
loop_
_space_group_symop_operation_xyz
x,y,z
-x,y,1/2-z
-x,-y,-z
x,-y,1/2+z
1/2+x,1/2+y,z
1/2-x,1/2+y,1/2-z
1/2-x,1/2-y,-z
1/2+x,1/2-y,1/2+z
loop_
_atom_site_type_symbol
_atom_site_label
_atom_site_fract_x
_atom_site_fract_y
_atom_site_fract_z
Si Si1 0.012075 0.610200 0.062825
Si Si2 0.500000 0.558591 0.750000
Si Si3 0.529342 0.331600 0.372007
Si Si4 0.619903 0.189597 0.322748
Si Si5 0.827516 0.044563 0.130524
Si Si6 0.089430 0.752996 0.011640
Si Si7 0.206623 0.064954 0.991471
Si Si8 0.422942 0.636579 0.392558
O O1 0.158675 0.572935 0.116534
O O2 0.050450 0.668955 0.007861
O O3 0.915501 0.654171 0.106588
O O4 0.887936 0.554920 0.016030
O O5 0.552905 0.608170 0.689358
O O6 0.636286 0.508204 0.796929
O O7 0.608912 0.275420 0.328983
O O8 0.410580 0.291375 0.408698
O O9 0.660959 0.366252 0.437446
O O10 0.500000 0.160003 0.250000
O O11 0.786708 0.164435 0.323338
O O12 0.947929 0.108790 0.143661
O O13 0.849439 0.006764 0.055454
O O14 0.250000 0.750000 0.000000
O O15 0.976786 0.794668 0.944490
O O16 0.132969 0.073029 0.060914
#
# Coordination Sequence:
#
# PCOD8131776 Si02
#       8
#     8   4   8   8   8   8   8   8
#     4  10  20  34  55  85 110 140 184 231 282 320
#     4  10  22  36  52  78 108 156 194 216 262 348
#     4   9  18  36  58  78 106 147 190 227 273 336
#     4  10  20  34  57  78 106 142 182 229 271 333
#     4  11  21  34  55  79 114 149 180 224 268 334
#     4  10  18  34  58  87 114 135 180 247 299 322
#     4   9  19  35  56  80 107 145 187 223 268 325
#     4  10  20  34  54  86 109 140 181 232 283 326
#
# _framework density 19.431640000000002
#
# number of rings (size 3 to 8) (size 9 to 14) (size 15 to 20)
#    0.000    2.133    2.000    1.600    1.867    3.200 
#    0.000    0.000    0.000    0.000    6.933    0.000 
#    0.000    0.000    0.000    0.000    0.000    0.000 
#
# Total GULP energy -371747.936836 kJ/mol
# GULP energy per Si atom -12391.597895 kJ/mol
# Density = 1.938741 g / cm^3
# Si number density = 19.431640 Si / 1000 Ang^3
#
#
#
# Elastic Constant Matrix: (Units=GPa)
#
#
# Indices 1 2 3 4 5 6 
#
# 1 110.9276 26.7268 29.4616 0.0000 26.1030 0.0000
# 2 26.7268 65.4200 19.4932 0.0000 13.8605 0.0000
# 3 29.4616 19.4932 70.9224 0.0000 22.3230 0.0000
# 4 0.0000 0.0000 0.0000 29.6662 0.0000 5.2431
# 5 26.1030 13.8605 22.3230 0.0000 26.8663 0.0000
# 6 0.0000 0.0000 0.0000 5.2431 0.0000 20.9161
#
#
#
# Elastic Compliance Matrix: (Units=1/GPa)
#
#
# Indices 1 2 3 4 5 6 
#
# 1 0.012216 -0.002586 -0.001419 0.000000 -0.009356 0.000000
# 2 -0.002586 0.018074 -0.002369 0.000000 -0.004844 0.000000
# 3 -0.001419 -0.002369 0.019665 0.000000 -0.013738 0.000000
# 4 0.000000 0.000000 0.000000 0.035271 0.000000 -0.008842
# 5 -0.009356 -0.004844 -0.013738 0.000000 0.060226 0.000000
# 6 0.000000 0.000000 0.000000 -0.008842 0.000000 0.050026
#
#
# Mechanical properties :
#
#
# Convention : Reuss Voigt Hill
#
# Bulk Modulus (GPa) = 26.87612 44.29258 35.58435
# Shear Modulus (GPa) = 22.66243 26.92894 24.79568
#
# Velocity S-wave (km/s) = 3.41877 3.72671 3.57606
# Velocity P-wave (km/s) = 5.42633 6.43128 5.95006
#
# Compressibility (1/GPa) = 0.03720776
#
# Stress axis : x y z
#
# Youngs Moduli (GPa) = 81.85665 55.32677 50.85240
#
# Poissons Ratio (x) = 0.14306 0.07217
# Poissons Ratio (y) = 0.21166 0.12047
# Poissons Ratio (z) = 0.11617 0.13107
#
# Static dielectric constant tensor:
#      x y z
#    x 3.482110 0.000000 0.179910 
#    y 0.000000 4.103790 0.000000 
#    z 0.179910 0.000000 3.517750 
# 
# 
# High freq. dielectric constant tensor:
#      x y z
#    x 1.740200 0.000000 0.012940 
#    y 0.000000 1.758410 0.000000 
#    z 0.012940 0.000000 1.747570 
# 
# From -- ./inp_files/232638.got.cif
#   From: 2010.06.25/outbox.cif.g09.slc.cpg/sg15_117_cif.got.tgz:232638.got - 2010.06.28 07:06:18.
