data_PCOD8131860
_publ_section_title
;
Structure prediction by ZEFSAII (Michael W. Deem and Ramdas Pophale) SiO2 
 PCOD8131860
Probable space group: C 2/C
;
_chemical_formula_sum "Si O2"
_cell_formula_units_Z 52
_cell_length_a 12.118644
_cell_length_b 16.305797
_cell_length_c 21.336116
_cell_angle_alpha 90.000000
_cell_angle_beta 140.111857
_cell_angle_gamma 90.000000
_cell_volume 2703.749621
_symmetry_space_group_name_H-M "C 2/C"
_symmetry_group_IT_number 15
_symmetry_cell_setting 'monoclinic'
loop_
_space_group_symop_operation_xyz
x,y,z
-x,y,1/2-z
-x,-y,-z
x,-y,1/2+z
1/2+x,1/2+y,z
1/2-x,1/2+y,1/2-z
1/2-x,1/2-y,-z
1/2+x,1/2-y,1/2+z
loop_
_atom_site_type_symbol
_atom_site_label
_atom_site_fract_x
_atom_site_fract_y
_atom_site_fract_z
Si Si1 0.642543 0.791735 0.761186
Si Si2 0.692156 0.869123 0.455980
Si Si3 0.431259 0.289660 0.066458
Si Si4 0.000000 0.402981 0.250000
Si Si5 0.016118 0.244107 0.461749
Si Si6 0.375709 0.529604 0.528725
Si Si7 0.227376 0.964454 0.656657
O O1 0.500000 0.768933 0.750000
O O2 0.580270 0.754345 0.669570
O O3 0.822520 0.749494 0.853669
O O4 0.666729 0.889823 0.767000
O O5 0.575739 0.851986 0.342404
O O6 0.605314 0.830137 0.480136
O O7 0.879036 0.829060 0.525767
O O8 0.722984 0.966718 0.482902
O O9 0.396193 0.383779 0.072831
O O10 0.250000 0.250000 0.000000
O O11 0.508404 0.275385 0.031425
O O12 0.153573 0.456437 0.288704
O O13 0.554711 0.483255 0.619379
O O14 0.335083 0.558059 0.440273
#
# Coordination Sequence:
#
# PCOD8131860 Si02
#       7
#     8   8   8   4   8   8   8
#     4  12  22  39  63  91 122 162 212 262 307 371
#     4  10  23  39  64  91 134 156 206 266 322 376
#     4  12  24  39  65  89 126 171 214 255 316 376
#     4  10  20  32  64 100 114 164 210 262 316 374
#     4  11  23  43  60  95 126 168 202 264 322 380
#     4  10  19  39  60  89 121 164 206 265 312 365
#     4  10  18  34  62  90 118 149 214 269 302 355
#
# _framework density 19.232548999999999
#
# number of rings (size 3 to 8) (size 9 to 14) (size 15 to 20)
#    0.000    1.231    5.385    1.846    6.462    0.000 
#    0.000    0.769    3.385    0.000    0.000    0.000 
#    0.000    0.000    0.000    0.000    0.000    0.000 
#
# Total GULP energy -322194.562826 kJ/mol
# GULP energy per Si atom -12392.098570 kJ/mol
# Density = 1.918877 g / cm^3
# Si number density = 19.232549 Si / 1000 Ang^3
#
#
#
# Elastic Constant Matrix: (Units=GPa)
#
#
# Indices 1 2 3 4 5 6 
#
# 1 94.2760 43.1271 26.7195 0.0000 12.8214 0.0000
# 2 43.1271 118.8172 35.9540 0.0000 -3.3308 0.0000
# 3 26.7195 35.9540 106.8517 0.0000 13.4441 0.0000
# 4 0.0000 0.0000 0.0000 35.9543 0.0000 1.8280
# 5 12.8214 -3.3308 13.4441 0.0000 26.0514 0.0000
# 6 0.0000 0.0000 0.0000 1.8280 0.0000 21.1491
#
#
#
# Elastic Compliance Matrix: (Units=1/GPa)
#
#
# Indices 1 2 3 4 5 6 
#
# 1 0.014155 -0.005052 -0.000943 0.000000 -0.007126 0.000000
# 2 -0.005052 0.011401 -0.003282 0.000000 0.005638 0.000000
# 3 -0.000943 -0.003282 0.011436 0.000000 -0.005857 0.000000
# 4 0.000000 0.000000 0.000000 0.027936 0.000000 -0.002415
# 5 -0.007126 0.005638 -0.005857 0.000000 0.045636 0.000000
# 6 0.000000 0.000000 0.000000 -0.002415 0.000000 0.047492
#
#
# Mechanical properties :
#
#
# Convention : Reuss Voigt Hill
#
# Bulk Modulus (GPa) = 54.23911 59.06068 56.64990
# Shear Modulus (GPa) = 27.35881 30.90726 29.13304
#
# Velocity S-wave (km/s) = 3.77573 4.01313 3.89624
# Velocity P-wave (km/s) = 6.87540 7.22834 7.05408
#
# Compressibility (1/GPa) = 0.01843688
#
# Stress axis : x y z
#
# Youngs Moduli (GPa) = 70.64852 87.70887 87.44290
#
# Poissons Ratio (x) = 0.44311 0.08246
# Poissons Ratio (y) = 0.35692 0.28703
# Poissons Ratio (z) = 0.06662 0.28790
#
# Static dielectric constant tensor:
#      x y z
#    x 3.440180 0.000000 0.192460 
#    y 0.000000 3.624910 0.000000 
#    z 0.192460 0.000000 3.648420 
# 
# 
# High freq. dielectric constant tensor:
#      x y z
#    x 1.725670 0.000000 0.033580 
#    y 0.000000 1.750210 0.000000 
#    z 0.033580 0.000000 1.751520 
# 
# From -- ./inp_files/145475.got.cif
#   From: 2010.06.25/outbox.cif.g09.slc.cpg/sg15_73_cif.got.tgz:145475.got - 2010.06.28 07:06:18.
