data_PCOD8131820
_publ_section_title
;
Structure prediction by ZEFSAII (Michael W. Deem and Ramdas Pophale) SiO2 
 PCOD8131820
Probable space group: C 2/C
;
_chemical_formula_sum "Si O2"
_cell_formula_units_Z 52
_cell_length_a 22.895295
_cell_length_b 10.784182
_cell_length_c 14.210114
_cell_angle_alpha 90.000000
_cell_angle_beta 132.139428
_cell_angle_gamma 90.000000
_cell_volume 2601.660075
_symmetry_space_group_name_H-M "C 2/C"
_symmetry_group_IT_number 15
_symmetry_cell_setting 'monoclinic'
loop_
_space_group_symop_operation_xyz
x,y,z
-x,y,1/2-z
-x,-y,-z
x,-y,1/2+z
1/2+x,1/2+y,z
1/2-x,1/2+y,1/2-z
1/2-x,1/2-y,-z
1/2+x,1/2-y,1/2+z
loop_
_atom_site_type_symbol
_atom_site_label
_atom_site_fract_x
_atom_site_fract_y
_atom_site_fract_z
Si Si1 0.212398 0.729218 0.060224
Si Si2 0.500000 0.173925 0.250000
Si Si3 0.884290 0.510615 0.013342
Si Si4 0.355545 0.197679 0.829808
Si Si5 0.489335 0.646833 0.573816
Si Si6 0.516880 0.850463 0.163446
Si Si7 0.567549 0.385218 0.970986
O O1 0.277475 0.731211 0.213131
O O2 0.151380 0.838970 0.021480
O O3 0.250000 0.750000 0.000000
O O4 0.174438 0.593462 0.010576
O O5 0.422011 0.095214 0.137558
O O6 0.475278 0.259900 0.311108
O O7 0.955415 0.435134 0.036810
O O8 0.836444 0.593035 0.886658
O O9 0.395117 0.130970 0.780663
O O10 0.417099 0.293449 0.939320
O O11 0.454162 0.523836 0.586159
O O12 0.560729 0.617233 0.578289
O O13 0.500000 0.901241 0.250000
O O14 0.498640 0.704948 0.142409
#
# Coordination Sequence:
#
# PCOD8131820 Si02
#       7
#     8   4   8   8   8   8   8
#     4  11  24  41  59  91 123 164 204 245 314 375
#     4  10  20  38  64  94 118 146 208 254 306 350
#     4  10  21  38  60  89 122 155 198 255 299 360
#     4  10  21  36  61  85 121 156 196 249 305 365
#     4   9  20  39  62  91 115 158 203 255 303 361
#     4  10  18  34  60  89 112 153 206 246 293 348
#     4   9  20  38  58  87 118 154 204 249 305 355
#
# _framework density 19.987238000000001
#
# number of rings (size 3 to 8) (size 9 to 14) (size 15 to 20)
#    0.000    2.154    0.769    2.308    3.231    1.231 
#    2.769    0.000    0.000    3.692    0.000    0.000 
#    0.000    0.000    0.000    0.000    0.000    0.000 
#
# Total GULP energy -322110.718203 kJ/mol
# GULP energy per Si atom -12388.873777 kJ/mol
# Density = 1.994175 g / cm^3
# Si number density = 19.987238 Si / 1000 Ang^3
#
#
#
# Elastic Constant Matrix: (Units=GPa)
#
#
# Indices 1 2 3 4 5 6 
#
# 1 111.9697 49.7532 41.7041 0.0000 -0.7709 0.0000
# 2 49.7532 131.3628 51.9718 0.0000 -4.7647 0.0000
# 3 41.7041 51.9718 105.1551 0.0000 -0.9825 0.0000
# 4 0.0000 0.0000 0.0000 28.4147 0.0000 1.1705
# 5 -0.7709 -4.7647 -0.9825 0.0000 23.5615 0.0000
# 6 0.0000 0.0000 0.0000 1.1705 0.0000 23.8343
#
#
#
# Elastic Compliance Matrix: (Units=1/GPa)
#
#
# Indices 1 2 3 4 5 6 
#
# 1 0.011446 -0.003172 -0.002975 0.000000 -0.000391 0.000000
# 2 -0.003172 0.010412 -0.003871 0.000000 0.001840 0.000000
# 3 -0.002975 -0.003871 0.012600 0.000000 -0.000355 0.000000
# 4 0.000000 0.000000 0.000000 0.035264 0.000000 -0.001732
# 5 -0.000391 0.001840 -0.000355 0.000000 0.042787 0.000000
# 6 0.000000 0.000000 0.000000 -0.001732 0.000000 0.042041
#
#
# Mechanical properties :
#
#
# Convention : Reuss Voigt Hill
#
# Bulk Modulus (GPa) = 69.34270 70.59397 69.96834
# Shear Modulus (GPa) = 27.87164 28.83266 28.35215
#
# Velocity S-wave (km/s) = 3.73831 3.80222 3.77040
# Velocity P-wave (km/s) = 7.30768 7.39405 7.35099
#
# Compressibility (1/GPa) = 0.01442113
#
# Stress axis : x y z
#
# Youngs Moduli (GPa) = 87.36666 96.04157 79.36792
#
# Poissons Ratio (x) = 0.30466 0.23614
# Poissons Ratio (y) = 0.27714 0.30722
# Poissons Ratio (z) = 0.25994 0.37176
#
# Static dielectric constant tensor:
#      x y z
#    x 3.616330 0.000000 -0.145910 
#    y 0.000000 3.820900 0.000000 
#    z -0.145910 0.000000 3.649380 
# 
# 
# High freq. dielectric constant tensor:
#      x y z
#    x 1.761400 0.000000 -0.012000 
#    y 0.000000 1.793480 0.000000 
#    z -0.012000 0.000000 1.768610 
# 
# From -- ./inp_files/173008.got.cif
#   From: 2010.06.25/outbox.cif.g09.slc.cpg/sg15_87_cif.got.tgz:173008.got - 2010.06.28 07:06:18.
