data_PCOD8131517
_publ_section_title
;
Structure prediction by ZEFSAII (Michael W. Deem and Ramdas Pophale) SiO2 
 PCOD8131517
Probable space group: C 2/C
;
_chemical_formula_sum "Si O2"
_cell_formula_units_Z 56
_cell_length_a 15.198349
_cell_length_b 10.524937
_cell_length_c 31.414849
_cell_angle_alpha 90.000000
_cell_angle_beta 34.880669
_cell_angle_gamma 90.000000
_cell_volume 2873.740497
_symmetry_space_group_name_H-M "C 2/C"
_symmetry_group_IT_number 15
_symmetry_cell_setting 'monoclinic'
loop_
_space_group_symop_operation_xyz
x,y,z
-x,y,1/2-z
-x,-y,-z
x,-y,1/2+z
1/2+x,1/2+y,z
1/2-x,1/2+y,1/2-z
1/2-x,1/2-y,-z
1/2+x,1/2-y,1/2+z
loop_
_atom_site_type_symbol
_atom_site_label
_atom_site_fract_x
_atom_site_fract_y
_atom_site_fract_z
Si Si1 0.162854 0.033510 0.391705
Si Si2 0.023919 0.236274 0.949039
Si Si3 0.796074 0.351512 0.922813
Si Si4 0.579268 0.749345 0.018112
Si Si5 0.187151 0.539802 0.753789
Si Si6 0.877675 0.717594 0.181362
Si Si7 0.879831 0.605444 0.917212
O O1 0.268481 0.092151 0.386602
O O2 0.038654 0.135594 0.424601
O O3 0.068879 0.908979 0.444207
O O4 0.279213 0.991275 0.308476
O O5 0.116198 0.290640 0.872575
O O6 0.053217 0.311756 0.981573
O O7 0.843147 0.240867 0.008567
O O8 0.800584 0.468166 0.954499
O O9 0.956578 0.275857 0.861355
O O10 0.548214 0.856687 0.065833
O O11 0.757638 0.708239 0.949626
O O12 0.215316 0.409053 0.768721
O O13 0.296534 0.652088 0.727842
O O14 0.012722 0.589058 0.828798
#
# Coordination Sequence:
#
# PCOD8131517 Si02
#       7
#     8   8   8   8   8   8   8
#     4  10  18  34  60  83 117 142 196 250 279 337
#     4  10  18  35  57  88 113 144 193 250 286 334
#     4  10  18  35  57  90 106 147 196 248 288 338
#     4  10  18  33  56  85 113 151 190 237 286 344
#     4  10  22  38  55  89 117 158 190 242 296 344
#     4  10  22  36  58  84 122 153 194 242 293 350
#     4  10  19  31  54  84 114 143 194 232 283 346
#
# _framework density 19.486796999999999
#
# number of rings (size 3 to 8) (size 9 to 14) (size 15 to 20)
#    0.000    2.000    2.857    2.143    0.000    2.286 
#    0.000    2.857    0.000    3.429   26.000    0.000 
#    0.000    0.000    0.000    0.000    0.000    0.000 
#
# Total GULP energy -347099.978859 kJ/mol
# GULP energy per Si atom -12396.427816 kJ/mol
# Density = 1.944244 g / cm^3
# Si number density = 19.486797 Si / 1000 Ang^3
#
#
#
# Elastic Constant Matrix: (Units=GPa)
#
#
# Indices 1 2 3 4 5 6 
#
# 1 95.8020 36.2234 37.4934 0.0000 0.6238 0.0001
# 2 36.2234 81.1291 32.2303 0.0000 2.3825 0.0001
# 3 37.4934 32.2303 88.2814 -0.0002 3.8578 0.0001
# 4 0.0000 0.0000 -0.0002 32.2641 0.0000 1.1724
# 5 0.6238 2.3825 3.8578 0.0000 21.9762 0.0000
# 6 0.0001 0.0001 0.0001 1.1724 0.0000 33.0591
#
#
#
# Elastic Compliance Matrix: (Units=1/GPa)
#
#
# Indices 1 2 3 4 5 6 
#
# 1 0.013798 -0.004495 -0.004256 0.000000 0.000843 0.000000
# 2 -0.004495 0.015890 -0.003852 0.000000 -0.000919 0.000000
# 3 -0.004256 -0.003852 0.014630 0.000000 -0.002030 0.000000
# 4 0.000000 0.000000 0.000000 0.031034 0.000000 -0.001101
# 5 0.000843 -0.000919 -0.002030 0.000000 0.045936 0.000000
# 6 0.000000 0.000000 0.000000 -0.001101 0.000000 0.030288
#
#
# Mechanical properties :
#
#
# Convention : Reuss Voigt Hill
#
# Bulk Modulus (GPa) = 52.32176 53.01188 52.66682
# Shear Modulus (GPa) = 27.29971 28.07757 27.68864
#
# Velocity S-wave (km/s) = 3.74697 3.79997 3.77356
# Velocity P-wave (km/s) = 6.75484 6.82027 6.78763
#
# Compressibility (1/GPa) = 0.01911251
#
# Stress axis : x y z
#
# Youngs Moduli (GPa) = 72.47575 62.93186 68.35270
#
# Poissons Ratio (x) = 0.28285 0.29090
# Poissons Ratio (y) = 0.32575 0.26331
# Poissons Ratio (z) = 0.30845 0.24243
#
# Static dielectric constant tensor:
#      x y z
#    x 3.590020 0.000000 -0.046510 
#    y 0.000000 3.493100 0.000000 
#    z -0.046510 0.000000 3.636640 
# 
# 
# High freq. dielectric constant tensor:
#      x y z
#    x 1.755720 0.000000 0.000280 
#    y 0.000000 1.738540 0.000000 
#    z 0.000280 0.000000 1.764340 
# 
# From -- ./inp_files/313734.got.cif
#   From: 2010.06.25/outbox.cif.g09.slc.cpg/sg15_157_cif.got.tgz:313734.got - 2010.06.28 07:06:18.
