data_PCOD8131461
_publ_section_title
;
Structure prediction by ZEFSAII (Michael W. Deem and Ramdas Pophale) SiO2 
 PCOD8131461
Probable space group: C 2/C
;
_chemical_formula_sum "Si O2"
_cell_formula_units_Z 48
_cell_length_a 14.002632
_cell_length_b 16.351061
_cell_length_c 22.100073
_cell_angle_alpha 90.000000
_cell_angle_beta 148.105167
_cell_angle_gamma 90.000000
_cell_volume 2673.503210
_symmetry_space_group_name_H-M "C 2/C"
_symmetry_group_IT_number 15
_symmetry_cell_setting 'monoclinic'
loop_
_space_group_symop_operation_xyz
x,y,z
-x,y,1/2-z
-x,-y,-z
x,-y,1/2+z
1/2+x,1/2+y,z
1/2-x,1/2+y,1/2-z
1/2-x,1/2-y,-z
1/2+x,1/2-y,1/2+z
loop_
_atom_site_type_symbol
_atom_site_label
_atom_site_fract_x
_atom_site_fract_y
_atom_site_fract_z
Si Si1 0.005435 0.464766 0.322580
Si Si2 0.667889 0.709394 0.174198
Si Si3 0.658316 0.269444 0.534870
Si Si4 0.557132 0.140828 0.386597
Si Si5 0.228701 0.167145 0.672900
Si Si6 0.778448 0.823920 0.468972
O O1 0.062405 0.542814 0.393166
O O2 0.159394 0.400588 0.424074
O O3 0.000000 0.492513 0.250000
O O4 0.807052 0.424225 0.227813
O O5 0.663624 0.756315 0.107573
O O6 0.658378 0.774008 0.222862
O O7 0.844689 0.655305 0.270622
O O8 0.491053 0.651739 0.084652
O O9 0.647950 0.183359 0.493843
O O10 0.836529 0.321776 0.613855
O O11 0.484357 0.327109 0.426363
O O12 0.272695 0.197632 0.628275
O O13 0.750000 0.750000 0.500000
#
# Coordination Sequence:
#
# PCOD8131461 Si02
#       6
#     8   8   8   8   8   8
#     4  10  19  32  51  79 106 130 166 216 254 294
#     4  10  18  33  54  74  99 139 172 202 253 305
#     4   9  19  34  53  75 101 139 170 206 249 308
#     4  10  20  34  52  78 104 132 173 210 251 299
#     4   9  19  32  52  77 100 132 173 210 248 304
#     4  10  19  32  53  78 101 135 170 209 255 301
#
# _framework density 17.953970999999999
#
# number of rings (size 3 to 8) (size 9 to 14) (size 15 to 20)
#    0.000    2.333    1.667    1.500    0.000    1.333 
#    0.000    5.833    0.000    0.000    8.667    0.000 
#    0.000    0.000    0.000    0.000    0.000    0.000 
#
# Total GULP energy -297383.800400 kJ/mol
# GULP energy per Si atom -12390.991683 kJ/mol
# Density = 1.791311 g / cm^3
# Si number density = 17.953971 Si / 1000 Ang^3
#
#
#
# Elastic Constant Matrix: (Units=GPa)
#
#
# Indices 1 2 3 4 5 6 
#
# 1 76.0075 51.7844 36.7091 -0.0001 1.2972 0.0000
# 2 51.7844 132.8269 50.9537 0.0001 -1.5558 0.0000
# 3 36.7091 50.9537 84.1415 -0.0001 4.8573 -0.0001
# 4 -0.0001 0.0001 -0.0001 19.1802 -0.0001 6.0399
# 5 1.2972 -1.5558 4.8573 -0.0001 30.2174 -0.0001
# 6 0.0000 0.0000 -0.0001 6.0399 -0.0001 13.4928
#
#
#
# Elastic Compliance Matrix: (Units=1/GPa)
#
#
# Indices 1 2 3 4 5 6 
#
# 1 0.019448 -0.005651 -0.005045 0.000000 -0.000315 0.000000
# 2 -0.005651 0.011514 -0.004598 0.000000 0.001575 0.000000
# 3 -0.005045 -0.004598 0.017029 0.000000 -0.002758 0.000000
# 4 0.000000 0.000000 0.000000 0.060693 0.000000 -0.027169
# 5 -0.000315 0.001575 -0.002758 0.000000 0.033631 0.000000
# 6 0.000000 0.000000 0.000000 -0.027169 0.000000 0.086275
#
#
# Mechanical properties :
#
#
# Convention : Reuss Voigt Hill
#
# Bulk Modulus (GPa) = 57.45683 63.54116 60.49900
# Shear Modulus (GPa) = 18.86938 22.81333 20.84136
#
# Velocity S-wave (km/s) = 3.24541 3.56849 3.41078
# Velocity P-wave (km/s) = 6.79083 7.24202 7.02005
#
# Compressibility (1/GPa) = 0.01740437
#
# Stress axis : x y z
#
# Youngs Moduli (GPa) = 51.41851 86.85155 58.72205
#
# Poissons Ratio (x) = 0.49076 0.29624
# Poissons Ratio (y) = 0.29055 0.27001
# Poissons Ratio (z) = 0.25940 0.39936
#
# Static dielectric constant tensor:
#      x y z
#    x 3.501240 0.000000 0.143870 
#    y 0.000000 3.080760 0.000000 
#    z 0.143870 0.000000 3.553130 
# 
# 
# High freq. dielectric constant tensor:
#      x y z
#    x 1.698880 0.000000 0.014050 
#    y 0.000000 1.661420 0.000000 
#    z 0.014050 0.000000 1.709910 
# 
# From -- ./inp_files/96208.got.cif
#   From: 2010.06.25/outbox.cif.g09.slc.cpg/sg15_49_cif.got.tgz:96208.got - 2010.06.28 07:06:18.
