data_PCOD8131520
_publ_section_title
;
Structure prediction by ZEFSAII (Michael W. Deem and Ramdas Pophale) SiO2 
 PCOD8131520
Probable space group: C 2/C
;
_chemical_formula_sum "Si O2"
_cell_formula_units_Z 52
_cell_length_a 18.772812
_cell_length_b 5.276161
_cell_length_c 23.675981
_cell_angle_alpha 90.000000
_cell_angle_beta 74.425946
_cell_angle_gamma 90.000000
_cell_volume 2258.966607
_symmetry_space_group_name_H-M "C 2/C"
_symmetry_group_IT_number 15
_symmetry_cell_setting 'monoclinic'
loop_
_space_group_symop_operation_xyz
x,y,z
-x,y,1/2-z
-x,-y,-z
x,-y,1/2+z
1/2+x,1/2+y,z
1/2-x,1/2+y,1/2-z
1/2-x,1/2-y,-z
1/2+x,1/2-y,1/2+z
loop_
_atom_site_type_symbol
_atom_site_label
_atom_site_fract_x
_atom_site_fract_y
_atom_site_fract_z
Si Si1 0.593884 0.250992 0.824765
Si Si2 0.329224 0.744608 0.514301
Si Si3 0.336620 0.244756 0.465079
Si Si4 0.361868 0.755575 0.635819
Si Si5 0.792558 0.192958 0.292165
Si Si6 0.355571 0.184241 0.330015
Si Si7 0.000000 0.524556 0.750000
O O1 0.585763 0.514339 0.861096
O O2 0.673131 0.256812 0.776546
O O3 0.590488 0.013182 0.868682
O O4 0.529316 0.214456 0.792421
O O5 0.250000 0.750000 0.500000
O O6 0.373697 0.496637 0.483785
O O7 0.323416 0.735087 0.583030
O O8 0.373327 0.996776 0.485975
O O9 0.250000 0.250000 0.500000
O O10 0.354032 0.245695 0.395942
O O11 0.295684 0.778260 0.695583
O O12 0.817783 0.411686 0.330189
O O13 0.813698 0.914584 0.309205
O O14 0.438076 0.165058 0.287261
#
# Coordination Sequence:
#
# PCOD8131520 Si02
#       7
#     8   8   8   8   8   8   4
#     4  11  24  39  61  87 127 171 215 266 312 389
#     4  10  20  34  56  87 123 155 197 250 325 398
#     4  10  18  33  56  89 119 155 202 259 320 369
#     4  12  22  38  62  94 129 162 205 273 340 384
#     4  11  21  37  59  94 127 160 203 265 343 391
#     4  11  22  38  65  91 128 167 214 268 311 394
#     4  10  26  46  64  92 128 184 234 256 316 390
#
# _framework density 23.019376000000001
#
# number of rings (size 3 to 8) (size 9 to 14) (size 15 to 20)
#    0.000    1.231    0.000    9.231    0.000    5.538 
#    0.000    0.000    0.000    5.538    0.000    0.000 
#    0.000    0.000    0.000    0.000    0.000    0.000 
#
# Total GULP energy -322286.242131 kJ/mol
# GULP energy per Si atom -12395.624697 kJ/mol
# Density = 2.296698 g / cm^3
# Si number density = 23.019376 Si / 1000 Ang^3
#
#
#
# Elastic Constant Matrix: (Units=GPa)
#
#
# Indices 1 2 3 4 5 6 
#
# 1 63.2494 32.8435 12.2818 -0.0012 12.5019 0.0032
# 2 32.8435 215.7339 51.0168 -0.0100 17.6834 0.0112
# 3 12.2818 51.0168 103.5477 -0.0099 22.7103 0.0009
# 4 -0.0012 -0.0100 -0.0099 39.4016 -0.0007 9.1773
# 5 12.5019 17.6834 22.7103 -0.0007 35.9037 0.0024
# 6 0.0032 0.0112 0.0009 9.1773 0.0024 18.6735
#
#
#
# Elastic Compliance Matrix: (Units=1/GPa)
#
#
# Indices 1 2 3 4 5 6 
#
# 1 0.018035 -0.002357 0.000168 0.000000 -0.005225 -0.000001
# 2 -0.002357 0.005593 -0.002382 0.000002 -0.000427 -0.000004
# 3 0.000168 -0.002382 0.012269 0.000002 -0.006646 0.000001
# 4 0.000000 0.000002 0.000002 0.028660 -0.000001 -0.014086
# 5 -0.005225 -0.000427 -0.006646 -0.000001 0.034086 -0.000003
# 6 -0.000001 -0.000004 0.000001 -0.014086 -0.000003 0.060474
#
#
# Mechanical properties :
#
#
# Convention : Reuss Voigt Hill
#
# Bulk Modulus (GPa) = 37.37808 63.86837 50.62322
# Shear Modulus (GPa) = 28.22054 37.88836 33.05445
#
# Velocity S-wave (km/s) = 3.50515 4.06141 3.79349
# Velocity P-wave (km/s) = 5.71440 7.05685 6.42081
#
# Compressibility (1/GPa) = 0.02675365
#
# Stress axis : x y z
#
# Youngs Moduli (GPa) = 55.44920 178.81056 81.50868
#
# Poissons Ratio (x) = 0.42147 -0.01371
# Poissons Ratio (y) = 0.13070 0.19417
# Poissons Ratio (z) = -0.00933 0.42596
#
# Static dielectric constant tensor:
#      x y z
#    x 3.634830 0.000180 0.030060 
#    y 0.000180 6.830250 0.000110 
#    z 0.030060 0.000110 3.998980 
# 
# 
# High freq. dielectric constant tensor:
#      x y z
#    x 1.852310 0.000000 0.014840 
#    y 0.000000 1.949230 0.000000 
#    z 0.014840 0.000000 1.907070 
# 
# From -- ./inp_files/251037.got.cif
#   From: 2010.06.25/outbox.cif.g09.slc.cpg/sg15_126_cif.got.tgz:251037.got - 2010.06.28 07:06:18.
