data_PCOD8131911
_publ_section_title
;
Structure prediction by ZEFSAII (Michael W. Deem and Ramdas Pophale) SiO2 
 PCOD8131911
Probable space group: C 2/C
;
_chemical_formula_sum "Si O2"
_cell_formula_units_Z 56
_cell_length_a 22.855525
_cell_length_b 20.034537
_cell_length_c 9.407238
_cell_angle_alpha 90.000000
_cell_angle_beta 48.674761
_cell_angle_gamma 90.000000
_cell_volume 3234.872410
_symmetry_space_group_name_H-M "C 2/C"
_symmetry_group_IT_number 15
_symmetry_cell_setting 'monoclinic'
loop_
_space_group_symop_operation_xyz
x,y,z
-x,y,1/2-z
-x,-y,-z
x,-y,1/2+z
1/2+x,1/2+y,z
1/2-x,1/2+y,1/2-z
1/2-x,1/2-y,-z
1/2+x,1/2-y,1/2+z
loop_
_atom_site_type_symbol
_atom_site_label
_atom_site_fract_x
_atom_site_fract_y
_atom_site_fract_z
Si Si1 0.166898 0.333447 0.978193
Si Si2 0.229830 0.844282 0.421762
Si Si3 0.572191 0.285823 0.721776
Si Si4 0.087945 0.469514 0.160121
Si Si5 0.137603 0.575519 0.873576
Si Si6 0.930120 0.723090 0.472948
Si Si7 0.269996 0.739083 0.128412
O O1 0.225485 0.327934 0.750289
O O2 0.215892 0.315139 0.040693
O O3 0.098106 0.279113 0.089159
O O4 0.133410 0.407047 0.022435
O O5 0.139731 0.843684 0.618323
O O6 0.269683 0.915469 0.313273
O O7 0.232959 0.798446 0.278833
O O8 0.500000 0.316868 0.750000
O O9 0.546905 0.262963 0.920845
O O10 0.094536 0.468044 0.320516
O O11 0.000000 0.467323 0.250000
O O12 0.128161 0.537079 0.037328
O O13 0.097472 0.648216 0.944592
O O14 0.862275 0.764743 0.503765
O O15 0.000000 0.719391 0.250000
O O16 0.250000 0.750000 0.000000
#
# Coordination Sequence:
#
# PCOD8131911 Si02
#       7
#     8   8   8   8   8   8   8
#     4  10  18  35  53  67 104 147 175 203 249 319
#     4   9  18  37  53  68 103 141 175 210 258 312
#     4  11  19  33  56  79  99 139 177 209 263 322
#     4  11  21  33  51  76 104 138 181 209 245 304
#     4  10  22  36  51  71 106 147 171 214 251 301
#     4  11  22  34  48  77 112 134 169 221 265 298
#     4  10  19  30  49  74 100 135 172 215 258 303
#
# _framework density 17.311347999999999
#
# number of rings (size 3 to 8) (size 9 to 14) (size 15 to 20)
#    0.000    1.714    5.714    2.143    4.000    2.286 
#    0.000    0.000    0.000    0.000    0.000    5.000 
#    0.000    0.000    0.000    0.000    0.000    0.000 
#
# Total GULP energy -346983.411572 kJ/mol
# GULP energy per Si atom -12392.264699 kJ/mol
# Density = 1.727195 g / cm^3
# Si number density = 17.311348 Si / 1000 Ang^3
#
#
#
# Elastic Constant Matrix: (Units=GPa)
#
#
# Indices 1 2 3 4 5 6 
#
# 1 86.4992 24.0458 46.9201 0.0000 -2.5718 0.0000
# 2 24.0458 40.9681 30.4456 0.0000 -4.3905 0.0000
# 3 46.9201 30.4456 115.8136 0.0000 3.0524 0.0000
# 4 0.0000 0.0000 0.0000 31.1675 0.0000 -1.2871
# 5 -2.5718 -4.3905 3.0524 0.0000 32.0541 0.0000
# 6 0.0000 0.0000 0.0000 -1.2871 0.0000 10.3457
#
#
#
# Elastic Compliance Matrix: (Units=1/GPa)
#
#
# Indices 1 2 3 4 5 6 
#
# 1 0.015821 -0.005464 -0.005000 0.000000 0.000997 0.000000
# 2 -0.005464 0.033019 -0.006591 0.000000 0.004712 0.000000
# 3 -0.005000 -0.006591 0.012458 0.000000 -0.002490 0.000000
# 4 0.000000 0.000000 0.000000 0.032250 0.000000 0.004012
# 5 0.000997 0.004712 -0.002490 0.000000 0.032160 0.000000
# 6 0.000000 0.000000 0.000000 0.004012 0.000000 0.097158
#
#
# Mechanical properties :
#
#
# Convention : Reuss Voigt Hill
#
# Bulk Modulus (GPa) = 36.77798 49.56710 43.17254
# Shear Modulus (GPa) = 18.79425 24.17142 21.48284
#
# Velocity S-wave (km/s) = 3.29851 3.74073 3.52656
# Velocity P-wave (km/s) = 5.98315 6.88130 6.44788
#
# Compressibility (1/GPa) = 0.02719018
#
# Stress axis : x y z
#
# Youngs Moduli (GPa) = 63.20581 30.28553 80.26729
#
# Poissons Ratio (x) = 0.16547 0.40131
# Poissons Ratio (y) = 0.34534 0.52903
# Poissons Ratio (z) = 0.31601 0.19961
#
# Static dielectric constant tensor:
#      x y z
#    x 3.258180 0.000000 -0.195060 
#    y 0.000000 3.074360 0.000000 
#    z -0.195060 0.000000 3.847430 
# 
# 
# High freq. dielectric constant tensor:
#      x y z
#    x 1.668270 0.000000 0.003820 
#    y 0.000000 1.623820 0.000000 
#    z 0.003820 0.000000 1.680580 
# 
# From -- ./inp_files/58442.got.cif
#   From: 2010.06.25/outbox.cif.g09.slc.cpg/sg15_30_cif.got.tgz:58442.got - 2010.06.28 07:06:18.
