data_PCOD8131882
_publ_section_title
;
Structure prediction by ZEFSAII (Michael W. Deem and Ramdas Pophale) SiO2 
 PCOD8131882
Probable space group: C 2/C
;
_chemical_formula_sum "Si O2"
_cell_formula_units_Z 60
_cell_length_a 17.071434
_cell_length_b 9.267044
_cell_length_c 22.682344
_cell_angle_alpha 90.000000
_cell_angle_beta 128.149381
_cell_angle_gamma 90.000000
_cell_volume 2821.917315
_symmetry_space_group_name_H-M "C 2/C"
_symmetry_group_IT_number 15
_symmetry_cell_setting 'monoclinic'
loop_
_space_group_symop_operation_xyz
x,y,z
-x,y,1/2-z
-x,-y,-z
x,-y,1/2+z
1/2+x,1/2+y,z
1/2-x,1/2+y,1/2-z
1/2-x,1/2-y,-z
1/2+x,1/2-y,1/2+z
loop_
_atom_site_type_symbol
_atom_site_label
_atom_site_fract_x
_atom_site_fract_y
_atom_site_fract_z
Si Si1 0.806935 0.813606 0.600303
Si Si2 0.888485 0.612229 0.542370
Si Si3 0.377851 0.175281 0.095133
Si Si4 0.500000 0.040892 0.250000
Si Si5 0.587110 0.714479 0.132011
Si Si6 0.299603 0.574106 0.415101
Si Si7 0.429957 0.485751 0.078830
Si Si8 0.162108 0.645705 0.778559
O O1 0.837680 0.666691 0.580082
O O2 0.688540 0.843524 0.544692
O O3 0.839563 0.789627 0.682524
O O4 0.864504 0.947639 0.600353
O O5 0.898873 0.441174 0.553838
O O6 0.994500 0.680372 0.577010
O O7 0.430348 0.144166 0.181095
O O8 0.262649 0.165911 0.063804
O O9 0.427951 0.317177 0.091762
O O10 0.442153 0.938123 0.268673
O O11 0.647041 0.694702 0.099623
O O12 0.540079 0.559268 0.131105
O O13 0.666473 0.788689 0.214455
O O14 0.380155 0.484272 0.491311
O O15 0.246372 0.462925 0.344193
#
# Coordination Sequence:
#
# PCOD8131882 Si02
#       8
#     8   8   8   4   8   8   8   8
#     4  10  18  34  64  96 117 164 225 262 291 377
#     4  10  18  36  65  92 119 169 218 253 307 389
#     4  11  21  39  68  92 129 165 214 263 330 372
#     4  10  18  36  64  88 118 168 212 258 314 378
#     4  11  24  41  65  93 127 169 215 257 320 393
#     4  11  23  43  64  92 134 171 200 266 336 374
#     4  11  23  39  68 100 127 160 222 271 313 371
#     4  11  20  40  64  89 127 172 214 258 320 388
#
# _framework density 21.262138
#
# number of rings (size 3 to 8) (size 9 to 14) (size 15 to 20)
#    0.000    1.333    5.333    3.200    0.000    1.067 
#    7.200    0.667    0.000    0.000    0.000    0.000 
#    0.000    0.000    0.000    0.000    0.000    0.000 
#
# Total GULP energy -371720.464998 kJ/mol
# GULP energy per Si atom -12390.682167 kJ/mol
# Density = 2.121374 g / cm^3
# Si number density = 21.262138 Si / 1000 Ang^3
#
#
#
# Elastic Constant Matrix: (Units=GPa)
#
#
# Indices 1 2 3 4 5 6 
#
# 1 73.5046 34.2005 18.3529 0.0000 -7.3109 0.0000
# 2 34.2005 124.9046 7.8711 0.0000 -5.1978 0.0000
# 3 18.3529 7.8711 46.2743 0.0000 1.3086 0.0000
# 4 0.0000 0.0000 0.0000 7.2641 0.0000 -7.7126
# 5 -7.3109 -5.1978 1.3086 0.0000 17.8792 0.0000
# 6 0.0000 0.0000 0.0000 -7.7126 0.0000 23.0958
#
#
#
# Elastic Compliance Matrix: (Units=1/GPa)
#
#
# Indices 1 2 3 4 5 6 
#
# 1 0.017846 -0.004201 -0.006549 0.000000 0.006556 0.000000
# 2 -0.004201 0.009191 0.000076 0.000000 0.000949 0.000000
# 3 -0.006549 0.000076 0.024320 0.000000 -0.004436 0.000000
# 4 0.000000 0.000000 0.000000 0.213286 0.000000 0.071225
# 5 0.006556 0.000949 -0.004436 0.000000 0.059212 0.000000
# 6 0.000000 0.000000 0.000000 0.071225 0.000000 0.067083
#
#
# Mechanical properties :
#
#
# Convention : Reuss Voigt Hill
#
# Bulk Modulus (GPa) = 33.32251 40.61471 36.96861
# Shear Modulus (GPa) = 11.84022 21.93176 16.88599
#
# Velocity S-wave (km/s) = 2.36237 3.21517 2.82118
# Velocity P-wave (km/s) = 4.81116 5.73816 5.29499
#
# Compressibility (1/GPa) = 0.03000974
#
# Stress axis : x y z
#
# Youngs Moduli (GPa) = 56.03346 108.80076 41.11811
#
# Poissons Ratio (x) = 0.45708 0.26928
# Poissons Ratio (y) = 0.23540 -0.00313
# Poissons Ratio (z) = 0.36696 -0.00827
#
# Static dielectric constant tensor:
#      x y z
#    x 3.650440 0.000000 0.194840 
#    y 0.000000 3.732250 0.000000 
#    z 0.194840 0.000000 3.867580 
# 
# 
# High freq. dielectric constant tensor:
#      x y z
#    x 1.804760 0.000000 0.015880 
#    y 0.000000 1.829820 0.000000 
#    z 0.015880 0.000000 1.838060 
# 
# From -- ./inp_files/247847.got.cif
#   From: 2010.06.25/outbox.cif.g09.slc.cpg/sg15_124_cif.got.tgz:247847.got - 2010.06.28 07:06:18.
