data_PCOD8131742
_publ_section_title
;
Structure prediction by ZEFSAII (Michael W. Deem and Ramdas Pophale) SiO2 
 PCOD8131742
Probable space group: C 2/C
;
_chemical_formula_sum "Si O2"
_cell_formula_units_Z 60
_cell_length_a 21.054812
_cell_length_b 11.670258
_cell_length_c 13.410718
_cell_angle_alpha 90.000000
_cell_angle_beta 79.375982
_cell_angle_gamma 90.000000
_cell_volume 3238.729667
_symmetry_space_group_name_H-M "C 2/C"
_symmetry_group_IT_number 15
_symmetry_cell_setting 'monoclinic'
loop_
_space_group_symop_operation_xyz
x,y,z
-x,y,1/2-z
-x,-y,-z
x,-y,1/2+z
1/2+x,1/2+y,z
1/2-x,1/2+y,1/2-z
1/2-x,1/2-y,-z
1/2+x,1/2-y,1/2+z
loop_
_atom_site_type_symbol
_atom_site_label
_atom_site_fract_x
_atom_site_fract_y
_atom_site_fract_z
Si Si1 0.191820 0.003791 0.033892
Si Si2 0.873172 0.830265 0.317772
Si Si3 0.369284 0.313974 0.095404
Si Si4 0.397887 0.955552 0.001475
Si Si5 0.500000 0.801475 0.750000
Si Si6 0.298613 0.109323 0.374216
Si Si7 0.798508 0.425634 0.649277
Si Si8 0.479135 0.841208 0.543050
O O1 0.232146 0.066838 0.108229
O O2 0.133943 0.935964 0.104574
O O3 0.161405 0.100974 0.974140
O O4 0.235011 0.915051 0.957636
O O5 0.867827 0.872391 0.204634
O O6 0.943200 0.775224 0.314458
O O7 0.813608 0.744120 0.359535
O O8 0.330703 0.194698 0.111642
O O9 0.443490 0.281988 0.041015
O O10 0.361606 0.949119 0.905811
O O11 0.444079 0.843773 0.006846
O O12 0.345318 0.968956 0.104102
O O13 0.444091 0.066162 0.983522
O O14 0.472664 0.875189 0.664393
O O15 0.286135 0.056113 0.269297
#
# Coordination Sequence:
#
# PCOD8131742 Si02
#       8
#     8   8   8   8   4   8   8   8
#     4  11  20  33  54  82 109 143 178 230 272 331
#     4  10  20  34  53  79 100 144 188 223 269 319
#     4   9  19  34  53  78 105 142 182 215 277 334
#     4   9  17  29  53  82 104 133 182 220 266 318
#     4  10  18  34  58  74 108 146 186 226 254 328
#     4  10  19  34  53  81 113 137 178 231 275 324
#     4   9  19  33  53  82 108 141 177 221 280 333
#     4   9  17  31  51  81 105 138 179 222 262 321
#
# _framework density 18.525782
#
# number of rings (size 3 to 8) (size 9 to 14) (size 15 to 20)
#    0.000    2.400    1.333    2.400    0.000    0.000 
#    0.000    2.667    0.000    3.200    6.933    0.000 
#    0.000    0.000    0.000    0.000    0.000    0.000 
#
# Total GULP energy -371716.112541 kJ/mol
# GULP energy per Si atom -12390.537085 kJ/mol
# Density = 1.848362 g / cm^3
# Si number density = 18.525782 Si / 1000 Ang^3
#
#
#
# Elastic Constant Matrix: (Units=GPa)
#
#
# Indices 1 2 3 4 5 6 
#
# 1 87.4673 38.5463 49.9615 0.0000 3.9407 0.0000
# 2 38.5463 52.5225 46.1191 0.0000 -2.8820 0.0000
# 3 49.9615 46.1191 105.7484 0.0000 10.9720 0.0000
# 4 0.0000 0.0000 0.0000 30.1380 0.0000 0.7694
# 5 3.9407 -2.8820 10.9720 0.0000 31.1484 0.0000
# 6 0.0000 0.0000 0.0000 0.7694 0.0000 26.7216
#
#
#
# Elastic Compliance Matrix: (Units=1/GPa)
#
#
# Indices 1 2 3 4 5 6 
#
# 1 0.018203 -0.009827 -0.004132 0.000000 -0.001757 0.000000
# 2 -0.009827 0.038146 -0.012962 0.000000 0.009339 0.000000
# 3 -0.004132 -0.012962 0.017782 0.000000 -0.006940 0.000000
# 4 0.000000 0.000000 0.000000 0.033205 0.000000 -0.000956
# 5 -0.001757 0.009339 -0.006940 0.000000 0.035635 0.000000
# 6 0.000000 0.000000 0.000000 -0.000956 0.000000 0.037450
#
#
# Mechanical properties :
#
#
# Convention : Reuss Voigt Hill
#
# Bulk Modulus (GPa) = 49.29080 57.22130 53.25605
# Shear Modulus (GPa) = 20.74449 25.00901 22.87675
#
# Velocity S-wave (km/s) = 3.34992 3.67816 3.51787
# Velocity P-wave (km/s) = 6.45189 6.99950 6.73127
#
# Compressibility (1/GPa) = 0.02028776
#
# Stress axis : x y z
#
# Youngs Moduli (GPa) = 54.93584 26.21491 56.23745
#
# Poissons Ratio (x) = 0.25763 0.23237
# Poissons Ratio (y) = 0.53988 0.72896
# Poissons Ratio (z) = 0.22699 0.33980
#
# Static dielectric constant tensor:
#      x y z
#    x 3.614150 0.000000 0.018470 
#    y 0.000000 3.102530 0.000000 
#    z 0.018470 0.000000 3.508790 
# 
# 
# High freq. dielectric constant tensor:
#      x y z
#    x 1.730650 0.000000 0.008680 
#    y 0.000000 1.678210 0.000000 
#    z 0.008680 0.000000 1.717340 
# 
# From -- ./inp_files/117519.got.cif
#   From: 2010.06.25/outbox.cif.g09.slc.cpg/sg15_59_cif.got.tgz:117519.got - 2010.06.28 07:06:18.
