data_PCOD8131478
_publ_section_title
;
Structure prediction by ZEFSAII (Michael W. Deem and Ramdas Pophale) SiO2 
 PCOD8131478
Probable space group: C 2/C
;
_chemical_formula_sum "Si O2"
_cell_formula_units_Z 60
_cell_length_a 25.011994
_cell_length_b 25.449281
_cell_length_c 16.169760
_cell_angle_alpha 90.000000
_cell_angle_beta 162.990380
_cell_angle_gamma 90.000000
_cell_volume 3010.933615
_symmetry_space_group_name_H-M "C 2/C"
_symmetry_group_IT_number 15
_symmetry_cell_setting 'monoclinic'
loop_
_space_group_symop_operation_xyz
x,y,z
-x,y,1/2-z
-x,-y,-z
x,-y,1/2+z
1/2+x,1/2+y,z
1/2-x,1/2+y,1/2-z
1/2-x,1/2-y,-z
1/2+x,1/2-y,1/2+z
loop_
_atom_site_type_symbol
_atom_site_label
_atom_site_fract_x
_atom_site_fract_y
_atom_site_fract_z
Si Si1 0.904260 0.405147 0.528763
Si Si2 0.067940 0.836388 0.028879
Si Si3 0.000000 0.871346 0.750000
Si Si4 0.602023 0.353731 0.561377
Si Si5 0.215297 0.651435 0.412107
Si Si6 0.695781 0.736472 0.075586
Si Si7 0.685573 0.046692 0.767252
Si Si8 0.300109 0.934156 0.749214
O O1 0.698206 0.386322 0.238442
O O2 0.905104 0.447607 0.457628
O O3 0.000000 0.431776 0.750000
O O4 0.028555 0.354843 0.686870
O O5 0.178228 0.783573 0.209430
O O6 0.002434 0.835601 0.836160
O O7 0.892931 0.843295 0.831580
O O8 0.823148 0.907609 0.493676
O O9 0.685577 0.304407 0.636286
O O10 0.706388 0.408817 0.693093
O O11 0.386195 0.355906 0.224804
O O12 0.203631 0.708423 0.352781
O O13 0.243614 0.607882 0.384787
O O14 0.500000 0.755161 0.750000
O O15 0.517118 0.053438 0.582767
O O16 0.784446 0.989691 0.908798
#
# Coordination Sequence:
#
# PCOD8131478 Si02
#       8
#     8   8   4   8   8   8   8   8
#     4  10  18  33  54  83 116 146 186 244 291 345
#     4  11  22  37  56  79 119 156 198 242 283 344
#     4  10  24  42  56  80 114 164 204 230 280 352
#     4  10  20  34  57  91 116 144 196 248 298 347
#     4   9  18  32  56  87 119 143 183 243 309 348
#     4   9  20  33  57  88 115 147 187 244 310 350
#     4   9  20  37  62  81 114 156 192 227 296 342
#     4   9  18  37  59  87 113 151 186 240 294 349
#
# _framework density 19.927374
#
# number of rings (size 3 to 8) (size 9 to 14) (size 15 to 20)
#    0.000    2.400    1.333    1.600    3.733    1.067 
#    0.000    8.000    0.000    0.000    0.000    0.000 
#    0.000    0.000    0.000    0.000    0.000    0.000 
#
# Total GULP energy -371723.233861 kJ/mol
# GULP energy per Si atom -12390.774462 kJ/mol
# Density = 1.988202 g / cm^3
# Si number density = 19.927374 Si / 1000 Ang^3
#
#
#
# Elastic Constant Matrix: (Units=GPa)
#
#
# Indices 1 2 3 4 5 6 
#
# 1 117.3800 36.7581 36.9682 0.0000 -1.0558 0.0000
# 2 36.7581 98.0115 28.4096 0.0000 -4.1244 0.0000
# 3 36.9682 28.4096 57.5259 -0.0002 -11.7968 -0.0001
# 4 0.0000 0.0000 -0.0002 21.0234 -0.0001 9.0757
# 5 -1.0558 -4.1244 -11.7968 -0.0001 30.7371 0.0000
# 6 0.0000 0.0000 -0.0001 9.0757 0.0000 16.4525
#
#
#
# Elastic Compliance Matrix: (Units=1/GPa)
#
#
# Indices 1 2 3 4 5 6 
#
# 1 0.011337 -0.002448 -0.006582 0.000000 -0.002465 0.000000
# 2 -0.002448 0.012450 -0.004614 0.000000 -0.000184 0.000000
# 3 -0.006582 -0.004614 0.025745 0.000000 0.009036 0.000000
# 4 0.000000 0.000000 0.000000 0.062434 0.000000 -0.034440
# 5 -0.002465 -0.000184 0.009036 0.000000 0.035892 0.000000
# 6 0.000000 0.000000 0.000000 -0.034440 0.000000 0.079780
#
#
# Mechanical properties :
#
#
# Convention : Reuss Voigt Hill
#
# Bulk Modulus (GPa) = 44.95339 53.02101 48.98720
# Shear Modulus (GPa) = 19.05931 25.02804 22.04367
#
# Velocity S-wave (km/s) = 3.09599 3.54780 3.32957
# Velocity P-wave (km/s) = 5.94876 6.59147 6.27834
#
# Compressibility (1/GPa) = 0.02224526
#
# Stress axis : x y z
#
# Youngs Moduli (GPa) = 88.20970 80.31902 38.84282
#
# Poissons Ratio (x) = 0.19658 0.25567
# Poissons Ratio (y) = 0.21589 0.17921
# Poissons Ratio (z) = 0.58061 0.37056
#
# Static dielectric constant tensor:
#      x y z
#    x 3.984150 0.000000 0.125900 
#    y 0.000000 3.562880 0.000000 
#    z 0.125900 0.000000 3.454080 
# 
# 
# High freq. dielectric constant tensor:
#      x y z
#    x 1.785350 0.000000 0.012260 
#    y 0.000000 1.771630 0.000000 
#    z 0.012260 0.000000 1.747140 
# 
# From -- ./inp_files/174942.got.cif
#   From: 2010.06.25/outbox.cif.g09.slc.cpg/sg15_88_cif.got.tgz:174942.got - 2010.06.28 07:06:18.
