data_PCOD8131034
_publ_section_title
;
Structure prediction by ZEFSAII (Michael W. Deem and Ramdas Pophale) SiO2 
 PCOD8131034
Probable space group: C 2/C
;
_chemical_formula_sum "Si O2"
_cell_formula_units_Z 48
_cell_length_a 22.569982
_cell_length_b 12.963534
_cell_length_c 28.310024
_cell_angle_alpha 90.000000
_cell_angle_beta 162.620532
_cell_angle_gamma 90.000000
_cell_volume 2474.163344
_symmetry_space_group_name_H-M "C 2/C"
_symmetry_group_IT_number 15
_symmetry_cell_setting 'monoclinic'
loop_
_space_group_symop_operation_xyz
x,y,z
-x,y,1/2-z
-x,-y,-z
x,-y,1/2+z
1/2+x,1/2+y,z
1/2-x,1/2+y,1/2-z
1/2-x,1/2-y,-z
1/2+x,1/2-y,1/2+z
loop_
_atom_site_type_symbol
_atom_site_label
_atom_site_fract_x
_atom_site_fract_y
_atom_site_fract_z
Si Si1 0.421611 0.995068 0.040999
Si Si2 0.942339 0.948926 0.796727
Si Si3 0.120458 0.517108 0.886285
Si Si4 0.317421 0.128888 0.328002
Si Si5 0.565150 0.761932 0.250668
Si Si6 0.488631 0.218666 0.551893
O O1 0.427123 0.034981 0.099562
O O2 0.515377 0.880468 0.106876
O O3 0.544105 0.078727 0.105544
O O4 0.193951 0.989801 0.849876
O O5 0.823131 0.960797 0.755560
O O6 0.977372 0.824013 0.821444
O O7 0.152051 0.004988 0.954728
O O8 0.000000 0.470947 0.750000
O O9 0.071161 0.637319 0.857016
O O10 0.454567 0.178454 0.472819
O O11 0.187518 0.215304 0.203077
O O12 0.500000 0.707323 0.250000
O O13 0.800675 0.787651 0.426935
#
# Coordination Sequence:
#
# PCOD8131034 Si02
#       6
#     8   8   8   8   8   8
#     4  10  20  36  53  75 107 145 176 206 255 319
#     4  10  18  31  50  75 106 142 169 199 253 325
#     4  11  20  30  47  78 108 136 171 215 259 306
#     4  10  20  35  54  79 106 138 176 214 257 311
#     4   9  16  27  45  73 107 138 162 195 250 320
#     4  10  19  33  52  78 109 141 174 209 253 311
#
# _framework density 19.400497999999999
#
# number of rings (size 3 to 8) (size 9 to 14) (size 15 to 20)
#    0.000    2.333    0.000    9.000    0.000    1.333 
#    0.000    9.167    0.000    0.000    0.000   16.333 
#    0.000    0.000    0.000    0.000    0.000    0.000 
#
# Total GULP energy -297407.569068 kJ/mol
# GULP energy per Si atom -12391.982044 kJ/mol
# Density = 1.935634 g / cm^3
# Si number density = 19.400498 Si / 1000 Ang^3
#
#
#
# Elastic Constant Matrix: (Units=GPa)
#
#
# Indices 1 2 3 4 5 6 
#
# 1 146.7891 23.8760 65.5223 0.0372 -7.0937 0.0539
# 2 23.8760 26.0727 34.0683 -0.3225 5.3702 -0.1205
# 3 65.5223 34.0683 116.0284 0.2644 -2.2173 0.0070
# 4 0.0372 -0.3225 0.2644 13.9910 -0.1162 9.1905
# 5 -7.0937 5.3702 -2.2173 -0.1162 19.6906 0.0092
# 6 0.0539 -0.1205 0.0070 9.1905 0.0092 22.3321
#
#
#
# Elastic Compliance Matrix: (Units=1/GPa)
#
#
# Indices 1 2 3 4 5 6 
#
# 1 0.009511 -0.004297 -0.004030 0.000023 0.004145 -0.000056
# 2 -0.004297 0.072295 -0.019253 0.002156 -0.023421 -0.000471
# 3 -0.004030 -0.019253 0.016658 -0.000869 0.005670 0.000256
# 4 0.000023 0.002156 -0.000869 0.098034 -0.000080 -0.040333
# 5 0.004145 -0.023421 0.005670 -0.000080 0.059304 -0.000130
# 6 -0.000056 -0.000471 0.000256 -0.040333 -0.000130 0.061375
#
#
# Mechanical properties :
#
#
# Convention : Reuss Voigt Hill
#
# Bulk Modulus (GPa) = 23.09301 59.53594 41.31447
# Shear Modulus (GPa) = 12.92755 22.23098 17.57927
#
# Velocity S-wave (km/s) = 2.58418 3.38878 3.01346
# Velocity P-wave (km/s) = 4.56433 6.78721 5.78357
#
# Compressibility (1/GPa) = 0.04330315
#
# Stress axis : x y z
#
# Youngs Moduli (GPa) = 105.14633 13.83213 60.03263
#
# Poissons Ratio (x) = 0.05944 0.24192
# Poissons Ratio (y) = 0.45186 1.15581
# Poissons Ratio (z) = 0.42371 0.26631
#
# Static dielectric constant tensor:
#      x y z
#    x 3.810640 0.000090 0.008160 
#    y 0.000090 2.908460 -0.000400 
#    z 0.008160 -0.000400 3.607670 
# 
# 
# High freq. dielectric constant tensor:
#      x y z
#    x 1.766670 0.000000 -0.002120 
#    y 0.000000 1.678080 -0.000040 
#    z -0.002120 -0.000040 1.761340 
# 
# From -- ./inp_files/301105.got.cif
#   From: 2010.06.25/outbox.cif.g09.slc.cpg/sg15_151_cif.got.tgz:301105.got - 2010.06.28 07:06:18.
