data_PCOD8131692
_publ_section_title
;
Structure prediction by ZEFSAII (Michael W. Deem and Ramdas Pophale) SiO2 
 PCOD8131692
Probable space group: C 2/C
;
_chemical_formula_sum "Si O2"
_cell_formula_units_Z 48
_cell_length_a 24.929876
_cell_length_b 8.630381
_cell_length_c 15.730573
_cell_angle_alpha 90.000000
_cell_angle_beta 51.393837
_cell_angle_gamma 90.000000
_cell_volume 2644.829575
_symmetry_space_group_name_H-M "C 2/C"
_symmetry_group_IT_number 15
_symmetry_cell_setting 'monoclinic'
loop_
_space_group_symop_operation_xyz
x,y,z
-x,y,1/2-z
-x,-y,-z
x,-y,1/2+z
1/2+x,1/2+y,z
1/2-x,1/2+y,1/2-z
1/2-x,1/2-y,-z
1/2+x,1/2-y,1/2+z
loop_
_atom_site_type_symbol
_atom_site_label
_atom_site_fract_x
_atom_site_fract_y
_atom_site_fract_z
Si Si1 0.175652 0.637353 0.984171
Si Si2 0.786809 0.410232 0.225338
Si Si3 0.589454 0.590237 0.743995
Si Si4 0.651756 0.569491 0.334852
Si Si5 0.699368 0.139610 0.143109
Si Si6 0.566366 0.629514 0.581549
O O1 0.184295 0.524617 0.894387
O O2 0.225167 0.788289 0.917141
O O3 0.197548 0.558243 0.051186
O O4 0.097606 0.698306 0.064141
O O5 0.704639 0.429346 0.301939
O O6 0.808204 0.231716 0.213419
O O7 0.818385 0.509470 0.270476
O O8 0.613643 0.452811 0.782206
O O9 0.641839 0.730400 0.703256
O O10 0.586450 0.533220 0.648083
O O11 0.514775 0.647523 0.847625
O O12 0.596621 0.557508 0.465370
#
# Coordination Sequence:
#
# PCOD8131692 Si02
#       6
#     8   8   8   8   8   8
#     4   9  18  33  55  74 103 140 177 214 254 311
#     4  11  19  33  53  78 107 139 169 223 262 302
#     4  10  19  35  56  79  98 142 177 218 256 318
#     4  11  20  33  52  79 108 136 174 219 264 310
#     4  10  18  34  56  74 103 138 179 212 259 307
#     4   9  19  34  56  75 104 138 181 208 262 316
#
# _framework density 18.148617999999999
#
# number of rings (size 3 to 8) (size 9 to 14) (size 15 to 20)
#    0.000    2.000    5.000    0.500    0.000    0.000 
#    0.000    8.333    0.000    8.000    0.000    0.000 
#    0.000    0.000    0.000    0.000    0.000    0.000 
#
# Total GULP energy -297340.677225 kJ/mol
# GULP energy per Si atom -12389.194884 kJ/mol
# Density = 1.810731 g / cm^3
# Si number density = 18.148618 Si / 1000 Ang^3
#
#
#
# Elastic Constant Matrix: (Units=GPa)
#
#
# Indices 1 2 3 4 5 6 
#
# 1 93.8472 37.8631 44.1630 0.0001 16.6987 0.0000
# 2 37.8631 44.7997 40.4052 -0.0001 7.1242 0.0000
# 3 44.1630 40.4052 103.5548 0.0004 24.9555 -0.0001
# 4 0.0001 -0.0001 0.0004 26.1624 0.0000 8.5166
# 5 16.6987 7.1242 24.9555 0.0000 51.2331 0.0001
# 6 0.0000 0.0000 -0.0001 8.5166 0.0001 27.3498
#
#
#
# Elastic Compliance Matrix: (Units=1/GPa)
#
#
# Indices 1 2 3 4 5 6 
#
# 1 0.016960 -0.012320 -0.001707 0.000000 -0.002983 0.000000
# 2 -0.012320 0.043572 -0.012751 0.000000 0.004168 0.000000
# 3 -0.001707 -0.012751 0.016767 0.000000 -0.005838 0.000000
# 4 0.000000 0.000000 0.000000 0.042534 0.000000 -0.013245
# 5 -0.002983 0.004168 -0.005838 0.000000 0.022755 0.000000
# 6 0.000000 0.000000 0.000000 -0.013245 0.000000 0.040688
#
#
# Mechanical properties :
#
#
# Convention : Reuss Voigt Hill
#
# Bulk Modulus (GPa) = 42.11920 54.11824 48.11872
# Shear Modulus (GPa) = 20.42927 28.93377 24.68152
#
# Velocity S-wave (km/s) = 3.35873 3.99716 3.69177
# Velocity P-wave (km/s) = 6.18868 7.15453 6.68906
#
# Compressibility (1/GPa) = 0.02374214
#
# Stress axis : x y z
#
# Youngs Moduli (GPa) = 58.96066 22.95063 59.64200
#
# Poissons Ratio (x) = 0.28276 0.10181
# Poissons Ratio (y) = 0.72642 0.76050
# Poissons Ratio (z) = 0.10064 0.29264
#
# Static dielectric constant tensor:
#      x y z
#    x 3.726270 0.000000 0.343630 
#    y 0.000000 2.797410 0.000000 
#    z 0.343630 0.000000 3.733050 
# 
# 
# High freq. dielectric constant tensor:
#      x y z
#    x 1.725490 0.000000 0.017400 
#    y 0.000000 1.637480 0.000000 
#    z 0.017400 0.000000 1.721350 
# 
# From -- ./inp_files/218140.got.cif
#   From: 2010.06.25/outbox.cif.g09.slc.cpg/sg15_110_cif.got.tgz:218140.got - 2010.06.28 07:06:18.
