data_PCOD8131858
_publ_section_title
;
Structure prediction by ZEFSAII (Michael W. Deem and Ramdas Pophale) SiO2 
 PCOD8131858
Probable space group: C 2/C
;
_chemical_formula_sum "Si O2"
_cell_formula_units_Z 60
_cell_length_a 9.028306
_cell_length_b 22.896448
_cell_length_c 19.417671
_cell_angle_alpha 90.000000
_cell_angle_beta 51.133068
_cell_angle_gamma 90.000000
_cell_volume 3125.280192
_symmetry_space_group_name_H-M "C 2/C"
_symmetry_group_IT_number 15
_symmetry_cell_setting 'monoclinic'
loop_
_space_group_symop_operation_xyz
x,y,z
-x,y,1/2-z
-x,-y,-z
x,-y,1/2+z
1/2+x,1/2+y,z
1/2-x,1/2+y,1/2-z
1/2-x,1/2-y,-z
1/2+x,1/2-y,1/2+z
loop_
_atom_site_type_symbol
_atom_site_label
_atom_site_fract_x
_atom_site_fract_y
_atom_site_fract_z
Si Si1 0.528688 0.773575 0.393567
Si Si2 0.000000 0.295674 0.250000
Si Si3 0.814617 0.506001 0.760151
Si Si4 0.848596 0.842337 0.983295
Si Si5 0.856451 0.877492 0.129785
Si Si6 0.479348 0.570672 0.332018
Si Si7 0.844010 0.143260 0.852209
Si Si8 0.335412 0.022892 0.597171
O O1 0.520920 0.758067 0.313869
O O2 0.369221 0.821755 0.456714
O O3 0.488807 0.713478 0.444961
O O4 0.730921 0.798754 0.360762
O O5 0.817334 0.335770 0.304572
O O6 0.690132 0.559642 0.825026
O O7 0.684637 0.448088 0.801769
O O8 0.890490 0.516713 0.660980
O O9 0.000000 0.493755 0.750000
O O10 0.882044 0.881080 0.906938
O O11 0.890214 0.881819 0.038091
O O12 0.043385 0.847943 0.109130
O O13 0.500000 0.598374 0.250000
O O14 0.355959 0.511902 0.363628
O O15 0.695584 0.091166 0.907494
O O16 0.000000 0.125153 0.750000
O O17 0.500000 0.000000 0.500000
#
# Coordination Sequence:
#
# PCOD8131858 Si02
#       8
#     8   4   8   8   8   8   8   8
#     4  10  22  39  62  88 122 154 212 256 302 361
#     4  10  18  34  62  90 106 158 198 248 300 352
#     4  11  22  37  59  88 123 160 198 252 303 377
#     4  10  24  41  58  91 119 162 206 255 302 367
#     4  11  21  35  63  89 120 152 204 251 305 354
#     4  10  22  41  59  85 125 164 198 244 314 376
#     4  12  20  38  61  92 122 160 201 259 302 367
#     4  11  22  36  59  93 121 158 200 246 312 368
#
# _framework density 19.19828
#
# number of rings (size 3 to 8) (size 9 to 14) (size 15 to 20)
#    0.000    1.333    4.667    1.200    4.667    2.133 
#    0.000    0.667    0.000    0.000    0.000    0.000 
#    0.000    0.000    0.000    0.000    0.000    0.000 
#
# Total GULP energy -372016.831771 kJ/mol
# GULP energy per Si atom -12400.561059 kJ/mol
# Density = 1.915458 g / cm^3
# Si number density = 19.198280 Si / 1000 Ang^3
#
#
#
# Elastic Constant Matrix: (Units=GPa)
#
#
# Indices 1 2 3 4 5 6 
#
# 1 134.5022 33.3588 45.8768 0.0000 3.5432 0.0000
# 2 33.3588 53.3987 35.1069 0.0000 9.6772 0.0000
# 3 45.8768 35.1069 120.0923 0.0000 18.9648 0.0000
# 4 0.0000 0.0000 0.0000 26.9557 0.0000 1.1891
# 5 3.5432 9.6772 18.9648 0.0000 28.2667 0.0000
# 6 0.0000 0.0000 0.0000 1.1891 0.0000 19.9596
#
#
#
# Elastic Compliance Matrix: (Units=1/GPa)
#
#
# Indices 1 2 3 4 5 6 
#
# 1 0.009391 -0.004546 -0.002593 0.000000 0.002119 0.000000
# 2 -0.004546 0.025752 -0.005021 0.000000 -0.004878 0.000000
# 3 -0.002593 -0.005021 0.011703 0.000000 -0.005807 0.000000
# 4 0.000000 0.000000 0.000000 0.037196 0.000000 -0.002216
# 5 0.002119 -0.004878 -0.005807 0.000000 0.040678 0.000000
# 6 0.000000 0.000000 0.000000 -0.002216 0.000000 0.050233
#
#
# Mechanical properties :
#
#
# Convention : Reuss Voigt Hill
#
# Bulk Modulus (GPa) = 44.39534 59.63094 52.01314
# Shear Modulus (GPa) = 24.18014 27.94644 26.06329
#
# Velocity S-wave (km/s) = 3.55279 3.81947 3.68854
# Velocity P-wave (km/s) = 6.32492 7.11190 6.72992
#
# Compressibility (1/GPa) = 0.02252488
#
# Stress axis : x y z
#
# Youngs Moduli (GPa) = 106.48568 38.83188 85.45124
#
# Poissons Ratio (x) = 0.17652 0.22159
# Poissons Ratio (y) = 0.48406 0.42908
# Poissons Ratio (z) = 0.27614 0.19499
#
# Static dielectric constant tensor:
#      x y z
#    x 3.636010 0.000000 0.128040 
#    y 0.000000 3.245530 0.000000 
#    z 0.128040 0.000000 3.761710 
# 
# 
# High freq. dielectric constant tensor:
#      x y z
#    x 1.754300 0.000000 0.004160 
#    y 0.000000 1.725540 0.000000 
#    z 0.004160 0.000000 1.752850 
# 
# From -- ./inp_files/137386.got.cif
#   From: 2010.06.25/outbox.cif.g09.slc.cpg/sg15_69_cif.got.tgz:137386.got - 2010.06.28 07:06:18.
