data_PCOD8131220
_publ_section_title
;
Structure prediction by ZEFSAII (Michael W. Deem and Ramdas Pophale) SiO2 
 PCOD8131220
Probable space group: C 2/C
;
_chemical_formula_sum "Si O2"
_cell_formula_units_Z 48
_cell_length_a 12.678902
_cell_length_b 16.293766
_cell_length_c 23.471898
_cell_angle_alpha 90.000000
_cell_angle_beta 149.562691
_cell_angle_gamma 90.000000
_cell_volume 2456.475752
_symmetry_space_group_name_H-M "C 2/C"
_symmetry_group_IT_number 15
_symmetry_cell_setting 'monoclinic'
loop_
_space_group_symop_operation_xyz
x,y,z
-x,y,1/2-z
-x,-y,-z
x,-y,1/2+z
1/2+x,1/2+y,z
1/2-x,1/2+y,1/2-z
1/2-x,1/2-y,-z
1/2+x,1/2-y,1/2+z
loop_
_atom_site_type_symbol
_atom_site_label
_atom_site_fract_x
_atom_site_fract_y
_atom_site_fract_z
Si Si1 0.182942 0.794642 0.870734
Si Si2 0.908167 0.565437 0.532517
Si Si3 0.041134 0.373539 0.208399
Si Si4 0.113611 0.739066 0.360746
Si Si5 0.786623 0.076664 0.623941
Si Si6 0.448148 0.719414 0.899715
O O1 0.368628 0.779371 0.912402
O O2 0.000000 0.839193 0.750000
O O3 0.090803 0.711467 0.855611
O O4 0.261036 0.855437 0.955644
O O5 0.786933 0.482451 0.461308
O O6 0.967572 0.562889 0.626520
O O7 0.116781 0.576985 0.594162
O O8 0.287607 0.355596 0.316379
O O9 0.000000 0.416771 0.250000
O O10 0.179792 0.833805 0.386072
O O11 0.323983 0.687749 0.472870
O O12 0.000000 0.707387 0.250000
O O13 0.962779 0.732729 0.345639
O O14 0.000000 0.042493 0.750000
#
# Coordination Sequence:
#
# PCOD8131220 Si02
#       6
#     8   8   8   8   8   8
#     4   9  18  32  50  80 104 131 172 220 260 301
#     4  11  19  34  54  75 106 136 174 209 262 307
#     4   9  19  33  52  77 101 139 169 220 255 302
#     4  10  18  32  52  76 107 141 164 211 258 307
#     4  10  21  32  53  79 103 137 171 213 255 309
#     4   9  18  31  51  76 105 129 175 215 250 311
#
# _framework density 19.540187
#
# number of rings (size 3 to 8) (size 9 to 14) (size 15 to 20)
#    0.000    2.667    1.667    3.000    0.000    0.000 
#    3.000    0.000    0.000   13.000    0.000    0.000 
#    0.000    0.000    0.000    0.000    0.000    0.000 
#
# Total GULP energy -297439.168501 kJ/mol
# GULP energy per Si atom -12393.298688 kJ/mol
# Density = 1.949571 g / cm^3
# Si number density = 19.540187 Si / 1000 Ang^3
#
#
#
# Elastic Constant Matrix: (Units=GPa)
#
#
# Indices 1 2 3 4 5 6 
#
# 1 85.5093 14.5812 50.9752 -0.0005 -10.7035 0.0001
# 2 14.5812 42.5745 20.7611 0.0003 -6.9888 0.0000
# 3 50.9752 20.7611 133.3594 0.0014 -10.9649 0.0003
# 4 -0.0005 0.0003 0.0014 19.5087 -0.0003 -4.9301
# 5 -10.7035 -6.9888 -10.9649 -0.0003 42.4451 0.0000
# 6 0.0001 0.0000 0.0003 -4.9301 0.0000 16.7929
#
#
#
# Elastic Compliance Matrix: (Units=1/GPa)
#
#
# Indices 1 2 3 4 5 6 
#
# 1 0.015594 -0.002346 -0.005419 0.000001 0.002146 0.000000
# 2 -0.002346 0.026212 -0.002940 0.000000 0.002965 0.000000
# 3 -0.005419 -0.002940 0.010090 -0.000001 0.000756 0.000000
# 4 0.000001 0.000000 -0.000001 0.055367 0.000000 0.016255
# 5 0.002146 0.002965 0.000756 0.000000 0.024784 0.000000
# 6 0.000000 0.000000 0.000000 0.016255 0.000000 0.064321
#
#
# Mechanical properties :
#
#
# Convention : Reuss Voigt Hill
#
# Bulk Modulus (GPa) = 32.80232 48.23094 40.51663
# Shear Modulus (GPa) = 21.93563 27.42440 24.68001
#
# Velocity S-wave (km/s) = 3.35414 3.75038 3.55778
# Velocity P-wave (km/s) = 5.64127 6.59472 6.13654
#
# Compressibility (1/GPa) = 0.03048565
#
# Stress axis : x y z
#
# Youngs Moduli (GPa) = 64.12855 38.15032 99.11090
#
# Poissons Ratio (x) = 0.08950 0.53707
# Poissons Ratio (y) = 0.15044 0.29141
# Poissons Ratio (z) = 0.34750 0.11217
#
# Static dielectric constant tensor:
#      x y z
#    x 3.646210 0.000000 0.026230 
#    y 0.000000 3.040580 0.000000 
#    z 0.026230 0.000000 3.878630 
# 
# 
# High freq. dielectric constant tensor:
#      x y z
#    x 1.767600 0.000000 0.003230 
#    y 0.000000 1.703260 0.000000 
#    z 0.003230 0.000000 1.780970 
# 
# From -- ./inp_files/270658.got.cif
#   From: 2010.06.25/outbox.cif.g09.slc.cpg/sg15_136_cif.got.tgz:270658.got - 2010.06.28 07:06:18.
