data_PCOD8131200
_publ_section_title
;
Structure prediction by ZEFSAII (Michael W. Deem and Ramdas Pophale) SiO2 
 PCOD8131200
Probable space group: C 2/C
;
_chemical_formula_sum "Si O2"
_cell_formula_units_Z 56
_cell_length_a 28.960879
_cell_length_b 15.886153
_cell_length_c 9.640366
_cell_angle_alpha 90.000000
_cell_angle_beta 133.595439
_cell_angle_gamma 90.000000
_cell_volume 3212.170341
_symmetry_space_group_name_H-M "C 2/C"
_symmetry_group_IT_number 15
_symmetry_cell_setting 'monoclinic'
loop_
_space_group_symop_operation_xyz
x,y,z
-x,y,1/2-z
-x,-y,-z
x,-y,1/2+z
1/2+x,1/2+y,z
1/2-x,1/2+y,1/2-z
1/2-x,1/2-y,-z
1/2+x,1/2-y,1/2+z
loop_
_atom_site_type_symbol
_atom_site_label
_atom_site_fract_x
_atom_site_fract_y
_atom_site_fract_z
Si Si1 0.287496 0.598746 0.411146
Si Si2 0.780112 0.089799 0.905416
Si Si3 0.697436 0.698225 0.808221
Si Si4 0.687182 0.296778 0.810066
Si Si5 0.147574 0.374992 0.266409
Si Si6 0.854402 0.361613 0.907275
Si Si7 0.453227 0.995091 0.028750
O O1 0.306218 0.502333 0.418682
O O2 0.328169 0.631742 0.629278
O O3 0.301914 0.660393 0.314316
O O4 0.211818 0.599739 0.285269
O O5 0.769825 0.145428 0.747152
O O6 0.715270 0.085916 0.860653
O O7 0.832565 0.133520 0.115904
O O8 0.644462 0.762069 0.634110
O O9 0.750000 0.750000 0.000000
O O10 0.636197 0.221510 0.691494
O O11 0.750000 0.250000 0.000000
O O12 0.140724 0.377798 0.418320
O O13 0.094955 0.427695 0.078070
O O14 0.913751 0.407562 0.955874
O O15 0.500000 0.008665 0.250000
O O16 0.500000 0.000000 0.000000
#
# Coordination Sequence:
#
# PCOD8131200 Si02
#       7
#     8   8   8   8   8   8   8
#     4  11  20  31  51  84 110 140 183 220 266 336
#     4  11  19  31  54  78 110 147 180 212 273 342
#     4  10  21  31  49  80 109 142 185 224 264 339
#     4  10  18  32  51  75 103 146 183 208 267 346
#     4  11  20  36  55  70 107 151 183 222 278 318
#     4  11  20  37  52  71 110 148 182 223 281 311
#     4  12  26  38  57  81 105 145 202 237 261 318
#
# _framework density 17.433695
#
# number of rings (size 3 to 8) (size 9 to 14) (size 15 to 20)
#    0.000    1.143    7.143    3.429    0.000    3.429 
#    0.000    0.000    0.000    0.000    0.000    0.000 
#    0.000   22.857    0.000    0.000    0.000    0.000 
#
# Total GULP energy -346910.278007 kJ/mol
# GULP energy per Si atom -12389.652786 kJ/mol
# Density = 1.739402 g / cm^3
# Si number density = 17.433695 Si / 1000 Ang^3
#
#
#
# Elastic Constant Matrix: (Units=GPa)
#
#
# Indices 1 2 3 4 5 6 
#
# 1 85.7816 50.7777 34.2902 0.0000 -22.9142 0.0000
# 2 50.7777 144.5734 47.2627 0.0000 -5.8925 0.0000
# 3 34.2902 47.2627 81.7347 0.0000 -16.7888 0.0000
# 4 0.0000 0.0000 0.0000 25.8879 0.0000 -7.9646
# 5 -22.9142 -5.8925 -16.7888 0.0000 28.5978 0.0000
# 6 0.0000 0.0000 0.0000 -7.9646 0.0000 30.2141
#
#
#
# Elastic Compliance Matrix: (Units=1/GPa)
#
#
# Indices 1 2 3 4 5 6 
#
# 1 0.019289 -0.005515 -0.002231 0.000000 0.013009 0.000000
# 2 -0.005515 0.010148 -0.004586 0.000000 -0.005020 0.000000
# 3 -0.002231 -0.004586 0.017354 0.000000 0.007455 0.000000
# 4 0.000000 0.000000 0.000000 0.042037 0.000000 0.011081
# 5 0.013009 -0.005020 0.007455 0.000000 0.048734 0.000000
# 6 0.000000 0.000000 0.000000 0.011081 0.000000 0.036018
#
#
# Mechanical properties :
#
#
# Convention : Reuss Voigt Hill
#
# Bulk Modulus (GPa) = 45.19269 64.08344 54.63806
# Shear Modulus (GPa) = 24.31663 28.92390 26.62026
#
# Velocity S-wave (km/s) = 3.73876 4.07760 3.91185
# Velocity P-wave (km/s) = 6.67957 7.68162 7.19805
#
# Compressibility (1/GPa) = 0.02212747
#
# Stress axis : x y z
#
# Youngs Moduli (GPa) = 51.84260 98.53680 57.62473
#
# Poissons Ratio (x) = 0.54346 0.12856
# Poissons Ratio (y) = 0.28593 0.26425
# Poissons Ratio (z) = 0.11566 0.45186
#
# Static dielectric constant tensor:
#      x y z
#    x 3.511340 0.000000 0.246830 
#    y 0.000000 4.216880 0.000000 
#    z 0.246830 0.000000 4.026160 
# 
# 
# High freq. dielectric constant tensor:
#      x y z
#    x 1.639580 0.000000 -0.051460 
#    y 0.000000 1.695600 0.000000 
#    z -0.051460 0.000000 1.653000 
# 
# From -- ./inp_files/66909.got.cif
#   From: 2010.06.25/outbox.cif.g09.slc.cpg/sg15_34_cif.got.tgz:66909.got - 2010.06.28 07:06:18.
