data_PCOD8131035
_publ_section_title
;
Structure prediction by ZEFSAII (Michael W. Deem and Ramdas Pophale) SiO2 
 PCOD8131035
Probable space group: C 2/C
;
_chemical_formula_sum "Si O2"
_cell_formula_units_Z 56
_cell_length_a 16.055791
_cell_length_b 8.149302
_cell_length_c 25.518718
_cell_angle_alpha 90.000000
_cell_angle_beta 62.487426
_cell_angle_gamma 90.000000
_cell_volume 2961.353598
_symmetry_space_group_name_H-M "C 2/C"
_symmetry_group_IT_number 15
_symmetry_cell_setting 'monoclinic'
loop_
_space_group_symop_operation_xyz
x,y,z
-x,y,1/2-z
-x,-y,-z
x,-y,1/2+z
1/2+x,1/2+y,z
1/2-x,1/2+y,1/2-z
1/2-x,1/2-y,-z
1/2+x,1/2-y,1/2+z
loop_
_atom_site_type_symbol
_atom_site_label
_atom_site_fract_x
_atom_site_fract_y
_atom_site_fract_z
Si Si1 0.920855 0.136861 0.024492
Si Si2 0.496828 0.777700 0.904295
Si Si3 0.281513 0.599376 0.340317
Si Si4 0.399205 0.101398 0.617344
Si Si5 0.685165 0.415067 0.378627
Si Si6 0.969504 0.073393 0.815451
Si Si7 0.148448 0.125447 0.294547
O O1 0.941767 0.267913 0.064196
O O2 0.825969 0.036776 0.067884
O O3 0.915777 0.232344 0.970539
O O4 0.000000 0.000000 0.000000
O O5 0.590429 0.683791 0.893697
O O6 0.459678 0.725342 0.857915
O O7 0.517707 0.971319 0.896189
O O8 0.193009 0.485322 0.379864
O O9 0.266720 0.783768 0.367229
O O10 0.372049 0.523304 0.340977
O O11 0.289272 0.621165 0.275490
O O12 0.368813 0.189526 0.680271
O O13 0.707254 0.524679 0.320997
O O14 0.000000 0.143947 0.750000
O O15 0.045838 0.947252 0.814383
#
# Coordination Sequence:
#
# PCOD8131035 Si02
#       7
#     8   8   8   8   8   8   8
#     4   9  17  32  53  75 100 130 171 216 253 298
#     4   9  17  32  52  72  99 134 170 208 249 300
#     4  10  18  31  50  76 106 131 165 214 256 301
#     4  10  19  31  54  82  98 128 177 215 250 298
#     4   8  16  29  49  74  97 130 170 208 253 300
#     4   9  19  35  52  72 105 141 166 200 258 312
#     4   9  17  32  51  73 102 136 167 203 255 311
#
# _framework density 18.910271000000002
#
# number of rings (size 3 to 8) (size 9 to 14) (size 15 to 20)
#    0.000    2.857    0.000    2.143    0.000    1.143 
#    0.000    6.429    0.000    0.000    0.000    0.000 
#    0.000    0.000    0.000    0.000    0.000    0.000 
#
# Total GULP energy -347027.494413 kJ/mol
# GULP energy per Si atom -12393.839086 kJ/mol
# Density = 1.886723 g / cm^3
# Si number density = 18.910271 Si / 1000 Ang^3
#
#
#
# Elastic Constant Matrix: (Units=GPa)
#
#
# Indices 1 2 3 4 5 6 
#
# 1 57.9036 34.3195 29.7172 -0.0001 0.6093 -0.0001
# 2 34.3195 136.9680 61.6806 -0.0002 0.8243 -0.0002
# 3 29.7172 61.6806 99.8781 -0.0001 2.7918 -0.0001
# 4 -0.0001 -0.0002 -0.0001 34.7438 -0.0001 -0.1354
# 5 0.6093 0.8243 2.7918 -0.0001 17.9617 -0.0001
# 6 -0.0001 -0.0002 -0.0001 -0.1354 -0.0001 21.2808
#
#
#
# Elastic Compliance Matrix: (Units=1/GPa)
#
#
# Indices 1 2 3 4 5 6 
#
# 1 0.021513 -0.003473 -0.004259 0.000000 0.000092 0.000000
# 2 -0.003473 0.010679 -0.005575 0.000000 0.000494 0.000000
# 3 -0.004259 -0.005575 0.014775 0.000000 -0.001896 0.000000
# 4 0.000000 0.000000 0.000000 0.028783 0.000000 0.000183
# 5 0.000092 0.000494 -0.001896 0.000000 0.055943 0.000000
# 6 0.000000 0.000000 0.000000 0.000183 0.000000 0.046992
#
#
# Mechanical properties :
#
#
# Convention : Reuss Voigt Hill
#
# Bulk Modulus (GPa) = 49.13196 60.68716 54.90956
# Shear Modulus (GPa) = 23.57558 26.06610 24.82084
#
# Velocity S-wave (km/s) = 3.53471 3.71672 3.62686
# Velocity P-wave (km/s) = 6.53429 7.11200 6.82925
#
# Compressibility (1/GPa) = 0.02035335
#
# Stress axis : x y z
#
# Youngs Moduli (GPa) = 46.48289 93.64163 67.68025
#
# Poissons Ratio (x) = 0.32525 0.28822
# Poissons Ratio (y) = 0.16145 0.37734
# Poissons Ratio (z) = 0.19795 0.52208
#
# Static dielectric constant tensor:
#      x y z
#    x 2.991390 0.000000 -0.025480 
#    y 0.000000 3.715700 0.000000 
#    z -0.025480 0.000000 3.840710 
# 
# 
# High freq. dielectric constant tensor:
#      x y z
#    x 1.681730 0.000000 -0.005640 
#    y 0.000000 1.745550 0.000000 
#    z -0.005640 0.000000 1.745890 
# 
# From -- ./inp_files/297964.got.cif
#   From: 2010.06.25/outbox.cif.g09.slc.cpg/sg15_149_cif.got.tgz:297964.got - 2010.06.28 07:06:18.
