data_PCOD8131877
_publ_section_title
;
Structure prediction by ZEFSAII (Michael W. Deem and Ramdas Pophale) SiO2 
 PCOD8131877
Probable space group: C 2/C
;
_chemical_formula_sum "Si O2"
_cell_formula_units_Z 64
_cell_length_a 31.832922
_cell_length_b 8.691826
_cell_length_c 18.864921
_cell_angle_alpha 90.000000
_cell_angle_beta 142.416347
_cell_angle_gamma 90.000000
_cell_volume 3183.572522
_symmetry_space_group_name_H-M "C 2/C"
_symmetry_group_IT_number 15
_symmetry_cell_setting 'monoclinic'
loop_
_space_group_symop_operation_xyz
x,y,z
-x,y,1/2-z
-x,-y,-z
x,-y,1/2+z
1/2+x,1/2+y,z
1/2-x,1/2+y,1/2-z
1/2-x,1/2-y,-z
1/2+x,1/2-y,1/2+z
loop_
_atom_site_type_symbol
_atom_site_label
_atom_site_fract_x
_atom_site_fract_y
_atom_site_fract_z
Si Si1 0.858355 0.956861 0.671966
Si Si2 0.281586 0.608939 0.692537
Si Si3 0.153671 0.098283 0.574174
Si Si4 0.651248 0.064860 0.016490
Si Si5 0.992923 0.059513 0.158661
Si Si6 0.141703 0.408210 0.341126
Si Si7 0.994505 0.417946 0.160469
Si Si8 0.738271 0.568625 0.078426
O O1 0.854468 0.776133 0.650443
O O2 0.938535 0.010544 0.786653
O O3 0.820802 0.988109 0.695356
O O4 0.822637 0.052252 0.560581
O O5 0.330780 0.646107 0.824333
O O6 0.213881 0.527371 0.635235
O O7 0.262092 0.756201 0.619512
O O8 0.155060 0.251705 0.528909
O O9 0.080709 0.004111 0.471361
O O10 0.212372 0.988120 0.620424
O O11 0.656333 0.028267 0.939356
O O12 0.579658 0.006901 0.959346
O O13 0.990418 0.238877 0.140863
O O14 0.000000 0.016294 0.250000
O O15 0.195755 0.470706 0.357327
O O16 0.064935 0.472149 0.215683
O O17 0.000000 0.453081 0.250000
#
# Coordination Sequence:
#
# PCOD8131877 Si02
#       8
#     8   8   8   8   8   8   8   8
#     4  11  20  37  61  87 112 153 199 247 284 346
#     4  12  26  35  53  88 130 157 179 240 314 354
#     4  11  22  40  61  83 113 158 202 240 293 353
#     4  10  18  37  60  81 113 150 199 240 284 343
#     4   9  16  34  63  85 104 141 208 255 274 329
#     4  10  18  34  64  89 103 146 207 247 273 336
#     4   7  14  28  55  87 103 129 187 248 277 316
#     4  12  22  37  58  87 123 152 196 242 286 356
#
# _framework density 20.103200999999999
#
# number of rings (size 3 to 8) (size 9 to 14) (size 15 to 20)
#    0.000    1.750    3.750    3.750    0.000    0.500 
#    0.000    1.250    2.750   13.500    0.000    0.000 
#    0.000    0.000    0.000    0.000    0.000    0.000 
#
# Total GULP energy -396471.322953 kJ/mol
# GULP energy per Si atom -12389.728842 kJ/mol
# Density = 2.005745 g / cm^3
# Si number density = 20.103201 Si / 1000 Ang^3
#
#
#
# Elastic Constant Matrix: (Units=GPa)
#
#
# Indices 1 2 3 4 5 6 
#
# 1 101.9114 21.6290 70.9326 0.0000 30.5962 0.0000
# 2 21.6290 41.3254 29.2265 0.0000 11.0856 0.0000
# 3 70.9326 29.2265 118.2646 0.0000 28.5864 0.0000
# 4 0.0000 0.0000 0.0000 14.7005 0.0000 -3.2115
# 5 30.5962 11.0856 28.5864 0.0000 39.0357 0.0000
# 6 0.0000 0.0000 0.0000 -3.2115 0.0000 6.0275
#
#
#
# Elastic Compliance Matrix: (Units=1/GPa)
#
#
# Indices 1 2 3 4 5 6 
#
# 1 0.018670 -0.001343 -0.009017 0.000000 -0.007649 0.000000
# 2 -0.001343 0.029859 -0.005806 0.000000 -0.003175 0.000000
# 3 -0.009017 -0.005806 0.016029 0.000000 -0.003022 0.000000
# 4 0.000000 0.000000 0.000000 0.076986 0.000000 0.041019
# 5 -0.007649 -0.003175 -0.003022 0.000000 0.034727 0.000000
# 6 0.000000 0.000000 0.000000 0.041019 0.000000 0.187763
#
#
# Mechanical properties :
#
#
# Convention : Reuss Voigt Hill
#
# Bulk Modulus (GPa) = 31.03071 56.11973 43.57522
# Shear Modulus (GPa) = 12.28174 21.26696 16.77435
#
# Velocity S-wave (km/s) = 2.47439 3.25605 2.89175
# Velocity P-wave (km/s) = 4.86135 6.48939 5.73345
#
# Compressibility (1/GPa) = 0.03222614
#
# Stress axis : x y z
#
# Youngs Moduli (GPa) = 53.56225 33.49082 62.38594
#
# Poissons Ratio (x) = 0.04496 0.56255
# Poissons Ratio (y) = 0.07191 0.36223
# Poissons Ratio (z) = 0.48298 0.19446
#
# Static dielectric constant tensor:
#      x y z
#    x 3.865050 0.000000 0.643890 
#    y 0.000000 3.231080 0.000000 
#    z 0.643890 0.000000 3.952400 
# 
# 
# High freq. dielectric constant tensor:
#      x y z
#    x 1.785970 0.000000 0.035030 
#    y 0.000000 1.746440 0.000000 
#    z 0.035030 0.000000 1.781970 
# 
# From -- ./inp_files/224654.got.cif
#   From: 2010.06.25/outbox.cif.g09.slc.cpg/sg15_113_cif.got.tgz:224654.got - 2010.06.28 07:06:18.
