data_PCOD8131561
_publ_section_title
;
Structure prediction by ZEFSAII (Michael W. Deem and Ramdas Pophale) SiO2 
 PCOD8131561
Probable space group: C 2/C
;
_chemical_formula_sum "Si O2"
_cell_formula_units_Z 48
_cell_length_a 14.870577
_cell_length_b 11.600914
_cell_length_c 11.286723
_cell_angle_alpha 90.000000
_cell_angle_beta 81.339140
_cell_angle_gamma 90.000000
_cell_volume 1924.895583
_symmetry_space_group_name_H-M "C 2/C"
_symmetry_group_IT_number 15
_symmetry_cell_setting 'monoclinic'
loop_
_space_group_symop_operation_xyz
x,y,z
-x,y,1/2-z
-x,-y,-z
x,-y,1/2+z
1/2+x,1/2+y,z
1/2-x,1/2+y,1/2-z
1/2-x,1/2-y,-z
1/2+x,1/2-y,1/2+z
loop_
_atom_site_type_symbol
_atom_site_label
_atom_site_fract_x
_atom_site_fract_y
_atom_site_fract_z
Si Si1 0.374078 0.665857 0.185048
Si Si2 0.219280 0.585872 0.052278
Si Si3 0.458466 0.956294 0.629943
Si Si4 0.818829 0.405091 0.271370
Si Si5 0.944626 0.759260 0.439292
Si Si6 0.855066 0.941527 0.316929
O O1 0.274402 0.641333 0.151255
O O2 0.369434 0.782684 0.263934
O O3 0.401593 0.561195 0.266682
O O4 0.451985 0.680074 0.067123
O O5 0.164124 0.472615 0.108318
O O6 0.147315 0.682114 0.026134
O O7 0.291402 0.543308 0.943299
O O8 0.500000 0.996946 0.750000
O O9 0.467907 0.817056 0.616595
O O10 0.500000 0.000000 0.500000
O O11 0.357236 0.010820 0.656440
O O12 0.710079 0.390972 0.273793
O O13 0.934687 0.852890 0.336761
#
# Coordination Sequence:
#
# PCOD8131561 Si02
#       6
#     8   8   8   8   8   8
#     4  10  19  33  59  86 130 166 215 287 333 407
#     4  10  18  33  58  89 126 169 212 279 344 406
#     4  12  24  39  68 101 132 182 232 286 350 416
#     4  11  20  34  59  99 126 166 228 284 337 410
#     4  11  19  39  61  91 137 180 226 286 355 424
#     4  10  20  35  60  92 132 176 217 278 360 405
#
# _framework density 24.936416000000001
#
# number of rings (size 3 to 8) (size 9 to 14) (size 15 to 20)
#    0.000    1.333    6.667    1.000    0.000    0.667 
#    0.000    0.000   11.000    2.000    0.000    0.000 
#    0.000    0.000    0.000    0.000    0.000    0.000 
#
# Total GULP energy -297355.984711 kJ/mol
# GULP energy per Si atom -12389.832696 kJ/mol
# Density = 2.487966 g / cm^3
# Si number density = 24.936416 Si / 1000 Ang^3
#
#
#
# Elastic Constant Matrix: (Units=GPa)
#
#
# Indices 1 2 3 4 5 6 
#
# 1 22.0257 29.4105 1.6182 0.0000 -4.0569 0.0000
# 2 29.4105 194.6720 58.2323 0.0000 3.6717 0.0000
# 3 1.6182 58.2323 106.1788 0.0000 7.4723 0.0000
# 4 0.0000 0.0000 0.0000 61.9764 0.0000 -2.0018
# 5 -4.0569 3.6717 7.4723 0.0000 15.5355 0.0000
# 6 0.0000 0.0000 0.0000 -2.0018 0.0000 29.4577
#
#
#
# Elastic Compliance Matrix: (Units=1/GPa)
#
#
# Indices 1 2 3 4 5 6 
#
# 1 0.062957 -0.010990 0.003858 0.000000 0.017182 0.000000
# 2 -0.010990 0.008064 -0.004056 0.000000 -0.002825 0.000000
# 3 0.003858 -0.004056 0.011846 0.000000 -0.003732 0.000000
# 4 0.000000 0.000000 0.000000 0.016171 0.000000 0.001099
# 5 0.017182 -0.002825 -0.003732 0.000000 0.071318 0.000000
# 6 0.000000 0.000000 0.000000 0.001099 0.000000 0.034022
#
#
# Mechanical properties :
#
#
# Convention : Reuss Voigt Hill
#
# Bulk Modulus (GPa) = 16.53101 55.71094 36.12098
# Shear Modulus (GPa) = 20.24982 36.96830 28.60906
#
# Velocity S-wave (km/s) = 2.85275 3.85451 3.39083
# Velocity P-wave (km/s) = 4.18265 6.49610 5.46324
#
# Compressibility (1/GPa) = 0.06049237
#
# Stress axis : x y z
#
# Youngs Moduli (GPa) = 15.88390 124.01234 84.41358
#
# Poissons Ratio (x) = 1.36284 -0.32570
# Poissons Ratio (y) = 0.17456 0.34240
# Poissons Ratio (z) = -0.06129 0.50301
#
# Static dielectric constant tensor:
#      x y z
#    x 4.582850 0.000000 0.083060 
#    y 0.000000 4.869690 0.000000 
#    z 0.083060 0.000000 4.562940 
# 
# 
# High freq. dielectric constant tensor:
#      x y z
#    x 1.960620 0.000000 -0.001980 
#    y 0.000000 1.988850 0.000000 
#    z -0.001980 0.000000 2.000040 
# 
# From -- ./inp_files/110519.got.cif
#   From: 2010.06.25/outbox.cif.g09.slc.cpg/sg15_56_cif.got.tgz:110519.got - 2010.06.28 07:06:18.
