data_PCOD8131939
_publ_section_title
;
Structure prediction by ZEFSAII (Michael W. Deem and Ramdas Pophale) SiO2 
 PCOD8131939
Probable space group: C 2/C
;
_chemical_formula_sum "Si O2"
_cell_formula_units_Z 36
_cell_length_a 13.949496
_cell_length_b 17.523324
_cell_length_c 8.839258
_cell_angle_alpha 90.000000
_cell_angle_beta 79.922980
_cell_angle_gamma 90.000000
_cell_volume 2127.349925
_symmetry_space_group_name_H-M "C 2/C"
_symmetry_group_IT_number 15
_symmetry_cell_setting 'monoclinic'
loop_
_space_group_symop_operation_xyz
x,y,z
-x,y,1/2-z
-x,-y,-z
x,-y,1/2+z
1/2+x,1/2+y,z
1/2-x,1/2+y,1/2-z
1/2-x,1/2-y,-z
1/2+x,1/2-y,1/2+z
loop_
_atom_site_type_symbol
_atom_site_label
_atom_site_fract_x
_atom_site_fract_y
_atom_site_fract_z
Si Si1 0.319680 0.259010 0.340110
Si Si2 0.213529 0.495275 0.961034
Si Si3 0.816002 0.905446 0.186219
Si Si4 0.000000 0.151992 0.750000
Si Si5 0.386182 0.096270 0.259906
O O1 0.250000 0.250000 0.500000
O O2 0.273558 0.319958 0.232934
O O3 0.424483 0.294157 0.365380
O O4 0.334650 0.177998 0.255712
O O5 0.286392 0.538639 0.830323
O O6 0.132383 0.450508 0.887892
O O7 0.277403 0.434652 0.037350
O O8 0.158069 0.554028 0.083100
O O9 0.934897 0.900267 0.153870
O O10 0.500000 0.106659 0.250000
#
# Coordination Sequence:
#
# PCOD8131939 Si02
#       5
#     8   8   8   4   8
#     4  10  18  35  56  73 104 143 174 208 257 312
#     4  10  21  32  53  80 105 134 168 223 262 301
#     4   9  19  35  51  79 102 135 175 206 265 307
#     4   8  18  34  54  76  98 142 176 204 256 320
#     4  11  19  35  54  75 105 138 174 215 259 313
#
# _framework density 16.922461999999999
#
# number of rings (size 3 to 8) (size 9 to 14) (size 15 to 20)
#    1.333    0.889    3.333    0.667    0.000    1.778 
#    0.000    0.000    0.000    2.667    0.000    0.000 
#    0.000    0.000    0.000    0.000    0.000    0.000 
#
# Total GULP energy -222997.807412 kJ/mol
# GULP energy per Si atom -12388.767078 kJ/mol
# Density = 1.688395 g / cm^3
# Si number density = 16.922462 Si / 1000 Ang^3
#
#
#
# Elastic Constant Matrix: (Units=GPa)
#
#
# Indices 1 2 3 4 5 6 
#
# 1 85.0279 33.4934 31.8170 0.0000 -7.1276 0.0000
# 2 33.4934 126.9973 47.6251 0.0000 8.1635 0.0000
# 3 31.8170 47.6251 83.5997 0.0000 6.9841 0.0000
# 4 0.0000 0.0000 0.0000 6.6403 0.0000 0.1168
# 5 -7.1276 8.1635 6.9841 0.0000 18.1137 0.0000
# 6 0.0000 0.0000 0.0000 0.1168 0.0000 35.4919
#
#
#
# Elastic Compliance Matrix: (Units=1/GPa)
#
#
# Indices 1 2 3 4 5 6 
#
# 1 0.015555 -0.002785 -0.005114 0.000000 0.009348 0.000000
# 2 -0.002785 0.010613 -0.004645 0.000000 -0.004089 0.000000
# 3 -0.005114 -0.004645 0.017098 0.000000 -0.006512 0.000000
# 4 0.000000 0.000000 0.000000 0.150604 0.000000 -0.000496
# 5 0.009348 -0.004089 -0.006512 0.000000 0.063239 0.000000
# 6 0.000000 0.000000 0.000000 -0.000496 0.000000 0.028177
#
#
# Mechanical properties :
#
#
# Convention : Reuss Voigt Hill
#
# Bulk Modulus (GPa) = 55.01091 57.94399 56.47745
# Shear Modulus (GPa) = 15.80102 24.22848 20.01475
#
# Velocity S-wave (km/s) = 3.05902 3.78793 3.44282
# Velocity P-wave (km/s) = 6.71230 7.31071 7.01788
#
# Compressibility (1/GPa) = 0.01817821
#
# Stress axis : x y z
#
# Youngs Moduli (GPa) = 64.28603 94.22084 58.48587
#
# Poissons Ratio (x) = 0.26245 0.29912
# Poissons Ratio (y) = 0.17907 0.27164
# Poissons Ratio (z) = 0.32878 0.43761
#
# Static dielectric constant tensor:
#      x y z
#    x 3.102520 0.000000 -0.024020 
#    y 0.000000 3.431860 0.000000 
#    z -0.024020 0.000000 2.939950 
# 
# 
# High freq. dielectric constant tensor:
#      x y z
#    x 1.650030 0.000000 -0.008440 
#    y 0.000000 1.670130 0.000000 
#    z -0.008440 0.000000 1.626080 
# 
# From -- ./inp_files/37613.got.cif
#   From: 2010.06.25/outbox.cif.g09.slc.cpg/sg15_19_cif.got.tgz:37613.got - 2010.06.28 07:06:18.
