data_PCOD8131063
_publ_section_title
;
Structure prediction by ZEFSAII (Michael W. Deem and Ramdas Pophale) SiO2 
 PCOD8131063
Probable space group: C 2/C
;
_chemical_formula_sum "Si O2"
_cell_formula_units_Z 64
_cell_length_a 19.922670
_cell_length_b 19.342726
_cell_length_c 20.169333
_cell_angle_alpha 90.000000
_cell_angle_beta 151.078261
_cell_angle_gamma 90.000000
_cell_volume 3758.859427
_symmetry_space_group_name_H-M "C 2/C"
_symmetry_group_IT_number 15
_symmetry_cell_setting 'monoclinic'
loop_
_space_group_symop_operation_xyz
x,y,z
-x,y,1/2-z
-x,-y,-z
x,-y,1/2+z
1/2+x,1/2+y,z
1/2-x,1/2+y,1/2-z
1/2-x,1/2-y,-z
1/2+x,1/2-y,1/2+z
loop_
_atom_site_type_symbol
_atom_site_label
_atom_site_fract_x
_atom_site_fract_y
_atom_site_fract_z
Si Si1 0.193311 0.958343 0.363242
Si Si2 0.122482 0.038553 0.946366
Si Si3 0.165269 0.326446 0.054325
Si Si4 0.857288 0.823574 0.341228
Si Si5 0.848260 0.472300 0.880898
Si Si6 0.139017 0.670377 0.162213
Si Si7 0.140929 0.033663 0.596420
Si Si8 0.844354 0.173863 0.457608
O O1 0.182470 0.988659 0.428281
O O2 0.260264 0.882156 0.427857
O O3 0.043609 0.954351 0.199617
O O4 0.291827 0.005972 0.403903
O O5 0.190588 0.113779 0.020087
O O6 0.165307 0.984661 0.040512
O O7 0.222933 0.334702 0.178987
O O8 0.197983 0.250150 0.052754
O O9 0.000744 0.338668 0.915496
O O10 0.854582 0.745448 0.368724
O O11 0.860000 0.882597 0.399969
O O12 0.991687 0.830462 0.411778
O O13 0.848644 0.388949 0.882280
O O14 0.761238 0.502700 0.745180
O O15 0.000000 0.500000 0.000000
O O16 0.267869 0.659780 0.322521
O O17 0.000000 0.000000 0.500000
#
# Coordination Sequence:
#
# PCOD8131063 Si02
#       8
#     8   8   8   8   8   8   8   8
#     4  11  22  36  52  78 112 140 175 223 272 308
#     4  11  22  35  54  79 106 143 181 221 261 311
#     4  10  18  33  50  75 108 140 170 206 264 319
#     4  10  18  32  52  77 107 133 175 222 259 305
#     4  12  20  34  56  79 106 141 172 222 267 312
#     4  10  20  30  52  81 105 133 171 222 265 306
#     4  12  18  34  58  78 100 141 187 219 252 308
#     4  10  18  31  52  76 102 140 178 207 252 318
#
# _framework density 17.026441999999999
#
# number of rings (size 3 to 8) (size 9 to 14) (size 15 to 20)
#    0.000    1.250    7.500    0.000    0.000    0.500 
#    0.000    2.500    0.000    0.750    0.000    0.000 
#    0.000    0.000    0.000    0.000    0.000    0.000 
#
# Total GULP energy -396687.248224 kJ/mol
# GULP energy per Si atom -12396.476507 kJ/mol
# Density = 1.698769 g / cm^3
# Si number density = 17.026442 Si / 1000 Ang^3
#
#
#
# Elastic Constant Matrix: (Units=GPa)
#
#
# Indices 1 2 3 4 5 6 
#
# 1 91.3152 51.0131 32.6187 -0.0023 -8.4961 -0.0014
# 2 51.0131 124.8125 30.9763 0.0001 -9.6502 0.0009
# 3 32.6187 30.9763 75.4001 0.0013 0.7107 0.0001
# 4 -0.0023 0.0001 0.0013 24.7774 0.0001 -1.4812
# 5 -8.4961 -9.6502 0.7107 0.0001 22.2416 0.0005
# 6 -0.0014 0.0009 0.0001 -1.4812 0.0005 22.9747
#
#
#
# Elastic Compliance Matrix: (Units=1/GPa)
#
#
# Indices 1 2 3 4 5 6 
#
# 1 0.015827 -0.004952 -0.004851 0.000002 0.004052 0.000001
# 2 -0.004952 0.010839 -0.002338 0.000000 0.002886 -0.000001
# 3 -0.004851 -0.002338 0.016354 -0.000001 -0.003390 0.000000
# 4 0.000002 0.000000 -0.000001 0.040516 0.000000 0.002612
# 5 0.004052 0.002886 -0.003390 0.000000 0.047869 -0.000001
# 6 0.000001 -0.000001 0.000000 0.002612 -0.000001 0.043694
#
#
# Mechanical properties :
#
#
# Convention : Reuss Voigt Hill
#
# Bulk Modulus (GPa) = 53.36538 57.86045 55.61291
# Shear Modulus (GPa) = 24.31588 25.79338 25.05463
#
# Velocity S-wave (km/s) = 3.78315 3.89640 3.84019
# Velocity P-wave (km/s) = 7.10589 7.36879 7.23853
#
# Compressibility (1/GPa) = 0.01873874
#
# Stress axis : x y z
#
# Youngs Moduli (GPa) = 63.18270 92.25709 61.14837
#
# Poissons Ratio (x) = 0.45682 0.29662
# Poissons Ratio (y) = 0.31286 0.14297
# Poissons Ratio (z) = 0.30649 0.21571
#
# Static dielectric constant tensor:
#      x y z
#    x 2.830770 -0.000010 0.086050 
#    y -0.000010 3.584330 -0.000010 
#    z 0.086050 -0.000010 3.279980 
# 
# 
# High freq. dielectric constant tensor:
#      x y z
#    x 1.609270 0.000000 0.013100 
#    y 0.000000 1.664980 0.000000 
#    z 0.013100 0.000000 1.671280 
# 
# From -- ./inp_files/211999.got.cif
#   From: 2010.06.25/outbox.cif.g09.slc.cpg/sg15_106_cif.got.tgz:211999.got - 2010.06.28 07:06:18.
