data_PCOD8131836
_publ_section_title
;
Structure prediction by ZEFSAII (Michael W. Deem and Ramdas Pophale) SiO2 
 PCOD8131836
Probable space group: C 2/C
;
_chemical_formula_sum "Si O2"
_cell_formula_units_Z 36
_cell_length_a 19.608787
_cell_length_b 15.925024
_cell_length_c 9.445354
_cell_angle_alpha 90.000000
_cell_angle_beta 38.183268
_cell_angle_gamma 90.000000
_cell_volume 1823.321381
_symmetry_space_group_name_H-M "C 2/C"
_symmetry_group_IT_number 15
_symmetry_cell_setting 'monoclinic'
loop_
_space_group_symop_operation_xyz
x,y,z
-x,y,1/2-z
-x,-y,-z
x,-y,1/2+z
1/2+x,1/2+y,z
1/2-x,1/2+y,1/2-z
1/2-x,1/2-y,-z
1/2+x,1/2-y,1/2+z
loop_
_atom_site_type_symbol
_atom_site_label
_atom_site_fract_x
_atom_site_fract_y
_atom_site_fract_z
Si Si1 0.946223 0.670326 0.477643
Si Si2 0.111389 0.034037 0.751130
Si Si3 0.500000 0.669488 0.750000
Si Si4 0.250758 0.952997 0.297789
Si Si5 0.944360 0.431629 0.491007
O O1 0.933527 0.770400 0.469729
O O2 0.828629 0.627153 0.701627
O O3 0.032818 0.656840 0.466348
O O4 0.000000 0.626434 0.250000
O O5 0.088289 0.113762 0.689160
O O6 0.163654 0.960680 0.568196
O O7 0.193020 0.062257 0.741868
O O8 0.000000 0.000000 0.000000
O O9 0.316765 0.041983 0.183359
O O10 0.000000 0.427104 0.250000
O O11 0.000000 0.500000 0.500000
#
# Coordination Sequence:
#
# PCOD8131836 Si02
#       5
#     8   8   4   8   8
#     4   9  20  40  64  95 128 157 207 273 329 366
#     4  12  23  42  61  90 127 173 219 252 306 393
#     4  10  24  44  62  88 140 166 204 272 332 358
#     4  11  20  36  68  92 117 172 216 254 313 386
#     4  10  18  34  61 100 130 154 206 268 320 376
#
# _framework density 19.744188999999999
#
# number of rings (size 3 to 8) (size 9 to 14) (size 15 to 20)
#    0.667    0.889    2.222    6.667    0.000    0.889 
#    0.000    3.333    0.000    0.000    0.000    0.000 
#    0.000    0.000    0.000    0.000    0.000    0.000 
#
# Total GULP energy -223075.988830 kJ/mol
# GULP energy per Si atom -12393.110491 kJ/mol
# Density = 1.969925 g / cm^3
# Si number density = 19.744189 Si / 1000 Ang^3
#
#
#
# Elastic Constant Matrix: (Units=GPa)
#
#
# Indices 1 2 3 4 5 6 
#
# 1 128.6647 32.0564 31.4395 0.0000 0.3164 0.0000
# 2 32.0564 88.1633 36.4345 0.0000 -8.8986 0.0000
# 3 31.4395 36.4345 128.5300 0.0000 4.4622 0.0000
# 4 0.0000 0.0000 0.0000 33.2690 0.0000 9.1285
# 5 0.3164 -8.8986 4.4622 0.0000 36.2387 0.0000
# 6 0.0000 0.0000 0.0000 9.1285 0.0000 33.2480
#
#
#
# Elastic Compliance Matrix: (Units=1/GPa)
#
#
# Indices 1 2 3 4 5 6 
#
# 1 0.008776 -0.002684 -0.001366 0.000000 -0.000567 0.000000
# 2 -0.002684 0.014159 -0.003494 0.000000 0.003930 0.000000
# 3 -0.001366 -0.003494 0.009173 0.000000 -0.001976 0.000000
# 4 0.000000 0.000000 0.000000 0.032507 0.000000 -0.008925
# 5 -0.000567 0.003930 -0.001976 0.000000 0.028808 0.000000
# 6 0.000000 0.000000 0.000000 -0.008925 0.000000 0.032527
#
#
# Mechanical properties :
#
#
# Convention : Reuss Voigt Hill
#
# Bulk Modulus (GPa) = 58.75013 60.57986 59.66500
# Shear Modulus (GPa) = 34.08049 36.91299 35.49674
#
# Velocity S-wave (km/s) = 4.15915 4.32853 4.24469
# Velocity P-wave (km/s) = 7.27220 7.46529 7.36938
#
# Compressibility (1/GPa) = 0.01702124
#
# Stress axis : x y z
#
# Youngs Moduli (GPa) = 113.94721 70.62718 109.01075
#
# Poissons Ratio (x) = 0.18954 0.14894
# Poissons Ratio (y) = 0.30579 0.38084
# Poissons Ratio (z) = 0.15568 0.24675
#
# Static dielectric constant tensor:
#      x y z
#    x 4.302670 0.000000 0.081000 
#    y 0.000000 3.528670 0.000000 
#    z 0.081000 0.000000 3.571740 
# 
# 
# High freq. dielectric constant tensor:
#      x y z
#    x 1.786600 0.000000 0.009960 
#    y 0.000000 1.736660 0.000000 
#    z 0.009960 0.000000 1.767310 
# 
# From -- ./inp_files/55959.got.cif
#   From: 2010.06.25/outbox.cif.g09.slc.cpg/sg15_28_cif.got.tgz:55959.got - 2010.06.28 07:06:18.
