data_PCOD8131125
_publ_section_title
;
Structure prediction by ZEFSAII (Michael W. Deem and Ramdas Pophale) SiO2 
 PCOD8131125
Probable space group: C 2/C
;
_chemical_formula_sum "Si O2"
_cell_formula_units_Z 52
_cell_length_a 13.325037
_cell_length_b 19.341348
_cell_length_c 21.551257
_cell_angle_alpha 90.000000
_cell_angle_beta 146.391492
_cell_angle_gamma 90.000000
_cell_volume 3074.378542
_symmetry_space_group_name_H-M "C 2/C"
_symmetry_group_IT_number 15
_symmetry_cell_setting 'monoclinic'
loop_
_space_group_symop_operation_xyz
x,y,z
-x,y,1/2-z
-x,-y,-z
x,-y,1/2+z
1/2+x,1/2+y,z
1/2-x,1/2+y,1/2-z
1/2-x,1/2-y,-z
1/2+x,1/2-y,1/2+z
loop_
_atom_site_type_symbol
_atom_site_label
_atom_site_fract_x
_atom_site_fract_y
_atom_site_fract_z
Si Si1 0.089076 0.859605 0.198932
Si Si2 0.000000 0.285323 0.250000
Si Si3 0.500000 0.474012 0.250000
Si Si4 0.001806 0.350686 0.122840
Si Si5 0.358581 0.053477 0.455255
Si Si6 0.338047 0.288880 0.988591
Si Si7 0.000000 0.742967 0.250000
Si Si8 0.366627 0.795538 0.933961
O O1 0.068748 0.928372 0.228329
O O2 0.283078 0.858015 0.267458
O O3 0.064990 0.791228 0.227453
O O4 0.938958 0.857632 0.066085
O O5 0.943813 0.333380 0.162999
O O6 0.828910 0.237891 0.178913
O O7 0.660562 0.521406 0.357381
O O8 0.915876 0.423668 0.054965
O O9 0.930442 0.290093 0.039204
O O10 0.356874 0.122634 0.411310
O O11 0.500000 0.000000 0.500000
O O12 0.484208 0.239032 0.032296
O O13 0.250000 0.250000 0.000000
O O14 0.171251 0.305880 0.856138
#
# Coordination Sequence:
#
# PCOD8131125 Si02
#       8
#     8   4   4   8   8   8   4   8
#     4  10  18  31  55  81 107 147 180 231 283 330
#     4  12  21  38  57  81 117 150 186 238 290 330
#     4  11  19  36  60  82 113 138 195 234 274 331
#     4  10  21  35  55  83 110 151 186 232 285 331
#     4  10  21  35  56  84 111 147 190 233 271 333
#     4  10  19  30  53  84 116 141 181 227 288 333
#     4   9  16  30  47  75 114 140 173 224 274 335
#     4  10  21  35  54  86 114 146 189 230 281 337
#
# _framework density 16.913986999999999
#
# number of rings (size 3 to 8) (size 9 to 14) (size 15 to 20)
#    0.923    0.923    4.615    0.923    4.308    0.000 
#    0.000    0.000    0.000    1.846    0.000    0.000 
#    0.000    0.000    0.000    0.000    0.000    0.000 
#
# Total GULP energy -322146.031932 kJ/mol
# GULP energy per Si atom -12390.231997 kJ/mol
# Density = 1.687549 g / cm^3
# Si number density = 16.913987 Si / 1000 Ang^3
#
#
#
# Elastic Constant Matrix: (Units=GPa)
#
#
# Indices 1 2 3 4 5 6 
#
# 1 77.1498 28.5869 32.6794 -0.0002 -1.5101 -0.0001
# 2 28.5869 67.2690 42.7641 -0.0001 -5.9755 0.0000
# 3 32.6794 42.7641 140.7174 -0.0007 9.9444 -0.0004
# 4 -0.0002 -0.0001 -0.0007 25.9452 -0.0003 2.4694
# 5 -1.5101 -5.9755 9.9444 -0.0003 29.7643 -0.0001
# 6 -0.0001 0.0000 -0.0004 2.4694 -0.0001 13.9073
#
#
#
# Elastic Compliance Matrix: (Units=1/GPa)
#
#
# Indices 1 2 3 4 5 6 
#
# 1 0.015841 -0.005376 -0.002075 0.000000 0.000418 0.000000
# 2 -0.005376 0.021247 -0.005623 0.000000 0.005872 0.000000
# 3 -0.002075 -0.005623 0.009611 0.000000 -0.004445 0.000000
# 4 0.000000 0.000000 0.000000 0.039205 0.000000 -0.006961
# 5 0.000418 0.005872 -0.004445 0.000000 0.036283 0.000000
# 6 0.000000 0.000000 0.000000 -0.006961 0.000000 0.073141
#
#
# Mechanical properties :
#
#
# Convention : Reuss Voigt Hill
#
# Bulk Modulus (GPa) = 48.65891 54.79968 51.72929
# Shear Modulus (GPa) = 21.89862 25.99708 23.94785
#
# Velocity S-wave (km/s) = 3.60210 3.92473 3.76687
# Velocity P-wave (km/s) = 6.79199 7.28062 7.04054
#
# Compressibility (1/GPa) = 0.02055122
#
# Stress axis : x y z
#
# Youngs Moduli (GPa) = 63.12876 47.06621 104.04392
#
# Poissons Ratio (x) = 0.25302 0.21584
# Poissons Ratio (y) = 0.33937 0.58508
# Poissons Ratio (z) = 0.13096 0.26467
#
# Static dielectric constant tensor:
#      x y z
#    x 3.048320 0.000000 0.010060 
#    y 0.000000 2.975810 0.000000 
#    z 0.010060 0.000000 3.768580 
# 
# 
# High freq. dielectric constant tensor:
#      x y z
#    x 1.644160 0.000000 0.014680 
#    y 0.000000 1.615560 0.000000 
#    z 0.014680 0.000000 1.672900 
# 
# From -- ./inp_files/155856.got.cif
#   From: 2010.06.25/outbox.cif.g09.slc.cpg/sg15_78_cif.got.tgz:155856.got - 2010.06.28 07:06:18.
