data_PCOD8131775
_publ_section_title
;
Structure prediction by ZEFSAII (Michael W. Deem and Ramdas Pophale) SiO2 
 PCOD8131775
Probable space group: C 2/C
;
_chemical_formula_sum "Si O2"
_cell_formula_units_Z 60
_cell_length_a 14.802106
_cell_length_b 19.102802
_cell_length_c 12.084077
_cell_angle_alpha 90.000000
_cell_angle_beta 119.957148
_cell_angle_gamma 90.000000
_cell_volume 2960.411404
_symmetry_space_group_name_H-M "C 2/C"
_symmetry_group_IT_number 15
_symmetry_cell_setting 'monoclinic'
loop_
_space_group_symop_operation_xyz
x,y,z
-x,y,1/2-z
-x,-y,-z
x,-y,1/2+z
1/2+x,1/2+y,z
1/2-x,1/2+y,1/2-z
1/2-x,1/2-y,-z
1/2+x,1/2-y,1/2+z
loop_
_atom_site_type_symbol
_atom_site_label
_atom_site_fract_x
_atom_site_fract_y
_atom_site_fract_z
Si Si1 0.226653 0.946359 0.395711
Si Si2 0.099130 0.450100 0.566073
Si Si3 0.098407 0.128206 0.203166
Si Si4 0.595720 0.840298 0.382232
Si Si5 0.736234 0.593872 0.664364
Si Si6 0.889575 0.811101 0.561369
Si Si7 0.237091 0.565479 0.343443
Si Si8 0.500000 0.494917 0.750000
O O1 0.245809 0.894944 0.303053
O O2 0.275294 0.911625 0.536204
O O3 0.291892 0.017713 0.413369
O O4 0.102702 0.959070 0.340212
O O5 0.067785 0.382640 0.475947
O O6 0.125438 0.432428 0.711091
O O7 0.000000 0.500000 0.500000
O O8 0.149439 0.145469 0.354416
O O9 0.187486 0.122737 0.166571
O O10 0.032575 0.055385 0.167604
O O11 0.015911 0.189967 0.126519
O O12 0.500000 0.815667 0.250000
O O13 0.659397 0.889044 0.337772
O O14 0.652495 0.768802 0.456658
O O15 0.649681 0.648346 0.570869
O O16 0.710353 0.512051 0.627490
#
# Coordination Sequence:
#
# PCOD8131775 Si02
#       8
#     8   8   8   8   8   8   8   4
#     4  11  23  37  58 100 124 170 206 265 335 385
#     4  11  24  40  63  95 130 169 222 274 323 380
#     4  10  19  35  60  92 128 161 200 259 325 386
#     4  12  22  42  64  90 124 167 219 278 315 375
#     4  11  22  36  59  92 129 160 218 256 322 389
#     4  10  22  38  60  94 124 167 210 261 328 388
#     4  11  21  39  60  94 136 165 210 263 333 384
#     4  10  18  34  58  86 136 154 200 260 328 384
#
# _framework density 20.267453
#
# number of rings (size 3 to 8) (size 9 to 14) (size 15 to 20)
#    0.000    1.333    5.333    4.400    1.867    1.067 
#    0.000    0.000    0.000    3.200    6.933    0.000 
#    0.000    0.000    0.000    0.000    0.000    0.000 
#
# Total GULP energy -371753.898979 kJ/mol
# GULP energy per Si atom -12391.796633 kJ/mol
# Density = 2.022132 g / cm^3
# Si number density = 20.267453 Si / 1000 Ang^3
#
#
#
# Elastic Constant Matrix: (Units=GPa)
#
#
# Indices 1 2 3 4 5 6 
#
# 1 57.8900 20.7113 29.7289 0.0000 -2.0250 0.0000
# 2 20.7113 87.8945 48.4650 0.0000 -12.6140 0.0000
# 3 29.7289 48.4650 166.8352 0.0000 -21.5454 0.0000
# 4 0.0000 0.0000 0.0000 24.6404 0.0000 -3.7507
# 5 -2.0250 -12.6140 -21.5454 0.0000 32.0292 0.0000
# 6 0.0000 0.0000 0.0000 -3.7507 0.0000 3.8362
#
#
#
# Elastic Compliance Matrix: (Units=1/GPa)
#
#
# Indices 1 2 3 4 5 6 
#
# 1 0.019868 -0.003420 -0.002802 0.000000 -0.001976 0.000000
# 2 -0.003420 0.014394 -0.003141 0.000000 0.003340 0.000000
# 3 -0.002802 -0.003141 0.007910 0.000000 0.003907 0.000000
# 4 0.000000 0.000000 0.000000 0.047679 0.000000 0.046616
# 5 -0.001976 0.003340 0.003907 0.000000 0.035040 0.000000
# 6 0.000000 0.000000 0.000000 0.046616 0.000000 0.306247
#
#
# Mechanical properties :
#
#
# Convention : Reuss Voigt Hill
#
# Bulk Modulus (GPa) = 42.65020 56.71446 49.68233
# Shear Modulus (GPa) = 10.92468 26.34881 18.63675
#
# Velocity S-wave (km/s) = 2.32421 3.60954 3.03568
# Velocity P-wave (km/s) = 5.31902 6.73910 6.07073
#
# Compressibility (1/GPa) = 0.02344655
#
# Stress axis : x y z
#
# Youngs Moduli (GPa) = 50.33338 69.47188 126.42016
#
# Poissons Ratio (x) = 0.23760 0.35421
# Poissons Ratio (y) = 0.17215 0.39705
# Poissons Ratio (z) = 0.14103 0.21819
#
# Static dielectric constant tensor:
#      x y z
#    x 3.603710 0.000000 0.059310 
#    y 0.000000 3.330410 0.000000 
#    z 0.059310 0.000000 4.000560 
# 
# 
# High freq. dielectric constant tensor:
#      x y z
#    x 1.778470 0.000000 0.012960 
#    y 0.000000 1.752470 0.000000 
#    z 0.012960 0.000000 1.800670 
# 
# From -- ./inp_files/98816.got.cif
#   From: 2010.06.25/outbox.cif.g09.slc.cpg/sg15_50_cif.got.tgz:98816.got - 2010.06.28 07:06:18.
