data_PCOD8131411
_publ_section_title
;
Structure prediction by ZEFSAII (Michael W. Deem and Ramdas Pophale) SiO2 
 PCOD8131411
Probable space group: C 2/C
;
_chemical_formula_sum "Si O2"
_cell_formula_units_Z 64
_cell_length_a 28.709583
_cell_length_b 15.318541
_cell_length_c 12.998941
_cell_angle_alpha 90.000000
_cell_angle_beta 41.079234
_cell_angle_gamma 90.000000
_cell_volume 3756.514811
_symmetry_space_group_name_H-M "C 2/C"
_symmetry_group_IT_number 15
_symmetry_cell_setting 'monoclinic'
loop_
_space_group_symop_operation_xyz
x,y,z
-x,y,1/2-z
-x,-y,-z
x,-y,1/2+z
1/2+x,1/2+y,z
1/2-x,1/2+y,1/2-z
1/2-x,1/2-y,-z
1/2+x,1/2-y,1/2+z
loop_
_atom_site_type_symbol
_atom_site_label
_atom_site_fract_x
_atom_site_fract_y
_atom_site_fract_z
Si Si1 0.352417 0.873298 0.261867
Si Si2 0.144826 0.803614 0.856931
Si Si3 0.842796 0.778570 0.431501
Si Si4 0.257721 0.935221 0.602372
Si Si5 0.850166 0.548807 0.150325
Si Si6 0.492541 0.755860 0.646848
Si Si7 0.505667 0.098904 0.522369
Si Si8 0.273055 0.114843 0.480159
O O1 0.331052 0.782839 0.243657
O O2 0.293560 0.890451 0.444610
O O3 0.357794 0.945018 0.160600
O O4 0.429012 0.870443 0.194318
O O5 0.181183 0.888591 0.744820
O O6 0.173767 0.805293 0.924570
O O7 0.058702 0.804597 0.000529
O O8 0.922307 0.803396 0.263589
O O9 0.796098 0.829343 0.427650
O O10 0.829464 0.674360 0.446965
O O11 0.307952 0.928348 0.617811
O O12 0.246645 0.036694 0.596762
O O13 0.926328 0.599853 0.014048
O O14 0.807658 0.584239 0.317743
O O15 0.500000 0.792690 0.750000
O O16 0.479591 0.840387 0.599713
O O17 0.500000 0.000000 0.500000
#
# Coordination Sequence:
#
# PCOD8131411 Si02
#       8
#     8   8   8   8   8   8   8   8
#     4   9  20  33  49  73 103 140 172 208 257 311
#     4  10  19  34  52  76 103 137 172 210 259 316
#     4  10  18  34  56  78  99 131 175 221 264 299
#     4  11  21  33  50  75 108 139 172 209 261 311
#     4  10  18  33  49  73 104 135 174 213 251 312
#     4   9  18  31  54  76 100 133 174 218 258 306
#     4   9  17  32  45  72 107 133 168 209 258 313
#     4  10  20  32  53  77 102 130 171 221 260 302
#
# _framework density 17.037068000000001
#
# number of rings (size 3 to 8) (size 9 to 14) (size 15 to 20)
#    0.000    2.250    2.500    1.125    0.000    1.500 
#    0.000    0.625    0.000    0.000    0.000    0.000 
#    0.000    0.000    0.000    0.000    0.000    0.000 
#
# Total GULP energy -396471.678968 kJ/mol
# GULP energy per Si atom -12389.739968 kJ/mol
# Density = 1.699829 g / cm^3
# Si number density = 17.037068 Si / 1000 Ang^3
#
#
#
# Elastic Constant Matrix: (Units=GPa)
#
#
# Indices 1 2 3 4 5 6 
#
# 1 69.7862 24.5857 27.1935 0.0000 -16.7951 0.0000
# 2 24.5857 65.1427 35.3308 0.0000 -16.2304 0.0000
# 3 27.1935 35.3308 83.9432 0.0000 -11.8962 0.0000
# 4 0.0000 0.0000 0.0000 22.6175 0.0000 -0.4621
# 5 -16.7951 -16.2304 -11.8962 0.0000 18.6139 0.0000
# 6 0.0000 0.0000 0.0000 -0.4621 0.0000 19.3300
#
#
#
# Elastic Compliance Matrix: (Units=1/GPa)
#
#
# Indices 1 2 3 4 5 6 
#
# 1 0.019764 -0.002104 -0.003573 0.000000 0.013714 0.000000
# 2 -0.002104 0.023571 -0.007253 0.000000 0.014019 0.000000
# 3 -0.003573 -0.007253 0.016241 0.000000 0.000832 0.000000
# 4 0.000000 0.000000 0.000000 0.044235 0.000000 0.001057
# 5 0.013714 0.014019 0.000832 0.000000 0.078853 0.000000
# 6 0.000000 0.000000 0.000000 0.001057 0.000000 0.051758
#
#
# Mechanical properties :
#
#
# Convention : Reuss Voigt Hill
#
# Bulk Modulus (GPa) = 29.65963 43.67689 36.66826
# Shear Modulus (GPa) = 18.41478 20.89643 19.65561
#
# Velocity S-wave (km/s) = 3.29122 3.50598 3.40030
# Velocity P-wave (km/s) = 5.64708 6.48701 6.08156
#
# Compressibility (1/GPa) = 0.03371586
#
# Stress axis : x y z
#
# Youngs Moduli (GPa) = 50.59793 42.42412 61.57351
#
# Poissons Ratio (x) = 0.08927 0.22002
# Poissons Ratio (y) = 0.10647 0.44656
# Poissons Ratio (z) = 0.18080 0.30768
#
# Static dielectric constant tensor:
#      x y z
#    x 3.338870 0.000000 -0.164780 
#    y 0.000000 3.128320 0.000000 
#    z -0.164780 0.000000 3.136830 
# 
# 
# High freq. dielectric constant tensor:
#      x y z
#    x 1.657240 0.000000 -0.010690 
#    y 0.000000 1.638550 0.000000 
#    z -0.010690 0.000000 1.657590 
# 
# From -- ./inp_files/126860.got.cif
#   From: 2010.06.25/outbox.cif.g09.slc.cpg/sg15_64_cif.got.tgz:126860.got - 2010.06.28 07:06:18.
