data_PCOD8131697
_publ_section_title
;
Structure prediction by ZEFSAII (Michael W. Deem and Ramdas Pophale) SiO2 
 PCOD8131697
Probable space group: C 2/C
;
_chemical_formula_sum "Si O2"
_cell_formula_units_Z 44
_cell_length_a 21.116943
_cell_length_b 23.479365
_cell_length_c 12.913955
_cell_angle_alpha 90.000000
_cell_angle_beta 157.995342
_cell_angle_gamma 90.000000
_cell_volume 2399.050878
_symmetry_space_group_name_H-M "C 2/C"
_symmetry_group_IT_number 15
_symmetry_cell_setting 'monoclinic'
loop_
_space_group_symop_operation_xyz
x,y,z
-x,y,1/2-z
-x,-y,-z
x,-y,1/2+z
1/2+x,1/2+y,z
1/2-x,1/2+y,1/2-z
1/2-x,1/2-y,-z
1/2+x,1/2-y,1/2+z
loop_
_atom_site_type_symbol
_atom_site_label
_atom_site_fract_x
_atom_site_fract_y
_atom_site_fract_z
Si Si1 0.550972 0.756191 0.209182
Si Si2 0.341156 0.021716 0.695704
Si Si3 0.861653 0.857763 0.391073
Si Si4 0.052543 0.363355 0.079072
Si Si5 0.654491 0.087080 0.409819
Si Si6 0.000000 0.056218 0.250000
O O1 0.500000 0.766101 0.250000
O O2 0.750000 0.750000 0.500000
O O3 0.490186 0.809420 0.048903
O O4 0.458839 0.701172 0.022780
O O5 0.380040 0.088816 0.736491
O O6 0.166659 0.016875 0.496334
O O7 0.316043 0.981473 0.557135
O O8 0.500000 0.000000 0.000000
O O9 0.703574 0.848279 0.228603
O O10 0.989902 0.903853 0.633311
O O11 0.812164 0.881317 0.202249
O O12 0.888437 0.385479 0.766827
O O13 0.500000 0.097133 0.250000
#
# Coordination Sequence:
#
# PCOD8131697 Si02
#       6
#     8   8   8   8   8   4
#     4  12  21  36  58  82 110 148 194 237 281 337
#     4   9  18  35  55  80 112 148 187 234 287 337
#     4  10  19  36  56  80 111 150 195 227 291 350
#     4   9  19  36  57  83 112 147 189 240 286 340
#     4   9  19  35  58  81 112 153 188 233 290 347
#     4  10  18  34  56  78 110 154 192 234 276 348
#
# _framework density 18.340585999999998
#
# number of rings (size 3 to 8) (size 9 to 14) (size 15 to 20)
#    0.000    2.182    2.727    2.182    0.000    2.182 
#    0.000    3.636    0.000    0.000    0.000    0.000 
#    0.000    0.000    0.000    0.000    0.000    0.000 
#
# Total GULP energy -272629.606038 kJ/mol
# GULP energy per Si atom -12392.254820 kJ/mol
# Density = 1.829884 g / cm^3
# Si number density = 18.340586 Si / 1000 Ang^3
#
#
#
# Elastic Constant Matrix: (Units=GPa)
#
#
# Indices 1 2 3 4 5 6 
#
# 1 68.3297 51.3770 42.3286 0.0000 -16.1710 0.0000
# 2 51.3770 132.5489 63.5011 0.0000 -17.0578 0.0000
# 3 42.3286 63.5011 114.6811 0.0000 -7.5830 0.0000
# 4 0.0000 0.0000 0.0000 36.4611 0.0000 -3.7938
# 5 -16.1710 -17.0578 -7.5830 0.0000 28.1425 0.0000
# 6 0.0000 0.0000 0.0000 -3.7938 0.0000 40.3958
#
#
#
# Elastic Compliance Matrix: (Units=1/GPa)
#
#
# Indices 1 2 3 4 5 6 
#
# 1 0.024345 -0.005784 -0.005182 0.000000 0.009086 0.000000
# 2 -0.005784 0.012315 -0.004490 0.000000 0.002931 0.000000
# 3 -0.005182 -0.004490 0.012973 0.000000 -0.002204 0.000000
# 4 0.000000 0.000000 0.000000 0.027697 0.000000 0.002601
# 5 0.009086 0.002931 -0.002204 0.000000 0.041937 0.000000
# 6 0.000000 0.000000 0.000000 0.002601 0.000000 0.024999
#
#
# Mechanical properties :
#
#
# Convention : Reuss Voigt Hill
#
# Bulk Modulus (GPa) = 53.41962 69.99700 61.70831
# Shear Modulus (GPa) = 27.56062 31.55676 29.55869
#
# Velocity S-wave (km/s) = 3.88069 4.15251 4.01890
# Velocity P-wave (km/s) = 7.01921 7.82554 7.43332
#
# Compressibility (1/GPa) = 0.01871972
#
# Stress axis : x y z
#
# Youngs Moduli (GPa) = 41.07695 81.20392 77.08320
#
# Poissons Ratio (x) = 0.46971 0.39943
# Poissons Ratio (y) = 0.23760 0.34611
# Poissons Ratio (z) = 0.21285 0.36461
#
# Static dielectric constant tensor:
#      x y z
#    x 3.190190 0.000000 -0.224680 
#    y 0.000000 3.706980 0.000000 
#    z -0.224680 0.000000 3.656110 
# 
# 
# High freq. dielectric constant tensor:
#      x y z
#    x 1.677210 0.000000 -0.005750 
#    y 0.000000 1.716290 0.000000 
#    z -0.005750 0.000000 1.717970 
# 
# From -- ./inp_files/169646.got.cif
#   From: 2010.06.25/outbox.cif.g09.slc.cpg/sg15_85_cif.got.tgz:169646.got - 2010.06.28 07:06:18.
