data_PCOD8131827
_publ_section_title
;
Structure prediction by ZEFSAII (Michael W. Deem and Ramdas Pophale) SiO2 
 PCOD8131827
Probable space group: C 2/C
;
_chemical_formula_sum "Si O2"
_cell_formula_units_Z 60
_cell_length_a 21.133454
_cell_length_b 8.945335
_cell_length_c 17.238857
_cell_angle_alpha 90.000000
_cell_angle_beta 103.925685
_cell_angle_gamma 90.000000
_cell_volume 3163.149627
_symmetry_space_group_name_H-M "C 2/C"
_symmetry_group_IT_number 15
_symmetry_cell_setting 'monoclinic'
loop_
_space_group_symop_operation_xyz
x,y,z
-x,y,1/2-z
-x,-y,-z
x,-y,1/2+z
1/2+x,1/2+y,z
1/2-x,1/2+y,1/2-z
1/2-x,1/2-y,-z
1/2+x,1/2-y,1/2+z
loop_
_atom_site_type_symbol
_atom_site_label
_atom_site_fract_x
_atom_site_fract_y
_atom_site_fract_z
Si Si1 0.500000 0.200946 0.250000
Si Si2 0.421840 0.237624 0.728473
Si Si3 0.413832 0.984656 0.612519
Si Si4 0.090725 0.020857 0.392928
Si Si5 0.450794 0.373962 0.360930
Si Si6 0.097418 0.815112 0.610493
Si Si7 0.326412 0.266419 0.018488
Si Si8 0.956142 0.728150 0.515796
O O1 0.529190 0.106556 0.328749
O O2 0.442410 0.302538 0.272257
O O3 0.500000 0.216759 0.750000
O O4 0.405338 0.403675 0.691251
O O5 0.394608 0.220681 0.807717
O O6 0.388375 0.109566 0.666059
O O7 0.355415 0.880166 0.568101
O O8 0.443980 0.061321 0.544161
O O9 0.090998 0.157281 0.453492
O O10 0.152073 0.914301 0.428010
O O11 0.025877 0.925380 0.386224
O O12 0.402390 0.510368 0.364343
O O13 0.439430 0.241863 0.420182
O O14 0.154506 0.779514 0.566834
O O15 0.030615 0.774926 0.548931
O O16 0.250000 0.250000 0.000000
#
# Coordination Sequence:
#
# PCOD8131827 Si02
#       8
#     4   8   8   8   8   8   8   8
#     4  12  20  30  54  96 128 142 184 260 336 362
#     4  11  19  35  64  97 128 147 179 257 343 363
#     4  11  23  37  56  95 130 152 187 258 320 368
#     4  10  18  36  58  88 119 153 200 241 296 370
#     4  11  18  30  60  96 118 147 192 257 316 368
#     4  11  19  36  63  91 119 156 202 249 306 370
#     4  12  26  43  59  80 125 178 213 237 274 359
#     4  10  18  34  60  91 121 147 189 260 325 355
#
# _framework density 18.968436000000001
#
# number of rings (size 3 to 8) (size 9 to 14) (size 15 to 20)
#    0.000    1.067    8.667    1.600    0.000    3.200 
#    0.000    4.000    0.000    0.000    0.000    0.000 
#    0.000    0.000    0.000    0.000    0.000    0.000 
#
# Total GULP energy -371859.098547 kJ/mol
# GULP energy per Si atom -12395.303285 kJ/mol
# Density = 1.892526 g / cm^3
# Si number density = 18.968436 Si / 1000 Ang^3
#
#
#
# Elastic Constant Matrix: (Units=GPa)
#
#
# Indices 1 2 3 4 5 6 
#
# 1 90.4076 45.9256 36.3950 0.0000 -6.8346 0.0000
# 2 45.9256 104.9734 45.6544 0.0000 -4.2668 0.0000
# 3 36.3950 45.6544 102.4980 0.0000 -28.0309 0.0000
# 4 0.0000 0.0000 0.0000 37.4459 0.0000 -0.2394
# 5 -6.8346 -4.2668 -28.0309 0.0000 21.7620 0.0000
# 6 0.0000 0.0000 0.0000 -0.2394 0.0000 15.6987
#
#
#
# Elastic Compliance Matrix: (Units=1/GPa)
#
#
# Indices 1 2 3 4 5 6 
#
# 1 0.014915 -0.005211 -0.003046 0.000000 -0.000262 0.000000
# 2 -0.005211 0.014345 -0.006511 0.000000 -0.007211 0.000000
# 3 -0.003046 -0.006511 0.020266 0.000000 0.023871 0.000000
# 4 0.000000 0.000000 0.000000 0.026708 0.000000 0.000407
# 5 -0.000262 -0.007211 0.023871 0.000000 0.075203 0.000000
# 6 0.000000 0.000000 0.000000 0.000407 0.000000 0.063706
#
#
# Mechanical properties :
#
#
# Convention : Reuss Voigt Hill
#
# Bulk Modulus (GPa) = 50.02754 61.53656 55.78205
# Shear Modulus (GPa) = 19.89324 26.30825 23.10074
#
# Velocity S-wave (km/s) = 3.24196 3.72822 3.49356
# Velocity P-wave (km/s) = 6.35965 7.14456 6.76350
#
# Compressibility (1/GPa) = 0.01998899
#
# Stress axis : x y z
#
# Youngs Moduli (GPa) = 67.04817 69.71267 49.34292
#
# Poissons Ratio (x) = 0.36326 0.15032
# Poissons Ratio (y) = 0.34938 0.32127
# Poissons Ratio (z) = 0.20426 0.45390
#
# Static dielectric constant tensor:
#      x y z
#    x 2.824360 0.000000 -0.269750 
#    y 0.000000 3.940850 0.000000 
#    z -0.269750 0.000000 3.816840 
# 
# 
# High freq. dielectric constant tensor:
#      x y z
#    x 1.655170 0.000000 -0.028620 
#    y 0.000000 1.756570 0.000000 
#    z -0.028620 0.000000 1.756240 
# 
# From -- ./inp_files/213926.got.cif
#   From: 2010.06.25/outbox.cif.g09.slc.cpg/sg15_107_cif.got.tgz:213926.got - 2010.06.28 07:06:18.
