data_PCOD8131091
_publ_section_title
;
Structure prediction by ZEFSAII (Michael W. Deem and Ramdas Pophale) SiO2 
 PCOD8131091
Probable space group: C 2/C
;
_chemical_formula_sum "Si O2"
_cell_formula_units_Z 64
_cell_length_a 12.374708
_cell_length_b 17.258447
_cell_length_c 34.409028
_cell_angle_alpha 90.000000
_cell_angle_beta 28.088035
_cell_angle_gamma 90.000000
_cell_volume 3459.959731
_symmetry_space_group_name_H-M "C 2/C"
_symmetry_group_IT_number 15
_symmetry_cell_setting 'monoclinic'
loop_
_space_group_symop_operation_xyz
x,y,z
-x,y,1/2-z
-x,-y,-z
x,-y,1/2+z
1/2+x,1/2+y,z
1/2-x,1/2+y,1/2-z
1/2-x,1/2-y,-z
1/2+x,1/2-y,1/2+z
loop_
_atom_site_type_symbol
_atom_site_label
_atom_site_fract_x
_atom_site_fract_y
_atom_site_fract_z
Si Si1 0.162926 0.997888 0.731017
Si Si2 0.597278 0.099955 0.115167
Si Si3 0.162204 0.765022 0.854979
Si Si4 0.159377 0.085705 0.614079
Si Si5 0.487639 0.255812 0.187415
Si Si6 0.472426 0.893505 0.085509
Si Si7 0.249451 0.430492 0.650915
Si Si8 0.829670 0.975247 0.471805
O O1 0.351532 0.937230 0.684545
O O2 0.000000 0.958665 0.750000
O O3 0.272351 0.076281 0.678040
O O4 0.007489 0.018521 0.817321
O O5 0.558550 0.190986 0.133730
O O6 0.712361 0.063567 0.116755
O O7 0.771124 0.085525 0.024440
O O8 0.355265 0.741145 0.824473
O O9 0.237421 0.760416 0.785607
O O10 0.970148 0.697259 0.922667
O O11 0.101102 0.854335 0.883981
O O12 0.384704 0.097177 0.569061
O O13 0.250262 0.062948 0.542905
O O14 0.006769 0.163377 0.658881
O O15 0.697774 0.944179 0.020945
O O16 0.398177 0.505634 0.615467
O O17 0.000000 0.428995 0.750000
#
# Coordination Sequence:
#
# PCOD8131091 Si02
#       8
#     8   8   8   8   8   8   8   8
#     4   9  17  31  55  78 101 133 172 220 257 305
#     4  10  20  35  51  76 107 140 173 210 261 309
#     4   9  15  31  55  78  96 126 179 224 251 287
#     4  10  18  31  53  79 105 136 176 208 260 316
#     4   9  16  30  55  77  96 137 182 211 241 308
#     4   9  18  33  52  78 108 128 170 223 268 299
#     4  11  20  35  56  75 100 136 187 218 250 309
#     4  11  23  32  48  80 112 140 161 214 273 312
#
# _framework density 18.497325
#
# number of rings (size 3 to 8) (size 9 to 14) (size 15 to 20)
#    0.000    2.250    3.750    1.500    0.000    1.000 
#    0.000    0.000    0.000    2.250    0.000    0.000 
#    0.000    0.000    0.000    0.000    0.000    0.000 
#
# Total GULP energy -396591.840714 kJ/mol
# GULP energy per Si atom -12393.495022 kJ/mol
# Density = 1.845522 g / cm^3
# Si number density = 18.497325 Si / 1000 Ang^3
#
#
#
# Elastic Constant Matrix: (Units=GPa)
#
#
# Indices 1 2 3 4 5 6 
#
# 1 46.6861 25.6622 24.1555 -0.0401 15.5123 0.0249
# 2 25.6622 81.5548 33.0393 -0.0285 7.4371 -0.0034
# 3 24.1555 33.0393 70.0372 -0.0589 24.4055 0.0407
# 4 -0.0401 -0.0285 -0.0589 13.5584 -0.0145 -6.5653
# 5 15.5123 7.4371 24.4055 -0.0145 30.2708 -0.0308
# 6 0.0249 -0.0034 0.0407 -6.5653 -0.0308 12.1216
#
#
#
# Elastic Compliance Matrix: (Units=1/GPa)
#
#
# Indices 1 2 3 4 5 6 
#
# 1 0.030948 -0.007402 -0.003184 0.000013 -0.011474 -0.000077
# 2 -0.007402 0.017107 -0.007474 0.000022 0.005616 0.000071
# 3 -0.003184 -0.007474 0.024607 0.000009 -0.016371 -0.000115
# 4 0.000013 0.000022 0.000009 0.099976 0.000084 0.054149
# 5 -0.011474 0.005616 -0.016371 0.000084 0.050735 0.000254
# 6 -0.000077 0.000071 -0.000115 0.054149 0.000254 0.111827
#
#
# Mechanical properties :
#
#
# Convention : Reuss Voigt Hill
#
# Bulk Modulus (GPa) = 27.36560 40.44354 33.90457
# Shear Modulus (GPa) = 13.03784 18.88489 15.96137
#
# Velocity S-wave (km/s) = 2.65778 3.19870 2.94071
# Velocity P-wave (km/s) = 4.92391 5.96274 5.46805
#
# Compressibility (1/GPa) = 0.03654223
#
# Stress axis : x y z
#
# Youngs Moduli (GPa) = 32.31204 58.45718 40.63913
#
# Poissons Ratio (x) = 0.43271 0.12938
# Poissons Ratio (y) = 0.23918 0.30374
# Poissons Ratio (z) = 0.10287 0.43691
#
# Static dielectric constant tensor:
#      x y z
#    x 3.191330 -0.000010 0.126460 
#    y -0.000010 3.460430 0.000020 
#    z 0.126460 0.000020 3.302810 
# 
# 
# High freq. dielectric constant tensor:
#      x y z
#    x 1.694860 0.000010 0.011760 
#    y 0.000010 1.710790 0.000000 
#    z 0.011760 0.000000 1.709940 
# 
# From -- ./inp_files/239781.got.cif
#   From: 2010.06.25/outbox.cif.g09.slc.cpg/sg15_120_cif.got.tgz:239781.got - 2010.06.28 07:06:18.
