data_PCOD8131080
_publ_section_title
;
Structure prediction by ZEFSAII (Michael W. Deem and Ramdas Pophale) SiO2 
 PCOD8131080
Probable space group: C 2/C
;
_chemical_formula_sum "Si O2"
_cell_formula_units_Z 48
_cell_length_a 21.042375
_cell_length_b 13.650765
_cell_length_c 17.241227
_cell_angle_alpha 90.000000
_cell_angle_beta 25.152347
_cell_angle_gamma 90.000000
_cell_volume 2104.922087
_symmetry_space_group_name_H-M "C 2/C"
_symmetry_group_IT_number 15
_symmetry_cell_setting 'monoclinic'
loop_
_space_group_symop_operation_xyz
x,y,z
-x,y,1/2-z
-x,-y,-z
x,-y,1/2+z
1/2+x,1/2+y,z
1/2-x,1/2+y,1/2-z
1/2-x,1/2-y,-z
1/2+x,1/2-y,1/2+z
loop_
_atom_site_type_symbol
_atom_site_label
_atom_site_fract_x
_atom_site_fract_y
_atom_site_fract_z
Si Si1 0.293964 0.876042 0.673793
Si Si2 0.908027 0.087920 0.971658
Si Si3 0.581118 0.237591 0.813363
Si Si4 0.350606 0.378341 0.019103
Si Si5 0.202621 0.915943 0.240973
Si Si6 0.862987 0.720041 0.441026
O O1 0.250658 0.892566 0.811089
O O2 0.459649 0.831410 0.489958
O O3 0.170020 0.803618 0.776035
O O4 0.290336 0.981339 0.634920
O O5 0.888033 0.986344 0.945077
O O6 0.944007 0.179570 0.878826
O O7 0.035243 0.069725 0.894886
O O8 0.705780 0.167395 0.634773
O O9 0.494756 0.307357 0.847226
O O10 0.309799 0.380359 0.156564
O O11 0.290541 0.836562 0.092686
O O12 0.750000 0.750000 0.500000
O O13 0.000000 0.659020 0.250000
#
# Coordination Sequence:
#
# PCOD8131080 Si02
#       6
#     8   8   8   8   8   8
#     4  10  20  34  59  90 119 155 189 250 319 343
#     4  11  21  38  57  82 122 156 203 247 300 354
#     4  10  18  31  52  88 122 140 183 233 305 379
#     4  10  20  34  59  90 119 156 189 248 320 345
#     4  11  21  38  57  82 122 155 204 248 296 357
#     4  12  26  41  60  84 118 170 206 234 286 358
#
# _framework density 22.803694
#
# number of rings (size 3 to 8) (size 9 to 14) (size 15 to 20)
#    0.000    1.333    5.000    3.000    0.000    5.333 
#    0.000    0.000    0.000    0.000    0.000   23.333 
#    0.000    0.000    0.000    0.000    0.000    0.000 
#
# Total GULP energy -297440.786654 kJ/mol
# GULP energy per Si atom -12393.366111 kJ/mol
# Density = 2.275179 g / cm^3
# Si number density = 22.803694 Si / 1000 Ang^3
#
#
#
# Elastic Constant Matrix: (Units=GPa)
#
#
# Indices 1 2 3 4 5 6 
#
# 1 35.4926 13.3320 8.0115 0.0000 -6.8424 0.0000
# 2 13.3320 145.4545 32.6014 -0.0002 -12.8296 0.0001
# 3 8.0115 32.6014 90.1038 -0.0004 -27.0371 0.0002
# 4 0.0000 -0.0002 -0.0004 19.8656 0.0001 -12.4050
# 5 -6.8424 -12.8296 -27.0371 0.0001 32.0512 0.0000
# 6 0.0000 0.0001 0.0002 -12.4050 0.0000 22.4616
#
#
#
# Elastic Compliance Matrix: (Units=1/GPa)
#
#
# Indices 1 2 3 4 5 6 
#
# 1 0.030096 -0.002229 -0.000280 0.000000 0.005296 0.000000
# 2 -0.002229 0.007669 -0.002408 0.000000 0.000563 0.000000
# 3 -0.000280 -0.002408 0.015648 0.000000 0.012177 0.000000
# 4 0.000000 0.000000 0.000000 0.076837 0.000000 0.042435
# 5 0.005296 0.000563 0.012177 0.000000 0.042828 0.000000
# 6 0.000000 0.000000 0.000000 0.042435 0.000000 0.067956
#
#
# Mechanical properties :
#
#
# Convention : Reuss Voigt Hill
#
# Bulk Modulus (GPa) = 22.94626 42.10451 32.52538
# Shear Modulus (GPa) = 18.83997 29.34942 24.09469
#
# Velocity S-wave (km/s) = 2.87745 3.59144 3.25409
# Velocity P-wave (km/s) = 4.59609 5.97510 5.33038
#
# Compressibility (1/GPa) = 0.04358009
#
# Stress axis : x y z
#
# Youngs Moduli (GPa) = 33.22658 130.40301 63.90536
#
# Poissons Ratio (x) = 0.29061 0.01792
# Poissons Ratio (y) = 0.07405 0.15386
# Poissons Ratio (z) = 0.00932 0.31395
#
# Static dielectric constant tensor:
#      x y z
#    x 3.532530 0.000000 -0.327470 
#    y 0.000000 4.750270 0.000000 
#    z -0.327470 0.000000 4.191250 
# 
# 
# High freq. dielectric constant tensor:
#      x y z
#    x 1.853280 0.000000 -0.018520 
#    y 0.000000 1.921440 0.000000 
#    z -0.018520 0.000000 1.905660 
# 
# From -- ./inp_files/69855.got.cif
#   From: 2010.06.25/outbox.cif.g09.slc.cpg/sg15_35_cif.got.tgz:69855.got - 2010.06.28 07:06:18.
