data_PCOD8131382
_publ_section_title
;
Structure prediction by ZEFSAII (Michael W. Deem and Ramdas Pophale) SiO2 
 PCOD8131382
Probable space group: C 2/C
;
_chemical_formula_sum "Si O2"
_cell_formula_units_Z 36
_cell_length_a 16.810615
_cell_length_b 7.742739
_cell_length_c 17.798486
_cell_angle_alpha 90.000000
_cell_angle_beta 128.532505
_cell_angle_gamma 90.000000
_cell_volume 1812.214315
_symmetry_space_group_name_H-M "C 2/C"
_symmetry_group_IT_number 15
_symmetry_cell_setting 'monoclinic'
loop_
_space_group_symop_operation_xyz
x,y,z
-x,y,1/2-z
-x,-y,-z
x,-y,1/2+z
1/2+x,1/2+y,z
1/2-x,1/2+y,1/2-z
1/2-x,1/2-y,-z
1/2+x,1/2-y,1/2+z
loop_
_atom_site_type_symbol
_atom_site_label
_atom_site_fract_x
_atom_site_fract_y
_atom_site_fract_z
Si Si1 0.066835 0.189801 0.223905
Si Si2 0.046994 0.393744 0.460486
Si Si3 0.168751 0.372737 0.915223
Si Si4 0.500000 0.638612 0.750000
Si Si5 0.759081 0.202314 0.917987
O O1 0.184234 0.192364 0.318574
O O2 0.000000 0.285029 0.250000
O O3 0.045241 0.291401 0.134343
O O4 0.029506 0.988851 0.197255
O O5 0.104704 0.525094 0.439753
O O6 0.126435 0.250709 0.539458
O O7 0.000000 0.500000 0.500000
O O8 0.095641 0.256812 0.822444
O O9 0.230378 0.500230 0.895125
O O10 0.250000 0.250000 0.000000
O O11 0.750000 0.250000 0.000000
#
# Coordination Sequence:
#
# PCOD8131382 Si02
#       5
#     8   8   8   4   8
#     4  10  18  37  64  86 120 163 212 253 307 363
#     4  11  23  40  59  91 128 163 199 263 324 361
#     4  11  19  33  60  89 110 155 212 249 291 372
#     4  10  18  32  60  94 110 150 218 260 282 356
#     4  10  18  36  61  85 117 162 205 249 299 366
#
# _framework density 19.865200000000002
#
# number of rings (size 3 to 8) (size 9 to 14) (size 15 to 20)
#    0.667    0.889    4.444    5.333    0.000    0.000 
#    0.000   11.111    0.000    0.000    0.000    0.000 
#    0.000    0.000    0.000    0.000    0.000    0.000 
#
# Total GULP energy -223053.078968 kJ/mol
# GULP energy per Si atom -12391.837720 kJ/mol
# Density = 1.981999 g / cm^3
# Si number density = 19.865200 Si / 1000 Ang^3
#
#
#
# Elastic Constant Matrix: (Units=GPa)
#
#
# Indices 1 2 3 4 5 6 
#
# 1 71.4499 47.0920 44.0404 0.0000 5.5071 0.0000
# 2 47.0920 144.7480 64.0944 0.0000 7.0170 0.0000
# 3 44.0404 64.0944 154.6429 0.0000 29.1922 0.0000
# 4 0.0000 0.0000 0.0000 49.2465 0.0000 8.3711
# 5 5.5071 7.0170 29.1922 0.0000 25.5312 0.0000
# 6 0.0000 0.0000 0.0000 8.3711 0.0000 37.3644
#
#
#
# Elastic Compliance Matrix: (Units=1/GPa)
#
#
# Indices 1 2 3 4 5 6 
#
# 1 0.019325 -0.004650 -0.003865 0.000000 0.001529 0.000000
# 2 -0.004650 0.009674 -0.003026 0.000000 0.001804 0.000000
# 3 -0.003865 -0.003026 0.010848 0.000000 -0.010739 0.000000
# 4 0.000000 0.000000 0.000000 0.021110 0.000000 -0.004729
# 5 0.001529 0.001804 -0.010739 0.000000 0.050621 0.000000
# 6 0.000000 0.000000 0.000000 -0.004729 0.000000 0.027823
#
#
# Mechanical properties :
#
#
# Convention : Reuss Voigt Hill
#
# Bulk Modulus (GPa) = 59.64396 75.69938 67.67167
# Shear Modulus (GPa) = 29.74946 36.80270 33.27608
#
# Velocity S-wave (km/s) = 3.87404 4.30888 4.09723
# Velocity P-wave (km/s) = 7.07817 7.93376 7.51814
#
# Compressibility (1/GPa) = 0.01676616
#
# Stress axis : x y z
#
# Youngs Moduli (GPa) = 51.74670 103.37329 92.17959
#
# Poissons Ratio (x) = 0.48067 0.35626
# Poissons Ratio (y) = 0.24062 0.27891
# Poissons Ratio (z) = 0.19999 0.31278
#
# Static dielectric constant tensor:
#      x y z
#    x 3.338740 0.000000 0.402030 
#    y 0.000000 4.031650 0.000000 
#    z 0.402030 0.000000 3.687330 
# 
# 
# High freq. dielectric constant tensor:
#      x y z
#    x 1.721100 0.000000 0.031390 
#    y 0.000000 1.787190 0.000000 
#    z 0.031390 0.000000 1.786340 
# 
# From -- ./inp_files/180396.got.cif
#   From: 2010.06.25/outbox.cif.g09.slc.cpg/sg15_91_cif.got.tgz:180396.got - 2010.06.28 07:06:18.
