data_PCOD8131806
_publ_section_title
;
Structure prediction by ZEFSAII (Michael W. Deem and Ramdas Pophale) SiO2 
 PCOD8131806
Probable space group: C 2/C
;
_chemical_formula_sum "Si O2"
_cell_formula_units_Z 44
_cell_length_a 17.579175
_cell_length_b 16.368664
_cell_length_c 9.539192
_cell_angle_alpha 90.000000
_cell_angle_beta 42.181848
_cell_angle_gamma 90.000000
_cell_volume 1843.147898
_symmetry_space_group_name_H-M "C 2/C"
_symmetry_group_IT_number 15
_symmetry_cell_setting 'monoclinic'
loop_
_space_group_symop_operation_xyz
x,y,z
-x,y,1/2-z
-x,-y,-z
x,-y,1/2+z
1/2+x,1/2+y,z
1/2-x,1/2+y,1/2-z
1/2-x,1/2-y,-z
1/2+x,1/2-y,1/2+z
loop_
_atom_site_type_symbol
_atom_site_label
_atom_site_fract_x
_atom_site_fract_y
_atom_site_fract_z
Si Si1 0.291537 0.448771 0.588578
Si Si2 0.500000 0.454245 0.750000
Si Si3 0.205311 0.178601 0.656188
Si Si4 0.825888 0.854542 0.809618
Si Si5 0.162612 0.389785 0.268912
Si Si6 0.997610 0.730120 0.586758
O O1 0.407779 0.495728 0.465232
O O2 0.322002 0.397773 0.407460
O O3 0.263230 0.392898 0.760330
O O4 0.187191 0.513152 0.712816
O O5 0.433308 0.403252 0.724658
O O6 0.250000 0.250000 0.500000
O O7 0.296865 0.140735 0.635408
O O8 0.101978 0.220544 0.880122
O O9 0.881308 0.769978 0.684778
O O10 0.730139 0.841560 0.055391
O O11 0.028119 0.364128 0.430427
O O12 0.000000 0.736668 0.750000
#
# Coordination Sequence:
#
# PCOD8131806 Si02
#       6
#     8   4   8   8   8   8
#     4  11  23  40  69 102 147 187 242 311 374 424
#     4  10  18  34  60 104 138 174 240 302 372 424
#     4  12  27  47  71 107 145 194 253 308 366 436
#     4  11  20  38  68 100 138 183 239 298 363 435
#     4  11  24  43  69 105 146 191 238 300 375 444
#     4  12  24  44  74 105 142 194 250 301 368 447
#
# _framework density 23.872204
#
# number of rings (size 3 to 8) (size 9 to 14) (size 15 to 20)
#    0.000    0.727    2.727    6.545    2.545    2.182 
#    0.000    0.909    0.000    0.000    0.000    0.000 
#    0.000    0.000    0.000    0.000    0.000    0.000 
#
# Total GULP energy -272542.026552 kJ/mol
# GULP energy per Si atom -12388.273934 kJ/mol
# Density = 2.381787 g / cm^3
# Si number density = 23.872204 Si / 1000 Ang^3
#
#
#
# Elastic Constant Matrix: (Units=GPa)
#
#
# Indices 1 2 3 4 5 6 
#
# 1 86.7619 44.8228 41.0636 0.0000 17.3642 0.0000
# 2 44.8228 108.1038 42.9410 0.0000 0.1836 0.0000
# 3 41.0636 42.9410 87.3528 0.0000 30.9346 0.0000
# 4 0.0000 0.0000 0.0000 32.8409 0.0000 1.8906
# 5 17.3642 0.1836 30.9346 0.0000 28.9523 0.0000
# 6 0.0000 0.0000 0.0000 1.8906 0.0000 29.1967
#
#
#
# Elastic Compliance Matrix: (Units=1/GPa)
#
#
# Indices 1 2 3 4 5 6 
#
# 1 0.017473 -0.006335 -0.002257 0.000000 -0.008028 0.000000
# 2 -0.006335 0.015728 -0.009755 0.000000 0.014122 0.000000
# 3 -0.002257 -0.009755 0.027031 0.000000 -0.027466 0.000000
# 4 0.000000 0.000000 0.000000 0.030564 0.000000 -0.001979
# 5 -0.008028 0.014122 -0.027466 0.000000 0.068612 0.000000
# 6 0.000000 0.000000 0.000000 -0.001979 0.000000 0.034379
#
#
# Mechanical properties :
#
#
# Convention : Reuss Voigt Hill
#
# Bulk Modulus (GPa) = 42.48284 59.98591 51.23437
# Shear Modulus (GPa) = 20.97975 28.42405 24.70190
#
# Velocity S-wave (km/s) = 2.96773 3.45436 3.22025
# Velocity P-wave (km/s) = 5.43855 6.41035 5.94434
#
# Compressibility (1/GPa) = 0.02353892
#
# Stress axis : x y z
#
# Youngs Moduli (GPa) = 57.22986 63.58196 36.99496
#
# Poissons Ratio (x) = 0.40278 0.08350
# Poissons Ratio (y) = 0.36254 0.36087
# Poissons Ratio (z) = 0.12916 0.62022
#
# Static dielectric constant tensor:
#      x y z
#    x 5.413950 0.000000 -2.152960 
#    y 0.000000 5.075940 0.000000 
#    z -2.152960 0.000000 8.665030 
# 
# 
# High freq. dielectric constant tensor:
#      x y z
#    x 1.941000 0.000000 0.015660 
#    y 0.000000 1.966160 0.000000 
#    z 0.015660 0.000000 1.938640 
# 
# From -- ./inp_files/48907.got.cif
#   From: 2010.06.25/outbox.cif.g09.slc.cpg/sg15_25_cif.got.tgz:48907.got - 2010.06.28 07:06:18.
