data_PCOD8131645
_publ_section_title
;
Structure prediction by ZEFSAII (Michael W. Deem and Ramdas Pophale) SiO2 
 PCOD8131645
Probable space group: C 2/C
;
_chemical_formula_sum "Si O2"
_cell_formula_units_Z 60
_cell_length_a 16.343121
_cell_length_b 8.085290
_cell_length_c 26.881197
_cell_angle_alpha 90.000000
_cell_angle_beta 119.895010
_cell_angle_gamma 90.000000
_cell_volume 3079.415723
_symmetry_space_group_name_H-M "C 2/C"
_symmetry_group_IT_number 15
_symmetry_cell_setting 'monoclinic'
loop_
_space_group_symop_operation_xyz
x,y,z
-x,y,1/2-z
-x,-y,-z
x,-y,1/2+z
1/2+x,1/2+y,z
1/2-x,1/2+y,1/2-z
1/2-x,1/2-y,-z
1/2+x,1/2-y,1/2+z
loop_
_atom_site_type_symbol
_atom_site_label
_atom_site_fract_x
_atom_site_fract_y
_atom_site_fract_z
Si Si1 0.643416 0.755674 0.659312
Si Si2 0.165787 0.751822 0.278288
Si Si3 0.480874 0.021975 0.075465
Si Si4 0.500000 0.007968 0.250000
Si Si5 0.120333 0.356104 0.367561
Si Si6 0.701626 0.546283 0.119237
Si Si7 0.288239 0.461100 0.641529
Si Si8 0.623139 0.154595 0.546087
O O1 0.672488 0.693857 0.722961
O O2 0.544693 0.855086 0.628311
O O3 0.634456 0.594924 0.621493
O O4 0.728802 0.867182 0.665580
O O5 0.263369 0.666884 0.325670
O O6 0.083030 0.620769 0.255303
O O7 0.146302 0.908160 0.308663
O O8 0.416367 0.900794 0.088815
O O9 0.544753 0.906475 0.060825
O O10 0.412246 0.133905 0.020877
O O11 0.534763 0.888883 0.304114
O O12 0.209592 0.470374 0.382659
O O13 0.147126 0.162750 0.371167
O O14 0.640953 0.651469 0.061450
O O15 0.219678 0.551837 0.581828
#
# Coordination Sequence:
#
# PCOD8131645 Si02
#       8
#     8   8   8   4   8   8   8   8
#     4  10  18  34  56  81 105 149 184 227 274 340
#     4  10  18  34  53  77 111 146 180 231 272 336
#     4  10  20  36  60  77 112 144 185 227 284 312
#     4  10  20  34  52  78 118 136 176 234 278 328
#     4  10  20  37  54  82 107 150 176 231 275 332
#     4   9  20  35  54  78 111 139 189 224 275 325
#     4   9  20  35  55  78 111 143 189 222 281 330
#     4   9  20  39  54  81 108 147 185 235 262 335
#
# _framework density 19.484216
#
# number of rings (size 3 to 8) (size 9 to 14) (size 15 to 20)
#    0.000    2.400    1.333    0.800    0.000    2.133 
#    7.200    0.000    0.000    0.000    0.000    0.000 
#    0.000    0.000    0.000    0.000    0.000    0.000 
#
# Total GULP energy -372016.080128 kJ/mol
# GULP energy per Si atom -12400.536004 kJ/mol
# Density = 1.943987 g / cm^3
# Si number density = 19.484216 Si / 1000 Ang^3
#
#
#
# Elastic Constant Matrix: (Units=GPa)
#
#
# Indices 1 2 3 4 5 6 
#
# 1 57.7762 26.9158 28.1753 0.0000 -2.7363 0.0000
# 2 26.9158 94.1397 19.4568 0.0000 -0.0664 0.0000
# 3 28.1753 19.4568 82.7118 0.0000 -3.8288 0.0000
# 4 0.0000 0.0000 0.0000 24.4343 0.0000 -2.9787
# 5 -2.7363 -0.0664 -3.8288 0.0000 24.1112 0.0000
# 6 0.0000 0.0000 0.0000 -2.9787 0.0000 27.0650
#
#
#
# Elastic Compliance Matrix: (Units=1/GPa)
#
#
# Indices 1 2 3 4 5 6 
#
# 1 0.023003 -0.005225 -0.006534 0.000000 0.001558 0.000000
# 2 -0.005225 0.012356 -0.001161 0.000000 -0.000743 0.000000
# 3 -0.006534 -0.001161 0.014663 0.000000 0.001584 0.000000
# 4 0.000000 0.000000 0.000000 0.041483 0.000000 0.004566
# 5 0.001558 -0.000743 0.001584 0.000000 0.041901 0.000000
# 6 0.000000 0.000000 0.000000 0.004566 0.000000 0.037451
#
#
# Mechanical properties :
#
#
# Convention : Reuss Voigt Hill
#
# Bulk Modulus (GPa) = 41.35675 42.63596 41.99636
# Shear Modulus (GPa) = 24.41924 25.79408 25.10666
#
# Velocity S-wave (km/s) = 3.54401 3.64242 3.59355
# Velocity P-wave (km/s) = 6.16592 6.29439 6.23049
#
# Compressibility (1/GPa) = 0.02417985
#
# Stress axis : x y z
#
# Youngs Moduli (GPa) = 43.47297 80.93299 68.20103
#
# Poissons Ratio (x) = 0.42289 0.44566
# Poissons Ratio (y) = 0.22715 0.07918
# Poissons Ratio (z) = 0.28407 0.09397
#
# Static dielectric constant tensor:
#      x y z
#    x 3.374660 0.000000 0.164740 
#    y 0.000000 3.643510 0.000000 
#    z 0.164740 0.000000 3.639630 
# 
# 
# High freq. dielectric constant tensor:
#      x y z
#    x 1.742420 0.000000 0.005610 
#    y 0.000000 1.760750 0.000000 
#    z 0.005610 0.000000 1.757270 
# 
# From -- ./inp_files/273209.got.cif
#   From: 2010.06.25/outbox.cif.g09.slc.cpg/sg15_137_cif.got.tgz:273209.got - 2010.06.28 07:06:18.
