data_PCOD8131530
_publ_section_title
;
Structure prediction by ZEFSAII (Michael W. Deem and Ramdas Pophale) SiO2 
 PCOD8131530
Probable space group: C 2/C
;
_chemical_formula_sum "Si O2"
_cell_formula_units_Z 52
_cell_length_a 10.305270
_cell_length_b 20.185853
_cell_length_c 14.498326
_cell_angle_alpha 90.000000
_cell_angle_beta 46.909692
_cell_angle_gamma 90.000000
_cell_volume 2202.482510
_symmetry_space_group_name_H-M "C 2/C"
_symmetry_group_IT_number 15
_symmetry_cell_setting 'monoclinic'
loop_
_space_group_symop_operation_xyz
x,y,z
-x,y,1/2-z
-x,-y,-z
x,-y,1/2+z
1/2+x,1/2+y,z
1/2-x,1/2+y,1/2-z
1/2-x,1/2-y,-z
1/2+x,1/2-y,1/2+z
loop_
_atom_site_type_symbol
_atom_site_label
_atom_site_fract_x
_atom_site_fract_y
_atom_site_fract_z
Si Si1 0.792051 0.190986 0.577483
Si Si2 0.500000 0.902389 0.250000
Si Si3 0.126219 0.759141 0.827502
Si Si4 0.940808 0.089637 0.952959
Si Si5 0.203228 0.686005 0.963770
Si Si6 0.264495 0.504656 0.197211
Si Si7 0.612863 0.869716 0.787694
O O1 0.628709 0.143840 0.622046
O O2 0.692000 0.242829 0.693432
O O3 0.908538 0.230989 0.442671
O O4 0.934174 0.144186 0.559957
O O5 0.619981 0.947502 0.255659
O O6 0.207059 0.701396 0.853388
O O7 0.211696 0.827635 0.821899
O O8 0.830892 0.124413 0.924571
O O9 0.807115 0.050400 0.085879
O O10 0.059739 0.030753 0.849529
O O11 0.250000 0.750000 0.000000
O O12 0.999369 0.669368 0.082732
O O13 0.175214 0.560584 0.305160
O O14 0.500000 0.881306 0.750000
#
# Coordination Sequence:
#
# PCOD8131530 Si02
#       7
#     8   4   8   8   8   8   8
#     4  11  23  39  58  88 119 153 194 242 297 347
#     4  10  22  38  60  84 114 156 202 244 282 344
#     4  12  23  36  59  90 122 149 190 246 303 358
#     4  10  19  32  54  88 114 148 188 248 286 334
#     4  12  19  31  54  88 120 146 182 241 303 345
#     4  10  18  33  57  83 115 152 207 236 276 344
#     4  12  18  31  55  88 115 148 190 241 290 340
#
# _framework density 23.609722000000001
#
# number of rings (size 3 to 8) (size 9 to 14) (size 15 to 20)
#    0.000    0.923    8.462    0.000    0.000    0.615 
#    0.000    0.000    0.000   10.154    0.000    0.000 
#    0.000    0.000    0.000    0.000    0.000    0.000 
#
# Total GULP energy -322106.150250 kJ/mol
# GULP energy per Si atom -12388.698087 kJ/mol
# Density = 2.355598 g / cm^3
# Si number density = 23.609722 Si / 1000 Ang^3
#
#
#
# Elastic Constant Matrix: (Units=GPa)
#
#
# Indices 1 2 3 4 5 6 
#
# 1 41.8404 31.3395 38.8904 0.0001 -22.3678 -0.0001
# 2 31.3395 147.7753 71.7210 0.0000 -19.6269 0.0000
# 3 38.8904 71.7210 139.2301 0.0003 -28.9244 -0.0004
# 4 0.0001 0.0000 0.0003 54.0301 -0.0002 -28.9694
# 5 -22.3678 -19.6269 -28.9244 -0.0002 37.7221 0.0002
# 6 -0.0001 0.0000 -0.0004 -28.9694 0.0002 32.1652
#
#
#
# Elastic Compliance Matrix: (Units=1/GPa)
#
#
# Indices 1 2 3 4 5 6 
#
# 1 0.042061 -0.003505 -0.006115 0.000000 0.018428 0.000000
# 2 -0.003505 0.009373 -0.003887 0.000000 -0.000182 0.000000
# 3 -0.006115 -0.003887 0.011561 0.000000 0.003216 0.000000
# 4 0.000000 0.000000 0.000000 0.035792 0.000000 0.032236
# 5 0.018428 -0.000182 0.003216 0.000000 0.039808 0.000000
# 6 0.000000 0.000000 0.000000 0.032236 0.000000 0.060123
#
#
# Mechanical properties :
#
#
# Convention : Reuss Voigt Hill
#
# Bulk Modulus (GPa) = 27.79220 68.08307 47.93764
# Shear Modulus (GPa) = 21.03272 37.24313 29.13792
#
# Velocity S-wave (km/s) = 2.98795 3.97602 3.51686
# Velocity P-wave (km/s) = 4.86835 7.06950 6.06954
#
# Compressibility (1/GPa) = 0.03598132
#
# Stress axis : x y z
#
# Youngs Moduli (GPa) = 23.77497 106.69400 86.49908
#
# Poissons Ratio (x) = 0.37394 0.52893
# Poissons Ratio (y) = 0.08333 0.33621
# Poissons Ratio (z) = 0.14538 0.41471
#
# Static dielectric constant tensor:
#      x y z
#    x 3.940250 0.000000 -0.796060 
#    y 0.000000 5.001920 0.000000 
#    z -0.796060 0.000000 4.572350 
# 
# 
# High freq. dielectric constant tensor:
#      x y z
#    x 1.894220 0.000000 -0.057160 
#    y 0.000000 1.960030 0.000000 
#    z -0.057160 0.000000 1.938670 
# 
# From -- ./inp_files/200326.got.cif
#   From: 2010.06.25/outbox.cif.g09.slc.cpg/sg15_101_cif.got.tgz:200326.got - 2010.06.28 07:06:18.
