data_PCOD8131552
_publ_section_title
;
Structure prediction by ZEFSAII (Michael W. Deem and Ramdas Pophale) SiO2 
 PCOD8131552
Probable space group: C 2/C
;
_chemical_formula_sum "Si O2"
_cell_formula_units_Z 64
_cell_length_a 10.867004
_cell_length_b 17.607639
_cell_length_c 22.095642
_cell_angle_alpha 90.000000
_cell_angle_beta 127.830649
_cell_angle_gamma 90.000000
_cell_volume 3339.254922
_symmetry_space_group_name_H-M "C 2/C"
_symmetry_group_IT_number 15
_symmetry_cell_setting 'monoclinic'
loop_
_space_group_symop_operation_xyz
x,y,z
-x,y,1/2-z
-x,-y,-z
x,-y,1/2+z
1/2+x,1/2+y,z
1/2-x,1/2+y,1/2-z
1/2-x,1/2-y,-z
1/2+x,1/2-y,1/2+z
loop_
_atom_site_type_symbol
_atom_site_label
_atom_site_fract_x
_atom_site_fract_y
_atom_site_fract_z
Si Si1 0.906684 0.413353 0.537892
Si Si2 0.928991 0.790350 0.897830
Si Si3 0.281279 0.001569 0.396757
Si Si4 0.389996 0.348928 0.660848
Si Si5 0.004253 0.793910 0.163216
Si Si6 0.061702 0.736735 0.057276
Si Si7 0.243865 0.149425 0.827734
Si Si8 0.602844 0.134758 0.333612
O O1 0.774290 0.458901 0.460310
O O2 0.876247 0.418734 0.600933
O O3 0.066238 0.450118 0.565839
O O4 0.922952 0.325661 0.521320
O O5 0.893048 0.703983 0.865734
O O6 0.772316 0.838073 0.863258
O O7 0.022665 0.833219 0.874879
O O8 0.041956 0.783888 0.989800
O O9 0.285107 0.939172 0.344287
O O10 0.138769 0.060159 0.347087
O O11 0.500000 0.326049 0.750000
O O12 0.232435 0.299622 0.615955
O O13 0.840161 0.828652 0.134206
O O14 0.009496 0.705327 0.183370
O O15 0.032844 0.800105 0.100395
O O16 0.138011 0.840103 0.237318
O O17 0.500000 0.092456 0.250000
#
# Coordination Sequence:
#
# PCOD8131552 Si02
#       8
#     8   8   8   8   8   8   8   8
#     4   9  20  36  59  83 114 154 198 239 292 355
#     4  11  21  36  61  89 111 154 190 255 304 346
#     4  10  21  37  57  83 112 158 200 241 286 369
#     4  11  25  39  59  83 121 160 198 240 303 371
#     4   9  18  31  55  89 115 139 191 250 287 333
#     4  10  20  37  60  87 116 152 196 243 297 358
#     4  10  18  33  58  85 114 145 193 245 292 338
#     4  10  19  34  59  88 120 148 196 250 296 348
#
# _framework density 19.165953999999999
#
# number of rings (size 3 to 8) (size 9 to 14) (size 15 to 20)
#    0.000    2.000    3.750    1.125    7.000    1.500 
#    0.000    0.625    2.750    0.750    0.000    0.000 
#    0.000    0.000    0.000    0.000    0.000    0.000 
#
# Total GULP energy -396619.498375 kJ/mol
# GULP energy per Si atom -12394.359324 kJ/mol
# Density = 1.912233 g / cm^3
# Si number density = 19.165954 Si / 1000 Ang^3
#
#
#
# Elastic Constant Matrix: (Units=GPa)
#
#
# Indices 1 2 3 4 5 6 
#
# 1 46.3899 6.8103 24.0661 0.0000 -12.0047 0.0000
# 2 6.8103 53.9887 24.2476 0.0000 -8.1227 0.0000
# 3 24.0661 24.2476 99.5553 0.0000 -5.5302 0.0000
# 4 0.0000 0.0000 0.0000 20.3639 0.0000 -5.2078
# 5 -12.0047 -8.1227 -5.5302 0.0000 30.3305 0.0000
# 6 0.0000 0.0000 0.0000 -5.2078 0.0000 18.4499
#
#
#
# Elastic Compliance Matrix: (Units=1/GPa)
#
#
# Indices 1 2 3 4 5 6 
#
# 1 0.027221 0.000853 -0.006240 0.000000 0.009865 0.000000
# 2 0.000853 0.021507 -0.005158 0.000000 0.005157 0.000000
# 3 -0.006240 -0.005158 0.012724 0.000000 -0.001531 0.000000
# 4 0.000000 0.000000 0.000000 0.052927 0.000000 0.014940
# 5 0.009865 0.005157 -0.001531 0.000000 0.037976 0.000000
# 6 0.000000 0.000000 0.000000 0.014940 0.000000 0.058418
#
#
# Mechanical properties :
#
#
# Convention : Reuss Voigt Hill
#
# Bulk Modulus (GPa) = 24.77547 34.46464 29.62006
# Shear Modulus (GPa) = 20.38165 23.48285 21.93225
#
# Velocity S-wave (km/s) = 3.26457 3.50414 3.38647
# Velocity P-wave (km/s) = 5.21198 5.86457 5.54788
#
# Compressibility (1/GPa) = 0.04036251
#
# Stress axis : x y z
#
# Youngs Moduli (GPa) = 36.73612 46.49593 78.58948
#
# Poissons Ratio (x) = -0.03966 0.49041
# Poissons Ratio (y) = -0.03134 0.40537
# Poissons Ratio (z) = 0.22924 0.23983
#
# Static dielectric constant tensor:
#      x y z
#    x 3.324470 0.000000 -0.056880 
#    y 0.000000 3.482150 0.000000 
#    z -0.056880 0.000000 3.731350 
# 
# 
# High freq. dielectric constant tensor:
#      x y z
#    x 1.721800 0.000000 0.001160 
#    y 0.000000 1.719170 0.000000 
#    z 0.001160 0.000000 1.763880 
# 
# From -- ./inp_files/239844.got.cif
#   From: 2010.06.25/outbox.cif.g09.slc.cpg/sg15_120_cif.got.tgz:239844.got - 2010.06.28 07:06:18.
