data_PCOD8131513
_publ_section_title
;
Structure prediction by ZEFSAII (Michael W. Deem and Ramdas Pophale) SiO2 
 PCOD8131513
Probable space group: C 2/C
;
_chemical_formula_sum "Si O2"
_cell_formula_units_Z 64
_cell_length_a 12.441230
_cell_length_b 25.326248
_cell_length_c 11.345317
_cell_angle_alpha 90.000000
_cell_angle_beta 92.616518
_cell_angle_gamma 90.000000
_cell_volume 3571.065364
_symmetry_space_group_name_H-M "C 2/C"
_symmetry_group_IT_number 15
_symmetry_cell_setting 'monoclinic'
loop_
_space_group_symop_operation_xyz
x,y,z
-x,y,1/2-z
-x,-y,-z
x,-y,1/2+z
1/2+x,1/2+y,z
1/2-x,1/2+y,1/2-z
1/2-x,1/2-y,-z
1/2+x,1/2-y,1/2+z
loop_
_atom_site_type_symbol
_atom_site_label
_atom_site_fract_x
_atom_site_fract_y
_atom_site_fract_z
Si Si1 0.436557 0.510639 0.372046
Si Si2 0.137366 0.894947 0.500335
Si Si3 0.071019 0.163229 0.573539
Si Si4 0.521803 0.215134 0.118518
Si Si5 0.824554 0.085491 0.759080
Si Si6 0.192997 0.305596 0.020885
Si Si7 0.624904 0.149943 0.759386
Si Si8 0.213374 0.691028 0.995381
O O1 0.500000 0.517862 0.250000
O O2 0.500000 0.500000 0.500000
O O3 0.364841 0.562912 0.393035
O O4 0.355010 0.462437 0.346426
O O5 0.147109 0.925836 0.375820
O O6 0.233313 0.853359 0.523992
O O7 0.023984 0.865019 0.499646
O O8 0.103397 0.136655 0.700297
O O9 0.178299 0.155866 0.496632
O O10 0.038422 0.223369 0.592571
O O11 0.500000 0.204493 0.250000
O O12 0.629679 0.181051 0.096930
O O13 0.421761 0.191238 0.045077
O O14 0.696957 0.096586 0.766547
O O15 0.169696 0.313084 0.157383
O O16 0.250000 0.250000 0.000000
O O17 0.500000 0.133608 0.750000
O O18 0.642890 0.184538 0.874939
O O19 0.250000 0.750000 0.000000
#
# Coordination Sequence:
#
# PCOD8131513 Si02
#       8
#     8   8   8   8   8   8   8   8
#     4  12  22  39  62  91 123 154 194 254 317 366
#     4  11  21  37  58  88 120 148 199 244 304 364
#     4  10  18  33  56  84 112 153 200 238 287 369
#     4  11  21  35  54  76 120 160 199 237 294 356
#     4  10  20  35  63  87 113 151 197 251 297 370
#     4  11  23  36  57  86 119 160 196 245 292 357
#     4  10  20  38  60  83 111 153 215 249 277 354
#     4   9  20  33  51  79 109 152 196 239 284 337
#
# _framework density 17.921823
#
# number of rings (size 3 to 8) (size 9 to 14) (size 15 to 20)
#    0.000    1.500    5.000    1.125    5.250    0.000 
#    2.250    0.625    0.000    3.750    0.000    0.000 
#    0.000    0.000    0.000    0.000    0.000    0.000 
#
# Total GULP energy -396500.781801 kJ/mol
# GULP energy per Si atom -12390.649431 kJ/mol
# Density = 1.788103 g / cm^3
# Si number density = 17.921823 Si / 1000 Ang^3
#
#
#
# Elastic Constant Matrix: (Units=GPa)
#
#
# Indices 1 2 3 4 5 6 
#
# 1 193.9212 86.8765 42.4924 0.0000 -0.3810 0.0000
# 2 86.8765 115.5180 40.6085 0.0000 4.3297 0.0000
# 3 42.4924 40.6085 104.7265 0.0000 -20.2859 0.0000
# 4 0.0000 0.0000 0.0000 29.7051 0.0000 3.9608
# 5 -0.3810 4.3297 -20.2859 0.0000 30.0841 0.0000
# 6 0.0000 0.0000 0.0000 3.9608 0.0000 34.9213
#
#
#
# Elastic Compliance Matrix: (Units=1/GPa)
#
#
# Indices 1 2 3 4 5 6 
#
# 1 0.007875 -0.005586 -0.000982 0.000000 0.000241 0.000000
# 2 -0.005586 0.014591 -0.004384 0.000000 -0.005127 0.000000
# 3 -0.000982 -0.004384 0.013535 0.000000 0.009745 0.000000
# 4 0.000000 0.000000 0.000000 0.034181 0.000000 -0.003877
# 5 0.000241 -0.005127 0.009745 0.000000 0.040553 0.000000
# 6 0.000000 0.000000 0.000000 -0.003877 0.000000 0.029076
#
#
# Mechanical properties :
#
#
# Convention : Reuss Voigt Hill
#
# Bulk Modulus (GPa) = 70.94589 83.79117 77.36853
# Shear Modulus (GPa) = 30.04527 35.22132 32.63330
#
# Velocity S-wave (km/s) = 4.09891 4.43795 4.27179
# Velocity P-wave (km/s) = 7.87868 8.55078 8.22160
#
# Compressibility (1/GPa) = 0.01409525
#
# Stress axis : x y z
#
# Youngs Moduli (GPa) = 126.98222 68.53397 73.88170
#
# Poissons Ratio (x) = 0.38285 0.07259
# Poissons Ratio (y) = 0.70935 0.32393
# Poissons Ratio (z) = 0.12476 0.30048
#
# Static dielectric constant tensor:
#      x y z
#    x 3.946800 0.000000 -0.346890 
#    y 0.000000 3.301120 0.000000 
#    z -0.346890 0.000000 3.334320 
# 
# 
# High freq. dielectric constant tensor:
#      x y z
#    x 1.708810 0.000000 -0.008650 
#    y 0.000000 1.670000 0.000000 
#    z -0.008650 0.000000 1.689540 
# 
# From -- ./inp_files/90837.got.cif
#   From: 2010.06.25/outbox.cif.g09.slc.cpg/sg15_46_cif.got.tgz:90837.got - 2010.06.28 07:06:18.
