data_PCOD8131948
_publ_section_title
;
Structure prediction by ZEFSAII (Michael W. Deem and Ramdas Pophale) SiO2 
 PCOD8131948
Probable space group: C 2/C
;
_chemical_formula_sum "Si O2"
_cell_formula_units_Z 48
_cell_length_a 14.276991
_cell_length_b 4.863103
_cell_length_c 29.225568
_cell_angle_alpha 90.000000
_cell_angle_beta 94.360911
_cell_angle_gamma 90.000000
_cell_volume 2023.270491
_symmetry_space_group_name_H-M "C 2/C"
_symmetry_group_IT_number 15
_symmetry_cell_setting 'monoclinic'
loop_
_space_group_symop_operation_xyz
x,y,z
-x,y,1/2-z
-x,-y,-z
x,-y,1/2+z
1/2+x,1/2+y,z
1/2-x,1/2+y,1/2-z
1/2-x,1/2-y,-z
1/2+x,1/2-y,1/2+z
loop_
_atom_site_type_symbol
_atom_site_label
_atom_site_fract_x
_atom_site_fract_y
_atom_site_fract_z
Si Si1 0.840792 0.471578 0.479902
Si Si2 0.165354 0.928521 0.654554
Si Si3 0.858895 0.886377 0.556654
Si Si4 0.793474 0.927078 0.652631
Si Si5 0.312490 0.699660 0.248961
Si Si6 0.433674 0.476807 0.438594
O O1 0.858372 0.588888 0.531638
O O2 0.729114 0.433875 0.465661
O O3 0.890808 0.179310 0.475584
O O4 0.884608 0.682867 0.444271
O O5 0.254750 0.735647 0.645761
O O6 0.122549 0.853199 0.703465
O O7 0.086005 0.903482 0.612759
O O8 0.201668 0.239486 0.655867
O O9 0.852566 0.836994 0.610698
O O10 0.955215 0.046052 0.549717
O O11 0.857133 0.891287 0.701505
O O12 0.217585 0.517848 0.253603
#
# Coordination Sequence:
#
# PCOD8131948 Si02
#       6
#     8   8   8   8   8   8
#     4  11  26  42  58  87 122 154 198 241 290 348
#     4  10  18  35  56  83 115 148 186 239 286 339
#     4  11  24  40  64  86 117 160 195 242 292 344
#     4  10  19  36  55  84 113 149 192 233 285 344
#     4   8  16  29  54  78 109 148 183 226 288 339
#     4  12  23  41  61  88 119 155 196 241 293 346
#
# _framework density 23.723966999999998
#
# number of rings (size 3 to 8) (size 9 to 14) (size 15 to 20)
#    0.000    1.667    3.333    1.000    0.000    6.667 
#    0.000    0.833    0.000    0.000    0.000   16.333 
#    0.000    0.000    0.000    0.000    0.000    0.000 
#
# Total GULP energy -297502.520570 kJ/mol
# GULP energy per Si atom -12395.938357 kJ/mol
# Density = 2.366997 g / cm^3
# Si number density = 23.723967 Si / 1000 Ang^3
#
#
#
# Elastic Constant Matrix: (Units=GPa)
#
#
# Indices 1 2 3 4 5 6 
#
# 1 118.1471 15.1212 46.2238 0.0000 2.1763 0.0000
# 2 15.1212 63.5222 -4.9998 0.0000 6.6080 0.0000
# 3 46.2238 -4.9998 196.2476 0.0000 13.6611 0.0000
# 4 0.0000 0.0000 0.0000 27.0428 0.0000 5.3739
# 5 2.1763 6.6080 13.6611 0.0000 21.3789 0.0000
# 6 0.0000 0.0000 0.0000 5.3739 0.0000 8.9990
#
#
#
# Elastic Compliance Matrix: (Units=1/GPa)
#
#
# Indices 1 2 3 4 5 6 
#
# 1 0.009741 -0.002658 -0.002460 0.000000 0.001402 0.000000
# 2 -0.002658 0.017112 0.001477 0.000000 -0.005962 0.000000
# 3 -0.002460 0.001477 0.005994 0.000000 -0.004036 0.000000
# 4 0.000000 0.000000 0.000000 0.041957 0.000000 -0.025055
# 5 0.001402 -0.005962 -0.004036 0.000000 0.051054 0.000000
# 6 0.000000 0.000000 0.000000 -0.025055 0.000000 0.126085
#
#
# Mechanical properties :
#
#
# Convention : Reuss Voigt Hill
#
# Bulk Modulus (GPa) = 39.11645 54.51194 46.81420
# Shear Modulus (GPa) = 18.67444 32.92226 25.79835
#
# Velocity S-wave (km/s) = 2.80867 3.72926 3.30121
# Velocity P-wave (km/s) = 5.20021 6.44753 5.85716
#
# Compressibility (1/GPa) = 0.02556469
#
# Stress axis : x y z
#
# Youngs Moduli (GPa) = 102.66192 58.43927 166.84694
#
# Poissons Ratio (x) = 0.15534 0.41038
# Poissons Ratio (y) = 0.27289 -0.24645
# Poissons Ratio (z) = 0.25251 -0.08632
#
# Static dielectric constant tensor:
#      x y z
#    x 3.690530 0.000000 0.186230 
#    y 0.000000 4.098600 0.000000 
#    z 0.186230 0.000000 5.077760 
# 
# 
# High freq. dielectric constant tensor:
#      x y z
#    x 1.872270 0.000000 0.017140 
#    y 0.000000 1.948120 0.000000 
#    z 0.017140 0.000000 1.977570 
# 
# From -- ./inp_files/312083.got.cif
#   From: 2010.06.25/outbox.cif.g09.slc.cpg/sg15_157_cif.got.tgz:312083.got - 2010.06.28 07:06:18.
