data_PCOD8131562
_publ_section_title
;
Structure prediction by ZEFSAII (Michael W. Deem and Ramdas Pophale) SiO2 
 PCOD8131562
Probable space group: C 2/C
;
_chemical_formula_sum "Si O2"
_cell_formula_units_Z 44
_cell_length_a 11.190187
_cell_length_b 12.156778
_cell_length_c 27.217983
_cell_angle_alpha 90.000000
_cell_angle_beta 140.580096
_cell_angle_gamma 90.000000
_cell_volume 2351.173899
_symmetry_space_group_name_H-M "C 2/C"
_symmetry_group_IT_number 15
_symmetry_cell_setting 'monoclinic'
loop_
_space_group_symop_operation_xyz
x,y,z
-x,y,1/2-z
-x,-y,-z
x,-y,1/2+z
1/2+x,1/2+y,z
1/2-x,1/2+y,1/2-z
1/2-x,1/2-y,-z
1/2+x,1/2-y,1/2+z
loop_
_atom_site_type_symbol
_atom_site_label
_atom_site_fract_x
_atom_site_fract_y
_atom_site_fract_z
Si Si1 0.693011 0.464464 0.910944
Si Si2 0.405451 0.473860 0.392377
Si Si3 0.061762 0.281108 0.370263
Si Si4 0.500000 0.893528 0.250000
Si Si5 0.064435 0.613170 0.573344
Si Si6 0.478043 0.667692 0.004296
O O1 0.532078 0.538996 0.884296
O O2 0.586497 0.348851 0.869326
O O3 0.764221 0.527268 0.883600
O O4 0.869485 0.453008 0.004110
O O5 0.421411 0.590626 0.424328
O O6 0.486910 0.376292 0.451956
O O7 0.186002 0.467206 0.310046
O O8 0.260242 0.329698 0.450829
O O9 0.985753 0.320909 0.294123
O O10 0.921713 0.326912 0.368699
O O11 0.070822 0.711434 0.534961
#
# Coordination Sequence:
#
# PCOD8131562 Si02
#       6
#     8   8   8   4   8   8
#     4  10  19  33  61  84 113 141 190 238 295 335
#     4  10  18  35  54  84 105 154 185 233 285 350
#     4  10  18  39  54  81 114 155 181 240 288 355
#     4  10  24  36  56  72 114 156 192 214 304 348
#     4  10  18  33  58  90 105 145 186 242 290 344
#     4   9  17  32  62  79 112 141 190 238 291 325
#
# _framework density 18.714055999999999
#
# number of rings (size 3 to 8) (size 9 to 14) (size 15 to 20)
#    0.000    2.182    3.636    1.091    0.000    0.727 
#    3.273    1.818    0.000    0.000    0.000    0.000 
#    0.000    0.000    0.000    0.000    0.000    0.000 
#
# Total GULP energy -272566.578114 kJ/mol
# GULP energy per Si atom -12389.389914 kJ/mol
# Density = 1.867146 g / cm^3
# Si number density = 18.714056 Si / 1000 Ang^3
#
#
#
# Elastic Constant Matrix: (Units=GPa)
#
#
# Indices 1 2 3 4 5 6 
#
# 1 133.1349 69.1442 46.5148 0.0000 -8.2540 0.0000
# 2 69.1442 103.3965 39.6156 0.0000 -7.1827 0.0000
# 3 46.5148 39.6156 80.2749 0.0000 -5.8592 0.0000
# 4 0.0000 0.0000 0.0000 14.4306 0.0000 -1.8966
# 5 -8.2540 -7.1827 -5.8592 0.0000 17.7856 0.0000
# 6 0.0000 0.0000 0.0000 -1.8966 0.0000 33.7702
#
#
#
# Elastic Compliance Matrix: (Units=1/GPa)
#
#
# Indices 1 2 3 4 5 6 
#
# 1 0.012442 -0.006761 -0.003740 0.000000 0.001811 0.000000
# 2 -0.006761 0.015754 -0.003711 0.000000 0.002002 0.000000
# 3 -0.003740 -0.003711 0.016619 0.000000 0.002241 0.000000
# 4 0.000000 0.000000 0.000000 0.069813 0.000000 0.003921
# 5 0.001811 0.002002 0.002241 0.000000 0.058613 0.000000
# 6 0.000000 0.000000 0.000000 0.003921 0.000000 0.029832
#
#
# Mechanical properties :
#
#
# Convention : Reuss Voigt Hill
#
# Bulk Modulus (GPa) = 61.01183 69.70615 65.35899
# Shear Modulus (GPa) = 21.10061 23.96605 22.53333
#
# Velocity S-wave (km/s) = 3.36151 3.58249 3.47376
# Velocity P-wave (km/s) = 6.90936 7.37843 7.14774
#
# Compressibility (1/GPa) = 0.01639026
#
# Stress axis : x y z
#
# Youngs Moduli (GPa) = 80.37436 63.47730 60.17115
#
# Poissons Ratio (x) = 0.42918 0.22507
# Poissons Ratio (y) = 0.54343 0.22327
# Poissons Ratio (z) = 0.30064 0.23554
#
# Static dielectric constant tensor:
#      x y z
#    x 3.610410 0.000000 -0.111540 
#    y 0.000000 3.627860 0.000000 
#    z -0.111540 0.000000 3.154030 
# 
# 
# High freq. dielectric constant tensor:
#      x y z
#    x 1.723570 0.000000 -0.007050 
#    y 0.000000 1.728780 0.000000 
#    z -0.007050 0.000000 1.693690 
# 
# From -- ./inp_files/195630.got.cif
#   From: 2010.06.25/outbox.cif.g09.slc.cpg/sg15_98_cif.got.tgz:195630.got - 2010.06.28 07:06:18.
