data_PCOD8131698
_publ_section_title
;
Structure prediction by ZEFSAII (Michael W. Deem and Ramdas Pophale) SiO2 
 PCOD8131698
Probable space group: C 2/C
;
_chemical_formula_sum "Si O2"
_cell_formula_units_Z 36
_cell_length_a 19.262968
_cell_length_b 9.247258
_cell_length_c 14.793661
_cell_angle_alpha 90.000000
_cell_angle_beta 139.349470
_cell_angle_gamma 90.000000
_cell_volume 1716.677230
_symmetry_space_group_name_H-M "C 2/C"
_symmetry_group_IT_number 15
_symmetry_cell_setting 'monoclinic'
loop_
_space_group_symop_operation_xyz
x,y,z
-x,y,1/2-z
-x,-y,-z
x,-y,1/2+z
1/2+x,1/2+y,z
1/2-x,1/2+y,1/2-z
1/2-x,1/2-y,-z
1/2+x,1/2-y,1/2+z
loop_
_atom_site_type_symbol
_atom_site_label
_atom_site_fract_x
_atom_site_fract_y
_atom_site_fract_z
Si Si1 0.372127 0.386998 0.954088
Si Si2 0.516457 0.324863 0.932546
Si Si3 0.500000 0.869251 0.250000
Si Si4 0.862963 0.406464 0.835763
Si Si5 0.422522 0.084186 0.051051
O O1 0.416550 0.364667 0.896657
O O2 0.245183 0.390803 0.826136
O O3 0.423847 0.532233 0.046353
O O4 0.402722 0.253381 0.050915
O O5 0.467299 0.234060 0.800890
O O6 0.604163 0.237772 0.077163
O O7 0.405379 0.979112 0.121292
O O8 0.954275 0.446496 0.854385
O O9 0.848455 0.537096 0.893580
#
# Coordination Sequence:
#
# PCOD8131698 Si02
#       5
#     8   8   4   8   8
#     4  10  18  34  56  78  99 136 184 218 248 305
#     4   9  20  33  53  79 106 135 172 220 264 301
#     4  10  20  38  50  74 116 140 162 214 270 312
#     4   9  17  34  55  76 100 136 178 213 250 308
#     4   9  19  33  53  75 104 139 170 208 260 311
#
# _framework density 20.970745000000001
#
# number of rings (size 3 to 8) (size 9 to 14) (size 15 to 20)
#    0.000    2.667    0.000    2.667    0.000    0.889 
#    0.000   11.111    0.000    0.000    0.000    0.000 
#    0.000    0.000    0.000    0.000    0.000    0.000 
#
# Total GULP energy -223047.738758 kJ/mol
# GULP energy per Si atom -12391.541042 kJ/mol
# Density = 2.092301 g / cm^3
# Si number density = 20.970745 Si / 1000 Ang^3
#
#
#
# Elastic Constant Matrix: (Units=GPa)
#
#
# Indices 1 2 3 4 5 6 
#
# 1 30.0959 18.4364 32.1026 0.0000 -0.2290 0.0000
# 2 18.4364 152.3951 40.7514 0.0000 -10.5052 0.0000
# 3 32.1026 40.7514 85.3371 0.0000 -1.9774 0.0000
# 4 0.0000 0.0000 0.0000 36.7356 0.0000 -10.0451
# 5 -0.2290 -10.5052 -1.9774 0.0000 27.4540 0.0000
# 6 0.0000 0.0000 0.0000 -10.0451 0.0000 22.8125
#
#
#
# Elastic Compliance Matrix: (Units=1/GPa)
#
#
# Indices 1 2 3 4 5 6 
#
# 1 0.055784 -0.001414 -0.020345 0.000000 -0.001541 0.000000
# 2 -0.001414 0.007752 -0.003106 0.000000 0.002731 0.000000
# 3 -0.020345 -0.003106 0.020859 0.000000 0.000144 0.000000
# 4 0.000000 0.000000 0.000000 0.030948 0.000000 0.013627
# 5 -0.001541 0.002731 0.000144 0.000000 0.037467 0.000000
# 6 0.000000 0.000000 0.000000 0.013627 0.000000 0.049836
#
#
# Mechanical properties :
#
#
# Convention : Reuss Voigt Hill
#
# Bulk Modulus (GPa) = 28.85008 50.04541 39.44774
# Shear Modulus (GPa) = 18.94429 29.16960 24.05695
#
# Velocity S-wave (km/s) = 3.00887 3.73361 3.39066
# Velocity P-wave (km/s) = 5.08510 6.51941 5.84640
#
# Compressibility (1/GPa) = 0.03466195
#
# Stress axis : x y z
#
# Youngs Moduli (GPa) = 17.92637 129.00016 47.94173
#
# Poissons Ratio (x) = 0.18245 0.97539
# Poissons Ratio (y) = 0.02535 0.14893
# Poissons Ratio (z) = 0.36472 0.40074
#
# Static dielectric constant tensor:
#      x y z
#    x 3.408790 0.000000 -0.145710 
#    y 0.000000 4.286760 0.000000 
#    z -0.145710 0.000000 3.462140 
# 
# 
# High freq. dielectric constant tensor:
#      x y z
#    x 1.776780 0.000000 -0.008570 
#    y 0.000000 1.851610 0.000000 
#    z -0.008570 0.000000 1.796000 
# 
# From -- ./inp_files/102909.got.cif
#   From: 2010.06.25/outbox.cif.g09.slc.cpg/sg15_52_cif.got.tgz:102909.got - 2010.06.28 07:06:18.
