data_PCOD8131859
_publ_section_title
;
Structure prediction by ZEFSAII (Michael W. Deem and Ramdas Pophale) SiO2 
 PCOD8131859
Probable space group: C 2/C
;
_chemical_formula_sum "Si O2"
_cell_formula_units_Z 60
_cell_length_a 11.775794
_cell_length_b 14.815380
_cell_length_c 24.430558
_cell_angle_alpha 90.000000
_cell_angle_beta 132.729634
_cell_angle_gamma 90.000000
_cell_volume 3130.876026
_symmetry_space_group_name_H-M "C 2/C"
_symmetry_group_IT_number 15
_symmetry_cell_setting 'monoclinic'
loop_
_space_group_symop_operation_xyz
x,y,z
-x,y,1/2-z
-x,-y,-z
x,-y,1/2+z
1/2+x,1/2+y,z
1/2-x,1/2+y,1/2-z
1/2-x,1/2-y,-z
1/2+x,1/2-y,1/2+z
loop_
_atom_site_type_symbol
_atom_site_label
_atom_site_fract_x
_atom_site_fract_y
_atom_site_fract_z
Si Si1 0.760313 0.811870 0.266067
Si Si2 0.405047 0.363087 0.610924
Si Si3 0.000000 0.236182 0.250000
Si Si4 0.899183 0.736748 0.894567
Si Si5 0.854355 0.379741 0.667074
Si Si6 0.589249 0.127963 0.158918
Si Si7 0.815322 0.012823 0.302832
Si Si8 0.934608 0.599741 0.475780
O O1 0.632575 0.800943 0.271087
O O2 0.682394 0.816191 0.181286
O O3 0.880080 0.729308 0.308949
O O4 0.841336 0.907254 0.302304
O O5 0.430587 0.326509 0.680200
O O6 0.450626 0.288855 0.580095
O O7 0.512368 0.449577 0.636443
O O8 0.228523 0.393718 0.545976
O O9 0.777232 0.804695 0.882000
O O10 0.946213 0.666628 0.956272
O O11 0.780902 0.467522 0.672833
O O12 0.000000 0.343238 0.750000
O O13 0.923972 0.404623 0.630015
O O14 0.727211 0.062153 0.223711
O O15 0.582150 0.129726 0.091952
O O16 0.000000 0.500000 0.500000
#
# Coordination Sequence:
#
# PCOD8131859 Si02
#       8
#     8   8   4   8   8   8   8   8
#     4  11  20  35  64  96 114 160 209 253 303 353
#     4  10  19  41  59  82 123 161 198 259 300 355
#     4  10  18  34  62  90 116 154 210 254 292 352
#     4  10  21  39  60  87 121 164 200 244 318 356
#     4   9  18  38  60  84 122 157 197 259 297 354
#     4  11  21  40  60  89 129 157 200 255 304 364
#     4  10  20  36  63  95 116 155 214 257 299 355
#     4  12  25  39  57  89 125 164 203 246 310 373
#
# _framework density 19.163965999999999
#
# number of rings (size 3 to 8) (size 9 to 14) (size 15 to 20)
#    0.000    1.600    6.667    1.200    2.800    1.600 
#    0.000    0.000    0.000    3.200    0.000    0.000 
#    0.000    0.000    0.000    0.000    0.000    0.000 
#
# Total GULP energy -371953.884912 kJ/mol
# GULP energy per Si atom -12398.462830 kJ/mol
# Density = 1.912035 g / cm^3
# Si number density = 19.163966 Si / 1000 Ang^3
#
#
#
# Elastic Constant Matrix: (Units=GPa)
#
#
# Indices 1 2 3 4 5 6 
#
# 1 80.3279 7.3145 30.1597 0.0000 -0.7781 0.0000
# 2 7.3145 111.7594 27.0660 0.0000 4.2681 0.0000
# 3 30.1597 27.0660 51.1919 0.0000 4.4350 0.0000
# 4 0.0000 0.0000 0.0000 18.0996 0.0000 3.0675
# 5 -0.7781 4.2681 4.4350 0.0000 25.0672 0.0000
# 6 0.0000 0.0000 0.0000 3.0675 0.0000 18.6537
#
#
#
# Elastic Compliance Matrix: (Units=1/GPa)
#
#
# Indices 1 2 3 4 5 6 
#
# 1 0.016294 0.001401 -0.010525 0.000000 0.002129 0.000000
# 2 0.001401 0.010398 -0.006270 0.000000 -0.000618 0.000000
# 3 -0.010525 -0.006270 0.029437 0.000000 -0.004467 0.000000
# 4 0.000000 0.000000 0.000000 0.056834 0.000000 -0.009346
# 5 0.002129 -0.000618 -0.004467 0.000000 0.040854 0.000000
# 6 0.000000 0.000000 0.000000 -0.009346 0.000000 0.055146
#
#
# Mechanical properties :
#
#
# Convention : Reuss Voigt Hill
#
# Bulk Modulus (GPa) = 39.45978 41.37328 40.41653
# Shear Modulus (GPa) = 20.14539 24.28003 22.21271
#
# Velocity S-wave (km/s) = 3.24576 3.56330 3.40823
# Velocity P-wave (km/s) = 5.88913 6.21011 6.05175
#
# Compressibility (1/GPa) = 0.02534226
#
# Stress axis : x y z
#
# Youngs Moduli (GPa) = 61.37400 96.17184 33.97112
#
# Poissons Ratio (x) = -0.13475 0.35753
# Poissons Ratio (y) = -0.08599 0.21299
# Poissons Ratio (z) = 0.64594 0.60296
#
# Static dielectric constant tensor:
#      x y z
#    x 3.944270 0.000000 -0.094430 
#    y 0.000000 3.301700 0.000000 
#    z -0.094430 0.000000 3.488620 
# 
# 
# High freq. dielectric constant tensor:
#      x y z
#    x 1.763410 0.000000 -0.001240 
#    y 0.000000 1.734950 0.000000 
#    z -0.001240 0.000000 1.723110 
# 
# From -- ./inp_files/269933.got.cif
#   From: 2010.06.25/outbox.cif.g09.slc.cpg/sg15_135_cif.got.tgz:269933.got - 2010.06.28 07:06:18.
