data_PCOD8131723
_publ_section_title
;
Structure prediction by ZEFSAII (Michael W. Deem and Ramdas Pophale) SiO2 
 PCOD8131723
Probable space group: C 2/C
;
_chemical_formula_sum "Si O2"
_cell_formula_units_Z 56
_cell_length_a 22.257684
_cell_length_b 16.178531
_cell_length_c 15.607230
_cell_angle_alpha 90.000000
_cell_angle_beta 150.322716
_cell_angle_gamma 90.000000
_cell_volume 2782.596977
_symmetry_space_group_name_H-M "C 2/C"
_symmetry_group_IT_number 15
_symmetry_cell_setting 'monoclinic'
loop_
_space_group_symop_operation_xyz
x,y,z
-x,y,1/2-z
-x,-y,-z
x,-y,1/2+z
1/2+x,1/2+y,z
1/2-x,1/2+y,1/2-z
1/2-x,1/2-y,-z
1/2+x,1/2-y,1/2+z
loop_
_atom_site_type_symbol
_atom_site_label
_atom_site_fract_x
_atom_site_fract_y
_atom_site_fract_z
Si Si1 0.788350 0.581884 0.181159
Si Si2 0.114284 0.872155 0.081620
Si Si3 0.836213 0.132427 0.218999
Si Si4 0.017297 0.357641 0.868020
Si Si5 0.208438 0.235079 0.184412
Si Si6 0.694245 0.005121 0.627937
Si Si7 0.362806 0.436091 0.572412
O O1 0.703212 0.650485 0.122450
O O2 0.845776 0.524676 0.326812
O O3 0.887206 0.632102 0.250460
O O4 0.714982 0.521226 0.025897
O O5 0.162739 0.781670 0.170578
O O6 0.184041 0.940232 0.222960
O O7 0.155340 0.882018 0.034276
O O8 0.972429 0.887691 0.920725
O O9 0.804599 0.217606 0.229046
O O10 0.831152 0.128773 0.109694
O O11 0.729026 0.071041 0.112385
O O12 0.000000 0.325539 0.750000
O O13 0.095846 0.291986 0.018046
O O14 0.082269 0.446707 0.947543
O O15 0.500000 0.467946 0.750000
#
# Coordination Sequence:
#
# PCOD8131723 Si02
#       7
#     8   8   8   8   8   8   8
#     4  10  20  37  56  78 109 139 175 221 265 310
#     4   9  18  34  52  77 110 142 177 217 262 312
#     4  10  18  34  57  79 105 139 180 219 260 311
#     4  11  22  36  54  79 110 141 175 218 265 315
#     4  10  22  35  53  79 109 145 175 209 266 324
#     4   9  19  34  55  78 103 142 184 218 259 310
#     4   9  19  34  57  82 104 136 179 226 262 303
#
# _framework density 20.125084999999999
#
# number of rings (size 3 to 8) (size 9 to 14) (size 15 to 20)
#    0.000    2.286    0.000    2.571    0.000    2.857 
#    0.000    0.000    0.000   10.286    0.000    0.000 
#    0.000    0.000    0.000    0.000    0.000    0.000 
#
# Total GULP energy -346989.074074 kJ/mol
# GULP energy per Si atom -12392.466931 kJ/mol
# Density = 2.007928 g / cm^3
# Si number density = 20.125085 Si / 1000 Ang^3
#
#
#
# Elastic Constant Matrix: (Units=GPa)
#
#
# Indices 1 2 3 4 5 6 
#
# 1 76.9011 23.4171 18.9929 0.0000 2.9645 0.0000
# 2 23.4171 85.7791 26.6545 0.0000 -4.1047 0.0000
# 3 18.9929 26.6545 61.6183 0.0000 -2.1925 0.0000
# 4 0.0000 0.0000 0.0000 33.4168 0.0000 -3.3265
# 5 2.9645 -4.1047 -2.1925 0.0000 26.6100 0.0000
# 6 0.0000 0.0000 0.0000 -3.3265 0.0000 18.6471
#
#
#
# Elastic Compliance Matrix: (Units=1/GPa)
#
#
# Indices 1 2 3 4 5 6 
#
# 1 0.014872 -0.003148 -0.003309 0.000000 -0.002415 0.000000
# 2 -0.003148 0.014203 -0.005098 0.000000 0.002121 0.000000
# 3 -0.003309 -0.005098 0.019496 0.000000 0.001189 0.000000
# 4 0.000000 0.000000 0.000000 0.030466 0.000000 0.005435
# 5 -0.002415 0.002121 0.001189 0.000000 0.038274 0.000000
# 6 0.000000 0.000000 0.000000 0.005435 0.000000 0.054597
#
#
# Mechanical properties :
#
#
# Convention : Reuss Voigt Hill
#
# Bulk Modulus (GPa) = 39.27249 40.26974 39.77112
# Shear Modulus (GPa) = 24.56943 26.08372 25.32657
#
# Velocity S-wave (km/s) = 3.49784 3.60402 3.55132
# Velocity P-wave (km/s) = 5.98913 6.11324 6.05151
#
# Compressibility (1/GPa) = 0.02546311
#
# Stress axis : x y z
#
# Youngs Moduli (GPa) = 67.23851 70.40871 51.29164
#
# Poissons Ratio (x) = 0.22161 0.16970
# Poissons Ratio (y) = 0.21164 0.26149
# Poissons Ratio (z) = 0.22246 0.35895
#
# Static dielectric constant tensor:
#      x y z
#    x 3.652850 0.000000 -0.091180 
#    y 0.000000 3.619270 0.000000 
#    z -0.091180 0.000000 3.565490 
# 
# 
# High freq. dielectric constant tensor:
#      x y z
#    x 1.786020 0.000000 0.000940 
#    y 0.000000 1.779160 0.000000 
#    z 0.000940 0.000000 1.775400 
# 
# From -- ./inp_files/98246.got.cif
#   From: 2010.06.25/outbox.cif.g09.slc.cpg/sg15_50_cif.got.tgz:98246.got - 2010.06.28 07:06:18.
