data_PCOD8131440
_publ_section_title
;
Structure prediction by ZEFSAII (Michael W. Deem and Ramdas Pophale) SiO2 
 PCOD8131440
Probable space group: C 2/C
;
_chemical_formula_sum "Si O2"
_cell_formula_units_Z 52
_cell_length_a 19.855601
_cell_length_b 29.101528
_cell_length_c 5.287578
_cell_angle_alpha 90.000000
_cell_angle_beta 89.362518
_cell_angle_gamma 90.000000
_cell_volume 3055.123249
_symmetry_space_group_name_H-M "C 2/C"
_symmetry_group_IT_number 15
_symmetry_cell_setting 'monoclinic'
loop_
_space_group_symop_operation_xyz
x,y,z
-x,y,1/2-z
-x,-y,-z
x,-y,1/2+z
1/2+x,1/2+y,z
1/2-x,1/2+y,1/2-z
1/2-x,1/2-y,-z
1/2+x,1/2-y,1/2+z
loop_
_atom_site_type_symbol
_atom_site_label
_atom_site_fract_x
_atom_site_fract_y
_atom_site_fract_z
Si Si1 0.534898 0.235018 0.496444
Si Si2 0.278459 0.301992 0.502491
Si Si3 0.500000 0.059143 0.750000
Si Si4 0.139143 0.526217 0.889845
Si Si5 0.321316 0.723596 0.500459
Si Si6 0.158471 0.628684 0.972527
Si Si7 0.924421 0.362310 0.512857
O O1 0.500000 0.257486 0.250000
O O2 0.615146 0.242651 0.489856
O O3 0.523711 0.180137 0.485170
O O4 0.500000 0.255548 0.750000
O O5 0.250000 0.250000 0.500000
O O6 0.322348 0.309320 0.246787
O O7 0.223454 0.341366 0.526473
O O8 0.326237 0.307061 0.746477
O O9 0.442736 0.029514 0.610554
O O10 0.534909 0.090810 0.535043
O O11 0.162707 0.493876 0.118903
O O12 0.175407 0.575131 0.927586
O O13 0.250000 0.750000 0.500000
O O14 0.110554 0.633307 0.215383
O O15 0.126394 0.647839 0.716224
#
# Coordination Sequence:
#
# PCOD8131440 Si02
#       7
#     8   8   4   8   8   8   8
#     4  12  23  35  51  76 109 139 174 220 278 313
#     4  10  18  33  53  75  93 123 163 213 262 306
#     4  10  22  34  50  66  92 130 182 226 276 316
#     4  11  23  37  50  67  94 132 175 224 277 316
#     4  10  20  34  52  71  99 135 172 211 259 317
#     4  11  22  35  55  72  96 126 176 225 271 312
#     4  11  21  34  46  72  97 129 169 228 277 312
#
# _framework density 17.020589999999999
#
# number of rings (size 3 to 8) (size 9 to 14) (size 15 to 20)
#    0.000    1.231    0.769    8.769    2.154    2.462 
#    0.000    0.000    0.000    0.000    0.000    0.000 
#    0.000    0.000    0.000    0.000    0.000   53.846 
#
# Total GULP energy -322264.918266 kJ/mol
# GULP energy per Si atom -12394.804549 kJ/mol
# Density = 1.698185 g / cm^3
# Si number density = 17.020590 Si / 1000 Ang^3
#
#
#
# Elastic Constant Matrix: (Units=GPa)
#
#
# Indices 1 2 3 4 5 6 
#
# 1 58.7909 22.1294 30.1903 0.0000 -0.0650 0.0000
# 2 22.1294 64.8508 28.6247 0.0000 3.6677 0.0000
# 3 30.1903 28.6247 155.5960 0.0000 0.1631 0.0000
# 4 0.0000 0.0000 0.0000 19.5508 0.0000 2.9884
# 5 -0.0650 3.6677 0.1631 0.0000 25.7942 0.0000
# 6 0.0000 0.0000 0.0000 2.9884 0.0000 25.2929
#
#
#
# Elastic Compliance Matrix: (Units=1/GPa)
#
#
# Indices 1 2 3 4 5 6 
#
# 1 0.020715 -0.005817 -0.002950 0.000000 0.000898 0.000000
# 2 -0.005817 0.018562 -0.002283 0.000000 -0.002640 0.000000
# 3 -0.002950 -0.002283 0.007419 0.000000 0.000270 0.000000
# 4 0.000000 0.000000 0.000000 0.052090 0.000000 -0.006155
# 5 0.000898 -0.002640 0.000270 0.000000 0.039144 0.000000
# 6 0.000000 0.000000 0.000000 -0.006155 0.000000 0.040264
#
#
# Mechanical properties :
#
#
# Convention : Reuss Voigt Hill
#
# Bulk Modulus (GPa) = 40.65898 49.01404 44.83651
# Shear Modulus (GPa) = 23.98149 27.34713 25.66431
#
# Velocity S-wave (km/s) = 3.75770 4.01273 3.88730
# Velocity P-wave (km/s) = 6.53965 7.09427 6.82260
#
# Compressibility (1/GPa) = 0.02459482
#
# Stress axis : x y z
#
# Youngs Moduli (GPa) = 48.27411 53.87282 134.78754
#
# Poissons Ratio (x) = 0.31340 0.39763
# Poissons Ratio (y) = 0.28083 0.30777
# Poissons Ratio (z) = 0.14241 0.12301
#
# Static dielectric constant tensor:
#      x y z
#    x 2.887350 0.000000 -0.101700 
#    y 0.000000 3.006100 0.000000 
#    z -0.101700 0.000000 4.685580 
# 
# 
# High freq. dielectric constant tensor:
#      x y z
#    x 1.606080 0.000000 -0.005380 
#    y 0.000000 1.619000 0.000000 
#    z -0.005380 0.000000 1.701640 
# 
# From -- ./inp_files/11861.got.cif
#   From: 2010.06.25/outbox.cif.g09.slc.cpg/sg15_6_cif.got.tgz:11861.got - 2010.06.28 07:06:18.
