data_PCOD8131396
_publ_section_title
;
Structure prediction by ZEFSAII (Michael W. Deem and Ramdas Pophale) SiO2 
 PCOD8131396
Probable space group: C 2/C
;
_chemical_formula_sum "Si O2"
_cell_formula_units_Z 52
_cell_length_a 13.831812
_cell_length_b 12.289537
_cell_length_c 14.661064
_cell_angle_alpha 90.000000
_cell_angle_beta 115.114022
_cell_angle_gamma 90.000000
_cell_volume 2256.585202
_symmetry_space_group_name_H-M "C 2/C"
_symmetry_group_IT_number 15
_symmetry_cell_setting 'monoclinic'
loop_
_space_group_symop_operation_xyz
x,y,z
-x,y,1/2-z
-x,-y,-z
x,-y,1/2+z
1/2+x,1/2+y,z
1/2-x,1/2+y,1/2-z
1/2-x,1/2-y,-z
1/2+x,1/2-y,1/2+z
loop_
_atom_site_type_symbol
_atom_site_label
_atom_site_fract_x
_atom_site_fract_y
_atom_site_fract_z
Si Si1 0.423482 0.926991 0.844960
Si Si2 0.415172 0.903317 0.038977
Si Si3 0.500000 0.743390 0.750000
Si Si4 0.704102 0.651159 0.924090
Si Si5 0.197338 0.602906 0.823147
Si Si6 0.372276 0.225704 0.862628
Si Si7 0.378280 0.535030 0.444957
O O1 0.440671 0.812868 0.803234
O O2 0.538088 0.977049 0.919690
O O3 0.370610 0.007101 0.751161
O O4 0.360970 0.905408 0.916122
O O5 0.330972 0.873677 0.083141
O O6 0.506679 0.811038 0.076642
O O7 0.589071 0.670709 0.833367
O O8 0.796470 0.637157 0.885511
O O9 0.750000 0.750000 0.000000
O O10 0.682811 0.547904 0.981735
O O11 0.171564 0.714319 0.758689
O O12 0.320206 0.563133 0.868134
O O13 0.362511 0.351047 0.886079
O O14 0.500000 0.500000 0.500000
#
# Coordination Sequence:
#
# PCOD8131396 Si02
#       7
#     8   8   4   8   8   8   8
#     4  10  18  32  64 100 134 168 229 286 341 400
#     4  10  21  36  65 100 138 175 224 291 348 401
#     4  12  20  36  68 100 132 180 246 288 354 414
#     4  10  23  39  67  97 135 179 234 295 347 411
#     4  11  23  42  70 100 139 183 235 282 351 422
#     4  10  22  44  68 100 138 176 236 291 344 416
#     4  11  26  47  68  99 146 186 227 292 360 419
#
# _framework density 23.043669000000001
#
# number of rings (size 3 to 8) (size 9 to 14) (size 15 to 20)
#    0.000    1.538    1.538    5.077    8.615    0.000 
#    2.769    3.846    3.385    0.000    0.000    0.000 
#    0.000    0.000    0.000    0.000    0.000    0.000 
#
# Total GULP energy -322191.466620 kJ/mol
# GULP energy per Si atom -12391.979485 kJ/mol
# Density = 2.299122 g / cm^3
# Si number density = 23.043669 Si / 1000 Ang^3
#
#
#
# Elastic Constant Matrix: (Units=GPa)
#
#
# Indices 1 2 3 4 5 6 
#
# 1 97.1799 23.1667 38.4113 0.0000 -6.4824 0.0000
# 2 23.1667 59.1944 27.8272 0.0000 -0.5831 0.0000
# 3 38.4113 27.8272 115.6244 0.0000 -11.7396 0.0000
# 4 0.0000 0.0000 0.0000 27.7165 0.0000 0.4952
# 5 -6.4824 -0.5831 -11.7396 0.0000 53.7643 0.0000
# 6 0.0000 0.0000 0.0000 0.4952 0.0000 29.3603
#
#
#
# Elastic Compliance Matrix: (Units=1/GPa)
#
#
# Indices 1 2 3 4 5 6 
#
# 1 0.012417 -0.003325 -0.003248 0.000000 0.000752 0.000000
# 2 -0.003325 0.019974 -0.003806 0.000000 -0.001015 0.000000
# 3 -0.003248 -0.003806 0.010840 0.000000 0.001934 0.000000
# 4 0.000000 0.000000 0.000000 0.036091 0.000000 -0.000609
# 5 0.000752 -0.001015 0.001934 0.000000 0.019102 0.000000
# 6 0.000000 0.000000 0.000000 -0.000609 0.000000 0.034070
#
#
# Mechanical properties :
#
#
# Convention : Reuss Voigt Hill
#
# Bulk Modulus (GPa) = 44.49835 50.08990 47.29413
# Shear Modulus (GPa) = 31.10576 34.34111 32.72344
#
# Velocity S-wave (km/s) = 3.67803 3.86458 3.77246
# Velocity P-wave (km/s) = 6.11470 6.45736 6.28836
#
# Compressibility (1/GPa) = 0.02247274
#
# Stress axis : x y z
#
# Youngs Moduli (GPa) = 80.53483 50.06558 92.25019
#
# Poissons Ratio (x) = 0.16647 0.29967
# Poissons Ratio (y) = 0.26779 0.35106
# Poissons Ratio (z) = 0.26161 0.19053
#
# Static dielectric constant tensor:
#      x y z
#    x 4.472900 0.000000 -0.526520 
#    y 0.000000 3.919730 0.000000 
#    z -0.526520 0.000000 4.785250 
# 
# 
# High freq. dielectric constant tensor:
#      x y z
#    x 1.903190 0.000000 -0.010930 
#    y 0.000000 1.878680 0.000000 
#    z -0.010930 0.000000 1.927870 
# 
# From -- ./inp_files/144322.got.cif
#   From: 2010.06.25/outbox.cif.g09.slc.cpg/sg15_73_cif.got.tgz:144322.got - 2010.06.28 07:06:18.
