data_PCOD8131979
_publ_section_title
;
Structure prediction by ZEFSAII (Michael W. Deem and Ramdas Pophale) SiO2 
 PCOD8131979
Probable space group: C 2/C
;
_chemical_formula_sum "Si O2"
_cell_formula_units_Z 64
_cell_length_a 31.741355
_cell_length_b 14.765752
_cell_length_c 12.169943
_cell_angle_alpha 90.000000
_cell_angle_beta 144.611878
_cell_angle_gamma 90.000000
_cell_volume 3303.180243
_symmetry_space_group_name_H-M "C 2/C"
_symmetry_group_IT_number 15
_symmetry_cell_setting 'monoclinic'
loop_
_space_group_symop_operation_xyz
x,y,z
-x,y,1/2-z
-x,-y,-z
x,-y,1/2+z
1/2+x,1/2+y,z
1/2-x,1/2+y,1/2-z
1/2-x,1/2-y,-z
1/2+x,1/2-y,1/2+z
loop_
_atom_site_type_symbol
_atom_site_label
_atom_site_fract_x
_atom_site_fract_y
_atom_site_fract_z
Si Si1 0.802372 0.906538 0.246146
Si Si2 0.387688 0.869994 0.183065
Si Si3 0.367545 0.924362 0.375158
Si Si4 0.082333 0.235553 0.428364
Si Si5 0.055031 0.401857 0.530301
Si Si6 0.137078 0.657394 0.413568
Si Si7 0.232676 0.451931 0.721485
Si Si8 0.704274 0.319646 0.478674
O O1 0.864565 0.846180 0.432600
O O2 0.818590 0.903616 0.148930
O O3 0.801301 0.008030 0.296254
O O4 0.721860 0.868728 0.097257
O O5 0.359305 0.863387 0.248028
O O6 0.390645 0.771448 0.132946
O O7 0.469053 0.907890 0.356990
O O8 0.335255 0.937524 0.004739
O O9 0.394898 0.859950 0.532947
O O10 0.425397 0.004335 0.484784
O O11 0.290319 0.972440 0.237732
O O12 0.085276 0.318501 0.521680
O O13 0.000000 0.197785 0.250000
O O14 0.091921 0.399047 0.728392
O O15 0.134489 0.764789 0.377289
O O16 0.251884 0.358368 0.823504
O O17 0.750000 0.250000 0.500000
#
# Coordination Sequence:
#
# PCOD8131979 Si02
#       8
#     8   8   8   8   8   8   8   8
#     4  10  20  36  57  82 108 146 195 243 278 340
#     4  11  22  34  52  81 122 154 183 236 298 352
#     4  11  21  33  47  81 118 149 186 233 294 349
#     4  10  21  38  59  82 109 150 198 238 286 344
#     4  11  21  34  54  81 115 160 194 231 279 359
#     4  10  21  33  54  82 111 155 194 231 285 348
#     4  11  21  34  55  85 113 147 193 242 289 340
#     4  10  18  35  58  78 111 147 192 235 282 345
#
# _framework density 19.375267000000001
#
# number of rings (size 3 to 8) (size 9 to 14) (size 15 to 20)
#    0.000    1.500    2.500    5.625    0.000    1.500 
#    0.000    6.875    0.000    0.750    3.250    0.000 
#    0.000    0.000    0.000    0.000    0.000    0.000 
#
# Total GULP energy -396516.365174 kJ/mol
# GULP energy per Si atom -12391.136412 kJ/mol
# Density = 1.933117 g / cm^3
# Si number density = 19.375267 Si / 1000 Ang^3
#
#
#
# Elastic Constant Matrix: (Units=GPa)
#
#
# Indices 1 2 3 4 5 6 
#
# 1 106.6772 55.6230 59.3778 0.0000 -29.6843 0.0000
# 2 55.6230 76.5854 51.4714 0.0000 -7.5263 0.0000
# 3 59.3778 51.4714 124.9013 0.0000 -12.1368 0.0000
# 4 0.0000 0.0000 0.0000 30.1512 0.0000 -2.9924
# 5 -29.6843 -7.5263 -12.1368 0.0000 30.8361 0.0000
# 6 0.0000 0.0000 0.0000 -2.9924 0.0000 29.7849
#
#
#
# Elastic Compliance Matrix: (Units=1/GPa)
#
#
# Indices 1 2 3 4 5 6 
#
# 1 0.022834 -0.012054 -0.004198 0.000000 0.017387 0.000000
# 2 -0.012054 0.024492 -0.005105 0.000000 -0.007635 0.000000
# 3 -0.004198 -0.005105 0.012053 0.000000 -0.000544 0.000000
# 4 0.000000 0.000000 0.000000 0.033500 0.000000 0.003366
# 5 0.017387 -0.007635 -0.000544 0.000000 0.047089 0.000000
# 6 0.000000 0.000000 0.000000 0.003366 0.000000 0.033912
#
#
# Mechanical properties :
#
#
# Convention : Reuss Voigt Hill
#
# Bulk Modulus (GPa) = 60.00411 71.23425 65.61918
# Shear Modulus (GPa) = 22.50729 27.60054 25.05391
#
# Velocity S-wave (km/s) = 3.41200 3.77838 3.59985
# Velocity P-wave (km/s) = 6.82341 7.47531 7.15679
#
# Compressibility (1/GPa) = 0.01666553
#
# Stress axis : x y z
#
# Youngs Moduli (GPa) = 43.79429 40.82925 82.96623
#
# Poissons Ratio (x) = 0.49214 0.34833
# Poissons Ratio (y) = 0.52788 0.42352
# Poissons Ratio (z) = 0.18387 0.20842
#
# Static dielectric constant tensor:
#      x y z
#    x 4.298450 0.000000 -0.428420 
#    y 0.000000 3.802640 0.000000 
#    z -0.428420 0.000000 3.557380 
# 
# 
# High freq. dielectric constant tensor:
#      x y z
#    x 1.746360 0.000000 -0.025760 
#    y 0.000000 1.723760 0.000000 
#    z -0.025760 0.000000 1.749770 
# 
# From -- ./inp_files/126896.got.cif
#   From: 2010.06.25/outbox.cif.g09.slc.cpg/sg15_64_cif.got.tgz:126896.got - 2010.06.28 07:06:18.
