data_PCOD8131764
_publ_section_title
;
Structure prediction by ZEFSAII (Michael W. Deem and Ramdas Pophale) SiO2 
 PCOD8131764
Probable space group: C 2/C
;
_chemical_formula_sum "Si O2"
_cell_formula_units_Z 48
_cell_length_a 18.064631
_cell_length_b 8.535561
_cell_length_c 15.223385
_cell_angle_alpha 90.000000
_cell_angle_beta 74.395738
_cell_angle_gamma 90.000000
_cell_volume 2260.804299
_symmetry_space_group_name_H-M "C 2/C"
_symmetry_group_IT_number 15
_symmetry_cell_setting 'monoclinic'
loop_
_space_group_symop_operation_xyz
x,y,z
-x,y,1/2-z
-x,-y,-z
x,-y,1/2+z
1/2+x,1/2+y,z
1/2-x,1/2+y,1/2-z
1/2-x,1/2-y,-z
1/2+x,1/2-y,1/2+z
loop_
_atom_site_type_symbol
_atom_site_label
_atom_site_fract_x
_atom_site_fract_y
_atom_site_fract_z
Si Si1 0.303373 0.869936 0.292078
Si Si2 0.391044 0.485132 0.447255
Si Si3 0.954683 0.849181 0.092305
Si Si4 0.672127 0.126795 0.354369
Si Si5 0.272660 0.930453 0.483681
Si Si6 0.082336 0.106703 0.250114
O O1 0.221214 0.786810 0.331860
O O2 0.325790 0.945125 0.380028
O O3 0.366268 0.750875 0.233607
O O4 0.296002 0.013986 0.229768
O O5 0.451478 0.338570 0.431493
O O6 0.429070 0.614158 0.500205
O O7 0.302745 0.455644 0.504326
O O8 0.379628 0.538646 0.350297
O O9 0.916667 0.682060 0.129967
O O10 0.925036 0.981396 0.169630
O O11 0.680256 0.030476 0.443118
O O12 0.250000 0.750000 0.500000
O O13 0.000000 0.174993 0.250000
#
# Coordination Sequence:
#
# PCOD8131764 Si02
#       6
#     8   8   8   8   8   8
#     4  11  21  36  59  84 116 150 194 238 294 346
#     4  10  18  34  58  83 114 151 195 231 284 358
#     4  10  20  34  58  87 109 149 199 242 281 340
#     4  11  21  36  59  87 116 151 197 243 289 344
#     4  10  18  34  58  85 114 155 191 231 294 354
#     4  10  20  36  58  82 112 156 195 233 290 352
#
# _framework density 21.231383000000001
#
# number of rings (size 3 to 8) (size 9 to 14) (size 15 to 20)
#    0.000    1.667    6.667    1.000    0.000    0.000 
#    0.000    5.000    0.000   14.000    0.000    0.000 
#    0.000    0.000    0.000    0.000    0.000    0.000 
#
# Total GULP energy -297330.300753 kJ/mol
# GULP energy per Si atom -12388.762531 kJ/mol
# Density = 2.118306 g / cm^3
# Si number density = 21.231383 Si / 1000 Ang^3
#
#
#
# Elastic Constant Matrix: (Units=GPa)
#
#
# Indices 1 2 3 4 5 6 
#
# 1 94.1886 33.7828 6.1018 0.0000 3.0230 0.0000
# 2 33.7828 45.1113 38.9506 0.0000 8.1310 0.0000
# 3 6.1018 38.9506 141.6836 0.0000 15.1473 0.0000
# 4 0.0000 0.0000 0.0000 22.8427 0.0000 -4.0818
# 5 3.0230 8.1310 15.1473 0.0000 11.5891 0.0000
# 6 0.0000 0.0000 0.0000 -4.0818 0.0000 34.3278
#
#
#
# Elastic Compliance Matrix: (Units=1/GPa)
#
#
# Indices 1 2 3 4 5 6 
#
# 1 0.015679 -0.014885 0.003182 0.000000 0.002194 0.000000
# 2 -0.014885 0.044596 -0.010100 0.000000 -0.014205 0.000000
# 3 0.003182 -0.010100 0.010495 0.000000 -0.007461 0.000000
# 4 0.000000 0.000000 0.000000 0.044728 0.000000 0.005318
# 5 0.002194 -0.014205 -0.007461 0.000000 0.105434 0.000000
# 6 0.000000 0.000000 0.000000 0.005318 0.000000 0.029763
#
#
# Mechanical properties :
#
#
# Convention : Reuss Voigt Hill
#
# Bulk Modulus (GPa) = 36.81319 48.73934 42.77627
# Shear Modulus (GPa) = 16.48229 27.22848 21.85538
#
# Velocity S-wave (km/s) = 2.78927 3.58504 3.21189
# Velocity P-wave (km/s) = 5.26783 6.33583 5.82635
#
# Compressibility (1/GPa) = 0.02716418
#
# Stress axis : x y z
#
# Youngs Moduli (GPa) = 63.77864 22.42378 95.28078
#
# Poissons Ratio (x) = 0.33378 -0.30320
# Poissons Ratio (y) = 0.94934 0.96236
# Poissons Ratio (z) = -0.20296 0.22648
#
# Static dielectric constant tensor:
#      x y z
#    x 4.086620 0.000000 0.019780 
#    y 0.000000 3.272550 0.000000 
#    z 0.019780 0.000000 4.398570 
# 
# 
# High freq. dielectric constant tensor:
#      x y z
#    x 1.827780 0.000000 -0.000350 
#    y 0.000000 1.767030 0.000000 
#    z -0.000350 0.000000 1.859200 
# 
# From -- ./inp_files/159735.got.cif
#   From: 2010.06.25/outbox.cif.g09.slc.cpg/sg15_80_cif.got.tgz:159735.got - 2010.06.28 07:06:18.
