data_PCOD8131741
_publ_section_title
;
Structure prediction by ZEFSAII (Michael W. Deem and Ramdas Pophale) SiO2 
 PCOD8131741
Probable space group: C 2/C
;
_chemical_formula_sum "Si O2"
_cell_formula_units_Z 64
_cell_length_a 14.749205
_cell_length_b 11.629427
_cell_length_c 28.022213
_cell_angle_alpha 90.000000
_cell_angle_beta 137.598806
_cell_angle_gamma 90.000000
_cell_volume 3241.111467
_symmetry_space_group_name_H-M "C 2/C"
_symmetry_group_IT_number 15
_symmetry_cell_setting 'monoclinic'
loop_
_space_group_symop_operation_xyz
x,y,z
-x,y,1/2-z
-x,-y,-z
x,-y,1/2+z
1/2+x,1/2+y,z
1/2-x,1/2+y,1/2-z
1/2-x,1/2-y,-z
1/2+x,1/2-y,1/2+z
loop_
_atom_site_type_symbol
_atom_site_label
_atom_site_fract_x
_atom_site_fract_y
_atom_site_fract_z
Si Si1 0.999782 0.059028 0.424989
Si Si2 0.760127 0.488349 0.968336
Si Si3 0.755997 0.229936 0.584192
Si Si4 0.301817 0.755021 0.330236
Si Si5 0.472877 0.150308 0.294297
Si Si6 0.462324 0.031993 0.869548
Si Si7 0.891346 0.582749 0.432328
Si Si8 0.991181 0.838888 0.471626
O O1 0.876667 0.132582 0.357236
O O2 0.055942 0.115156 0.495377
O O3 0.943666 0.929993 0.413198
O O4 0.122014 0.056493 0.435947
O O5 0.762434 0.624758 0.959375
O O6 0.764763 0.422683 0.918764
O O7 0.885702 0.455755 0.051291
O O8 0.717629 0.194831 0.623685
O O9 0.654050 0.332303 0.530181
O O10 0.906097 0.275690 0.637092
O O11 0.157091 0.731986 0.250464
O O12 0.392414 0.843937 0.335347
O O13 0.500000 0.116581 0.250000
O O14 0.459958 0.031673 0.318009
O O15 0.366792 0.962948 0.869522
O O16 0.934167 0.713301 0.441728
O O17 0.000000 0.500000 0.500000
#
# Coordination Sequence:
#
# PCOD8131741 Si02
#       8
#     8   8   8   8   8   8   8   8
#     4  10  22  33  55  86 124 155 186 243 291 357
#     4  11  20  34  62  99 117 149 197 248 311 354
#     4  10  18  37  62  88 120 146 200 251 283 352
#     4  10  22  43  58  80 123 165 191 234 304 356
#     4  10  24  40  60  84 112 163 211 243 282 350
#     4  11  21  38  65  85 120 157 195 250 306 356
#     4  10  18  34  57  91 123 152 181 240 309 364
#     4  10  19  35  54  88 127 150 184 237 310 352
#
# _framework density 19.746313000000001
#
# number of rings (size 3 to 8) (size 9 to 14) (size 15 to 20)
#    0.000    1.750    3.750    3.000    1.750    5.000 
#    0.000    0.000    0.000    0.000    0.000    0.000 
#    0.000    0.000    0.000    0.000    0.000    0.000 
#
# Total GULP energy -396687.334576 kJ/mol
# GULP energy per Si atom -12396.479205 kJ/mol
# Density = 1.970137 g / cm^3
# Si number density = 19.746313 Si / 1000 Ang^3
#
#
#
# Elastic Constant Matrix: (Units=GPa)
#
#
# Indices 1 2 3 4 5 6 
#
# 1 114.2823 48.2305 36.3386 0.0000 14.7293 0.0000
# 2 48.2305 138.9879 43.7537 0.0000 11.0111 0.0000
# 3 36.3386 43.7537 53.7874 0.0000 5.5842 0.0000
# 4 0.0000 0.0000 0.0000 19.5271 0.0000 -4.1816
# 5 14.7293 11.0111 5.5842 0.0000 22.4605 0.0000
# 6 0.0000 0.0000 0.0000 -4.1816 0.0000 36.0599
#
#
#
# Elastic Compliance Matrix: (Units=1/GPa)
#
#
# Indices 1 2 3 4 5 6 
#
# 1 0.012210 -0.001857 -0.006161 0.000000 -0.005565 0.000000
# 2 -0.001857 0.010136 -0.006776 0.000000 -0.002067 0.000000
# 3 -0.006161 -0.006776 0.028231 0.000000 0.000344 0.000000
# 4 0.000000 0.000000 0.000000 0.052515 0.000000 0.006090
# 5 -0.005565 -0.002067 0.000344 0.000000 0.049100 0.000000
# 6 0.000000 0.000000 0.000000 0.006090 0.000000 0.028438
#
#
# Mechanical properties :
#
#
# Convention : Reuss Voigt Hill
#
# Bulk Modulus (GPa) = 47.64437 62.63367 55.13902
# Shear Modulus (GPa) = 23.01877 27.52515 25.27196
#
# Velocity S-wave (km/s) = 3.41798 3.73760 3.58135
# Velocity P-wave (km/s) = 6.30534 7.10030 6.71460
#
# Compressibility (1/GPa) = 0.02098884
#
# Stress axis : x y z
#
# Youngs Moduli (GPa) = 81.89913 98.65722 35.42250
#
# Poissons Ratio (x) = 0.18317 0.21824
# Poissons Ratio (y) = 0.15206 0.24004
# Poissons Ratio (z) = 0.50458 0.66854
#
# Static dielectric constant tensor:
#      x y z
#    x 3.959900 0.000000 0.017800 
#    y 0.000000 3.624350 0.000000 
#    z 0.017800 0.000000 3.321740 
# 
# 
# High freq. dielectric constant tensor:
#      x y z
#    x 1.780120 0.000000 0.001860 
#    y 0.000000 1.772570 0.000000 
#    z 0.001860 0.000000 1.729880 
# 
# From -- ./inp_files/313604.got.cif
#   From: 2010.06.25/outbox.cif.g09.slc.cpg/sg15_157_cif.got.tgz:313604.got - 2010.06.28 07:06:18.
