data_PCOD8131684
_publ_section_title
;
Structure prediction by ZEFSAII (Michael W. Deem and Ramdas Pophale) SiO2 
 PCOD8131684
Probable space group: C 2/C
;
_chemical_formula_sum "Si O2"
_cell_formula_units_Z 56
_cell_length_a 12.778487
_cell_length_b 34.027732
_cell_length_c 9.116533
_cell_angle_alpha 90.000000
_cell_angle_beta 133.786679
_cell_angle_gamma 90.000000
_cell_volume 2861.751375
_symmetry_space_group_name_H-M "C 2/C"
_symmetry_group_IT_number 15
_symmetry_cell_setting 'monoclinic'
loop_
_space_group_symop_operation_xyz
x,y,z
-x,y,1/2-z
-x,-y,-z
x,-y,1/2+z
1/2+x,1/2+y,z
1/2-x,1/2+y,1/2-z
1/2-x,1/2-y,-z
1/2+x,1/2-y,1/2+z
loop_
_atom_site_type_symbol
_atom_site_label
_atom_site_fract_x
_atom_site_fract_y
_atom_site_fract_z
Si Si1 0.106165 0.985597 0.223782
Si Si2 0.315618 0.793891 0.929061
Si Si3 0.811391 0.070549 0.184413
Si Si4 0.859864 0.912939 0.411784
Si Si5 0.355562 0.221017 0.794879
Si Si6 0.359445 0.870559 0.805081
Si Si7 0.314357 0.146576 0.928246
O O1 0.196963 0.948800 0.247929
O O2 0.000000 0.971544 0.250000
O O3 0.207369 0.023327 0.356721
O O4 0.000000 0.000000 0.000000
O O5 0.201944 0.765182 0.737636
O O6 0.293863 0.837642 0.848615
O O7 0.472199 0.776540 0.043380
O O8 0.289818 0.795773 0.078756
O O9 0.694603 0.087259 0.187015
O O10 0.968278 0.083123 0.397891
O O11 0.782024 0.087880 0.994211
O O12 0.818389 0.873432 0.286246
O O13 0.308009 0.192938 0.883671
O O14 0.298207 0.860866 0.584949
O O15 0.533155 0.871298 0.979326
#
# Coordination Sequence:
#
# PCOD8131684 Si02
#       7
#     8   8   8   8   8   8   8
#     4  10  18  34  55  82 111 142 177 225 278 323
#     4   9  18  34  55  76 102 142 175 224 267 321
#     4  10  20  36  55  83 108 140 182 225 270 324
#     4  10  21  34  57  83 107 141 182 225 270 324
#     4   9  18  34  55  76 103 138 182 217 270 322
#     4  10  22  37  54  77 114 146 181 224 272 323
#     4  10  22  37  53  80 110 148 182 222 273 324
#
# _framework density 19.568436999999999
#
# number of rings (size 3 to 8) (size 9 to 14) (size 15 to 20)
#    0.000    2.286    2.857    0.857    4.000    3.429 
#    0.000    3.571    0.000    0.000    0.000    0.000 
#    0.000    0.000    0.000    0.000    0.000    0.000 
#
# Total GULP energy -347071.992116 kJ/mol
# GULP energy per Si atom -12395.428290 kJ/mol
# Density = 1.952390 g / cm^3
# Si number density = 19.568437 Si / 1000 Ang^3
#
#
#
# Elastic Constant Matrix: (Units=GPa)
#
#
# Indices 1 2 3 4 5 6 
#
# 1 65.3693 30.2422 16.7358 0.0000 -20.7615 0.0000
# 2 30.2422 71.3795 14.6129 0.0000 -3.2882 0.0000
# 3 16.7358 14.6129 63.1150 0.0000 -11.5992 0.0000
# 4 0.0000 0.0000 0.0000 27.9845 0.0000 -5.2406
# 5 -20.7615 -3.2882 -11.5992 0.0000 27.5080 0.0000
# 6 0.0000 0.0000 0.0000 -5.2406 0.0000 34.2443
#
#
#
# Elastic Compliance Matrix: (Units=1/GPa)
#
#
# Indices 1 2 3 4 5 6 
#
# 1 0.025838 -0.009862 -0.001302 0.000000 0.017774 0.000000
# 2 -0.009862 0.018474 -0.002845 0.000000 -0.006435 0.000000
# 3 -0.001302 -0.002845 0.018000 0.000000 0.006267 0.000000
# 4 0.000000 0.000000 0.000000 0.036788 0.000000 0.005630
# 5 0.017774 -0.006435 0.006267 0.000000 0.051641 0.000000
# 6 0.000000 0.000000 0.000000 0.005630 0.000000 0.030063
#
#
# Mechanical properties :
#
#
# Convention : Reuss Voigt Hill
#
# Bulk Modulus (GPa) = 29.15856 35.89396 32.52626
# Shear Modulus (GPa) = 22.70110 27.16556 24.93333
#
# Velocity S-wave (km/s) = 3.40970 3.72994 3.57341
# Velocity P-wave (km/s) = 5.51675 6.07722 5.80375
#
# Compressibility (1/GPa) = 0.03429525
#
# Stress axis : x y z
#
# Youngs Moduli (GPa) = 38.70206 54.13025 55.55645
#
# Poissons Ratio (x) = 0.53383 0.07231
# Poissons Ratio (y) = 0.38168 0.15804
# Poissons Ratio (z) = 0.05038 0.15399
#
# Static dielectric constant tensor:
#      x y z
#    x 4.343150 0.000000 -1.092700 
#    y 0.000000 -0.762560 0.000000 
#    z -1.092700 0.000000 4.307380 
# 
# 
# High freq. dielectric constant tensor:
#      x y z
#    x 1.742740 0.000000 -0.022250 
#    y 0.000000 1.761350 0.000000 
#    z -0.022250 0.000000 1.756190 
# 
# From -- ./inp_files/44617.got.cif
#   From: 2010.06.25/outbox.cif.g09.slc.cpg/sg15_23_cif.got.tgz:44617.got - 2010.06.28 07:06:18.
