data_PCOD8131931
_publ_section_title
;
Structure prediction by ZEFSAII (Michael W. Deem and Ramdas Pophale) SiO2 
 PCOD8131931
Probable space group: C 2/C
;
_chemical_formula_sum "Si O2"
_cell_formula_units_Z 60
_cell_length_a 24.997182
_cell_length_b 23.296209
_cell_length_c 13.556402
_cell_angle_alpha 90.000000
_cell_angle_beta 24.319099
_cell_angle_gamma 90.000000
_cell_volume 3251.069257
_symmetry_space_group_name_H-M "C 2/C"
_symmetry_group_IT_number 15
_symmetry_cell_setting 'monoclinic'
loop_
_space_group_symop_operation_xyz
x,y,z
-x,y,1/2-z
-x,-y,-z
x,-y,1/2+z
1/2+x,1/2+y,z
1/2-x,1/2+y,1/2-z
1/2-x,1/2-y,-z
1/2+x,1/2-y,1/2+z
loop_
_atom_site_type_symbol
_atom_site_label
_atom_site_fract_x
_atom_site_fract_y
_atom_site_fract_z
Si Si1 0.318031 0.668855 0.128206
Si Si2 0.500000 0.489704 0.250000
Si Si3 0.911124 0.590495 0.990108
Si Si4 0.710966 0.896020 0.460694
Si Si5 0.929272 0.884828 0.245979
Si Si6 0.121322 0.293995 0.481144
Si Si7 0.723450 0.027768 0.759472
Si Si8 0.968688 0.385305 0.007901
O O1 0.186318 0.639216 0.386093
O O2 0.293669 0.737068 0.178371
O O3 0.439220 0.651357 0.994400
O O4 0.345000 0.647404 0.971272
O O5 0.470114 0.449117 0.206924
O O6 0.376072 0.530142 0.477119
O O7 0.000000 0.571443 0.750000
O O8 0.829166 0.536431 0.166418
O O9 0.996648 0.616336 0.935461
O O10 0.848323 0.889310 0.282724
O O11 0.701359 0.840628 0.407700
O O12 0.706309 0.952640 0.401291
O O13 0.593311 0.903379 0.734119
O O14 0.077500 0.322196 0.450665
O O15 0.000000 0.273263 0.750000
O O16 0.645527 0.068586 0.815676
#
# Coordination Sequence:
#
# PCOD8131931 Si02
#       8
#     8   4   8   8   8   8   8   8
#     4  10  19  36  56  82 116 141 186 233 280 329
#     4  10  20  36  54  76 116 152 180 226 272 334
#     4  12  23  38  58  82 108 154 193 225 283 336
#     4  10  20  34  58  89 113 144 186 230 284 330
#     4  10  18  35  55  82 114 144 178 239 278 325
#     4   9  18  33  59  87 110 141 182 233 286 329
#     4  11  21  38  57  84 115 147 186 228 282 336
#     4  10  21  38  57  84 116 143 186 242 276 324
#
# _framework density 18.455466000000001
#
# number of rings (size 3 to 8) (size 9 to 14) (size 15 to 20)
#    0.000    1.867    5.333    2.400    0.000    3.200 
#    2.400    0.667    5.867    0.000    0.000    0.000 
#    0.000    0.000    0.000    0.000    0.000    0.000 
#
# Total GULP energy -372026.228432 kJ/mol
# GULP energy per Si atom -12400.874281 kJ/mol
# Density = 1.841346 g / cm^3
# Si number density = 18.455466 Si / 1000 Ang^3
#
#
#
# Elastic Constant Matrix: (Units=GPa)
#
#
# Indices 1 2 3 4 5 6 
#
# 1 91.3624 17.0168 24.4703 0.0022 -20.8010 -0.0014
# 2 17.0168 98.7737 30.0588 0.0018 -9.5319 -0.0012
# 3 24.4703 30.0588 86.2439 0.0061 -12.7617 -0.0043
# 4 0.0022 0.0018 0.0061 20.7510 -0.0036 -1.4986
# 5 -20.8010 -9.5319 -12.7617 -0.0036 25.3521 0.0023
# 6 -0.0014 -0.0012 -0.0043 -1.4986 0.0023 12.4018
#
#
#
# Elastic Compliance Matrix: (Units=1/GPa)
#
#
# Indices 1 2 3 4 5 6 
#
# 1 0.013970 -0.000764 -0.002209 0.000001 0.010064 -0.000001
# 2 -0.000764 0.011510 -0.003509 0.000000 0.001935 0.000000
# 3 -0.002209 -0.003509 0.014026 -0.000003 0.003929 0.000003
# 4 0.000001 0.000000 -0.000003 0.048615 0.000006 0.005874
# 5 0.010064 0.001935 0.003929 0.000006 0.050407 -0.000006
# 6 -0.000001 0.000000 0.000003 0.005874 -0.000006 0.081343
#
#
# Mechanical properties :
#
#
# Convention : Reuss Voigt Hill
#
# Bulk Modulus (GPa) = 37.67206 46.60798 42.14002
# Shear Modulus (GPa) = 20.68840 25.35658 23.02249
#
# Velocity S-wave (km/s) = 3.35175 3.71068 3.53577
# Velocity P-wave (km/s) = 5.95279 6.60818 6.28903
#
# Compressibility (1/GPa) = 0.02654487
#
# Stress axis : x y z
#
# Youngs Moduli (GPa) = 71.57964 86.87945 71.29632
#
# Poissons Ratio (x) = 0.06634 0.15747
# Poissons Ratio (y) = 0.05465 0.25016
# Poissons Ratio (z) = 0.15809 0.30484
#
# Static dielectric constant tensor:
#      x y z
#    x 3.371720 0.000000 -0.262370 
#    y 0.000000 3.326620 0.000000 
#    z -0.262370 0.000000 3.255510 
# 
# 
# High freq. dielectric constant tensor:
#      x y z
#    x 1.706770 0.000000 -0.026510 
#    y 0.000000 1.713120 0.000000 
#    z -0.026510 0.000000 1.697520 
# 
# From -- ./inp_files/179271.got.cif
#   From: 2010.06.25/outbox.cif.g09.slc.cpg/sg15_90_cif.got.tgz:179271.got - 2010.06.28 07:06:18.
