data_PCOD8131219
_publ_section_title
;
Structure prediction by ZEFSAII (Michael W. Deem and Ramdas Pophale) SiO2 
 PCOD8131219
Probable space group: C 2/C
;
_chemical_formula_sum "Si O2"
_cell_formula_units_Z 60
_cell_length_a 14.489782
_cell_length_b 12.828560
_cell_length_c 23.832763
_cell_angle_alpha 90.000000
_cell_angle_beta 129.351354
_cell_angle_gamma 90.000000
_cell_volume 3425.678119
_symmetry_space_group_name_H-M "C 2/C"
_symmetry_group_IT_number 15
_symmetry_cell_setting 'monoclinic'
loop_
_space_group_symop_operation_xyz
x,y,z
-x,y,1/2-z
-x,-y,-z
x,-y,1/2+z
1/2+x,1/2+y,z
1/2-x,1/2+y,1/2-z
1/2-x,1/2-y,-z
1/2+x,1/2-y,1/2+z
loop_
_atom_site_type_symbol
_atom_site_label
_atom_site_fract_x
_atom_site_fract_y
_atom_site_fract_z
Si Si1 0.138790 0.928774 0.685481
Si Si2 0.032621 0.508768 0.699775
Si Si3 0.189317 0.632394 0.919096
Si Si4 0.128357 0.964992 0.806183
Si Si5 0.148785 0.302140 0.723493
Si Si6 0.866040 0.136042 0.081601
Si Si7 0.500000 0.664605 0.750000
Si Si8 0.241591 0.129698 0.680333
O O1 0.188778 0.951593 0.768530
O O2 0.228247 0.838083 0.697022
O O3 0.002139 0.898808 0.627842
O O4 0.151457 0.033922 0.654652
O O5 0.079924 0.409842 0.682497
O O6 0.130854 0.601369 0.742139
O O7 0.000000 0.470827 0.750000
O O8 0.916924 0.549160 0.622809
O O9 0.135627 0.739929 0.920833
O O10 0.246722 0.649921 0.880762
O O11 0.290017 0.590390 0.000530
O O12 0.193425 0.908687 0.883501
O O13 0.000000 0.907234 0.750000
O O14 0.105223 0.087407 0.813475
O O15 0.058709 0.234015 0.725123
O O16 0.186995 0.235996 0.684020
#
# Coordination Sequence:
#
# PCOD8131219 Si02
#       8
#     8   8   8   8   8   8   4   8
#     4  10  19  31  54  81  97 132 175 218 256 300
#     4   9  19  33  51  80 104 134 171 212 261 308
#     4  10  21  34  53  76 107 142 171 207 256 311
#     4   8  16  32  53  76  98 129 177 210 248 305
#     4  11  18  30  54  76 106 129 165 224 264 300
#     4  10  19  35  55  74 106 142 175 206 252 308
#     4  10  18  32  52  76 102 132 166 214 266 310
#     4  10  19  33  53  79 104 131 173 219 258 303
#
# _framework density 17.514780999999999
#
# number of rings (size 3 to 8) (size 9 to 14) (size 15 to 20)
#    0.400    1.867    2.000    1.600    0.000    4.267 
#    0.000    0.000    2.933    6.400    0.000    0.000 
#    0.000    0.000    0.000    0.000    0.000    0.000 
#
# Total GULP energy -371682.483486 kJ/mol
# GULP energy per Si atom -12389.416116 kJ/mol
# Density = 1.747492 g / cm^3
# Si number density = 17.514781 Si / 1000 Ang^3
#
#
#
# Elastic Constant Matrix: (Units=GPa)
#
#
# Indices 1 2 3 4 5 6 
#
# 1 89.1689 37.2849 44.6033 0.0000 6.7714 0.0000
# 2 37.2849 86.5757 46.3750 0.0000 3.8773 0.0000
# 3 44.6033 46.3750 109.2940 0.0000 3.3633 0.0000
# 4 0.0000 0.0000 0.0000 14.9994 0.0000 -1.3499
# 5 6.7714 3.8773 3.3633 0.0000 17.8099 0.0000
# 6 0.0000 0.0000 0.0000 -1.3499 0.0000 19.3358
#
#
#
# Elastic Compliance Matrix: (Units=1/GPa)
#
#
# Indices 1 2 3 4 5 6 
#
# 1 0.015466 -0.004092 -0.004447 0.000000 -0.004149 0.000000
# 2 -0.004092 0.016107 -0.005134 0.000000 -0.000981 0.000000
# 3 -0.004447 -0.005134 0.013133 0.000000 0.000329 0.000000
# 4 0.000000 0.000000 0.000000 0.067091 0.000000 0.004684
# 5 -0.004149 -0.000981 0.000329 0.000000 0.057878 0.000000
# 6 0.000000 0.000000 0.000000 0.004684 0.000000 0.052044
#
#
# Mechanical properties :
#
#
# Convention : Reuss Voigt Hill
#
# Bulk Modulus (GPa) = 57.61090 60.17391 58.89240
# Shear Modulus (GPa) = 19.61917 20.88071 20.24994
#
# Velocity S-wave (km/s) = 3.35049 3.45654 3.40393
# Velocity P-wave (km/s) = 6.92329 7.09654 7.01045
#
# Compressibility (1/GPa) = 0.01735783
#
# Stress axis : x y z
#
# Youngs Moduli (GPa) = 64.65971 62.08441 76.14378
#
# Poissons Ratio (x) = 0.25407 0.33865
# Poissons Ratio (y) = 0.26461 0.39094
# Poissons Ratio (z) = 0.28757 0.31875
#
# Static dielectric constant tensor:
#      x y z
#    x 3.458540 0.000000 -0.015900 
#    y 0.000000 3.313420 0.000000 
#    z -0.015900 0.000000 3.010330 
# 
# 
# High freq. dielectric constant tensor:
#      x y z
#    x 1.690370 0.000000 0.002560 
#    y 0.000000 1.684400 0.000000 
#    z 0.002560 0.000000 1.629380 
# 
# From -- ./inp_files/295768.got.cif
#   From: 2010.06.25/outbox.cif.g09.slc.cpg/sg15_148_cif.got.tgz:295768.got - 2010.06.28 07:06:18.
