data_PCOD8131265
_publ_section_title
;
Structure prediction by ZEFSAII (Michael W. Deem and Ramdas Pophale) SiO2 
 PCOD8131265
Probable space group: C 2/C
;
_chemical_formula_sum "Si O2"
_cell_formula_units_Z 56
_cell_length_a 9.456758
_cell_length_b 13.744056
_cell_length_c 28.307101
_cell_angle_alpha 90.000000
_cell_angle_beta 127.051097
_cell_angle_gamma 90.000000
_cell_volume 2936.358474
_symmetry_space_group_name_H-M "C 2/C"
_symmetry_group_IT_number 15
_symmetry_cell_setting 'monoclinic'
loop_
_space_group_symop_operation_xyz
x,y,z
-x,y,1/2-z
-x,-y,-z
x,-y,1/2+z
1/2+x,1/2+y,z
1/2-x,1/2+y,1/2-z
1/2-x,1/2-y,-z
1/2+x,1/2-y,1/2+z
loop_
_atom_site_type_symbol
_atom_site_label
_atom_site_fract_x
_atom_site_fract_y
_atom_site_fract_z
Si Si1 0.228161 0.781470 0.625857
Si Si2 0.701399 0.895922 0.773005
Si Si3 0.614967 0.788340 0.667106
Si Si4 0.019985 0.421751 0.938826
Si Si5 0.329416 0.526896 0.436426
Si Si6 0.707283 0.906353 0.070997
Si Si7 0.872293 0.076266 0.849501
O O1 0.201446 0.814269 0.674750
O O2 0.435576 0.770684 0.659076
O O3 0.142757 0.862293 0.574662
O O4 0.146553 0.676416 0.596441
O O5 0.500000 0.912101 0.750000
O O6 0.725963 0.859930 0.723897
O O7 0.802431 0.999180 0.796776
O O8 0.579456 0.836054 0.609079
O O9 0.707545 0.683349 0.677966
O O10 0.152563 0.482176 0.932016
O O11 0.868296 0.491539 0.927569
O O12 0.129237 0.375629 0.004266
O O13 0.500000 0.500000 0.500000
O O14 0.302277 0.455797 0.386701
O O15 0.916188 0.918892 0.107970
#
# Coordination Sequence:
#
# PCOD8131265 Si02
#       7
#     8   8   8   8   8   8   8
#     4   8  18  32  55  76 104 144 180 219 261 331
#     4   9  18  37  55  79 109 138 184 229 272 316
#     4   9  19  34  56  79 104 148 186 216 267 329
#     4  10  21  35  53  80 117 145 173 225 272 324
#     4  10  18  32  54  81 106 138 181 220 265 316
#     4  10  20  36  54  81 112 144 180 218 277 322
#     4  10  20  35  59  82 103 141 188 224 263 326
#
# _framework density 19.071241000000001
#
# number of rings (size 3 to 8) (size 9 to 14) (size 15 to 20)
#    0.000    2.571    1.429    0.857    2.000    2.857 
#    0.000    7.143    0.000    0.000    0.000    0.000 
#    0.000    0.000    0.000    0.000    0.000    0.000 
#
# Total GULP energy -347098.066355 kJ/mol
# GULP energy per Si atom -12396.359513 kJ/mol
# Density = 1.902783 g / cm^3
# Si number density = 19.071241 Si / 1000 Ang^3
#
#
#
# Elastic Constant Matrix: (Units=GPa)
#
#
# Indices 1 2 3 4 5 6 
#
# 1 35.1398 21.9710 19.8349 0.0000 -6.2179 0.0000
# 2 21.9710 132.9765 72.1984 0.0000 -6.2493 0.0000
# 3 19.8349 72.1984 123.1813 0.0000 -6.7680 0.0000
# 4 0.0000 0.0000 0.0000 26.5741 0.0000 -0.9231
# 5 -6.2179 -6.2493 -6.7680 0.0000 13.6301 0.0000
# 6 0.0000 0.0000 0.0000 -0.9231 0.0000 24.0455
#
#
#
# Elastic Compliance Matrix: (Units=1/GPa)
#
#
# Indices 1 2 3 4 5 6 
#
# 1 0.034518 -0.003618 -0.002738 0.000000 0.012728 0.000000
# 2 -0.003618 0.011458 -0.006101 0.000000 0.000573 0.000000
# 3 -0.002738 -0.006101 0.012247 0.000000 0.002035 0.000000
# 4 0.000000 0.000000 0.000000 0.037681 0.000000 0.001447
# 5 0.012728 0.000573 0.002035 0.000000 0.080446 0.000000
# 6 0.000000 0.000000 0.000000 0.001447 0.000000 0.041643
#
#
# Mechanical properties :
#
#
# Convention : Reuss Voigt Hill
#
# Bulk Modulus (GPa) = 30.02399 57.70070 43.86235
# Shear Modulus (GPa) = 19.68423 24.66949 22.17686
#
# Velocity S-wave (km/s) = 3.21618 3.60049 3.41375
# Velocity P-wave (km/s) = 5.43774 6.89969 6.21187
#
# Compressibility (1/GPa) = 0.03330670
#
# Stress axis : x y z
#
# Youngs Moduli (GPa) = 28.97055 87.27852 81.65359
#
# Poissons Ratio (x) = 0.31581 0.22357
# Poissons Ratio (y) = 0.10483 0.49819
# Poissons Ratio (z) = 0.07932 0.53251
#
# Static dielectric constant tensor:
#      x y z
#    x 3.178970 0.000000 -0.115170 
#    y 0.000000 3.691350 0.000000 
#    z -0.115170 0.000000 3.815550 
# 
# 
# High freq. dielectric constant tensor:
#      x y z
#    x 1.705860 0.000000 -0.006640 
#    y 0.000000 1.743120 0.000000 
#    z -0.006640 0.000000 1.753400 
# 
# From -- ./inp_files/264827.got.cif
#   From: 2010.06.25/outbox.cif.g09.slc.cpg/sg15_133_cif.got.tgz:264827.got - 2010.06.28 07:06:18.
