data_PCOD8131878
_publ_section_title
;
Structure prediction by ZEFSAII (Michael W. Deem and Ramdas Pophale) SiO2 
 PCOD8131878
Probable space group: C 2/C
;
_chemical_formula_sum "Si O2"
_cell_formula_units_Z 52
_cell_length_a 15.366098
_cell_length_b 16.797641
_cell_length_c 12.028262
_cell_angle_alpha 90.000000
_cell_angle_beta 116.416709
_cell_angle_gamma 90.000000
_cell_volume 2780.482435
_symmetry_space_group_name_H-M "C 2/C"
_symmetry_group_IT_number 15
_symmetry_cell_setting 'monoclinic'
loop_
_space_group_symop_operation_xyz
x,y,z
-x,y,1/2-z
-x,-y,-z
x,-y,1/2+z
1/2+x,1/2+y,z
1/2-x,1/2+y,1/2-z
1/2-x,1/2-y,-z
1/2+x,1/2-y,1/2+z
loop_
_atom_site_type_symbol
_atom_site_label
_atom_site_fract_x
_atom_site_fract_y
_atom_site_fract_z
Si Si1 0.337875 0.524171 0.445201
Si Si2 0.000000 0.670470 0.750000
Si Si3 0.204144 0.197470 0.068685
Si Si4 0.204613 0.719017 0.139548
Si Si5 0.510537 0.562706 0.130988
Si Si6 0.291769 0.872977 0.077175
Si Si7 0.499756 0.729425 0.466777
O O1 0.291630 0.605183 0.466311
O O2 0.378495 0.538192 0.341155
O O3 0.436621 0.509762 0.570320
O O4 0.260531 0.453745 0.414201
O O5 0.093217 0.615736 0.832917
O O6 0.025559 0.727036 0.662057
O O7 0.257881 0.198985 0.217480
O O8 0.095810 0.232134 0.012707
O O9 0.250000 0.250000 0.000000
O O10 0.254246 0.799983 0.128613
O O11 0.228123 0.647920 0.064420
O O12 0.088401 0.729123 0.081036
O O13 0.500000 0.590340 0.250000
O O14 0.472541 0.637661 0.038538
#
# Coordination Sequence:
#
# PCOD8131878 Si02
#       7
#     8   4   8   8   8   8   8
#     4  10  23  37  56  93 123 158 205 245 313 366
#     4  10  18  34  64  90 120 152 206 266 290 354
#     4  11  25  43  57  88 131 171 199 245 318 385
#     4  10  21  37  65  88 119 158 206 261 305 359
#     4  10  20  35  60  92 127 154 188 263 318 367
#     4  10  20  37  62  95 115 153 210 262 303 352
#     4  10  19  36  64  93 117 158 210 254 311 358
#
# _framework density 18.701789999999999
#
# number of rings (size 3 to 8) (size 9 to 14) (size 15 to 20)
#    0.000    1.846    3.846    0.000    4.308    1.846 
#    0.000    1.538    0.000    3.692    0.000    0.000 
#    0.000    0.000    0.000    0.000    0.000    0.000 
#
# Total GULP energy -322248.884607 kJ/mol
# GULP energy per Si atom -12394.187870 kJ/mol
# Density = 1.865922 g / cm^3
# Si number density = 18.701790 Si / 1000 Ang^3
#
#
#
# Elastic Constant Matrix: (Units=GPa)
#
#
# Indices 1 2 3 4 5 6 
#
# 1 116.1058 67.1848 40.4814 0.0000 0.2745 0.0000
# 2 67.1848 118.8153 31.2172 0.0000 -3.6919 0.0000
# 3 40.4814 31.2172 68.3957 0.0000 0.8072 0.0000
# 4 0.0000 0.0000 0.0000 14.7568 0.0000 3.1995
# 5 0.2745 -3.6919 0.8072 0.0000 25.1351 0.0000
# 6 0.0000 0.0000 0.0000 3.1995 0.0000 34.4884
#
#
#
# Elastic Compliance Matrix: (Units=1/GPa)
#
#
# Indices 1 2 3 4 5 6 
#
# 1 0.014421 -0.006755 -0.005441 0.000000 -0.000975 0.000000
# 2 -0.006755 0.012788 -0.001862 0.000000 0.002012 0.000000
# 3 -0.005441 -0.001862 0.018700 0.000000 -0.000815 0.000000
# 4 0.000000 0.000000 0.000000 0.069156 0.000000 -0.006416
# 5 -0.000975 0.002012 -0.000815 0.000000 0.040117 0.000000
# 6 0.000000 0.000000 0.000000 -0.006416 0.000000 0.029590
#
#
# Mechanical properties :
#
#
# Convention : Reuss Voigt Hill
#
# Bulk Modulus (GPa) = 56.20086 64.56485 60.38285
# Shear Modulus (GPa) = 22.84972 25.83828 24.34400
#
# Velocity S-wave (km/s) = 3.49921 3.72101 3.61181
# Velocity P-wave (km/s) = 6.81485 7.28420 7.05343
#
# Compressibility (1/GPa) = 0.01779332
#
# Stress axis : x y z
#
# Youngs Moduli (GPa) = 69.34322 78.19809 53.47451
#
# Poissons Ratio (x) = 0.52825 0.29093
# Poissons Ratio (y) = 0.46843 0.09958
# Poissons Ratio (z) = 0.37727 0.14562
#
# Static dielectric constant tensor:
#      x y z
#    x 3.887650 0.000000 0.012890 
#    y 0.000000 3.327720 0.000000 
#    z 0.012890 0.000000 3.345620 
# 
# 
# High freq. dielectric constant tensor:
#      x y z
#    x 1.734880 0.000000 0.006950 
#    y 0.000000 1.713660 0.000000 
#    z 0.006950 0.000000 1.711700 
# 
# From -- ./inp_files/97133.got.cif
#   From: 2010.06.25/outbox.cif.g09.slc.cpg/sg15_49_cif.got.tgz:97133.got - 2010.06.28 07:06:18.
