data_PCOD8131223
_publ_section_title
;
Structure prediction by ZEFSAII (Michael W. Deem and Ramdas Pophale) SiO2 
 PCOD8131223
Probable space group: C 2/C
;
_chemical_formula_sum "Si O2"
_cell_formula_units_Z 60
_cell_length_a 22.436382
_cell_length_b 8.909776
_cell_length_c 26.834134
_cell_angle_alpha 90.000000
_cell_angle_beta 35.922462
_cell_angle_gamma 90.000000
_cell_volume 3147.138024
_symmetry_space_group_name_H-M "C 2/C"
_symmetry_group_IT_number 15
_symmetry_cell_setting 'monoclinic'
loop_
_space_group_symop_operation_xyz
x,y,z
-x,y,1/2-z
-x,-y,-z
x,-y,1/2+z
1/2+x,1/2+y,z
1/2-x,1/2+y,1/2-z
1/2-x,1/2-y,-z
1/2+x,1/2-y,1/2+z
loop_
_atom_site_type_symbol
_atom_site_label
_atom_site_fract_x
_atom_site_fract_y
_atom_site_fract_z
Si Si1 0.500000 0.823219 0.250000
Si Si2 0.301385 0.410932 0.023275
Si Si3 0.906611 0.892733 0.278412
Si Si4 0.687463 0.622424 0.096156
Si Si5 0.363438 0.046929 0.299676
Si Si6 0.780798 0.858729 0.680866
Si Si7 0.871695 0.898511 0.190520
Si Si8 0.944726 0.088377 0.995151
O O1 0.586295 0.721592 0.168019
O O2 0.458389 0.932672 0.233839
O O3 0.284654 0.230371 0.040393
O O4 0.203591 0.500470 0.107936
O O5 0.311966 0.452817 0.958410
O O6 0.398160 0.465523 0.988921
O O7 0.895818 0.715971 0.288310
O O8 0.916352 0.942636 0.214298
O O9 0.000000 0.943869 0.250000
O O10 0.810649 0.985676 0.365453
O O11 0.303605 0.033847 0.287776
O O12 0.724894 0.712323 0.740481
O O13 0.859024 0.811961 0.582276
O O14 0.835332 0.948677 0.688180
O O15 0.966426 0.822673 0.095530
O O16 0.000000 0.000000 0.000000
#
# Coordination Sequence:
#
# PCOD8131223 Si02
#       8
#     4   8   8   8   8   8   8   8
#     4  10  18  32  52  78 110 148 176 234 276 332
#     4   9  19  36  52  77 112 146 183 227 285 339
#     4  11  20  33  54  86 110 143 189 231 278 339
#     4  10  20  32  53  82 110 138 189 234 278 326
#     4   9  19  35  55  74 116 149 181 225 286 341
#     4   9  20  38  57  85 108 148 193 229 279 342
#     4  10  21  37  61  81 113 151 189 233 285 330
#     4   9  18  35  57  78 109 151 184 224 282 338
#
# _framework density 19.064941000000001
#
# number of rings (size 3 to 8) (size 9 to 14) (size 15 to 20)
#    0.000    2.400    1.333    0.800    0.000    4.800 
#    2.400    2.000    5.867    0.000    0.000    0.000 
#    0.000    0.000    0.000    0.000    0.000    0.000 
#
# Total GULP energy -371651.877021 kJ/mol
# GULP energy per Si atom -12388.395901 kJ/mol
# Density = 1.902155 g / cm^3
# Si number density = 19.064941 Si / 1000 Ang^3
#
#
#
# Elastic Constant Matrix: (Units=GPa)
#
#
# Indices 1 2 3 4 5 6 
#
# 1 96.8289 28.2166 41.2745 0.0014 12.3360 0.0003
# 2 28.2166 61.9932 33.7009 0.0010 9.8907 -0.0192
# 3 41.2745 33.7009 103.4733 -0.0018 15.6586 -0.0014
# 4 0.0014 0.0010 -0.0018 26.8355 0.0004 -0.6618
# 5 12.3360 9.8907 15.6586 0.0004 32.0214 -0.0004
# 6 0.0003 -0.0192 -0.0014 -0.6618 -0.0004 25.3852
#
#
#
# Elastic Compliance Matrix: (Units=1/GPa)
#
#
# Indices 1 2 3 4 5 6 
#
# 1 0.013275 -0.003643 -0.003785 -0.000001 -0.002138 -0.000003
# 2 -0.003643 0.020903 -0.004957 -0.000001 -0.002629 0.000016
# 3 -0.003785 -0.004957 0.013322 0.000001 -0.003525 -0.000003
# 4 -0.000001 -0.000001 0.000001 0.037288 -0.000001 0.000972
# 5 -0.002138 -0.002629 -0.003525 -0.000001 0.034589 -0.000002
# 6 -0.000003 0.000016 -0.000003 0.000972 -0.000002 0.039418
#
#
# Mechanical properties :
#
#
# Convention : Reuss Voigt Hill
#
# Bulk Modulus (GPa) = 43.99589 52.07549 48.03569
# Shear Modulus (GPa) = 26.15842 27.45530 26.80686
#
# Velocity S-wave (km/s) = 3.70816 3.79897 3.75384
# Velocity P-wave (km/s) = 6.43902 6.82767 6.63619
#
# Compressibility (1/GPa) = 0.02272940
#
# Stress axis : x y z
#
# Youngs Moduli (GPa) = 75.32939 47.83936 75.06313
#
# Poissons Ratio (x) = 0.17430 0.28412
# Poissons Ratio (y) = 0.27446 0.37208
# Poissons Ratio (z) = 0.28513 0.23714
#
# Static dielectric constant tensor:
#      x y z
#    x 3.601390 0.000010 -0.047880 
#    y 0.000010 3.298570 -0.000010 
#    z -0.047880 -0.000010 4.028790 
# 
# 
# High freq. dielectric constant tensor:
#      x y z
#    x 1.745990 0.000000 0.001270 
#    y 0.000000 1.716420 0.000000 
#    z 0.001270 0.000000 1.748360 
# 
# From -- ./inp_files/301901.got.cif
#   From: 2010.06.25/outbox.cif.g09.slc.cpg/sg15_151_cif.got.tgz:301901.got - 2010.06.28 07:06:18.
