data_PCOD8131972
_publ_section_title
;
Structure prediction by ZEFSAII (Michael W. Deem and Ramdas Pophale) SiO2 
 PCOD8131972
Probable space group: C 2/C
;
_chemical_formula_sum "Si O2"
_cell_formula_units_Z 64
_cell_length_a 24.142691
_cell_length_b 19.175211
_cell_length_c 9.735630
_cell_angle_alpha 90.000000
_cell_angle_beta 52.463401
_cell_angle_gamma 90.000000
_cell_volume 3573.909353
_symmetry_space_group_name_H-M "C 2/C"
_symmetry_group_IT_number 15
_symmetry_cell_setting 'monoclinic'
loop_
_space_group_symop_operation_xyz
x,y,z
-x,y,1/2-z
-x,-y,-z
x,-y,1/2+z
1/2+x,1/2+y,z
1/2-x,1/2+y,1/2-z
1/2-x,1/2-y,-z
1/2+x,1/2-y,1/2+z
loop_
_atom_site_type_symbol
_atom_site_label
_atom_site_fract_x
_atom_site_fract_y
_atom_site_fract_z
Si Si1 0.434154 0.214669 0.432993
Si Si2 0.223174 0.416164 0.646041
Si Si3 0.366603 0.924257 0.465460
Si Si4 0.797728 0.213665 0.539324
Si Si5 0.935544 0.711470 0.756647
Si Si6 0.634264 0.078824 0.017396
Si Si7 0.282936 0.725321 0.090746
Si Si8 0.234727 0.570893 0.617666
O O1 0.500000 0.247289 0.250000
O O2 0.449264 0.217764 0.573094
O O3 0.427355 0.135279 0.388888
O O4 0.362668 0.254196 0.501103
O O5 0.194560 0.403983 0.536305
O O6 0.280799 0.358858 0.598235
O O7 0.260994 0.491808 0.605355
O O8 0.154349 0.408733 0.845989
O O9 0.420002 0.868415 0.323237
O O10 0.293745 0.922636 0.493543
O O11 0.399083 0.002294 0.406381
O O12 0.750000 0.250000 0.500000
O O13 0.876103 0.235254 0.391374
O O14 0.771592 0.241535 0.722615
O O15 0.794746 0.129053 0.542776
O O16 0.000000 0.737030 0.750000
O O17 0.670102 0.087103 0.815080
O O18 0.250000 0.750000 0.000000
#
# Coordination Sequence:
#
# PCOD8131972 Si02
#       8
#     8   8   8   8   8   8   8   8
#     4  12  26  41  55  83 124 156 190 242 295 344
#     4  10  20  31  59  91 113 144 190 238 289 347
#     4  10  19  34  58  82 115 147 195 232 277 345
#     4  12  19  38  64  84 109 154 199 251 281 331
#     4  12  26  40  57  85 116 157 201 240 287 342
#     4  10  19  36  54  84 118 152 183 232 285 344
#     4  12  21  36  62  88 114 153 195 236 292 341
#     4  10  18  35  57  87 115 144 190 244 291 331
#
# _framework density 17.90756
#
# number of rings (size 3 to 8) (size 9 to 14) (size 15 to 20)
#    0.000    1.000    7.500    0.000    3.500    0.500 
#    0.000    1.250    0.000    0.750    0.000    1.750 
#    0.000    0.000    0.000    0.000    0.000    0.000 
#
# Total GULP energy -396668.547726 kJ/mol
# GULP energy per Si atom -12395.892116 kJ/mol
# Density = 1.786680 g / cm^3
# Si number density = 17.907560 Si / 1000 Ang^3
#
#
#
# Elastic Constant Matrix: (Units=GPa)
#
#
# Indices 1 2 3 4 5 6 
#
# 1 100.3854 47.4166 45.5136 0.0000 1.1789 0.0000
# 2 47.4166 109.5460 37.4598 0.0000 -4.5729 0.0000
# 3 45.5136 37.4598 99.5958 0.0000 4.6729 0.0000
# 4 0.0000 0.0000 0.0000 22.5237 0.0000 1.0795
# 5 1.1789 -4.5729 4.6729 0.0000 30.2279 0.0000
# 6 0.0000 0.0000 0.0000 1.0795 0.0000 21.7811
#
#
#
# Elastic Compliance Matrix: (Units=1/GPa)
#
#
# Indices 1 2 3 4 5 6 
#
# 1 0.014300 -0.004572 -0.004791 0.000000 -0.000509 0.000000
# 2 -0.004572 0.012087 -0.002569 0.000000 0.002404 0.000000
# 3 -0.004791 -0.002569 0.013302 0.000000 -0.002258 0.000000
# 4 0.000000 0.000000 0.000000 0.044503 0.000000 -0.002206
# 5 -0.000509 0.002404 -0.002258 0.000000 0.033815 0.000000
# 6 0.000000 0.000000 0.000000 -0.002206 0.000000 0.046021
#
#
# Mechanical properties :
#
#
# Convention : Reuss Voigt Hill
#
# Bulk Modulus (GPa) = 63.19885 63.36746 63.28315
# Shear Modulus (GPa) = 25.88433 26.84902 26.36667
#
# Velocity S-wave (km/s) = 3.80602 3.87630 3.84132
# Velocity P-wave (km/s) = 7.39478 7.44962 7.42225
#
# Compressibility (1/GPa) = 0.01582307
#
# Stress axis : x y z
#
# Youngs Moduli (GPa) = 69.93237 82.73571 75.17494
#
# Poissons Ratio (x) = 0.37830 0.36016
# Poissons Ratio (y) = 0.31976 0.19315
# Poissons Ratio (z) = 0.33505 0.21257
#
# Static dielectric constant tensor:
#      x y z
#    x 3.069780 0.000000 0.290990 
#    y 0.000000 3.688270 0.000000 
#    z 0.290990 0.000000 3.338380 
# 
# 
# High freq. dielectric constant tensor:
#      x y z
#    x 1.666540 0.000000 0.034470 
#    y 0.000000 1.698070 0.000000 
#    z 0.034470 0.000000 1.698810 
# 
# From -- ./inp_files/63247.got.cif
#   From: 2010.06.25/outbox.cif.g09.slc.cpg/sg15_32_cif.got.tgz:63247.got - 2010.06.28 07:06:18.
