data_PCOD8131686
_publ_section_title
;
Structure prediction by ZEFSAII (Michael W. Deem and Ramdas Pophale) SiO2 
 PCOD8131686
Probable space group: C 2/C
;
_chemical_formula_sum "Si O2"
_cell_formula_units_Z 64
_cell_length_a 20.623345
_cell_length_b 18.862800
_cell_length_c 23.096735
_cell_angle_alpha 90.000000
_cell_angle_beta 21.941950
_cell_angle_gamma 90.000000
_cell_volume 3357.380921
_symmetry_space_group_name_H-M "C 2/C"
_symmetry_group_IT_number 15
_symmetry_cell_setting 'monoclinic'
loop_
_space_group_symop_operation_xyz
x,y,z
-x,y,1/2-z
-x,-y,-z
x,-y,1/2+z
1/2+x,1/2+y,z
1/2-x,1/2+y,1/2-z
1/2-x,1/2-y,-z
1/2+x,1/2-y,1/2+z
loop_
_atom_site_type_symbol
_atom_site_label
_atom_site_fract_x
_atom_site_fract_y
_atom_site_fract_z
Si Si1 0.767765 0.804710 0.614535
Si Si2 0.293336 0.427912 0.680493
Si Si3 0.996721 0.186933 0.188238
Si Si4 0.806491 0.087207 0.646528
Si Si5 0.666408 0.791133 0.332655
Si Si6 0.706796 0.836840 0.848739
Si Si7 0.143967 0.660181 0.672623
Si Si8 0.063045 0.222374 0.639946
O O1 0.756516 0.880653 0.654470
O O2 0.824787 0.737739 0.608423
O O3 0.911597 0.815291 0.443749
O O4 0.575519 0.786462 0.750899
O O5 0.239576 0.508732 0.716062
O O6 0.491657 0.416909 0.536469
O O7 0.173903 0.401988 0.832445
O O8 0.847312 0.141205 0.280424
O O9 0.943722 0.269085 0.230238
O O10 0.000000 0.156371 0.250000
O O11 0.184158 0.178970 0.004994
O O12 0.786893 0.140585 0.717922
O O13 0.692862 0.111139 0.686042
O O14 0.473463 0.813942 0.474309
O O15 0.714172 0.727842 0.251911
O O16 0.000000 0.622669 0.750000
O O17 0.250000 0.250000 0.500000
O O18 0.000000 0.177010 0.750000
#
# Coordination Sequence:
#
# PCOD8131686 Si02
#       8
#     8   8   8   8   8   8   8   8
#     4  10  18  34  55  86 111 140 187 230 292 343
#     4  10  22  38  57  81 116 157 188 240 291 344
#     4  11  21  33  56  85 112 148 189 243 288 335
#     4  11  22  38  56  81 115 157 197 232 291 343
#     4  11  21  32  60  83 117 146 184 243 285 346
#     4  11  20  35  55  88 114 147 190 238 296 337
#     4  11  22  36  56  84 114 151 195 239 286 345
#     4   9  18  32  55  84 108 135 174 238 287 336
#
# _framework density 19.062477999999999
#
# number of rings (size 3 to 8) (size 9 to 14) (size 15 to 20)
#    0.000    1.500    2.500    6.000    1.750    0.500 
#    0.000    1.875    0.000    0.750    0.000    0.000 
#    0.000    0.000    0.000    0.000    0.000    0.000 
#
# Total GULP energy -396530.157971 kJ/mol
# GULP energy per Si atom -12391.567437 kJ/mol
# Density = 1.901909 g / cm^3
# Si number density = 19.062478 Si / 1000 Ang^3
#
#
#
# Elastic Constant Matrix: (Units=GPa)
#
#
# Indices 1 2 3 4 5 6 
#
# 1 112.9734 43.8469 29.2559 -0.0589 8.1102 0.0068
# 2 43.8469 84.0731 16.8857 0.3824 15.1673 -0.0548
# 3 29.2559 16.8857 84.6452 0.1942 -1.9866 -0.0352
# 4 -0.0589 0.3824 0.1942 28.0166 -0.0309 -5.1251
# 5 8.1102 15.1673 -1.9866 -0.0309 35.8665 0.0065
# 6 0.0068 -0.0548 -0.0352 -5.1251 0.0065 17.3989
#
#
#
# Elastic Compliance Matrix: (Units=1/GPa)
#
#
# Indices 1 2 3 4 5 6 
#
# 1 0.011780 -0.005447 -0.002997 0.000121 -0.000526 0.000008
# 2 -0.005447 0.016044 -0.001450 -0.000229 -0.005633 -0.000016
# 3 -0.002997 -0.001450 0.013187 -0.000076 0.002021 0.000000
# 4 0.000121 -0.000229 -0.000076 0.037730 0.000096 0.011113
# 5 -0.000526 -0.005633 0.002021 0.000096 0.030494 0.000003
# 6 0.000008 -0.000016 0.000000 0.011113 0.000003 0.060748
#
#
# Mechanical properties :
#
#
# Convention : Reuss Voigt Hill
#
# Bulk Modulus (GPa) = 47.12071 51.29655 49.20863
# Shear Modulus (GPa) = 25.40063 29.03661 27.21862
#
# Velocity S-wave (km/s) = 3.65429 3.90710 3.78281
# Velocity P-wave (km/s) = 6.52517 6.87910 6.70447
#
# Compressibility (1/GPa) = 0.02122209
#
# Stress axis : x y z
#
# Youngs Moduli (GPa) = 84.89079 62.32954 75.83349
#
# Poissons Ratio (x) = 0.33952 0.22731
# Poissons Ratio (y) = 0.46242 0.10992
# Poissons Ratio (z) = 0.25445 0.09035
#
# Static dielectric constant tensor:
#      x y z
#    x 4.284470 -0.000150 0.229480 
#    y -0.000150 3.343150 0.000240 
#    z 0.229480 0.000240 3.814110 
# 
# 
# High freq. dielectric constant tensor:
#      x y z
#    x 1.759330 0.000000 0.001260 
#    y 0.000000 1.687260 0.000030 
#    z 0.001260 0.000030 1.759260 
# 
# From -- ./inp_files/280477.got.cif
#   From: 2010.06.25/outbox.cif.g09.slc.cpg/sg15_141_cif.got.tgz:280477.got - 2010.06.28 07:06:18.
