data_PCOD8131418
_publ_section_title
;
Structure prediction by ZEFSAII (Michael W. Deem and Ramdas Pophale) SiO2 
 PCOD8131418
Probable space group: C 2/C
;
_chemical_formula_sum "Si O2"
_cell_formula_units_Z 52
_cell_length_a 22.018276
_cell_length_b 28.059913
_cell_length_c 5.069400
_cell_angle_alpha 90.000000
_cell_angle_beta 97.223768
_cell_angle_gamma 90.000000
_cell_volume 3107.171894
_symmetry_space_group_name_H-M "C 2/C"
_symmetry_group_IT_number 15
_symmetry_cell_setting 'monoclinic'
loop_
_space_group_symop_operation_xyz
x,y,z
-x,y,1/2-z
-x,-y,-z
x,-y,1/2+z
1/2+x,1/2+y,z
1/2-x,1/2+y,1/2-z
1/2-x,1/2-y,-z
1/2+x,1/2-y,1/2+z
loop_
_atom_site_type_symbol
_atom_site_label
_atom_site_fract_x
_atom_site_fract_y
_atom_site_fract_z
Si Si1 0.568025 0.153539 0.782203
Si Si2 0.538844 0.397051 0.503153
Si Si3 0.888318 0.395696 0.694168
Si Si4 0.643782 0.469248 0.562993
Si Si5 0.784604 0.468576 0.647645
Si Si6 0.000000 0.744493 0.750000
Si Si7 0.500000 0.692982 0.750000
Si Si8 0.500000 0.966891 0.750000
O O1 0.500000 0.128986 0.750000
O O2 0.610664 0.131659 0.581507
O O3 0.558708 0.210284 0.723922
O O4 0.601197 0.143932 0.076454
O O5 0.500000 0.394734 0.750000
O O6 0.602753 0.422845 0.590811
O O7 0.552204 0.343103 0.397592
O O8 0.500000 0.424215 0.250000
O O9 0.822695 0.420163 0.697760
O O10 0.939483 0.435741 0.728984
O O11 0.628652 0.490533 0.269436
O O12 0.713948 0.452939 0.625094
O O13 0.801363 0.493981 0.383878
O O14 0.979481 0.774750 0.484248
O O15 0.500000 0.000000 0.500000
#
# Coordination Sequence:
#
# PCOD8131418 Si02
#       8
#     8   8   8   8   8   4   4   4
#     4  10  20  32  49  72  95 125 161 210 266 302
#     4  10  20  33  51  84 109 129 169 194 256 296
#     4  12  19  34  46  68 101 125 169 223 243 298
#     4  10  21  35  53  74 108 143 176 204 232 286
#     4  10  21  36  50  70  97 144 184 207 240 288
#     4  10  18  33  52  73 106 127 158 201 266 322
#     4  10  18  33  50  79 106 127 154 201 252 320
#     4  12  20  26  40  62  88 126 154 196 258 286
#
# _framework density 16.735475000000001
#
# number of rings (size 3 to 8) (size 9 to 14) (size 15 to 20)
#    0.923    0.615    2.308    4.615    0.000    1.846 
#    0.000    0.000    0.000    0.000    0.000    6.462 
#    0.000    0.000    0.000    0.000    0.000    0.000 
#
# Total GULP energy -322233.824287 kJ/mol
# GULP energy per Si atom -12393.608626 kJ/mol
# Density = 1.669738 g / cm^3
# Si number density = 16.735475 Si / 1000 Ang^3
#
#
#
# Elastic Constant Matrix: (Units=GPa)
#
#
# Indices 1 2 3 4 5 6 
#
# 1 72.4387 49.8795 30.0334 0.0000 -2.4202 0.0000
# 2 49.8795 92.3821 29.8153 0.0000 -3.0022 0.0000
# 3 30.0334 29.8153 106.4918 0.0000 -5.1919 0.0000
# 4 0.0000 0.0000 0.0000 21.2133 0.0000 -2.4705
# 5 -2.4202 -3.0022 -5.1919 0.0000 17.2748 0.0000
# 6 0.0000 0.0000 0.0000 -2.4705 0.0000 9.7917
#
#
#
# Elastic Compliance Matrix: (Units=1/GPa)
#
#
# Indices 1 2 3 4 5 6 
#
# 1 0.022988 -0.011340 -0.003296 0.000000 0.000259 0.000000
# 2 -0.011340 0.017514 -0.001659 0.000000 0.000956 0.000000
# 3 -0.003296 -0.001659 0.010908 0.000000 0.002528 0.000000
# 4 0.000000 0.000000 0.000000 0.048567 0.000000 0.012254
# 5 0.000259 0.000956 0.002528 0.000000 0.058850 0.000000
# 6 0.000000 0.000000 0.000000 0.012254 0.000000 0.105219
#
#
# Mechanical properties :
#
#
# Convention : Reuss Voigt Hill
#
# Bulk Modulus (GPa) = 53.13230 54.52988 53.83109
# Shear Modulus (GPa) = 16.50668 20.42826 18.46747
#
# Velocity S-wave (km/s) = 3.14399 3.49758 3.32549
# Velocity P-wave (km/s) = 6.70797 6.99749 6.85426
#
# Compressibility (1/GPa) = 0.01882094
#
# Stress axis : x y z
#
# Youngs Moduli (GPa) = 43.50053 57.09815 91.67990
#
# Poissons Ratio (x) = 0.64749 0.30215
# Poissons Ratio (y) = 0.49329 0.15207
# Poissons Ratio (z) = 0.14337 0.09471
#
# Static dielectric constant tensor:
#      x y z
#    x 2.916920 0.000000 0.004060 
#    y 0.000000 3.036460 0.000000 
#    z 0.004060 0.000000 3.376090 
# 
# 
# High freq. dielectric constant tensor:
#      x y z
#    x 1.608880 0.000000 -0.001730 
#    y 0.000000 1.631100 0.000000 
#    z -0.001730 0.000000 1.673290 
# 
# From -- ./inp_files/14469.got.cif
#   From: 2010.06.25/outbox.cif.g09.slc.cpg/sg15_8_cif.got.tgz:14469.got - 2010.06.28 07:06:18.
