data_PCOD8131152
_publ_section_title
;
Structure prediction by ZEFSAII (Michael W. Deem and Ramdas Pophale) SiO2 
 PCOD8131152
Probable space group: C 2/C
;
_chemical_formula_sum "Si O2"
_cell_formula_units_Z 52
_cell_length_a 19.137295
_cell_length_b 8.743259
_cell_length_c 22.067361
_cell_angle_alpha 90.000000
_cell_angle_beta 131.724747
_cell_angle_gamma 90.000000
_cell_volume 2755.797431
_symmetry_space_group_name_H-M "C 2/C"
_symmetry_group_IT_number 15
_symmetry_cell_setting 'monoclinic'
loop_
_space_group_symop_operation_xyz
x,y,z
-x,y,1/2-z
-x,-y,-z
x,-y,1/2+z
1/2+x,1/2+y,z
1/2-x,1/2+y,1/2-z
1/2-x,1/2-y,-z
1/2+x,1/2-y,1/2+z
loop_
_atom_site_type_symbol
_atom_site_label
_atom_site_fract_x
_atom_site_fract_y
_atom_site_fract_z
Si Si1 0.463805 0.175556 0.838887
Si Si2 0.661549 0.452471 0.751557
Si Si3 0.340760 0.220786 0.209164
Si Si4 0.131422 0.416161 0.648765
Si Si5 0.355652 0.442040 0.897331
Si Si6 0.000000 0.463181 0.750000
Si Si7 0.452261 0.277485 0.498143
O O1 0.410627 0.315594 0.774648
O O2 0.389807 0.089711 0.841134
O O3 0.508046 0.066879 0.814202
O O4 0.548215 0.230138 0.931212
O O5 0.650338 0.595496 0.791109
O O6 0.766764 0.395985 0.821422
O O7 0.648491 0.499802 0.674138
O O8 0.379236 0.188406 0.298351
O O9 0.236935 0.152975 0.137965
O O10 0.407869 0.142693 0.198305
O O11 0.061455 0.364495 0.555367
O O12 0.369209 0.597174 0.943836
O O13 0.445662 0.338692 0.961208
#
# Coordination Sequence:
#
# PCOD8131152 Si02
#       7
#     8   8   8   8   8   4   8
#     4  10  22  35  54  83 116 146 190 224 280 336
#     4  10  18  33  58  87 107 144 184 236 284 331
#     4  10  20  36  57  76 113 151 189 226 271 331
#     4  10  18  31  58  89 114 138 176 232 291 334
#     4   9  19  32  56  93 116 138 178 236 291 336
#     4  10  24  40  54  74 108 160 200 230 254 338
#     4  10  18  32  57  90 119 142 170 238 301 331
#
# _framework density 18.869309999999999
#
# number of rings (size 3 to 8) (size 9 to 14) (size 15 to 20)
#    0.000    2.154    1.538    3.231    4.308    0.615 
#    0.000    0.769    0.000    4.615    0.000    0.000 
#    0.000    0.000    0.000    0.000    0.000    0.000 
#
# Total GULP energy -322263.917847 kJ/mol
# GULP energy per Si atom -12394.766071 kJ/mol
# Density = 1.882636 g / cm^3
# Si number density = 18.869310 Si / 1000 Ang^3
#
#
#
# Elastic Constant Matrix: (Units=GPa)
#
#
# Indices 1 2 3 4 5 6 
#
# 1 86.0994 52.4737 36.8625 0.0000 7.6682 0.0000
# 2 52.4737 124.9071 49.7595 0.0000 5.6673 0.0000
# 3 36.8625 49.7595 96.7264 0.0000 11.0291 0.0000
# 4 0.0000 0.0000 0.0000 39.5343 0.0000 -3.8345
# 5 7.6682 5.6673 11.0291 0.0000 18.7465 0.0000
# 6 0.0000 0.0000 0.0000 -3.8345 0.0000 22.1466
#
#
#
# Elastic Compliance Matrix: (Units=1/GPa)
#
#
# Indices 1 2 3 4 5 6 
#
# 1 0.016651 -0.005619 -0.003079 0.000000 -0.003301 0.000000
# 2 -0.005619 0.011966 -0.004142 0.000000 0.001118 0.000000
# 3 -0.003079 -0.004142 0.014316 0.000000 -0.005911 0.000000
# 4 0.000000 0.000000 0.000000 0.025726 0.000000 0.004454
# 5 -0.003301 0.001118 -0.005911 0.000000 0.057833 0.000000
# 6 0.000000 0.000000 0.000000 0.004454 0.000000 0.045925
#
#
# Mechanical properties :
#
#
# Convention : Reuss Voigt Hill
#
# Bulk Modulus (GPa) = 57.95581 65.10270 61.52925
# Shear Modulus (GPa) = 24.52809 27.32798 25.92803
#
# Velocity S-wave (km/s) = 3.60931 3.80975 3.71089
# Velocity P-wave (km/s) = 6.93906 7.34364 7.14421
#
# Compressibility (1/GPa) = 0.01725453
#
# Stress axis : x y z
#
# Youngs Moduli (GPa) = 60.05619 83.57258 69.84997
#
# Poissons Ratio (x) = 0.46958 0.21505
# Poissons Ratio (y) = 0.33745 0.28929
# Poissons Ratio (z) = 0.18490 0.34613
#
# Static dielectric constant tensor:
#      x y z
#    x 3.075110 0.000000 0.117580 
#    y 0.000000 3.670160 0.000000 
#    z 0.117580 0.000000 3.629990 
# 
# 
# High freq. dielectric constant tensor:
#      x y z
#    x 1.683490 0.000000 0.013810 
#    y 0.000000 1.752130 0.000000 
#    z 0.013810 0.000000 1.732190 
# 
# From -- ./inp_files/209194.got.cif
#   From: 2010.06.25/outbox.cif.g09.slc.cpg/sg15_105_cif.got.tgz:209194.got - 2010.06.28 07:06:18.
