data_PCOD8131740
_publ_section_title
;
Structure prediction by ZEFSAII (Michael W. Deem and Ramdas Pophale) SiO2 
 PCOD8131740
Probable space group: C 2/C
;
_chemical_formula_sum "Si O2"
_cell_formula_units_Z 44
_cell_length_a 9.072427
_cell_length_b 10.837347
_cell_length_c 20.920597
_cell_angle_alpha 90.000000
_cell_angle_beta 107.880457
_cell_angle_gamma 90.000000
_cell_volume 1957.583215
_symmetry_space_group_name_H-M "C 2/C"
_symmetry_group_IT_number 15
_symmetry_cell_setting 'monoclinic'
loop_
_space_group_symop_operation_xyz
x,y,z
-x,y,1/2-z
-x,-y,-z
x,-y,1/2+z
1/2+x,1/2+y,z
1/2-x,1/2+y,1/2-z
1/2-x,1/2-y,-z
1/2+x,1/2-y,1/2+z
loop_
_atom_site_type_symbol
_atom_site_label
_atom_site_fract_x
_atom_site_fract_y
_atom_site_fract_z
Si Si1 0.960501 0.114337 0.176373
Si Si2 0.823872 0.225937 0.857883
Si Si3 0.500000 0.047998 0.250000
Si Si4 0.887285 0.014198 0.426129
Si Si5 0.317641 0.843507 0.290705
Si Si6 0.655634 0.787163 0.869176
O O1 0.780620 0.153396 0.142369
O O2 0.000000 0.046669 0.250000
O O3 0.011592 0.029118 0.124876
O O4 0.048410 0.243324 0.189705
O O5 0.801696 0.181161 0.782464
O O6 0.004607 0.262176 0.891150
O O7 0.789097 0.112550 0.902279
O O8 0.404522 0.972438 0.290697
O O9 0.373777 0.129675 0.197468
O O10 0.778550 0.132652 0.426616
O O11 0.000000 0.000000 0.500000
O O12 0.228784 0.839163 0.347949
#
# Coordination Sequence:
#
# PCOD8131740 Si02
#       6
#     8   8   4   8   8   8
#     4   9  20  39  63  91 121 154 205 257 303 358
#     4  11  20  38  58  87 115 157 203 249 302 358
#     4  12  18  34  60  86 124 148 198 252 312 358
#     4  11  25  42  60  87 128 170 199 244 310 372
#     4  10  18  34  57  90 121 150 190 253 313 352
#     4  11  23  36  60  91 120 157 203 257 302 360
#
# _framework density 22.476696
#
# number of rings (size 3 to 8) (size 9 to 14) (size 15 to 20)
#    0.000    1.455    6.364    0.000    0.000    4.364 
#    0.000    0.909    0.000    0.000    0.000    0.000 
#    0.000    0.000    0.000    0.000    0.000    0.000 
#
# Total GULP energy -272728.123146 kJ/mol
# GULP energy per Si atom -12396.732870 kJ/mol
# Density = 2.242554 g / cm^3
# Si number density = 22.476696 Si / 1000 Ang^3
#
#
#
# Elastic Constant Matrix: (Units=GPa)
#
#
# Indices 1 2 3 4 5 6 
#
# 1 102.0839 13.2893 7.8470 0.0000 8.7096 0.0000
# 2 13.2893 50.6924 18.4337 0.0000 -1.2833 0.0000
# 3 7.8470 18.4337 82.3287 0.0000 5.9971 0.0000
# 4 0.0000 0.0000 0.0000 24.7704 0.0000 3.5246
# 5 8.7096 -1.2833 5.9971 0.0000 23.5117 0.0000
# 6 0.0000 0.0000 0.0000 3.5246 0.0000 19.9063
#
#
#
# Elastic Compliance Matrix: (Units=1/GPa)
#
#
# Indices 1 2 3 4 5 6 
#
# 1 0.010514 -0.002831 -0.000075 0.000000 -0.004030 0.000000
# 2 -0.002831 0.022376 -0.004999 0.000000 0.003545 0.000000
# 3 -0.000075 -0.004999 0.013542 0.000000 -0.003699 0.000000
# 4 0.000000 0.000000 0.000000 0.041414 0.000000 -0.007333
# 5 -0.004030 0.003545 -0.003699 0.000000 0.045162 0.000000
# 6 0.000000 0.000000 0.000000 -0.007333 0.000000 0.051534
#
#
# Mechanical properties :
#
#
# Convention : Reuss Voigt Hill
#
# Bulk Modulus (GPa) = 32.65419 34.91609 33.78514
# Shear Modulus (GPa) = 23.74627 26.67335 25.20981
#
# Velocity S-wave (km/s) = 3.25389 3.44860 3.35266
# Velocity P-wave (km/s) = 5.35505 5.60582 5.48187
#
# Compressibility (1/GPa) = 0.03062394
#
# Stress axis : x y z
#
# Youngs Moduli (GPa) = 95.11113 44.68982 73.84318
#
# Poissons Ratio (x) = 0.12653 0.00551
# Poissons Ratio (y) = 0.26928 0.36911
# Poissons Ratio (z) = 0.00710 0.22338
#
# Static dielectric constant tensor:
#      x y z
#    x 4.317330 0.000000 0.055140 
#    y 0.000000 4.195140 0.000000 
#    z 0.055140 0.000000 3.736620 
# 
# 
# High freq. dielectric constant tensor:
#      x y z
#    x 1.891490 0.000000 0.022790 
#    y 0.000000 1.890710 0.000000 
#    z 0.022790 0.000000 1.836880 
# 
# From -- ./inp_files/230129.got.cif
#   From: 2010.06.25/outbox.cif.g09.slc.cpg/sg15_116_cif.got.tgz:230129.got - 2010.06.28 07:06:18.
