data_PCOD8131096
_publ_section_title
;
Structure prediction by ZEFSAII (Michael W. Deem and Ramdas Pophale) SiO2 
 PCOD8131096
Probable space group: C 2/C
;
_chemical_formula_sum "Si O2"
_cell_formula_units_Z 64
_cell_length_a 14.142222
_cell_length_b 15.893887
_cell_length_c 15.097456
_cell_angle_alpha 90.000000
_cell_angle_beta 57.643736
_cell_angle_gamma 90.000000
_cell_volume 2866.638337
_symmetry_space_group_name_H-M "C 2/C"
_symmetry_group_IT_number 15
_symmetry_cell_setting 'monoclinic'
loop_
_space_group_symop_operation_xyz
x,y,z
-x,y,1/2-z
-x,-y,-z
x,-y,1/2+z
1/2+x,1/2+y,z
1/2-x,1/2+y,1/2-z
1/2-x,1/2-y,-z
1/2+x,1/2-y,1/2+z
loop_
_atom_site_type_symbol
_atom_site_label
_atom_site_fract_x
_atom_site_fract_y
_atom_site_fract_z
Si Si1 0.310237 0.669922 0.735627
Si Si2 0.736654 0.486200 0.154339
Si Si3 0.623292 0.791313 0.660835
Si Si4 0.418584 0.145950 0.495521
Si Si5 0.388404 0.941536 0.712280
Si Si6 0.116532 0.620883 0.713580
Si Si7 0.398190 0.749204 0.523045
Si Si8 0.775386 0.870619 0.968313
O O1 0.349820 0.576686 0.751318
O O2 0.291966 0.727689 0.831994
O O3 0.188271 0.669002 0.751210
O O4 0.398151 0.707175 0.621244
O O5 0.781006 0.553881 0.202362
O O6 0.837580 0.423196 0.077100
O O7 0.687087 0.541414 0.097865
O O8 0.500000 0.757803 0.750000
O O9 0.643694 0.792542 0.544447
O O10 0.643324 0.885215 0.687556
O O11 0.510376 0.097870 0.391948
O O12 0.484639 0.199240 0.539433
O O13 0.424381 0.032340 0.727768
O O14 0.191639 0.607090 0.589407
O O15 0.000000 0.670512 0.750000
O O16 0.290101 0.810224 0.567477
O O17 0.385558 0.677387 0.452648
#
# Coordination Sequence:
#
# PCOD8131096 Si02
#       8
#     8   8   8   8   8   8   8   8
#     4  10  21  35  50  82 106 149 191 226 278 335
#     4  11  21  31  54  85 117 141 188 245 285 335
#     4  10  18  34  56  74 105 148 190 224 277 343
#     4  11  20  32  56  83 114 151 182 236 293 346
#     4  10  18  31  53  81 116 141 177 219 296 352
#     4  10  20  31  52  85 118 142 173 230 287 348
#     4  10  20  36  55  80 115 162 182 220 293 368
#     4  10  20  35  55  81 120 153 187 225 291 363
#
# _framework density 22.325801999999999
#
# number of rings (size 3 to 8) (size 9 to 14) (size 15 to 20)
#    0.000    1.750    3.750    3.000    3.500    0.500 
#    0.000    0.000    0.000    0.750    9.750    0.000 
#    0.000    0.000    0.000    0.000    0.000    0.000 
#
# Total GULP energy -396485.988795 kJ/mol
# GULP energy per Si atom -12390.187150 kJ/mol
# Density = 2.227499 g / cm^3
# Si number density = 22.325802 Si / 1000 Ang^3
#
#
#
# Elastic Constant Matrix: (Units=GPa)
#
#
# Indices 1 2 3 4 5 6 
#
# 1 98.1451 50.2787 11.1979 0.0000 30.3002 0.0000
# 2 50.2787 94.8879 16.2208 0.0000 11.3320 0.0000
# 3 11.1979 16.2208 39.2320 0.0000 19.1788 0.0000
# 4 0.0000 0.0000 0.0000 21.1932 0.0000 15.9145
# 5 30.3002 11.3320 19.1788 0.0000 23.9482 0.0000
# 6 0.0000 0.0000 0.0000 15.9145 0.0000 42.0750
#
#
#
# Elastic Compliance Matrix: (Units=1/GPa)
#
#
# Indices 1 2 3 4 5 6 
#
# 1 0.029002 -0.013226 0.019835 0.000000 -0.046321 0.000000
# 2 -0.013226 0.017475 -0.012471 0.000000 0.018453 0.000000
# 3 0.019835 -0.012471 0.056479 0.000000 -0.064426 0.000000
# 4 0.000000 0.000000 0.000000 0.065904 0.000000 -0.024928
# 5 -0.046321 0.018453 -0.064426 0.000000 0.143227 0.000000
# 6 0.000000 0.000000 0.000000 -0.024928 0.000000 0.033196
#
#
# Mechanical properties :
#
#
# Convention : Reuss Voigt Hill
#
# Bulk Modulus (GPa) = 10.96109 43.07329 27.01719
# Shear Modulus (GPa) = 12.90592 27.74779 20.32686
#
# Velocity S-wave (km/s) = 2.40692 3.52924 3.02066
# Velocity P-wave (km/s) = 3.55593 5.99519 4.92884
#
# Compressibility (1/GPa) = 0.09123179
#
# Stress axis : x y z
#
# Youngs Moduli (GPa) = 34.48005 57.22387 17.70563
#
# Poissons Ratio (x) = 0.75687 -0.35119
# Poissons Ratio (y) = 0.45605 0.22080
# Poissons Ratio (z) = -0.68391 0.71363
#
# Static dielectric constant tensor:
#      x y z
#    x 4.260230 0.000000 0.529800 
#    y 0.000000 4.273520 0.000000 
#    z 0.529800 0.000000 3.998800 
# 
# 
# High freq. dielectric constant tensor:
#      x y z
#    x 1.870040 0.000000 0.046750 
#    y 0.000000 1.875110 0.000000 
#    z 0.046750 0.000000 1.859430 
# 
# From -- ./inp_files/205393.got.cif
#   From: 2010.06.25/outbox.cif.g09.slc.cpg/sg15_103_cif.got.tgz:205393.got - 2010.06.28 07:06:18.
