data_PCOD8131189
_publ_section_title
;
Structure prediction by ZEFSAII (Michael W. Deem and Ramdas Pophale) SiO2 
 PCOD8131189
Probable space group: C 2/C
;
_chemical_formula_sum "Si O2"
_cell_formula_units_Z 64
_cell_length_a 24.879266
_cell_length_b 13.658074
_cell_length_c 10.830072
_cell_angle_alpha 90.000000
_cell_angle_beta 103.499228
_cell_angle_gamma 90.000000
_cell_volume 3578.419809
_symmetry_space_group_name_H-M "C 2/C"
_symmetry_group_IT_number 15
_symmetry_cell_setting 'monoclinic'
loop_
_space_group_symop_operation_xyz
x,y,z
-x,y,1/2-z
-x,-y,-z
x,-y,1/2+z
1/2+x,1/2+y,z
1/2-x,1/2+y,1/2-z
1/2-x,1/2-y,-z
1/2+x,1/2-y,1/2+z
loop_
_atom_site_type_symbol
_atom_site_label
_atom_site_fract_x
_atom_site_fract_y
_atom_site_fract_z
Si Si1 0.537570 0.092769 0.892406
Si Si2 0.289342 0.404235 0.093643
Si Si3 0.026530 0.366836 0.897981
Si Si4 0.304396 0.090693 0.142892
Si Si5 0.367139 0.250466 0.068653
Si Si6 0.840922 0.610115 0.594292
Si Si7 0.793927 0.293302 0.295991
Si Si8 0.248225 0.606890 0.142344
O O1 0.500000 0.111272 0.750000
O O2 0.597397 0.143496 0.908793
O O3 0.549779 0.977285 0.917303
O O4 0.512880 0.142825 0.002902
O O5 0.352056 0.362969 0.101134
O O6 0.263424 0.346760 0.197401
O O7 0.289360 0.521762 0.113705
O O8 0.253093 0.378477 0.953287
O O9 0.069917 0.276467 0.929807
O O10 0.000000 0.351380 0.750000
O O11 0.346382 0.182014 0.170242
O O12 0.291094 0.058027 0.274998
O O13 0.334788 0.007062 0.081047
O O14 0.330960 0.222433 0.933264
O O15 0.830342 0.638413 0.728721
O O16 0.792496 0.654142 0.481948
O O17 0.784343 0.192709 0.218359
#
# Coordination Sequence:
#
# PCOD8131189 Si02
#       8
#     8   8   8   8   8   8   8   8
#     4  10  21  36  50  77 111 146 185 226 267 320
#     4  10  20  32  53  74 104 145 177 214 257 334
#     4  10  22  34  54  79 107 138 191 232 261 317
#     4  10  18  32  50  77 107 140 176 206 260 327
#     4  11  19  35  56  74 102 151 180 215 271 322
#     4  11  22  31  52  77 110 149 171 218 280 308
#     4  11  20  34  51  78 108 141 181 215 265 340
#     4  11  21  33  50  79 114 135 181 220 260 328
#
# _framework density 17.884989000000001
#
# number of rings (size 3 to 8) (size 9 to 14) (size 15 to 20)
#    0.000    1.500    5.000    1.875    1.750    1.000 
#    0.000    0.000    0.000    0.000    0.000    4.375 
#    0.000    0.000    0.000    0.000    0.000    0.000 
#
# Total GULP energy -396487.155085 kJ/mol
# GULP energy per Si atom -12390.223596 kJ/mol
# Density = 1.784428 g / cm^3
# Si number density = 17.884989 Si / 1000 Ang^3
#
#
#
# Elastic Constant Matrix: (Units=GPa)
#
#
# Indices 1 2 3 4 5 6 
#
# 1 110.0785 35.7274 33.8537 0.0000 -7.0599 0.0000
# 2 35.7274 54.9497 18.6231 0.0000 5.8952 0.0000
# 3 33.8537 18.6231 68.0311 0.0000 -13.7975 0.0000
# 4 0.0000 0.0000 0.0000 21.6365 0.0000 -5.5965
# 5 -7.0599 5.8952 -13.7975 0.0000 24.1221 0.0000
# 6 0.0000 0.0000 0.0000 -5.5965 0.0000 18.6913
#
#
#
# Elastic Compliance Matrix: (Units=1/GPa)
#
#
# Indices 1 2 3 4 5 6 
#
# 1 0.012865 -0.007512 -0.003631 0.000000 0.003525 0.000000
# 2 -0.007512 0.026382 -0.005924 0.000000 -0.012035 0.000000
# 3 -0.003631 -0.005924 0.020595 0.000000 0.012165 0.000000
# 4 0.000000 0.000000 0.000000 0.050098 0.000000 0.015000
# 5 0.003525 -0.012035 0.012165 0.000000 0.052387 0.000000
# 6 0.000000 0.000000 0.000000 0.015000 0.000000 0.057992
#
#
# Mechanical properties :
#
#
# Convention : Reuss Voigt Hill
#
# Bulk Modulus (GPa) = 38.89981 45.49639 42.19810
# Shear Modulus (GPa) = 19.00975 22.54700 20.77837
#
# Velocity S-wave (km/s) = 3.26373 3.55444 3.41218
# Velocity P-wave (km/s) = 5.99998 6.50684 6.25854
#
# Compressibility (1/GPa) = 0.02570707
#
# Stress axis : x y z
#
# Youngs Moduli (GPa) = 77.72822 37.90486 48.55576
#
# Poissons Ratio (x) = 0.28476 0.17629
# Poissons Ratio (y) = 0.58393 0.28766
# Poissons Ratio (z) = 0.28221 0.22456
#
# Static dielectric constant tensor:
#      x y z
#    x 3.226390 0.000000 -0.201650 
#    y 0.000000 3.123190 0.000000 
#    z -0.201650 0.000000 3.439950 
# 
# 
# High freq. dielectric constant tensor:
#      x y z
#    x 1.669090 0.000000 -0.021020 
#    y 0.000000 1.665350 0.000000 
#    z -0.021020 0.000000 1.700190 
# 
# From -- ./inp_files/118567.got.cif
#   From: 2010.06.25/outbox.cif.g09.slc.cpg/sg15_60_cif.got.tgz:118567.got - 2010.06.28 07:06:18.
