data_PCOD8131074
_publ_section_title
;
Structure prediction by ZEFSAII (Michael W. Deem and Ramdas Pophale) SiO2 
 PCOD8131074
Probable space group: C 2/C
;
_chemical_formula_sum "Si O2"
_cell_formula_units_Z 60
_cell_length_a 18.047387
_cell_length_b 25.531298
_cell_length_c 12.621935
_cell_angle_alpha 90.000000
_cell_angle_beta 30.097331
_cell_angle_gamma 90.000000
_cell_volume 2916.476620
_symmetry_space_group_name_H-M "C 2/C"
_symmetry_group_IT_number 15
_symmetry_cell_setting 'monoclinic'
loop_
_space_group_symop_operation_xyz
x,y,z
-x,y,1/2-z
-x,-y,-z
x,-y,1/2+z
1/2+x,1/2+y,z
1/2-x,1/2+y,1/2-z
1/2-x,1/2-y,-z
1/2+x,1/2-y,1/2+z
loop_
_atom_site_type_symbol
_atom_site_label
_atom_site_fract_x
_atom_site_fract_y
_atom_site_fract_z
Si Si1 0.328213 0.887194 0.637062
Si Si2 0.773690 0.817230 0.917827
Si Si3 0.864815 0.487755 0.485986
Si Si4 0.664803 0.524178 0.044975
Si Si5 0.336654 0.121546 0.751810
Si Si6 0.636759 0.894668 0.514215
Si Si7 0.500000 0.255812 0.750000
Si Si8 0.162940 0.094261 0.540087
O O1 0.227019 0.864073 0.666838
O O2 0.336164 0.950433 0.620916
O O3 0.495260 0.867733 0.421853
O O4 0.257018 0.872520 0.838189
O O5 0.752430 0.838725 0.063863
O O6 0.643274 0.778411 0.039332
O O7 0.935689 0.789684 0.728682
O O8 0.716108 0.484698 0.601491
O O9 0.907810 0.546440 0.468807
O O10 0.000000 0.464090 0.250000
O O11 0.500000 0.548708 0.250000
O O12 0.661423 0.465768 0.999745
O O13 0.775498 0.562344 0.844024
O O14 0.324293 0.136488 0.641844
O O15 0.776111 0.897222 0.417859
O O16 0.500000 0.870094 0.750000
O O17 0.000000 0.117706 0.750000
#
# Coordination Sequence:
#
# PCOD8131074 Si02
#       8
#     8   8   8   8   8   8   4   8
#     4  12  20  36  61  85 114 155 207 244 284 353
#     4  11  23  41  66  97 115 151 180 244 313 362
#     4  10  18  31  52  80 116 153 202 240 282 330
#     4  10  21  34  50  81 123 160 200 246 290 329
#     4  12  21  35  60  86 116 152 207 242 284 355
#     4  10  21  34  52  83 116 163 201 236 278 320
#     4  10  24  44  62  92 132 132 180 244 324 380
#     4  10  23  38  52  80 124 167 202 244 283 325
#
# _framework density 20.572768
#
# number of rings (size 3 to 8) (size 9 to 14) (size 15 to 20)
#    0.000    1.333    5.333    0.800    0.933    3.200 
#    0.000    4.000    0.000    0.000    0.000   18.667 
#    0.000    0.000    0.000    0.000    0.000    0.000 
#
# Total GULP energy -371739.639358 kJ/mol
# GULP energy per Si atom -12391.321312 kJ/mol
# Density = 2.052594 g / cm^3
# Si number density = 20.572768 Si / 1000 Ang^3
#
#
#
# Elastic Constant Matrix: (Units=GPa)
#
#
# Indices 1 2 3 4 5 6 
#
# 1 110.2966 21.4169 48.7160 -0.0226 -0.1984 0.0031
# 2 21.4169 39.5219 15.2214 -0.0177 3.9520 0.0018
# 3 48.7160 15.2214 78.1734 -0.0304 -0.0033 0.0112
# 4 -0.0226 -0.0177 -0.0304 9.8999 0.0149 -10.2529
# 5 -0.1984 3.9520 -0.0033 0.0149 47.5192 -0.0018
# 6 0.0031 0.0018 0.0112 -10.2529 -0.0018 26.3203
#
#
#
# Elastic Compliance Matrix: (Units=1/GPa)
#
#
# Indices 1 2 3 4 5 6 
#
# 1 0.013158 -0.004339 -0.007355 0.000002 0.000415 0.000003
# 2 -0.004339 0.029033 -0.002949 0.000061 -0.002433 0.000023
# 3 -0.007355 -0.002949 0.017950 0.000043 0.000216 0.000010
# 4 0.000002 0.000061 0.000043 0.169320 -0.000056 0.065957
# 5 0.000415 -0.002433 0.000216 -0.000056 0.021248 -0.000020
# 6 0.000003 0.000023 0.000010 0.065957 -0.000020 0.063686
#
#
# Mechanical properties :
#
#
# Convention : Reuss Voigt Hill
#
# Bulk Modulus (GPa) = 32.41031 44.30007 38.35519
# Shear Modulus (GPa) = 14.12558 26.25706 20.19132
#
# Velocity S-wave (km/s) = 2.62318 3.57641 3.13622
# Velocity P-wave (km/s) = 4.99629 6.21566 5.63903
#
# Compressibility (1/GPa) = 0.03085438
#
# Stress axis : x y z
#
# Youngs Moduli (GPa) = 75.99701 34.44353 55.71072
#
# Poissons Ratio (x) = 0.14946 0.40976
# Poissons Ratio (y) = 0.32978 0.16429
# Poissons Ratio (z) = 0.55897 0.10158
#
# Static dielectric constant tensor:
#      x y z
#    x 3.755980 -0.000040 -0.156470 
#    y -0.000040 3.452820 0.000040 
#    z -0.156470 0.000040 3.604500 
# 
# 
# High freq. dielectric constant tensor:
#      x y z
#    x 1.812690 0.000000 -0.014150 
#    y 0.000000 1.756440 0.000000 
#    z -0.014150 0.000000 1.790840 
# 
# From -- ./inp_files/108576.got.cif
#   From: 2010.06.25/outbox.cif.g09.slc.cpg/sg15_55_cif.got.tgz:108576.got - 2010.06.28 07:06:18.
