data_PCOD8131736
_publ_section_title
;
Structure prediction by ZEFSAII (Michael W. Deem and Ramdas Pophale) SiO2 
 PCOD8131736
Probable space group: C 2/C
;
_chemical_formula_sum "Si O2"
_cell_formula_units_Z 60
_cell_length_a 14.045581
_cell_length_b 25.317114
_cell_length_c 13.699212
_cell_angle_alpha 90.000000
_cell_angle_beta 35.213765
_cell_angle_gamma 90.000000
_cell_volume 2808.960823
_symmetry_space_group_name_H-M "C 2/C"
_symmetry_group_IT_number 15
_symmetry_cell_setting 'monoclinic'
loop_
_space_group_symop_operation_xyz
x,y,z
-x,y,1/2-z
-x,-y,-z
x,-y,1/2+z
1/2+x,1/2+y,z
1/2-x,1/2+y,1/2-z
1/2-x,1/2-y,-z
1/2+x,1/2-y,1/2+z
loop_
_atom_site_type_symbol
_atom_site_label
_atom_site_fract_x
_atom_site_fract_y
_atom_site_fract_z
Si Si1 0.253829 0.797886 0.783236
Si Si2 0.213974 0.526353 0.981707
Si Si3 0.000000 0.944386 0.750000
Si Si4 0.126770 0.682302 0.921621
Si Si5 0.099181 0.896269 0.859443
Si Si6 0.160456 0.523694 0.248337
Si Si7 0.685439 0.308858 0.055074
Si Si8 0.711239 0.582327 0.766438
O O1 0.214012 0.735938 0.810577
O O2 0.438632 0.804298 0.592939
O O3 0.147439 0.834923 0.801045
O O4 0.215062 0.827216 0.919462
O O5 0.328409 0.475231 0.886456
O O6 0.300650 0.568890 0.839051
O O7 0.198380 0.544182 0.106831
O O8 0.036971 0.516898 0.076705
O O9 0.994629 0.909718 0.851358
O O10 0.198755 0.661270 0.964790
O O11 0.166458 0.632895 0.816646
O O12 0.261938 0.932922 0.742826
O O13 0.976048 0.902478 0.053409
O O14 0.236845 0.466698 0.208883
O O15 0.500000 0.311790 0.250000
O O16 0.750000 0.250000 0.000000
#
# Coordination Sequence:
#
# PCOD8131736 Si02
#       8
#     8   8   4   8   8   8   8   8
#     4  11  23  41  63  92 138 178 226 278 343 402
#     4  11  24  41  67  97 137 170 220 278 338 420
#     4  12  24  44  68  94 136 178 232 280 342 392
#     4  11  23  39  64  98 131 179 224 282 335 413
#     4  12  25  43  68  97 136 185 226 286 338 411
#     4  11  24  43  65  99 135 176 222 276 346 406
#     4  10  18  34  57  88 128 168 210 265 330 402
#     4  12  23  41  67  98 135 176 225 274 345 406
#
# _framework density 21.360212000000001
#
# number of rings (size 3 to 8) (size 9 to 14) (size 15 to 20)
#    0.000    0.800    2.667    7.600    3.733    0.000 
#    1.200    0.000    0.000    4.800    0.000    0.000 
#    0.000    0.000    0.000    0.000    0.000    0.000 
#
# Total GULP energy -371742.827380 kJ/mol
# GULP energy per Si atom -12391.427579 kJ/mol
# Density = 2.131160 g / cm^3
# Si number density = 21.360212 Si / 1000 Ang^3
#
#
#
# Elastic Constant Matrix: (Units=GPa)
#
#
# Indices 1 2 3 4 5 6 
#
# 1 88.1616 46.6670 34.7035 0.0002 -3.5002 -0.0003
# 2 46.6670 115.1930 26.6219 0.0009 7.0447 -0.0001
# 3 34.7035 26.6219 107.1245 -0.0005 -10.0474 0.0004
# 4 0.0002 0.0009 -0.0005 29.0370 -0.0006 -4.6941
# 5 -3.5002 7.0447 -10.0474 -0.0006 21.0553 0.0003
# 6 -0.0003 -0.0001 0.0004 -4.6941 0.0003 25.5349
#
#
#
# Elastic Compliance Matrix: (Units=1/GPa)
#
#
# Indices 1 2 3 4 5 6 
#
# 1 0.015893 -0.005828 -0.003423 0.000000 0.002959 0.000000
# 2 -0.005828 0.011748 -0.001561 0.000000 -0.005644 0.000000
# 3 -0.003423 -0.001561 0.011334 0.000000 0.005362 0.000000
# 4 0.000000 0.000000 0.000000 0.035494 0.000001 0.006525
# 5 0.002959 -0.005644 0.005362 0.000001 0.052433 0.000000
# 6 0.000000 0.000000 0.000000 0.006525 0.000000 0.040362
#
#
# Mechanical properties :
#
#
# Convention : Reuss Voigt Hill
#
# Bulk Modulus (GPa) = 57.63111 58.49598 58.06354
# Shear Modulus (GPa) = 25.68437 28.62458 27.15447
#
# Velocity S-wave (km/s) = 3.47138 3.66469 3.56935
# Velocity P-wave (km/s) = 6.56555 6.73436 6.65049
#
# Compressibility (1/GPa) = 0.01735174
#
# Stress axis : x y z
#
# Youngs Moduli (GPa) = 62.92198 85.11947 88.22642
#
# Poissons Ratio (x) = 0.49611 0.30196
# Poissons Ratio (y) = 0.36674 0.13771
# Poissons Ratio (z) = 0.21535 0.13286
#
# Static dielectric constant tensor:
#      x y z
#    x 5.697960 -0.000010 0.913960 
#    y -0.000010 3.953970 0.000000 
#    z 0.913960 0.000000 4.422890 
# 
# 
# High freq. dielectric constant tensor:
#      x y z
#    x 1.813510 0.000000 -0.010100 
#    y 0.000000 1.839170 0.000000 
#    z -0.010100 0.000000 1.855370 
# 
# From -- ./inp_files/157327.got.cif
#   From: 2010.06.25/outbox.cif.g09.slc.cpg/sg15_79_cif.got.tgz:157327.got - 2010.06.28 07:06:18.
