data_PCOD8131543
_publ_section_title
;
Structure prediction by ZEFSAII (Michael W. Deem and Ramdas Pophale) SiO2 
 PCOD8131543
Probable space group: C 2/C
;
_chemical_formula_sum "Si O2"
_cell_formula_units_Z 64
_cell_length_a 9.128480
_cell_length_b 20.688470
_cell_length_c 23.201660
_cell_angle_alpha 90.000000
_cell_angle_beta 129.189834
_cell_angle_gamma 90.000000
_cell_volume 3396.091082
_symmetry_space_group_name_H-M "C 2/C"
_symmetry_group_IT_number 15
_symmetry_cell_setting 'monoclinic'
loop_
_space_group_symop_operation_xyz
x,y,z
-x,y,1/2-z
-x,-y,-z
x,-y,1/2+z
1/2+x,1/2+y,z
1/2-x,1/2+y,1/2-z
1/2-x,1/2-y,-z
1/2+x,1/2-y,1/2+z
loop_
_atom_site_type_symbol
_atom_site_label
_atom_site_fract_x
_atom_site_fract_y
_atom_site_fract_z
Si Si1 0.347000 0.580605 0.348349
Si Si2 0.275633 0.889339 0.981991
Si Si3 0.266752 0.863359 0.562838
Si Si4 0.322068 0.949032 0.165080
Si Si5 0.850538 0.167805 0.930332
Si Si6 0.938429 0.492514 0.577277
Si Si7 0.371427 0.189929 0.401203
Si Si8 0.706200 0.582359 0.294007
O O1 0.569056 0.596313 0.404109
O O2 0.236080 0.622947 0.368831
O O3 0.324311 0.504371 0.353270
O O4 0.247881 0.593367 0.262022
O O5 0.396741 0.844654 0.969448
O O6 0.255407 0.850299 0.036731
O O7 0.394663 0.957015 0.014686
O O8 0.294227 0.932322 0.537882
O O9 0.433629 0.814012 0.586971
O O10 0.074260 0.831734 0.494667
O O11 0.500000 0.941640 0.250000
O O12 0.206500 0.882122 0.134008
O O13 0.402390 0.963259 0.122832
O O14 0.796002 0.238218 0.893398
O O15 0.150211 0.464411 0.635712
O O16 0.211328 0.152838 0.324769
O O17 0.500000 0.550989 0.250000
#
# Coordination Sequence:
#
# PCOD8131543 Si02
#       8
#     8   8   8   8   8   8   8   8
#     4  10  19  37  59  82 111 139 182 232 286 323
#     4  10  20  37  57  82 111 147 185 233 273 325
#     4   9  20  35  59  80 105 141 183 235 269 324
#     4  10  18  33  58  80 106 143 178 226 269 330
#     4  10  21  37  55  80 110 147 188 222 270 325
#     4   9  19  34  56  85 106 137 188 225 283 323
#     4  11  22  35  55  81 112 148 187 223 271 330
#     4  11  21  35  55  86 115 145 179 231 285 339
#
# _framework density 18.845196000000001
#
# number of rings (size 3 to 8) (size 9 to 14) (size 15 to 20)
#    0.000    2.000    2.500    1.500    0.000    5.500 
#    2.250    0.000    0.000    0.000    0.000    0.000 
#    0.000    0.000    0.000    0.000    0.000    0.000 
#
# Total GULP energy -396630.059711 kJ/mol
# GULP energy per Si atom -12394.689366 kJ/mol
# Density = 1.880230 g / cm^3
# Si number density = 18.845196 Si / 1000 Ang^3
#
#
#
# Elastic Constant Matrix: (Units=GPa)
#
#
# Indices 1 2 3 4 5 6 
#
# 1 77.8903 29.9668 19.2218 -0.0003 7.7507 -0.0003
# 2 29.9668 100.6927 48.4319 0.0000 -8.0123 0.0000
# 3 19.2218 48.4319 54.9321 -0.0003 2.3860 -0.0004
# 4 -0.0003 0.0000 -0.0003 21.4609 -0.0002 -6.0377
# 5 7.7507 -8.0123 2.3860 -0.0002 21.5711 -0.0002
# 6 -0.0003 0.0000 -0.0004 -6.0377 -0.0002 19.4782
#
#
#
# Elastic Compliance Matrix: (Units=1/GPa)
#
#
# Indices 1 2 3 4 5 6 
#
# 1 0.015635 -0.004782 -0.000938 0.000000 -0.007290 0.000000
# 2 -0.004782 0.020251 -0.016663 0.000000 0.011083 0.000000
# 3 -0.000938 -0.016663 0.033639 0.000001 -0.009573 0.000001
# 4 0.000000 0.000000 0.000001 0.051048 0.000000 0.015824
# 5 -0.007290 0.011083 -0.009573 0.000000 0.054153 0.000000
# 6 0.000000 0.000000 0.000001 0.015824 0.000000 0.056244
#
#
# Mechanical properties :
#
#
# Convention : Reuss Voigt Hill
#
# Bulk Modulus (GPa) = 40.38824 47.63955 44.01390
# Shear Modulus (GPa) = 17.60625 21.56167 19.58396
#
# Velocity S-wave (km/s) = 3.05988 3.38619 3.22716
# Velocity P-wave (km/s) = 5.82768 6.37359 6.10674
#
# Compressibility (1/GPa) = 0.02475968
#
# Stress axis : x y z
#
# Youngs Moduli (GPa) = 63.95764 49.38100 29.72714
#
# Poissons Ratio (x) = 0.23614 0.02789
# Poissons Ratio (y) = 0.30584 0.49533
# Poissons Ratio (z) = 0.06002 0.82281
#
# Static dielectric constant tensor:
#      x y z
#    x 3.467610 0.000000 -0.101060 
#    y 0.000000 3.410070 0.000000 
#    z -0.101060 0.000000 3.492750 
# 
# 
# High freq. dielectric constant tensor:
#      x y z
#    x 1.733940 0.000000 -0.005670 
#    y 0.000000 1.717600 0.000000 
#    z -0.005670 0.000000 1.730290 
# 
# From -- ./inp_files/266070.got.cif
#   From: 2010.06.25/outbox.cif.g09.slc.cpg/sg15_134_cif.got.tgz:266070.got - 2010.06.28 07:06:18.
