data_PCOD8131922
_publ_section_title
;
Structure prediction by ZEFSAII (Michael W. Deem and Ramdas Pophale) SiO2 
 PCOD8131922
Probable space group: C 2/C
;
_chemical_formula_sum "Si O2"
_cell_formula_units_Z 60
_cell_length_a 22.290650
_cell_length_b 21.072346
_cell_length_c 12.212343
_cell_angle_alpha 90.000000
_cell_angle_beta 33.221079
_cell_angle_gamma 90.000000
_cell_volume 3142.772555
_symmetry_space_group_name_H-M "C 2/C"
_symmetry_group_IT_number 15
_symmetry_cell_setting 'monoclinic'
loop_
_space_group_symop_operation_xyz
x,y,z
-x,y,1/2-z
-x,-y,-z
x,-y,1/2+z
1/2+x,1/2+y,z
1/2-x,1/2+y,1/2-z
1/2-x,1/2-y,-z
1/2+x,1/2-y,1/2+z
loop_
_atom_site_type_symbol
_atom_site_label
_atom_site_fract_x
_atom_site_fract_y
_atom_site_fract_z
Si Si1 0.715609 0.932173 0.943640
Si Si2 0.500000 0.537413 0.250000
Si Si3 0.640524 0.682639 0.232906
Si Si4 0.236776 0.301862 0.179018
Si Si5 0.592923 0.364775 0.437914
Si Si6 0.166886 0.953683 0.136476
Si Si7 0.849448 0.446476 0.695967
Si Si8 0.407997 0.915915 0.155099
O O1 0.819726 0.886835 0.795519
O O2 0.664205 0.921679 0.904689
O O3 0.761594 0.002459 0.892078
O O4 0.617724 0.915036 0.176177
O O5 0.424287 0.582110 0.441383
O O6 0.574119 0.493442 0.214399
O O7 0.678863 0.732880 0.267455
O O8 0.510039 0.680989 0.423350
O O9 0.685123 0.698786 0.045182
O O10 0.309072 0.317340 0.175903
O O11 0.140034 0.353233 0.325638
O O12 0.615687 0.398072 0.287043
O O13 0.249401 0.921842 0.923021
O O14 0.848597 0.522939 0.694349
O O15 0.963304 0.418711 0.567567
#
# Coordination Sequence:
#
# PCOD8131922 Si02
#       8
#     8   4   8   8   8   8   8   8
#     4  10  18  35  54  87 111 145 187 238 285 343
#     4  12  20  36  58  88 118 150 176 248 286 350
#     4  10  21  34  58  85 111 144 190 234 293 335
#     4  10  20  38  58  82 114 146 189 243 285 334
#     4  12  21  38  58  88 119 149 186 243 292 346
#     4  11  23  32  57  87 119 151 187 226 302 352
#     4  10  20  34  54  82 117 145 184 233 279 348
#     4   9  19  35  55  81 110 149 187 232 286 335
#
# _framework density 19.091422999999999
#
# number of rings (size 3 to 8) (size 9 to 14) (size 15 to 20)
#    0.000    1.600    2.667    4.000    1.867    1.067 
#    0.000    6.000    0.000    4.800    0.000    0.000 
#    0.000    0.000    0.000    0.000    0.000    0.000 
#
# Total GULP energy -372013.986902 kJ/mol
# GULP energy per Si atom -12400.466230 kJ/mol
# Density = 1.904797 g / cm^3
# Si number density = 19.091423 Si / 1000 Ang^3
#
#
#
# Elastic Constant Matrix: (Units=GPa)
#
#
# Indices 1 2 3 4 5 6 
#
# 1 86.6614 29.4275 31.4416 0.0000 -2.8903 0.0000
# 2 29.4275 67.6067 31.1720 0.0000 -6.4333 0.0000
# 3 31.4416 31.1720 70.1349 0.0001 -9.4491 0.0000
# 4 0.0000 0.0000 0.0001 14.1567 0.0000 -2.6768
# 5 -2.8903 -6.4333 -9.4491 0.0000 22.0630 0.0000
# 6 0.0000 0.0000 0.0000 -2.6768 0.0000 35.1152
#
#
#
# Elastic Compliance Matrix: (Units=1/GPa)
#
#
# Indices 1 2 3 4 5 6 
#
# 1 0.014720 -0.004291 -0.004883 0.000000 -0.001414 0.000000
# 2 -0.004291 0.019938 -0.006612 0.000000 0.002420 0.000000
# 3 -0.004883 -0.006612 0.020206 0.000000 0.006086 0.000000
# 4 0.000000 0.000000 0.000000 0.071671 0.000000 0.005463
# 5 -0.001414 0.002420 0.006086 0.000000 0.048452 0.000000
# 6 0.000000 0.000000 0.000000 0.005463 0.000000 0.028894
#
#
# Mechanical properties :
#
#
# Convention : Reuss Voigt Hill
#
# Bulk Modulus (GPa) = 42.93036 45.38722 44.15879
# Shear Modulus (GPa) = 20.55782 23.09112 21.82447
#
# Velocity S-wave (km/s) = 3.28504 3.48156 3.38473
# Velocity P-wave (km/s) = 6.07653 6.32352 6.20125
#
# Compressibility (1/GPa) = 0.02329354
#
# Stress axis : x y z
#
# Youngs Moduli (GPa) = 67.93259 50.15554 49.49060
#
# Poissons Ratio (x) = 0.21520 0.24165
# Poissons Ratio (y) = 0.29148 0.32723
# Poissons Ratio (z) = 0.33169 0.33163
#
# Static dielectric constant tensor:
#      x y z
#    x 3.438890 0.000000 -0.080170 
#    y 0.000000 3.447220 0.000000 
#    z -0.080170 0.000000 3.477820 
# 
# 
# High freq. dielectric constant tensor:
#      x y z
#    x 1.740150 0.000000 -0.016810 
#    y 0.000000 1.720770 0.000000 
#    z -0.016810 0.000000 1.736320 
# 
# From -- ./inp_files/90892.got.cif
#   From: 2010.06.25/outbox.cif.g09.slc.cpg/sg15_46_cif.got.tgz:90892.got - 2010.06.28 07:06:18.
