data_PCOD8131778
_publ_section_title
;
Structure prediction by ZEFSAII (Michael W. Deem and Ramdas Pophale) SiO2 
 PCOD8131778
Probable space group: C 2/C
;
_chemical_formula_sum "Si O2"
_cell_formula_units_Z 52
_cell_length_a 22.875374
_cell_length_b 16.370726
_cell_length_c 14.121098
_cell_angle_alpha 90.000000
_cell_angle_beta 29.282570
_cell_angle_gamma 90.000000
_cell_volume 2586.529813
_symmetry_space_group_name_H-M "C 2/C"
_symmetry_group_IT_number 15
_symmetry_cell_setting 'monoclinic'
loop_
_space_group_symop_operation_xyz
x,y,z
-x,y,1/2-z
-x,-y,-z
x,-y,1/2+z
1/2+x,1/2+y,z
1/2-x,1/2+y,1/2-z
1/2-x,1/2-y,-z
1/2+x,1/2-y,1/2+z
loop_
_atom_site_type_symbol
_atom_site_label
_atom_site_fract_x
_atom_site_fract_y
_atom_site_fract_z
Si Si1 0.134252 0.326030 0.580638
Si Si2 0.270904 0.350867 0.571004
Si Si3 0.223574 0.690998 0.339701
Si Si4 0.637792 0.473680 0.568898
Si Si5 0.000000 0.724436 0.750000
Si Si6 0.312460 0.373332 0.173832
Si Si7 0.079531 0.851585 0.794234
O O1 0.162137 0.342156 0.651215
O O2 0.145381 0.229081 0.546910
O O3 0.223648 0.380091 0.389025
O O4 0.000000 0.354430 0.750000
O O5 0.218515 0.360558 0.750063
O O6 0.345610 0.430643 0.437541
O O7 0.105634 0.664780 0.564619
O O8 0.209864 0.787185 0.343644
O O9 0.348538 0.677409 0.215622
O O10 0.500000 0.451520 0.750000
O O11 0.712404 0.442301 0.371542
O O12 0.663943 0.421931 0.627396
O O13 0.058491 0.778831 0.750085
O O14 0.449861 0.382310 0.015399
#
# Coordination Sequence:
#
# PCOD8131778 Si02
#       7
#     8   8   8   8   4   8   8
#     4  10  22  42  60  81 117 158 191 230 276 345
#     4  10  23  38  59  86 112 150 200 229 279 342
#     4  10  20  34  58  89 114 149 190 237 286 340
#     4  10  19  37  60  87 119 141 189 250 289 329
#     4  10  18  34  58  88 116 144 192 236 290 346
#     4   9  20  36  60  86 114 149 194 240 290 333
#     4  10  18  35  60  90 115 145 185 246 300 322
#
# _framework density 20.104157000000001
#
# number of rings (size 3 to 8) (size 9 to 14) (size 15 to 20)
#    0.000    2.154    3.846    0.923    0.000   12.308 
#    0.000    3.846    3.385    0.000    0.000    0.000 
#    0.000    0.000    0.000    0.000    0.000    0.000 
#
# Total GULP energy -322272.596271 kJ/mol
# GULP energy per Si atom -12395.099857 kJ/mol
# Density = 2.005840 g / cm^3
# Si number density = 20.104157 Si / 1000 Ang^3
#
#
#
# Elastic Constant Matrix: (Units=GPa)
#
#
# Indices 1 2 3 4 5 6 
#
# 1 125.5100 19.3412 66.2779 0.0000 6.1530 0.0000
# 2 19.3412 69.5995 21.3585 0.0000 3.6825 0.0000
# 3 66.2779 21.3585 133.3352 0.0000 3.0019 0.0000
# 4 0.0000 0.0000 0.0000 19.2014 0.0000 -2.5125
# 5 6.1530 3.6825 3.0019 0.0000 22.3566 0.0000
# 6 0.0000 0.0000 0.0000 -2.5125 0.0000 12.7968
#
#
#
# Elastic Compliance Matrix: (Units=1/GPa)
#
#
# Indices 1 2 3 4 5 6 
#
# 1 0.011037 -0.001353 -0.005222 0.000000 -0.002114 0.000000
# 2 -0.001353 0.015382 -0.001748 0.000000 -0.001927 0.000000
# 3 -0.005222 -0.001748 0.010368 0.000000 0.000333 0.000000
# 4 0.000000 0.000000 0.000000 0.053453 0.000000 0.010495
# 5 -0.002114 -0.001927 0.000333 0.000000 0.045584 0.000000
# 6 0.000000 0.000000 0.000000 0.010495 0.000000 0.080205
#
#
# Mechanical properties :
#
#
# Convention : Reuss Voigt Hill
#
# Bulk Modulus (GPa) = 49.64861 60.26664 54.95762
# Shear Modulus (GPa) = 20.88652 25.63545 23.26098
#
# Velocity S-wave (km/s) = 3.22672 3.57477 3.40520
# Velocity P-wave (km/s) = 6.21543 6.86156 6.54647
#
# Compressibility (1/GPa) = 0.02014155
#
# Stress axis : x y z
#
# Youngs Moduli (GPa) = 90.60284 65.00988 96.44875
#
# Poissons Ratio (x) = 0.08795 0.50366
# Poissons Ratio (y) = 0.12257 0.16861
# Poissons Ratio (z) = 0.47313 0.11365
#
# Static dielectric constant tensor:
#      x y z
#    x 3.632300 0.000000 0.218910 
#    y 0.000000 3.364790 0.000000 
#    z 0.218910 0.000000 3.904700 
# 
# 
# High freq. dielectric constant tensor:
#      x y z
#    x 1.785020 0.000000 0.014240 
#    y 0.000000 1.757090 0.000000 
#    z 0.014240 0.000000 1.778780 
# 
# From -- ./inp_files/173985.got.cif
#   From: 2010.06.25/outbox.cif.g09.slc.cpg/sg15_87_cif.got.tgz:173985.got - 2010.06.28 07:06:18.
