data_PCOD8131724
_publ_section_title
;
Structure prediction by ZEFSAII (Michael W. Deem and Ramdas Pophale) SiO2 
 PCOD8131724
Probable space group: C 2/C
;
_chemical_formula_sum "Si O2"
_cell_formula_units_Z 56
_cell_length_a 15.990771
_cell_length_b 8.883149
_cell_length_c 29.341030
_cell_angle_alpha 90.000000
_cell_angle_beta 47.461881
_cell_angle_gamma 90.000000
_cell_volume 3070.984691
_symmetry_space_group_name_H-M "C 2/C"
_symmetry_group_IT_number 15
_symmetry_cell_setting 'monoclinic'
loop_
_space_group_symop_operation_xyz
x,y,z
-x,y,1/2-z
-x,-y,-z
x,-y,1/2+z
1/2+x,1/2+y,z
1/2-x,1/2+y,1/2-z
1/2-x,1/2-y,-z
1/2+x,1/2-y,1/2+z
loop_
_atom_site_type_symbol
_atom_site_label
_atom_site_fract_x
_atom_site_fract_y
_atom_site_fract_z
Si Si1 0.973238 0.446056 0.649094
Si Si2 0.612048 0.409410 0.469526
Si Si3 0.879775 0.568864 0.773287
Si Si4 0.805761 0.370498 0.881712
Si Si5 0.057601 0.369892 0.037114
Si Si6 0.671908 0.931096 0.426490
Si Si7 0.811428 0.296137 0.639732
O O1 0.890638 0.513740 0.717656
O O2 0.902492 0.325330 0.646129
O O3 0.077597 0.360809 0.633784
O O4 0.023081 0.584051 0.600769
O O5 0.500000 0.500000 0.500000
O O6 0.716972 0.520600 0.439988
O O7 0.603602 0.302289 0.517600
O O8 0.627910 0.305187 0.419904
O O9 0.825879 0.434486 0.823333
O O10 0.800606 0.715637 0.800228
O O11 0.000000 0.619290 0.750000
O O12 0.761841 0.201392 0.897319
O O13 0.948003 0.365832 0.045103
O O14 0.151349 0.486738 0.982732
O O15 0.723379 0.045773 0.370262
#
# Coordination Sequence:
#
# PCOD8131724 Si02
#       7
#     8   8   8   8   8   8   8
#     4  10  21  35  55  82 113 137 181 231 276 310
#     4  10  18  34  57  79 106 147 184 210 267 337
#     4   9  20  40  57  73 106 147 181 217 271 326
#     4  10  20  34  59  79 107 147 181 224 268 324
#     4   9  18  32  52  78 112 142 173 223 271 317
#     4   9  17  33  54  78 106 142 177 218 273 324
#     4   9  20  37  56  77 107 140 182 223 269 321
#
# _framework density 18.235192999999999
#
# number of rings (size 3 to 8) (size 9 to 14) (size 15 to 20)
#    0.000    2.571    1.429    0.857    0.000    3.429 
#    0.000    3.571    0.000    0.000    0.000    0.000 
#    0.000    0.000    0.000    0.000    0.000    0.000 
#
# Total GULP energy -347167.550463 kJ/mol
# GULP energy per Si atom -12398.841088 kJ/mol
# Density = 1.819369 g / cm^3
# Si number density = 18.235193 Si / 1000 Ang^3
#
#
#
# Elastic Constant Matrix: (Units=GPa)
#
#
# Indices 1 2 3 4 5 6 
#
# 1 67.8838 47.5979 33.0833 -0.0002 -4.6779 -0.0002
# 2 47.5979 131.0890 53.2191 -0.0004 -13.6546 -0.0006
# 3 33.0833 53.2191 87.6606 -0.0001 -9.4586 -0.0003
# 4 -0.0002 -0.0004 -0.0001 29.3670 -0.0001 -12.5667
# 5 -4.6779 -13.6546 -9.4586 -0.0001 26.7670 -0.0002
# 6 -0.0002 -0.0006 -0.0003 -12.5667 -0.0002 25.6421
#
#
#
# Elastic Compliance Matrix: (Units=1/GPa)
#
#
# Indices 1 2 3 4 5 6 
#
# 1 0.020970 -0.005914 -0.004422 0.000000 -0.000915 0.000000
# 2 -0.005914 0.012047 -0.004710 0.000000 0.003448 0.000000
# 3 -0.004422 -0.004710 0.016211 0.000000 0.002553 0.000000
# 4 0.000000 0.000000 0.000000 0.043088 0.000000 0.021117
# 5 -0.000915 0.003448 0.002553 0.000000 0.039861 0.000001
# 6 0.000000 0.000000 0.000000 0.021117 0.000001 0.049347
#
#
# Mechanical properties :
#
#
# Convention : Reuss Voigt Hill
#
# Bulk Modulus (GPa) = 52.25753 61.60377 56.93065
# Shear Modulus (GPa) = 22.93629 26.53744 24.73686
#
# Velocity S-wave (km/s) = 3.55040 3.81896 3.68713
# Velocity P-wave (km/s) = 6.74736 7.30083 7.02955
#
# Compressibility (1/GPa) = 0.01913600
#
# Stress axis : x y z
#
# Youngs Moduli (GPa) = 47.68717 83.00864 61.68475
#
# Poissons Ratio (x) = 0.49091 0.27279
# Poissons Ratio (y) = 0.28202 0.29052
# Poissons Ratio (z) = 0.21089 0.39095
#
# Static dielectric constant tensor:
#      x y z
#    x 3.150710 0.000000 -0.049820 
#    y 0.000000 3.487770 0.000000 
#    z -0.049820 0.000000 3.552070 
# 
# 
# High freq. dielectric constant tensor:
#      x y z
#    x 1.690460 0.000000 -0.006120 
#    y 0.000000 1.705360 0.000000 
#    z -0.006120 0.000000 1.712090 
# 
# From -- ./inp_files/246926.got.cif
#   From: 2010.06.25/outbox.cif.g09.slc.cpg/sg15_124_cif.got.tgz:246926.got - 2010.06.28 07:06:18.
