data_PCOD8131953
_publ_section_title
;
Structure prediction by ZEFSAII (Michael W. Deem and Ramdas Pophale) SiO2 
 PCOD8131953
Probable space group: C 2/C
;
_chemical_formula_sum "Si O2"
_cell_formula_units_Z 52
_cell_length_a 8.241644
_cell_length_b 15.288178
_cell_length_c 25.960234
_cell_angle_alpha 90.000000
_cell_angle_beta 129.053570
_cell_angle_gamma 90.000000
_cell_volume 2540.104880
_symmetry_space_group_name_H-M "C 2/C"
_symmetry_group_IT_number 15
_symmetry_cell_setting 'monoclinic'
loop_
_space_group_symop_operation_xyz
x,y,z
-x,y,1/2-z
-x,-y,-z
x,-y,1/2+z
1/2+x,1/2+y,z
1/2-x,1/2+y,1/2-z
1/2-x,1/2-y,-z
1/2+x,1/2-y,1/2+z
loop_
_atom_site_type_symbol
_atom_site_label
_atom_site_fract_x
_atom_site_fract_y
_atom_site_fract_z
Si Si1 0.000000 0.266467 0.250000
Si Si2 0.375984 0.944214 0.538810
Si Si3 0.049342 0.184225 0.640218
Si Si4 0.055793 0.737780 0.035775
Si Si5 0.701305 0.482775 0.400443
Si Si6 0.985659 0.836984 0.643698
Si Si7 0.243927 0.830134 0.599236
O O1 0.794026 0.326123 0.202717
O O2 0.041672 0.207639 0.208466
O O3 0.441161 0.851476 0.527798
O O4 0.215950 0.988012 0.466109
O O5 0.278018 0.922826 0.575516
O O6 0.570223 0.012357 0.581050
O O7 0.022880 0.188153 0.573034
O O8 0.920431 0.105048 0.639944
O O9 0.959996 0.276122 0.643555
O O10 0.300409 0.716335 0.077620
O O11 0.947206 0.774803 0.963303
O O12 0.575487 0.564770 0.354210
O O13 0.185546 0.845427 0.646720
#
# Coordination Sequence:
#
# PCOD8131953 Si02
#       7
#     4   8   8   8   8   8   8
#     4  10  24  46  54  74 106 170 210 246 268 344
#     4   9  17  30  57  89 126 140 176 221 305 371
#     4  10  19  37  63  77 114 153 204 228 282 346
#     4   9  16  34  56  88 119 152 176 230 289 364
#     4  10  18  35  56  87 113 153 174 235 297 353
#     4  10  23  35  57  81 120 148 193 240 296 331
#     4  11  18  34  58  92 113 151 183 238 293 360
#
# _framework density 20.471596000000002
#
# number of rings (size 3 to 8) (size 9 to 14) (size 15 to 20)
#    0.000    2.154    3.077    2.308    0.000    1.231 
#    0.000    4.615    0.000    0.000    0.000    0.000 
#    0.000    0.000    0.000    0.000    0.000    0.000 
#
# Total GULP energy -322251.644226 kJ/mol
# GULP energy per Si atom -12394.294009 kJ/mol
# Density = 2.042500 g / cm^3
# Si number density = 20.471596 Si / 1000 Ang^3
#
#
#
# Elastic Constant Matrix: (Units=GPa)
#
#
# Indices 1 2 3 4 5 6 
#
# 1 99.6482 12.0801 28.7201 0.0000 -13.7493 0.0000
# 2 12.0801 63.2839 16.0777 0.0000 1.9584 0.0000
# 3 28.7201 16.0777 72.7876 0.0000 5.2632 0.0000
# 4 0.0000 0.0000 0.0000 17.1667 0.0000 2.9911
# 5 -13.7493 1.9584 5.2632 0.0000 27.8683 0.0000
# 6 0.0000 0.0000 0.0000 2.9911 0.0000 35.7343
#
#
#
# Elastic Compliance Matrix: (Units=1/GPa)
#
#
# Indices 1 2 3 4 5 6 
#
# 1 0.012729 -0.001321 -0.005264 0.000000 0.007367 0.000000
# 2 -0.001321 0.016885 -0.003118 0.000000 -0.001249 0.000000
# 3 -0.005264 -0.003118 0.016907 0.000000 -0.005571 0.000000
# 4 0.000000 0.000000 0.000000 0.059115 0.000000 -0.004948
# 5 0.007367 -0.001249 -0.005571 0.000000 0.040658 0.000000
# 6 0.000000 0.000000 0.000000 -0.004948 0.000000 0.028399
#
#
# Mechanical properties :
#
#
# Convention : Reuss Voigt Hill
#
# Bulk Modulus (GPa) = 36.87836 38.83060 37.85448
# Shear Modulus (GPa) = 24.61424 28.07664 26.34544
#
# Velocity S-wave (km/s) = 3.47127 3.70738 3.59127
# Velocity P-wave (km/s) = 5.84121 6.11028 5.97726
#
# Compressibility (1/GPa) = 0.02711617
#
# Stress axis : x y z
#
# Youngs Moduli (GPa) = 78.56148 59.22508 59.14698
#
# Poissons Ratio (x) = 0.07821 0.31132
# Poissons Ratio (y) = 0.10374 0.18443
# Poissons Ratio (z) = 0.41351 0.18468
#
# Static dielectric constant tensor:
#      x y z
#    x 3.768570 0.000000 0.130660 
#    y 0.000000 3.549830 0.000000 
#    z 0.130660 0.000000 3.491270 
# 
# 
# High freq. dielectric constant tensor:
#      x y z
#    x 1.797590 0.000000 0.014050 
#    y 0.000000 1.781150 0.000000 
#    z 0.014050 0.000000 1.772660 
# 
# From -- ./inp_files/264184.got.cif
#   From: 2010.06.25/outbox.cif.g09.slc.cpg/sg15_133_cif.got.tgz:264184.got - 2010.06.28 07:06:18.
