data_PCOD8131040
_publ_section_title
;
Structure prediction by ZEFSAII (Michael W. Deem and Ramdas Pophale) SiO2 
 PCOD8131040
Probable space group: C 2/C
;
_chemical_formula_sum "Si O2"
_cell_formula_units_Z 60
_cell_length_a 30.083343
_cell_length_b 5.291177
_cell_length_c 21.693302
_cell_angle_alpha 90.000000
_cell_angle_beta 80.304258
_cell_angle_gamma 90.000000
_cell_volume 3403.735844
_symmetry_space_group_name_H-M "C 2/C"
_symmetry_group_IT_number 15
_symmetry_cell_setting 'monoclinic'
loop_
_space_group_symop_operation_xyz
x,y,z
-x,y,1/2-z
-x,-y,-z
x,-y,1/2+z
1/2+x,1/2+y,z
1/2-x,1/2+y,1/2-z
1/2-x,1/2-y,-z
1/2+x,1/2-y,1/2+z
loop_
_atom_site_type_symbol
_atom_site_label
_atom_site_fract_x
_atom_site_fract_y
_atom_site_fract_z
Si Si1 0.597676 0.027240 0.107677
Si Si2 0.757833 0.006953 0.918814
Si Si3 0.196321 0.497928 0.045938
Si Si4 0.764284 0.064836 0.281081
Si Si5 0.407809 0.929899 0.747451
Si Si6 0.435240 0.526249 0.358504
Si Si7 0.369783 0.430798 0.761533
Si Si8 0.000000 0.199532 0.750000
O O1 0.608580 0.046511 0.177819
O O2 0.563764 0.788678 0.103586
O O3 0.642380 0.995027 0.056804
O O4 0.572025 0.286449 0.094240
O O5 0.787331 0.762467 0.928097
O O6 0.741117 0.987465 0.852437
O O7 0.786933 0.262250 0.918663
O O8 0.713602 0.021539 0.971823
O O9 0.742936 0.320211 0.259444
O O10 0.816992 0.112991 0.279031
O O11 0.392860 0.193705 0.719297
O O12 0.381659 0.691768 0.722634
O O13 0.461488 0.883144 0.731489
O O14 0.391585 0.546481 0.324182
O O15 0.480301 0.483956 0.307558
#
# Coordination Sequence:
#
# PCOD8131040 Si02
#       8
#     8   8   8   8   8   8   8   4
#     4   9  15  24  37  60  79 116 141 170 219 261
#     4  10  20  32  47  70  87 120 159 205 253 270
#     4  10  18  31  51  66  92 116 159 206 235 298
#     4  12  23  34  49  66  95 130 169 210 233 275
#     4   9  16  25  43  59  90 116 144 182 218 291
#     4   9  17  25  42  59  90 117 145 180 218 290
#     4   9  17  29  40  58  79 119 155 180 223 264
#     4   8  16  26  38  66  88 124 148 172 228 278
#
# _framework density 17.627690999999999
#
# number of rings (size 3 to 8) (size 9 to 14) (size 15 to 20)
#    0.000    2.667    0.000    5.600    0.000    8.533 
#    0.000    0.000    0.000    0.000    0.000    0.000 
#    0.000    0.000    0.000  127.200    0.000    0.533 
#
# Total GULP energy -371704.121934 kJ/mol
# GULP energy per Si atom -12390.137398 kJ/mol
# Density = 1.758757 g / cm^3
# Si number density = 17.627691 Si / 1000 Ang^3
#
#
#
# Elastic Constant Matrix: (Units=GPa)
#
#
# Indices 1 2 3 4 5 6 
#
# 1 76.4266 30.1588 30.7650 0.0000 -26.6769 0.0000
# 2 30.1588 161.9616 10.3934 0.0000 -18.1506 0.0000
# 3 30.7650 10.3934 46.9656 0.0000 -15.5899 0.0000
# 4 0.0000 0.0000 0.0000 -0.7003 0.0000 11.9926
# 5 -26.6769 -18.1506 -15.5899 0.0000 26.3491 0.0000
# 6 0.0000 0.0000 0.0000 11.9926 0.0000 4.7858
#
#
#
# Elastic Compliance Matrix: (Units=1/GPa)
#
#
# Indices 1 2 3 4 5 6 
#
# 1 0.023518 -0.001876 -0.009352 0.000000 0.016985 0.000000
# 2 -0.001876 0.006841 0.000807 0.000000 0.003291 0.000000
# 3 -0.009352 0.000807 0.030216 0.000000 0.008965 0.000000
# 4 0.000000 0.000000 0.000000 -0.032518 0.000000 0.081486
# 5 0.016985 0.003291 0.008965 0.000000 0.062719 0.000000
# 6 0.000000 0.000000 0.000000 0.081486 0.000000 0.004758
#
#
# Mechanical properties :
#
#
# Convention : Reuss Voigt Hill
#
# Bulk Modulus (GPa) = 25.16829 47.55424 36.36126
# Shear Modulus (GPa) = 38.57443 20.35605 29.46524
#
# Velocity S-wave (km/s) = 4.68299 3.40189 4.09287
# Velocity P-wave (km/s) = 6.59918 6.51660 6.55802
#
# Compressibility (1/GPa) = 0.03973254
#
# Stress axis : x y z
#
# Youngs Moduli (GPa) = 42.52065 146.18716 33.09531
#
# Poissons Ratio (x) = 0.27420 0.30952
# Poissons Ratio (y) = 0.07975 -0.02671
# Poissons Ratio (z) = 0.39767 -0.11800
#
# Static dielectric constant tensor:
#      x y z
#    x 3.012780 0.000000 -0.313020 
#    y 0.000000 5.034510 0.000000 
#    z -0.313020 0.000000 2.854960 
# 
# 
# High freq. dielectric constant tensor:
#      x y z
#    x 1.655250 0.000000 -0.045560 
#    y 0.000000 1.726470 0.000000 
#    z -0.045560 0.000000 1.611800 
# 
# From -- ./inp_files/258301.got.cif
#   From: 2010.06.25/outbox.cif.g09.slc.cpg/sg15_130_cif.got.tgz:258301.got - 2010.06.28 07:06:18.
