data_PCOD8131985
_publ_section_title
;
Structure prediction by ZEFSAII (Michael W. Deem and Ramdas Pophale) SiO2 
 PCOD8131985
Probable space group: C 2/C
;
_chemical_formula_sum "Si O2"
_cell_formula_units_Z 56
_cell_length_a 19.363141
_cell_length_b 10.668297
_cell_length_c 22.408208
_cell_angle_alpha 90.000000
_cell_angle_beta 38.346512
_cell_angle_gamma 90.000000
_cell_volume 2871.844704
_symmetry_space_group_name_H-M "C 2/C"
_symmetry_group_IT_number 15
_symmetry_cell_setting 'monoclinic'
loop_
_space_group_symop_operation_xyz
x,y,z
-x,y,1/2-z
-x,-y,-z
x,-y,1/2+z
1/2+x,1/2+y,z
1/2-x,1/2+y,1/2-z
1/2-x,1/2-y,-z
1/2+x,1/2-y,1/2+z
loop_
_atom_site_type_symbol
_atom_site_label
_atom_site_fract_x
_atom_site_fract_y
_atom_site_fract_z
Si Si1 0.601510 0.764257 0.296225
Si Si2 0.886342 0.141978 0.435484
Si Si3 0.868755 0.501351 0.582872
Si Si4 0.986720 0.058344 0.573392
Si Si5 0.741553 0.001204 0.225954
Si Si6 0.641833 0.716704 0.404025
Si Si7 0.238474 0.829395 0.596655
O O1 0.471704 0.757897 0.365867
O O2 0.599865 0.701279 0.363533
O O3 0.664525 0.678698 0.205791
O O4 0.652667 0.902595 0.259936
O O5 0.831418 0.108309 0.409436
O O6 0.789846 0.193484 0.544999
O O7 0.949323 0.019541 0.418419
O O8 0.815624 0.435815 0.677412
O O9 0.817517 0.642154 0.613359
O O10 0.838072 0.425433 0.544458
O O11 0.000000 0.500000 0.500000
O O12 0.049839 0.191348 0.518700
O O13 0.853995 0.071459 0.672910
O O14 0.000000 0.000000 0.500000
O O15 0.762268 0.108013 0.160802
#
# Coordination Sequence:
#
# PCOD8131985 Si02
#       7
#     8   8   8   8   8   8   8
#     4  11  20  34  57  86 114 147 196 251 292 344
#     4  11  22  37  58  84 118 158 196 238 307 353
#     4  11  23  34  55  86 122 152 197 250 286 345
#     4  10  18  35  58  82 112 150 197 239 282 364
#     4  10  20  33  56  83 114 150 195 239 302 348
#     4  10  20  35  56  85 115 150 195 242 301 340
#     4  11  22  37  55  84 123 154 191 249 296 353
#
# _framework density 19.499661
#
# number of rings (size 3 to 8) (size 9 to 14) (size 15 to 20)
#    0.000    1.429    4.286    3.857    2.000    0.000 
#    0.000    0.714    0.000    0.000    0.000   22.000 
#    0.000    0.000    0.000    0.000    0.000    0.000 
#
# Total GULP energy -346883.695464 kJ/mol
# GULP energy per Si atom -12388.703409 kJ/mol
# Density = 1.945528 g / cm^3
# Si number density = 19.499661 Si / 1000 Ang^3
#
#
#
# Elastic Constant Matrix: (Units=GPa)
#
#
# Indices 1 2 3 4 5 6 
#
# 1 108.7938 29.2425 29.0748 0.0000 -0.6240 0.0000
# 2 29.2425 67.2956 16.9629 0.0000 6.7044 0.0000
# 3 29.0748 16.9629 99.3583 0.0000 -0.7645 0.0000
# 4 0.0000 0.0000 0.0000 30.1142 0.0000 -2.3723
# 5 -0.6240 6.7044 -0.7645 0.0000 22.1005 0.0000
# 6 0.0000 0.0000 0.0000 -2.3723 0.0000 27.3767
#
#
#
# Elastic Compliance Matrix: (Units=1/GPa)
#
#
# Indices 1 2 3 4 5 6 
#
# 1 0.011023 -0.004319 -0.002477 0.000000 0.001536 0.000000
# 2 -0.004319 0.017747 -0.001809 0.000000 -0.005568 0.000000
# 3 -0.002477 -0.001809 0.011105 0.000000 0.000863 0.000000
# 4 0.000000 0.000000 0.000000 0.033435 0.000000 0.002897
# 5 0.001536 -0.005568 0.000863 0.000000 0.047010 0.000000
# 6 0.000000 0.000000 0.000000 0.002897 0.000000 0.036778
#
#
# Mechanical properties :
#
#
# Convention : Reuss Voigt Hill
#
# Bulk Modulus (GPa) = 44.11765 47.33424 45.72594
# Shear Modulus (GPa) = 27.49323 29.26278 28.37801
#
# Velocity S-wave (km/s) = 3.75898 3.87807 3.81899
# Velocity P-wave (km/s) = 6.44313 6.66180 6.55338
#
# Compressibility (1/GPa) = 0.02266667
#
# Stress axis : x y z
#
# Youngs Moduli (GPa) = 90.71785 56.34696 90.05152
#
# Poissons Ratio (x) = 0.24335 0.22302
# Poissons Ratio (y) = 0.39179 0.16290
# Poissons Ratio (z) = 0.22467 0.10193
#
# Static dielectric constant tensor:
#      x y z
#    x 3.340920 0.000000 -0.019850 
#    y 0.000000 3.899930 0.000000 
#    z -0.019850 0.000000 5.175850 
# 
# 
# High freq. dielectric constant tensor:
#      x y z
#    x 1.721370 0.000000 -0.002040 
#    y 0.000000 1.741620 0.000000 
#    z -0.002040 0.000000 1.782110 
# 
# From -- ./inp_files/277024.got.cif
#   From: 2010.06.25/outbox.cif.g09.slc.cpg/sg15_139_cif.got.tgz:277024.got - 2010.06.28 07:06:18.
