data_PCOD8131240
_publ_section_title
;
Structure prediction by ZEFSAII (Michael W. Deem and Ramdas Pophale) SiO2 
 PCOD8131240
Probable space group: C 2/C
;
_chemical_formula_sum "Si O2"
_cell_formula_units_Z 60
_cell_length_a 26.136272
_cell_length_b 7.841383
_cell_length_c 14.877911
_cell_angle_alpha 90.000000
_cell_angle_beta 84.000151
_cell_angle_gamma 90.000000
_cell_volume 3032.443610
_symmetry_space_group_name_H-M "C 2/C"
_symmetry_group_IT_number 15
_symmetry_cell_setting 'monoclinic'
loop_
_space_group_symop_operation_xyz
x,y,z
-x,y,1/2-z
-x,-y,-z
x,-y,1/2+z
1/2+x,1/2+y,z
1/2-x,1/2+y,1/2-z
1/2-x,1/2-y,-z
1/2+x,1/2-y,1/2+z
loop_
_atom_site_type_symbol
_atom_site_label
_atom_site_fract_x
_atom_site_fract_y
_atom_site_fract_z
Si Si1 0.500000 0.732246 0.250000
Si Si2 0.413985 0.483403 0.330580
Si Si3 0.136472 0.250757 0.795882
Si Si4 0.691923 0.538042 0.375012
Si Si5 0.381513 0.247845 0.488210
Si Si6 0.580992 0.090103 0.849431
Si Si7 0.693695 0.063703 0.127625
Si Si8 0.836871 0.776774 0.787073
O O1 0.463182 0.605788 0.313244
O O2 0.474037 0.863573 0.184023
O O3 0.403830 0.383763 0.239078
O O4 0.417960 0.349576 0.411677
O O5 0.363135 0.598859 0.355579
O O6 0.098708 0.393753 0.843323
O O7 0.176566 0.323944 0.715681
O O8 0.172181 0.157663 0.864551
O O9 0.650297 0.621572 0.446590
O O10 0.746703 0.575777 0.411821
O O11 0.699765 0.618961 0.273726
O O12 0.419589 0.142529 0.545714
O O13 0.342879 0.114213 0.448136
O O14 0.620104 0.200196 0.785116
O O15 0.691800 0.864468 0.151075
#
# Coordination Sequence:
#
# PCOD8131240 Si02
#       8
#     4   8   8   8   8   8   8   8
#     4  10  20  38  64  78  98 140 192 222 266 350
#     4   9  19  36  57  80 103 139 176 227 280 324
#     4   9  19  35  56  78 113 147 181 222 266 313
#     4  10  18  32  53  80 108 149 188 217 256 323
#     4  10  21  34  51  79 119 141 170 230 285 308
#     4   9  19  36  54  78 104 138 174 226 277 317
#     4  10  18  32  53  79 109 149 187 218 258 322
#     4   8  17  33  52  72 105 140 180 219 260 311
#
# _framework density 19.786021999999999
#
# number of rings (size 3 to 8) (size 9 to 14) (size 15 to 20)
#    0.000    2.667    0.000    2.000    0.000    2.133 
#    0.000    5.333    0.000   14.400    0.000    0.000 
#    0.000    0.000    0.000    0.000    0.000    0.000 
#
# Total GULP energy -371706.857192 kJ/mol
# GULP energy per Si atom -12390.228573 kJ/mol
# Density = 1.974099 g / cm^3
# Si number density = 19.786022 Si / 1000 Ang^3
#
#
#
# Elastic Constant Matrix: (Units=GPa)
#
#
# Indices 1 2 3 4 5 6 
#
# 1 88.4167 32.1756 32.2298 0.0000 19.9989 0.0000
# 2 32.1756 105.4083 26.6230 0.0000 11.2503 0.0000
# 3 32.2298 26.6230 70.5770 0.0000 18.1831 0.0000
# 4 0.0000 0.0000 0.0000 24.1438 0.0000 5.1986
# 5 19.9989 11.2503 18.1831 0.0000 26.2918 0.0000
# 6 0.0000 0.0000 0.0000 5.1986 0.0000 31.4626
#
#
#
# Elastic Compliance Matrix: (Units=1/GPa)
#
#
# Indices 1 2 3 4 5 6 
#
# 1 0.015607 -0.002914 -0.004004 0.000000 -0.007855 0.000000
# 2 -0.002914 0.011129 -0.002691 0.000000 -0.000684 0.000000
# 3 -0.004004 -0.002691 0.019385 0.000000 -0.009209 0.000000
# 4 0.000000 0.000000 0.000000 0.042946 0.000000 -0.007096
# 5 -0.007855 -0.000684 -0.009209 0.000000 0.050672 0.000000
# 6 0.000000 0.000000 0.000000 -0.007096 0.000000 0.032956
#
#
# Mechanical properties :
#
#
# Convention : Reuss Voigt Hill
#
# Bulk Modulus (GPa) = 37.17084 49.60653 43.38868
# Shear Modulus (GPa) = 24.89026 27.93788 26.41407
#
# Velocity S-wave (km/s) = 3.55064 3.76174 3.65771
# Velocity P-wave (km/s) = 5.96964 6.63276 6.30991
#
# Compressibility (1/GPa) = 0.02690281
#
# Stress axis : x y z
#
# Youngs Moduli (GPa) = 64.07414 89.85363 51.58583
#
# Poissons Ratio (x) = 0.26186 0.20655
# Poissons Ratio (y) = 0.18673 0.13882
# Poissons Ratio (z) = 0.25655 0.24180
#
# Static dielectric constant tensor:
#      x y z
#    x 3.416740 0.000000 0.287170 
#    y 0.000000 3.964590 0.000000 
#    z 0.287170 0.000000 3.522420 
# 
# 
# High freq. dielectric constant tensor:
#      x y z
#    x 1.753690 0.000000 0.014560 
#    y 0.000000 1.783470 0.000000 
#    z 0.014560 0.000000 1.753080 
# 
# From -- ./inp_files/176202.got.cif
#   From: 2010.06.25/outbox.cif.g09.slc.cpg/sg15_89_cif.got.tgz:176202.got - 2010.06.28 07:06:18.
