data_PCOD8131484
_publ_section_title
;
Structure prediction by ZEFSAII (Michael W. Deem and Ramdas Pophale) SiO2 
 PCOD8131484
Probable space group: C 2/C
;
_chemical_formula_sum "Si O2"
_cell_formula_units_Z 56
_cell_length_a 20.493972
_cell_length_b 18.525199
_cell_length_c 8.823085
_cell_angle_alpha 90.000000
_cell_angle_beta 120.503259
_cell_angle_gamma 90.000000
_cell_volume 2886.126219
_symmetry_space_group_name_H-M "C 2/C"
_symmetry_group_IT_number 15
_symmetry_cell_setting 'monoclinic'
loop_
_space_group_symop_operation_xyz
x,y,z
-x,y,1/2-z
-x,-y,-z
x,-y,1/2+z
1/2+x,1/2+y,z
1/2-x,1/2+y,1/2-z
1/2-x,1/2-y,-z
1/2+x,1/2-y,1/2+z
loop_
_atom_site_type_symbol
_atom_site_label
_atom_site_fract_x
_atom_site_fract_y
_atom_site_fract_z
Si Si1 0.352935 0.845253 0.382180
Si Si2 0.083685 0.905104 0.374175
Si Si3 0.329482 0.898820 0.692356
Si Si4 0.751603 0.449762 0.101944
Si Si5 0.795120 0.794989 0.932084
Si Si6 0.851514 0.985933 0.779433
Si Si7 0.494556 0.921691 0.920950
O O1 0.329214 0.878138 0.515373
O O2 0.300742 0.878543 0.189026
O O3 0.336635 0.758742 0.361522
O O4 0.440537 0.865422 0.448389
O O5 0.140705 0.840261 0.404190
O O6 0.094949 0.971451 0.273189
O O7 0.000000 0.874734 0.250000
O O8 0.098078 0.929466 0.565382
O O9 0.266771 0.851258 0.710471
O O10 0.412444 0.887067 0.864015
O O11 0.307399 0.982082 0.676737
O O12 0.687287 0.457024 0.153906
O O13 0.712629 0.443194 0.891563
O O14 0.750000 0.750000 0.000000
O O15 0.500000 0.934825 0.750000
O O16 0.500000 0.000000 0.000000
#
# Coordination Sequence:
#
# PCOD8131484 Si02
#       7
#     8   8   8   8   8   8   8
#     4  10  20  33  54  86 116 150 195 236 288 341
#     4  11  22  38  60  87 116 148 189 246 294 338
#     4  10  18  33  55  78 112 153 195 236 281 341
#     4  11  17  33  58  83 113 152 196 238 282 339
#     4  10  20  36  56  84 115 152 193 230 290 355
#     4  10  20  34  58  87 111 146 197 239 279 343
#     4  10  20  32  52  84 114 144 188 241 285 329
#
# _framework density 19.403169999999999
#
# number of rings (size 3 to 8) (size 9 to 14) (size 15 to 20)
#    0.000    1.714    5.714    1.286    0.000    2.857 
#    0.000    0.714    0.000    0.000    0.000    2.000 
#    0.000    0.000    0.000    0.000    0.000    0.000 
#
# Total GULP energy -347056.489546 kJ/mol
# GULP energy per Si atom -12394.874627 kJ/mol
# Density = 1.935901 g / cm^3
# Si number density = 19.403170 Si / 1000 Ang^3
#
#
#
# Elastic Constant Matrix: (Units=GPa)
#
#
# Indices 1 2 3 4 5 6 
#
# 1 99.1816 42.6631 46.2618 0.0000 39.3512 0.0000
# 2 42.6631 93.2310 39.9058 0.0000 23.1606 0.0000
# 3 46.2618 39.9058 105.1797 0.0000 24.9537 0.0000
# 4 0.0000 0.0000 0.0000 18.6445 0.0000 -0.9875
# 5 39.3512 23.1606 24.9537 0.0000 39.8512 0.0000
# 6 0.0000 0.0000 0.0000 -0.9875 0.0000 35.4715
#
#
#
# Elastic Compliance Matrix: (Units=1/GPa)
#
#
# Indices 1 2 3 4 5 6 
#
# 1 0.019036 -0.003583 -0.003579 0.000000 -0.014473 0.000000
# 2 -0.003583 0.014455 -0.003235 0.000000 -0.002837 0.000000
# 3 -0.003579 -0.003235 0.012948 0.000000 -0.002693 0.000000
# 4 0.000000 0.000000 0.000000 0.053714 0.000000 0.001495
# 5 -0.014473 -0.002837 -0.002693 0.000000 0.042720 0.000000
# 6 0.000000 0.000000 0.000000 0.001495 0.000000 0.028233
#
#
# Mechanical properties :
#
#
# Convention : Reuss Voigt Hill
#
# Bulk Modulus (GPa) = 38.99651 61.69487 50.34569
# Shear Modulus (GPa) = 24.94377 30.04421 27.49399
#
# Velocity S-wave (km/s) = 3.58935 3.93926 3.76837
# Velocity P-wave (km/s) = 6.10897 7.24953 6.70355
#
# Compressibility (1/GPa) = 0.02564332
#
# Stress axis : x y z
#
# Youngs Moduli (GPa) = 52.53269 69.17844 77.23020
#
# Poissons Ratio (x) = 0.24789 0.27643
# Poissons Ratio (y) = 0.18825 0.24986
# Poissons Ratio (z) = 0.18803 0.22381
#
# Static dielectric constant tensor:
#      x y z
#    x 3.755960 0.000000 0.262950 
#    y 0.000000 3.778200 0.000000 
#    z 0.262950 0.000000 3.575470 
# 
# 
# High freq. dielectric constant tensor:
#      x y z
#    x 1.755750 0.000000 0.019460 
#    y 0.000000 1.738730 0.000000 
#    z 0.019460 0.000000 1.740620 
# 
# From -- ./inp_files/56709.got.cif
#   From: 2010.06.25/outbox.cif.g09.slc.cpg/sg15_29_cif.got.tgz:56709.got - 2010.06.28 07:06:18.
