data_PCOD8131521
_publ_section_title
;
Structure prediction by ZEFSAII (Michael W. Deem and Ramdas Pophale) SiO2 
 PCOD8131521
Probable space group: C 2/C
;
_chemical_formula_sum "Si O2"
_cell_formula_units_Z 52
_cell_length_a 29.604061
_cell_length_b 8.970146
_cell_length_c 13.645960
_cell_angle_alpha 90.000000
_cell_angle_beta 135.779051
_cell_angle_gamma 90.000000
_cell_volume 2527.282351
_symmetry_space_group_name_H-M "C 2/C"
_symmetry_group_IT_number 15
_symmetry_cell_setting 'monoclinic'
loop_
_space_group_symop_operation_xyz
x,y,z
-x,y,1/2-z
-x,-y,-z
x,-y,1/2+z
1/2+x,1/2+y,z
1/2-x,1/2+y,1/2-z
1/2-x,1/2-y,-z
1/2+x,1/2-y,1/2+z
loop_
_atom_site_type_symbol
_atom_site_label
_atom_site_fract_x
_atom_site_fract_y
_atom_site_fract_z
Si Si1 0.000000 0.576521 0.250000
Si Si2 0.660937 0.263094 0.708222
Si Si3 0.405569 0.015171 0.449093
Si Si4 0.595853 0.163846 0.246413
Si Si5 0.172242 0.929799 0.279017
Si Si6 0.293609 0.788159 0.834460
Si Si7 0.697779 0.915427 0.451172
O O1 0.961071 0.685386 0.263041
O O2 0.047211 0.465493 0.384759
O O3 0.601781 0.162726 0.579027
O O4 0.629944 0.420569 0.694409
O O5 0.715160 0.300367 0.708647
O O6 0.700958 0.181766 0.857626
O O7 0.436088 0.104869 0.404905
O O8 0.330984 0.071776 0.343316
O O9 0.634340 0.318344 0.292068
O O10 0.640675 0.034310 0.358374
O O11 0.185347 0.857985 0.192449
O O12 0.238106 0.985198 0.432689
O O13 0.315949 0.797047 0.982735
#
# Coordination Sequence:
#
# PCOD8131521 Si02
#       7
#     4   8   8   8   8   8   8
#     4  12  22  42  62  84 122 160 218 242 284 360
#     4  10  20  36  58  90 127 153 191 246 307 369
#     4  10  22  39  61  90 115 164 203 248 295 354
#     4  10  22  38  63  86 116 156 211 248 293 353
#     4  10  20  34  57  91 124 149 188 250 306 362
#     4  10  18  33  56  89 121 149 194 239 301 351
#     4  10  19  37  57  91 124 158 193 243 310 358
#
# _framework density 20.575462000000002
#
# number of rings (size 3 to 8) (size 9 to 14) (size 15 to 20)
#    0.000    1.846    1.538    4.615    0.000    0.000 
#    5.538    0.769    0.000    7.385    0.000    0.000 
#    0.000    0.000    0.000    0.000    0.000    0.000 
#
# Total GULP energy -322123.436677 kJ/mol
# GULP energy per Si atom -12389.362949 kJ/mol
# Density = 2.052863 g / cm^3
# Si number density = 20.575462 Si / 1000 Ang^3
#
#
#
# Elastic Constant Matrix: (Units=GPa)
#
#
# Indices 1 2 3 4 5 6 
#
# 1 135.5507 51.3316 30.1804 0.0000 -10.4172 0.0000
# 2 51.3316 122.4547 40.3688 0.0000 -1.7521 0.0000
# 3 30.1804 40.3688 95.0921 0.0000 -11.2129 0.0000
# 4 0.0000 0.0000 0.0000 20.7154 0.0000 -4.1001
# 5 -10.4172 -1.7521 -11.2129 0.0000 15.3629 0.0000
# 6 0.0000 0.0000 0.0000 -4.1001 0.0000 16.7219
#
#
#
# Elastic Compliance Matrix: (Units=1/GPa)
#
#
# Indices 1 2 3 4 5 6 
#
# 1 0.009316 -0.003559 -0.000819 0.000000 0.005313 0.000000
# 2 -0.003559 0.010913 -0.003984 0.000000 -0.004076 0.000000
# 3 -0.000819 -0.003984 0.013511 0.000000 0.008852 0.000000
# 4 0.000000 0.000000 0.000000 0.050735 0.000000 0.012440
# 5 0.005313 -0.004076 0.008852 0.000000 0.074690 0.000000
# 6 0.000000 0.000000 0.000000 0.012440 0.000000 0.062852
#
#
# Mechanical properties :
#
#
# Convention : Reuss Voigt Hill
#
# Bulk Modulus (GPa) = 58.76965 66.31767 62.54366
# Shear Modulus (GPa) = 20.45709 25.97449 23.21579
#
# Velocity S-wave (km/s) = 3.15659 3.55688 3.36270
# Velocity P-wave (km/s) = 6.47382 7.01213 6.74835
#
# Compressibility (1/GPa) = 0.01701558
#
# Stress axis : x y z
#
# Youngs Moduli (GPa) = 107.34481 91.63188 74.01264
#
# Poissons Ratio (x) = 0.32611 0.06064
# Poissons Ratio (y) = 0.38204 0.29487
# Poissons Ratio (z) = 0.08795 0.36507
#
# Static dielectric constant tensor:
#      x y z
#    x 3.907900 0.000000 -0.227850 
#    y 0.000000 3.805360 0.000000 
#    z -0.227850 0.000000 3.650140 
# 
# 
# High freq. dielectric constant tensor:
#      x y z
#    x 1.803890 0.000000 -0.018700 
#    y 0.000000 1.795780 0.000000 
#    z -0.018700 0.000000 1.789200 
# 
# From -- ./inp_files/180580.got.cif
#   From: 2010.06.25/outbox.cif.g09.slc.cpg/sg15_91_cif.got.tgz:180580.got - 2010.06.28 07:06:18.
