data_PCOD8131065
_publ_section_title
;
Structure prediction by ZEFSAII (Michael W. Deem and Ramdas Pophale) SiO2 
 PCOD8131065
Probable space group: C 2/C
;
_chemical_formula_sum "Si O2"
_cell_formula_units_Z 52
_cell_length_a 12.387912
_cell_length_b 18.868797
_cell_length_c 20.379742
_cell_angle_alpha 90.000000
_cell_angle_beta 33.288252
_cell_angle_gamma 90.000000
_cell_volume 2614.543107
_symmetry_space_group_name_H-M "C 2/C"
_symmetry_group_IT_number 15
_symmetry_cell_setting 'monoclinic'
loop_
_space_group_symop_operation_xyz
x,y,z
-x,y,1/2-z
-x,-y,-z
x,-y,1/2+z
1/2+x,1/2+y,z
1/2-x,1/2+y,1/2-z
1/2-x,1/2-y,-z
1/2+x,1/2-y,1/2+z
loop_
_atom_site_type_symbol
_atom_site_label
_atom_site_fract_x
_atom_site_fract_y
_atom_site_fract_z
Si Si1 0.781840 0.134709 0.508439
Si Si2 0.000000 0.289768 0.250000
Si Si3 0.467534 0.848031 0.069234
Si Si4 0.665269 0.280829 0.792996
Si Si5 0.749461 0.986018 0.318758
Si Si6 0.480826 0.117935 0.102910
Si Si7 0.309803 0.516636 0.938952
O O1 0.654185 0.158062 0.635849
O O2 0.680944 0.166507 0.493442
O O3 0.997791 0.166448 0.404669
O O4 0.791435 0.049358 0.497677
O O5 0.118232 0.240271 0.241312
O O6 0.318281 0.787902 0.169779
O O7 0.394070 0.924173 0.132723
O O8 0.467040 0.845511 0.992043
O O9 0.876810 0.319139 0.696043
O O10 0.724889 0.000039 0.409368
O O11 0.964492 0.962266 0.185731
O O12 0.688382 0.058662 0.316158
O O13 0.679711 0.083215 0.032927
#
# Coordination Sequence:
#
# PCOD8131065 Si02
#       7
#     8   4   8   8   8   8   8
#     4  11  18  32  49  74 106 132 166 212 255 306
#     4  10  22  30  46  76 108 136 158 210 264 306
#     4  10  19  32  48  76 106 135 167 211 253 304
#     4  11  21  31  51  75 108 136 166 204 262 308
#     4  10  18  31  52  77 105 129 167 215 255 297
#     4  11  18  32  53  77 103 136 167 211 253 303
#     4  10  19  30  53  78 100 130 173 211 255 293
#
# _framework density 19.888752
#
# number of rings (size 3 to 8) (size 9 to 14) (size 15 to 20)
#    0.000    1.538    4.615    4.615    0.000    0.000 
#    0.000    0.769    0.000   10.154    0.000    0.000 
#    0.000    0.000    0.000    0.000    0.000    0.000 
#
# Total GULP energy -322288.199781 kJ/mol
# GULP energy per Si atom -12395.699992 kJ/mol
# Density = 1.984348 g / cm^3
# Si number density = 19.888752 Si / 1000 Ang^3
#
#
#
# Elastic Constant Matrix: (Units=GPa)
#
#
# Indices 1 2 3 4 5 6 
#
# 1 22.8813 12.1414 16.7041 -0.0101 -3.2070 0.0208
# 2 12.1414 101.5671 51.5583 0.0037 3.8943 0.0163
# 3 16.7041 51.5583 103.6713 0.0658 -3.3949 -0.0325
# 4 -0.0101 0.0037 0.0658 47.4048 -0.0123 -2.1989
# 5 -3.2070 3.8943 -3.3949 -0.0123 16.4451 -0.0107
# 6 0.0208 0.0163 -0.0325 -2.1989 -0.0107 21.0123
#
#
#
# Elastic Compliance Matrix: (Units=1/GPa)
#
#
# Indices 1 2 3 4 5 6 
#
# 1 0.051407 -0.003294 -0.006334 0.000020 0.009498 -0.000051
# 2 -0.003294 0.013721 -0.006464 0.000005 -0.005226 -0.000020
# 3 -0.006334 -0.006464 0.013986 -0.000018 0.003183 0.000033
# 4 0.000020 0.000005 -0.000018 0.021198 0.000016 0.002218
# 5 0.009498 -0.005226 0.003183 0.000016 0.064555 0.000034
# 6 -0.000051 -0.000020 0.000033 0.002218 0.000034 0.047824
#
#
# Mechanical properties :
#
#
# Convention : Reuss Voigt Hill
#
# Bulk Modulus (GPa) = 21.30866 43.21417 32.26141
# Shear Modulus (GPa) = 19.19254 26.82017 23.00636
#
# Velocity S-wave (km/s) = 3.10981 3.67619 3.40480
# Velocity P-wave (km/s) = 4.86125 6.30827 5.63143
#
# Compressibility (1/GPa) = 0.04692928
#
# Stress axis : x y z
#
# Youngs Moduli (GPa) = 19.45264 72.87900 71.50249
#
# Poissons Ratio (x) = 0.24008 0.45288
# Poissons Ratio (y) = 0.06408 0.46222
# Poissons Ratio (z) = 0.12321 0.47112
#
# Static dielectric constant tensor:
#      x y z
#    x 3.157480 -0.000030 -0.219190 
#    y -0.000030 3.750340 0.000100 
#    z -0.219190 0.000100 3.695570 
# 
# 
# High freq. dielectric constant tensor:
#      x y z
#    x 1.716050 0.000000 -0.023740 
#    y 0.000000 1.781070 0.000010 
#    z -0.023740 0.000010 1.783020 
# 
# From -- ./inp_files/154632.got.cif
#   From: 2010.06.25/outbox.cif.g09.slc.cpg/sg15_78_cif.got.tgz:154632.got - 2010.06.28 07:06:18.
