data_PCOD8131167
_publ_section_title
;
Structure prediction by ZEFSAII (Michael W. Deem and Ramdas Pophale) SiO2 
 PCOD8131167
Probable space group: C 2/C
;
_chemical_formula_sum "Si O2"
_cell_formula_units_Z 60
_cell_length_a 12.086034
_cell_length_b 21.919755
_cell_length_c 14.543244
_cell_angle_alpha 90.000000
_cell_angle_beta 69.326413
_cell_angle_gamma 90.000000
_cell_volume 3604.742154
_symmetry_space_group_name_H-M "C 2/C"
_symmetry_group_IT_number 15
_symmetry_cell_setting 'monoclinic'
loop_
_space_group_symop_operation_xyz
x,y,z
-x,y,1/2-z
-x,-y,-z
x,-y,1/2+z
1/2+x,1/2+y,z
1/2-x,1/2+y,1/2-z
1/2-x,1/2-y,-z
1/2+x,1/2-y,1/2+z
loop_
_atom_site_type_symbol
_atom_site_label
_atom_site_fract_x
_atom_site_fract_y
_atom_site_fract_z
Si Si1 0.161923 0.229504 0.907884
Si Si2 0.934402 0.695139 0.509849
Si Si3 0.000000 0.186232 0.250000
Si Si4 0.192114 0.157420 0.065903
Si Si5 0.454180 0.978107 0.860550
Si Si6 0.208821 0.241303 0.298244
Si Si7 0.410541 0.920106 0.517476
Si Si8 0.625611 0.147130 0.163169
O O1 0.257534 0.278978 0.911889
O O2 0.194475 0.220369 0.790581
O O3 0.175569 0.166144 0.960597
O O4 0.029457 0.251781 0.965577
O O5 0.827345 0.716544 0.605842
O O6 0.871878 0.683131 0.432250
O O7 0.998252 0.634634 0.532360
O O8 0.069528 0.144344 0.155526
O O9 0.088227 0.229753 0.279439
O O10 0.277381 0.102429 0.065700
O O11 0.500000 0.004896 0.750000
O O12 0.558488 0.948591 0.892330
O O13 0.357778 0.925316 0.863534
O O14 0.402416 0.032530 0.936073
O O15 0.268608 0.175963 0.307584
O O16 0.500000 0.155883 0.250000
#
# Coordination Sequence:
#
# PCOD8131167 Si02
#       8
#     8   8   4   8   8   8   8   8
#     4   9  17  29  44  72 104 130 161 197 250 301
#     4  10  18  32  48  74 103 133 164 206 255 313
#     4  10  20  28  48  76  96 134 170 194 250 306
#     4   9  17  30  46  69 104 132 154 206 249 302
#     4   9  19  33  51  76  93 132 171 218 256 298
#     4  11  20  30  49  76 105 138 167 204 254 307
#     4   9  19  33  51  73 105 127 167 218 264 297
#     4  10  19  33  52  71 102 135 175 209 246 300
#
# _framework density 16.644742000000001
#
# number of rings (size 3 to 8) (size 9 to 14) (size 15 to 20)
#    0.000    2.400    2.667    0.400    7.467    1.067 
#    0.000    0.000    0.000    0.800    0.000    0.000 
#    0.000    0.000    0.000    0.000    0.000    0.000 
#
# Total GULP energy -371738.709921 kJ/mol
# GULP energy per Si atom -12391.290331 kJ/mol
# Density = 1.660686 g / cm^3
# Si number density = 16.644742 Si / 1000 Ang^3
#
#
#
# Elastic Constant Matrix: (Units=GPa)
#
#
# Indices 1 2 3 4 5 6 
#
# 1 49.5526 24.1400 28.5283 0.0000 -0.0094 0.0000
# 2 24.1400 53.7855 41.4563 0.0000 -3.6483 0.0000
# 3 28.5283 41.4563 140.3714 0.0000 -4.2974 0.0000
# 4 0.0000 0.0000 0.0000 13.3323 0.0000 3.9334
# 5 -0.0094 -3.6483 -4.2974 0.0000 24.2837 0.0000
# 6 0.0000 0.0000 0.0000 3.9334 0.0000 19.3291
#
#
#
# Elastic Compliance Matrix: (Units=1/GPa)
#
#
# Indices 1 2 3 4 5 6 
#
# 1 0.026539 -0.010151 -0.002455 0.000000 -0.001949 0.000000
# 2 -0.010151 0.028091 -0.006137 0.000000 0.003130 0.000000
# 3 -0.002455 -0.006137 0.009459 0.000000 0.000751 0.000000
# 4 0.000000 0.000000 0.000000 0.079797 0.000000 -0.016239
# 5 -0.001949 0.003130 0.000751 0.000000 0.041782 0.000000
# 6 0.000000 0.000000 0.000000 -0.016239 0.000000 0.055040
#
#
# Mechanical properties :
#
#
# Convention : Reuss Voigt Hill
#
# Bulk Modulus (GPa) = 37.59222 47.99544 42.79383
# Shear Modulus (GPa) = 17.41783 21.36134 19.38958
#
# Velocity S-wave (km/s) = 3.23839 3.58630 3.41678
# Velocity P-wave (km/s) = 6.05120 6.78576 6.42898
#
# Compressibility (1/GPa) = 0.02660125
#
# Stress axis : x y z
#
# Youngs Moduli (GPa) = 37.68051 35.59840 105.72442
#
# Poissons Ratio (x) = 0.36135 0.25960
# Poissons Ratio (y) = 0.38249 0.64887
# Poissons Ratio (z) = 0.09252 0.21848
#
# Static dielectric constant tensor:
#      x y z
#    x 3.015090 0.000000 0.142050 
#    y 0.000000 2.910420 0.000000 
#    z 0.142050 0.000000 3.546210 
# 
# 
# High freq. dielectric constant tensor:
#      x y z
#    x 1.625190 0.000000 0.012630 
#    y 0.000000 1.601780 0.000000 
#    z 0.012630 0.000000 1.659540 
# 
# From -- ./inp_files/147844.got.cif
#   From: 2010.06.25/outbox.cif.g09.slc.cpg/sg15_74_cif.got.tgz:147844.got - 2010.06.28 07:06:18.
