data_PCOD8131348
_publ_section_title
;
Structure prediction by ZEFSAII (Michael W. Deem and Ramdas Pophale) SiO2 
 PCOD8131348
Probable space group: C 2/C
;
_chemical_formula_sum "Si O2"
_cell_formula_units_Z 60
_cell_length_a 13.562779
_cell_length_b 23.392314
_cell_length_c 11.441933
_cell_angle_alpha 90.000000
_cell_angle_beta 60.521414
_cell_angle_gamma 90.000000
_cell_volume 3160.165590
_symmetry_space_group_name_H-M "C 2/C"
_symmetry_group_IT_number 15
_symmetry_cell_setting 'monoclinic'
loop_
_space_group_symop_operation_xyz
x,y,z
-x,y,1/2-z
-x,-y,-z
x,-y,1/2+z
1/2+x,1/2+y,z
1/2-x,1/2+y,1/2-z
1/2-x,1/2-y,-z
1/2+x,1/2-y,1/2+z
loop_
_atom_site_type_symbol
_atom_site_label
_atom_site_fract_x
_atom_site_fract_y
_atom_site_fract_z
Si Si1 0.917326 0.510342 0.898584
Si Si2 0.978801 0.907644 0.506266
Si Si3 0.341422 0.317710 0.450219
Si Si4 0.189776 0.108126 0.732891
Si Si5 0.564620 0.906950 0.435953
Si Si6 0.500000 0.431753 0.750000
Si Si7 0.671149 0.515254 0.546651
Si Si8 0.908357 0.689788 0.403246
O O1 0.000000 0.486826 0.750000
O O2 0.960760 0.574274 0.911722
O O3 0.916844 0.464138 0.000728
O O4 0.787509 0.512246 0.929140
O O5 0.928475 0.852964 0.474957
O O6 0.977329 0.895273 0.645947
O O7 0.108167 0.912936 0.383840
O O8 0.909121 0.965654 0.515289
O O9 0.347030 0.330633 0.305353
O O10 0.213585 0.334566 0.567447
O O11 0.377984 0.253612 0.461634
O O12 0.319383 0.106563 0.704407
O O13 0.186566 0.070097 0.618095
O O14 0.537643 0.850097 0.526450
O O15 0.610768 0.468822 0.661812
O O16 0.000000 0.690119 0.250000
#
# Coordination Sequence:
#
# PCOD8131348 Si02
#       8
#     8   8   8   8   8   4   8   8
#     4  10  21  34  52  73 112 144 177 211 269 320
#     4  11  21  35  53  76 114 138 182 225 271 325
#     4   9  19  34  55  87 103 137 179 226 277 323
#     4   9  17  34  56  75 110 137 175 225 276 313
#     4   9  20  33  50  83 104 141 178 219 265 327
#     4  12  24  32  50  82 104 150 176 216 276 320
#     4  10  20  34  52  78 104 142 180 222 261 324
#     4  10  18  32  58  82 109 133 175 227 280 310
#
# _framework density 18.986346999999999
#
# number of rings (size 3 to 8) (size 9 to 14) (size 15 to 20)
#    0.000    2.133    1.333    3.600    1.867    3.200 
#    0.000    0.000    1.467    0.000    0.000    4.667 
#    0.000    0.000    0.000    0.000    0.000    0.000 
#
# Total GULP energy -371651.407458 kJ/mol
# GULP energy per Si atom -12388.380249 kJ/mol
# Density = 1.894313 g / cm^3
# Si number density = 18.986347 Si / 1000 Ang^3
#
#
#
# Elastic Constant Matrix: (Units=GPa)
#
#
# Indices 1 2 3 4 5 6 
#
# 1 83.4885 28.3781 48.3591 0.0000 -19.8886 0.0000
# 2 28.3781 67.8827 12.6194 0.0000 -5.1058 0.0000
# 3 48.3591 12.6194 105.7790 0.0000 -18.9960 0.0000
# 4 0.0000 0.0000 0.0000 20.1085 0.0000 -5.3999
# 5 -19.8886 -5.1058 -18.9960 0.0000 32.5771 0.0000
# 6 0.0000 0.0000 0.0000 -5.3999 0.0000 17.8229
#
#
#
# Elastic Compliance Matrix: (Units=1/GPa)
#
#
# Indices 1 2 3 4 5 6 
#
# 1 0.019972 -0.006501 -0.007091 0.000000 0.007039 0.000000
# 2 -0.006501 0.017245 0.000768 0.000000 -0.000819 0.000000
# 3 -0.007091 0.000768 0.013234 0.000000 0.003508 0.000000
# 4 0.000000 0.000000 0.000000 0.054134 0.000000 0.016401
# 5 0.007039 -0.000819 0.003508 0.000000 0.036911 0.000000
# 6 0.000000 0.000000 0.000000 0.016401 0.000000 0.061077
#
#
# Mechanical properties :
#
#
# Convention : Reuss Voigt Hill
#
# Bulk Modulus (GPa) = 40.31967 48.42927 44.37447
# Shear Modulus (GPa) = 21.14269 25.28795 23.21532
#
# Velocity S-wave (km/s) = 3.34065 3.65348 3.50056
# Velocity P-wave (km/s) = 6.01349 6.58483 6.30564
#
# Compressibility (1/GPa) = 0.02480179
#
# Stress axis : x y z
#
# Youngs Moduli (GPa) = 50.07113 57.98831 75.56458
#
# Poissons Ratio (x) = 0.37701 0.53580
# Poissons Ratio (y) = 0.32553 -0.05803
# Poissons Ratio (z) = 0.35504 -0.04453
#
# Static dielectric constant tensor:
#      x y z
#    x 3.875000 0.000000 -0.252690 
#    y 0.000000 3.491480 0.000000 
#    z -0.252690 0.000000 3.425910 
# 
# 
# High freq. dielectric constant tensor:
#      x y z
#    x 1.734580 0.000000 -0.027980 
#    y 0.000000 1.718830 0.000000 
#    z -0.027980 0.000000 1.728440 
# 
# From -- ./inp_files/100466.got.cif
#   From: 2010.06.25/outbox.cif.g09.slc.cpg/sg15_51_cif.got.tgz:100466.got - 2010.06.28 07:06:18.
