data_PCOD8131666
_publ_section_title
;
Structure prediction by ZEFSAII (Michael W. Deem and Ramdas Pophale) SiO2 
 PCOD8131666
Probable space group: C 2/C
;
_chemical_formula_sum "Si O2"
_cell_formula_units_Z 56
_cell_length_a 11.317296
_cell_length_b 13.056065
_cell_length_c 27.274030
_cell_angle_alpha 90.000000
_cell_angle_beta 133.387388
_cell_angle_gamma 90.000000
_cell_volume 2928.700276
_symmetry_space_group_name_H-M "C 2/C"
_symmetry_group_IT_number 15
_symmetry_cell_setting 'monoclinic'
loop_
_space_group_symop_operation_xyz
x,y,z
-x,y,1/2-z
-x,-y,-z
x,-y,1/2+z
1/2+x,1/2+y,z
1/2-x,1/2+y,1/2-z
1/2-x,1/2-y,-z
1/2+x,1/2-y,1/2+z
loop_
_atom_site_type_symbol
_atom_site_label
_atom_site_fract_x
_atom_site_fract_y
_atom_site_fract_z
Si Si1 0.547136 0.981708 0.866446
Si Si2 0.613818 0.186716 0.664279
Si Si3 0.734430 0.205461 0.589984
Si Si4 0.558445 0.790281 0.713822
Si Si5 0.850326 0.515074 0.991530
Si Si6 0.134167 0.171849 0.437347
Si Si7 0.885319 0.078975 0.439651
O O1 0.435126 0.079940 0.824521
O O2 0.431536 0.885739 0.820764
O O3 0.609564 0.982260 0.939966
O O4 0.712013 0.977820 0.879782
O O5 0.637421 0.173074 0.612025
O O6 0.770731 0.231962 0.735855
O O7 0.458574 0.260824 0.629921
O O8 0.728649 0.122762 0.545353
O O9 0.664301 0.313137 0.547928
O O10 0.924378 0.210686 0.656947
O O11 0.500000 0.832218 0.750000
O O12 0.738685 0.419037 0.944694
O O13 0.000000 0.500000 0.000000
O O14 0.250000 0.250000 0.500000
O O15 0.984517 0.114508 0.421154
O O16 0.000000 0.000000 0.500000
#
# Coordination Sequence:
#
# PCOD8131666 Si02
#       7
#     8   8   8   8   8   8   8
#     4  11  21  36  64  87 117 153 202 251 298 351
#     4  10  19  39  62  81 116 162 199 234 296 371
#     4   9  20  35  58  88 118 154 194 240 301 366
#     4   9  21  39  59  80 114 162 203 238 289 361
#     4  12  21  35  60  95 121 150 192 250 310 360
#     4  11  20  36  59  87 118 159 195 237 305 370
#     4  10  18  34  54  85 115 154 189 235 295 357
#
# _framework density 19.121110999999999
#
# number of rings (size 3 to 8) (size 9 to 14) (size 15 to 20)
#    0.000    1.714    4.286    1.714    0.000    3.429 
#    0.000    0.000    3.143    0.000    0.000    0.000 
#    0.000    0.000    0.000    0.000    0.000    0.000 
#
# Total GULP energy -346870.018358 kJ/mol
# GULP energy per Si atom -12388.214941 kJ/mol
# Density = 1.907759 g / cm^3
# Si number density = 19.121111 Si / 1000 Ang^3
#
#
#
# Elastic Constant Matrix: (Units=GPa)
#
#
# Indices 1 2 3 4 5 6 
#
# 1 93.7698 52.2644 32.0390 0.0000 28.8529 0.0000
# 2 52.2644 143.4130 50.8399 0.0000 26.5660 0.0000
# 3 32.0390 50.8399 83.4788 0.0000 27.4331 0.0000
# 4 0.0000 0.0000 0.0000 37.7526 0.0000 4.2750
# 5 28.8529 26.5660 27.4331 0.0000 29.3108 0.0000
# 6 0.0000 0.0000 0.0000 4.2750 0.0000 37.7040
#
#
#
# Elastic Compliance Matrix: (Units=1/GPa)
#
#
# Indices 1 2 3 4 5 6 
#
# 1 0.016766 -0.003714 0.000209 0.000000 -0.013333 0.000000
# 2 -0.003714 0.010111 -0.004220 0.000000 -0.001558 0.000000
# 3 0.000209 -0.004220 0.019178 0.000000 -0.014330 0.000000
# 4 0.000000 0.000000 0.000000 0.026833 0.000000 -0.003042
# 5 -0.013333 -0.001558 -0.014330 0.000000 0.062066 0.000000
# 6 0.000000 0.000000 0.000000 -0.003042 0.000000 0.026867
#
#
# Mechanical properties :
#
#
# Convention : Reuss Voigt Hill
#
# Bulk Modulus (GPa) = 32.67543 65.66091 49.16817
# Shear Modulus (GPa) = 26.67030 33.32136 29.99583
#
# Velocity S-wave (km/s) = 3.73877 4.17903 3.96501
# Velocity P-wave (km/s) = 5.98027 7.59604 6.83606
#
# Compressibility (1/GPa) = 0.03060403
#
# Stress axis : x y z
#
# Youngs Moduli (GPa) = 59.64533 98.90034 52.14196
#
# Poissons Ratio (x) = 0.36734 -0.01089
# Poissons Ratio (y) = 0.22154 0.22005
# Poissons Ratio (z) = -0.01246 0.41739
#
# Static dielectric constant tensor:
#      x y z
#    x 7.913350 0.000000 -3.880040 
#    y 0.000000 3.905710 0.000000 
#    z -3.880040 0.000000 7.465130 
# 
# 
# High freq. dielectric constant tensor:
#      x y z
#    x 1.733220 0.000000 0.033880 
#    y 0.000000 1.759720 0.000000 
#    z 0.033880 0.000000 1.722110 
# 
# From -- ./inp_files/268743.got.cif
#   From: 2010.06.25/outbox.cif.g09.slc.cpg/sg15_135_cif.got.tgz:268743.got - 2010.06.28 07:06:18.
