data_PCOD8131491
_publ_section_title
;
Structure prediction by ZEFSAII (Michael W. Deem and Ramdas Pophale) SiO2 
 PCOD8131491
Probable space group: C 2/C
;
_chemical_formula_sum "Si O2"
_cell_formula_units_Z 64
_cell_length_a 23.493440
_cell_length_b 20.080900
_cell_length_c 9.081932
_cell_angle_alpha 90.000000
_cell_angle_beta 123.766779
_cell_angle_gamma 90.000000
_cell_volume 3561.798985
_symmetry_space_group_name_H-M "C 2/C"
_symmetry_group_IT_number 15
_symmetry_cell_setting 'monoclinic'
loop_
_space_group_symop_operation_xyz
x,y,z
-x,y,1/2-z
-x,-y,-z
x,-y,1/2+z
1/2+x,1/2+y,z
1/2-x,1/2+y,1/2-z
1/2-x,1/2-y,-z
1/2+x,1/2-y,1/2+z
loop_
_atom_site_type_symbol
_atom_site_label
_atom_site_fract_x
_atom_site_fract_y
_atom_site_fract_z
Si Si1 0.493111 0.913761 0.893786
Si Si2 0.041831 0.835540 0.659012
Si Si3 0.447213 0.810844 0.299050
Si Si4 0.631991 0.490371 0.489871
Si Si5 0.330612 0.090956 0.571725
Si Si6 0.549057 0.440182 0.107395
Si Si7 0.386348 0.007934 0.383962
Si Si8 0.179496 0.915071 0.827333
O O1 0.500000 0.874298 0.750000
O O2 0.414789 0.936748 0.809869
O O3 0.516267 0.865240 0.052311
O O4 0.544185 0.976865 0.948504
O O5 0.062173 0.760723 0.635369
O O6 0.114997 0.871094 0.783103
O O7 0.000000 0.839644 0.750000
O O8 0.993113 0.871019 0.467262
O O9 0.500000 0.792993 0.250000
O O10 0.376944 0.842567 0.137123
O O11 0.575059 0.449230 0.312943
O O12 0.605796 0.550091 0.560003
O O13 0.671847 0.436725 0.646249
O O14 0.682405 0.521570 0.441017
O O15 0.341518 0.047948 0.736429
O O16 0.253336 0.119647 0.452221
O O17 0.343425 0.043288 0.450218
O O18 0.500000 0.500000 0.000000
#
# Coordination Sequence:
#
# PCOD8131491 Si02
#       8
#     8   8   8   8   8   8   8   8
#     4  10  18  33  55  82 107 134 173 230 270 312
#     4  11  21  36  56  81 105 145 187 223 272 318
#     4  10  22  37  56  78 106 145 190 222 262 323
#     4  10  20  32  53  84 108 133 173 223 281 318
#     4  11  21  36  54  81 113 142 183 219 273 320
#     4  11  17  32  57  80 106 134 175 232 271 318
#     4  10  19  31  56  83 105 139 175 220 272 321
#     4  11  22  34  54  80 112 145 176 224 270 330
#
# _framework density 17.968447999999999
#
# number of rings (size 3 to 8) (size 9 to 14) (size 15 to 20)
#    0.000    1.500    6.250    1.125    0.000    0.500 
#    2.250    0.000    0.000    0.000    0.000    2.625 
#    0.000    0.000    0.000    0.000    0.000    0.000 
#
# Total GULP energy -396472.599619 kJ/mol
# GULP energy per Si atom -12389.768738 kJ/mol
# Density = 1.792755 g / cm^3
# Si number density = 17.968448 Si / 1000 Ang^3
#
#
#
# Elastic Constant Matrix: (Units=GPa)
#
#
# Indices 1 2 3 4 5 6 
#
# 1 61.5970 19.2950 29.4868 0.0000 14.1565 0.0000
# 2 19.2950 88.7821 27.7330 0.0000 10.7837 0.0000
# 3 29.4868 27.7330 80.5959 0.0000 9.8481 0.0000
# 4 0.0000 0.0000 0.0000 77.2329 0.0000 27.9801
# 5 14.1565 10.7837 9.8481 0.0000 35.3961 0.0000
# 6 0.0000 0.0000 0.0000 27.9801 0.0000 27.9620
#
#
#
# Elastic Compliance Matrix: (Units=1/GPa)
#
#
# Indices 1 2 3 4 5 6 
#
# 1 0.021302 -0.001884 -0.006392 0.000000 -0.006167 0.000000
# 2 -0.001884 0.013047 -0.003526 0.000000 -0.002240 0.000000
# 3 -0.006392 -0.003526 0.016062 0.000000 -0.000838 0.000000
# 4 0.000000 0.000000 0.000000 0.020311 0.000000 -0.020324
# 5 -0.006167 -0.002240 -0.000838 0.000000 0.031634 0.000000
# 6 0.000000 0.000000 0.000000 -0.020324 0.000000 0.056100
#
#
# Mechanical properties :
#
#
# Convention : Reuss Voigt Hill
#
# Bulk Modulus (GPa) = 37.30436 42.66715 39.98576
# Shear Modulus (GPa) = 26.17881 38.41554 32.29718
#
# Velocity S-wave (km/s) = 3.82112 4.62881 4.24422
# Velocity P-wave (km/s) = 6.34618 7.23636 6.80584
#
# Compressibility (1/GPa) = 0.02680652
#
# Stress axis : x y z
#
# Youngs Moduli (GPa) = 46.94443 76.64839 62.25926
#
# Poissons Ratio (x) = 0.14439 0.39794
# Poissons Ratio (y) = 0.08844 0.21955
# Poissons Ratio (z) = 0.30005 0.27029
#
# Static dielectric constant tensor:
#      x y z
#    x 3.005990 0.000000 -0.002250 
#    y 0.000000 3.159280 0.000000 
#    z -0.002250 0.000000 4.024210 
# 
# 
# High freq. dielectric constant tensor:
#      x y z
#    x 1.696460 0.000000 -0.007550 
#    y 0.000000 1.665930 0.000000 
#    z -0.007550 0.000000 1.695080 
# 
# From -- ./inp_files/63413.got.cif
#   From: 2010.06.25/outbox.cif.g09.slc.cpg/sg15_32_cif.got.tgz:63413.got - 2010.06.28 07:06:18.
