data_PCOD8131524
_publ_section_title
;
Structure prediction by ZEFSAII (Michael W. Deem and Ramdas Pophale) SiO2 
 PCOD8131524
Probable space group: C 2/C
;
_chemical_formula_sum "Si O2"
_cell_formula_units_Z 52
_cell_length_a 15.370865
_cell_length_b 8.906207
_cell_length_c 19.316023
_cell_angle_alpha 90.000000
_cell_angle_beta 88.731864
_cell_angle_gamma 90.000000
_cell_volume 2643.640661
_symmetry_space_group_name_H-M "C 2/C"
_symmetry_group_IT_number 15
_symmetry_cell_setting 'monoclinic'
loop_
_space_group_symop_operation_xyz
x,y,z
-x,y,1/2-z
-x,-y,-z
x,-y,1/2+z
1/2+x,1/2+y,z
1/2-x,1/2+y,1/2-z
1/2-x,1/2-y,-z
1/2+x,1/2-y,1/2+z
loop_
_atom_site_type_symbol
_atom_site_label
_atom_site_fract_x
_atom_site_fract_y
_atom_site_fract_z
Si Si1 0.088168 0.140998 0.870871
Si Si2 0.251094 0.194639 0.176406
Si Si3 0.500000 0.516337 0.750000
Si Si4 0.595708 0.341169 0.072371
Si Si5 0.922217 0.156966 0.376789
Si Si6 0.246307 0.161428 0.672995
Si Si7 0.603859 0.303901 0.918034
O O1 0.168695 0.254679 0.873477
O O2 0.068075 0.119760 0.789767
O O3 0.003012 0.212084 0.909065
O O4 0.113092 0.980686 0.902891
O O5 0.164627 0.253723 0.136573
O O6 0.255242 0.262366 0.252506
O O7 0.248639 0.016300 0.182069
O O8 0.555073 0.415768 0.697344
O O9 0.596937 0.523207 0.068116
O O10 0.662026 0.285121 0.130627
O O11 0.624717 0.273496 0.998226
O O12 0.004608 0.251848 0.403066
O O13 0.332378 0.209172 0.630529
#
# Coordination Sequence:
#
# PCOD8131524 Si02
#       7
#     8   8   4   8   8   8   8
#     4  10  18  33  57  79 106 141 182 224 260 315
#     4  11  21  36  54  84 109 139 178 222 275 311
#     4   8  14  30  52  74 100 142 180 214 262 312
#     4   9  19  36  57  79 106 146 181 208 261 332
#     4   9  17  31  53  78 107 139 177 221 262 317
#     4  11  22  36  57  80 110 140 177 225 266 318
#     4  10  19  37  58  80 104 143 182 217 261 319
#
# _framework density 19.669843
#
# number of rings (size 3 to 8) (size 9 to 14) (size 15 to 20)
#    0.000    2.462    0.000    7.846    0.000    0.000 
#    0.000   13.846    0.000    0.000    0.000    0.000 
#    0.000    0.000    0.000    0.000    0.000    0.000 
#
# Total GULP energy -322243.934489 kJ/mol
# GULP energy per Si atom -12393.997480 kJ/mol
# Density = 1.962507 g / cm^3
# Si number density = 19.669843 Si / 1000 Ang^3
#
#
#
# Elastic Constant Matrix: (Units=GPa)
#
#
# Indices 1 2 3 4 5 6 
#
# 1 164.9673 41.7407 42.2026 0.0000 12.5086 0.0000
# 2 41.7407 45.1636 26.6918 0.0000 3.8507 0.0000
# 3 42.2026 26.6918 91.7235 0.0000 4.0354 0.0000
# 4 0.0000 0.0000 0.0000 12.2964 0.0000 -1.8621
# 5 12.5086 3.8507 4.0354 0.0000 16.8008 0.0000
# 6 0.0000 0.0000 0.0000 -1.8621 0.0000 36.4737
#
#
#
# Elastic Compliance Matrix: (Units=1/GPa)
#
#
# Indices 1 2 3 4 5 6 
#
# 1 0.008482 -0.006366 -0.001856 0.000000 -0.004410 0.000000
# 2 -0.006366 0.031830 -0.006288 0.000000 -0.001045 0.000000
# 3 -0.001856 -0.006288 0.013606 0.000000 -0.000445 0.000000
# 4 0.000000 0.000000 0.000000 0.081958 0.000000 0.004184
# 5 -0.004410 -0.001045 -0.000445 0.000000 0.063151 0.000000
# 6 0.000000 0.000000 0.000000 0.004184 0.000000 0.027631
#
#
# Mechanical properties :
#
#
# Convention : Reuss Voigt Hill
#
# Bulk Modulus (GPa) = 40.16324 58.12497 49.14410
# Shear Modulus (GPa) = 18.94108 25.86212 22.40160
#
# Velocity S-wave (km/s) = 3.10651 3.62997 3.37839
# Velocity P-wave (km/s) = 5.77323 6.86901 6.34482
#
# Compressibility (1/GPa) = 0.02489839
#
# Stress axis : x y z
#
# Youngs Moduli (GPa) = 117.89996 31.41641 73.49914
#
# Poissons Ratio (x) = 0.20000 0.13641
# Poissons Ratio (y) = 0.75056 0.46214
# Poissons Ratio (z) = 0.21882 0.19754
#
# Static dielectric constant tensor:
#      x y z
#    x 4.074090 0.000000 0.087580 
#    y 0.000000 3.124590 0.000000 
#    z 0.087580 0.000000 3.656740 
# 
# 
# High freq. dielectric constant tensor:
#      x y z
#    x 1.789630 0.000000 0.001880 
#    y 0.000000 1.708030 0.000000 
#    z 0.001880 0.000000 1.775270 
# 
# From -- ./inp_files/242493.got.cif
#   From: 2010.06.25/outbox.cif.g09.slc.cpg/sg15_122_cif.got.tgz:242493.got - 2010.06.28 07:06:18.
