data_PCOD8131925
_publ_section_title
;
Structure prediction by ZEFSAII (Michael W. Deem and Ramdas Pophale) SiO2 
 PCOD8131925
Probable space group: C 2/C
;
_chemical_formula_sum "Si O2"
_cell_formula_units_Z 56
_cell_length_a 20.873431
_cell_length_b 7.051229
_cell_length_c 22.024907
_cell_angle_alpha 90.000000
_cell_angle_beta 106.812487
_cell_angle_gamma 90.000000
_cell_volume 3103.137787
_symmetry_space_group_name_H-M "C 2/C"
_symmetry_group_IT_number 15
_symmetry_cell_setting 'monoclinic'
loop_
_space_group_symop_operation_xyz
x,y,z
-x,y,1/2-z
-x,-y,-z
x,-y,1/2+z
1/2+x,1/2+y,z
1/2-x,1/2+y,1/2-z
1/2-x,1/2-y,-z
1/2+x,1/2-y,1/2+z
loop_
_atom_site_type_symbol
_atom_site_label
_atom_site_fract_x
_atom_site_fract_y
_atom_site_fract_z
Si Si1 0.188185 0.393744 0.242959
Si Si2 0.168317 0.887085 0.424684
Si Si3 0.086113 0.715291 0.213189
Si Si4 0.344465 0.197749 0.629955
Si Si5 0.438174 0.134340 0.155363
Si Si6 0.768089 0.932806 0.930463
Si Si7 0.327073 0.517135 0.318552
O O1 0.146280 0.576826 0.213049
O O2 0.174416 0.313059 0.305389
O O3 0.266359 0.443625 0.259598
O O4 0.165216 0.240529 0.187994
O O5 0.100974 0.762139 0.404153
O O6 0.183550 0.924924 0.498989
O O7 0.229974 0.770564 0.410026
O O8 0.152249 0.083790 0.387116
O O9 0.079348 0.726990 0.283954
O O10 0.017101 0.642055 0.164693
O O11 0.105451 0.913848 0.186183
O O12 0.415293 0.085788 0.642720
O O13 0.288999 0.090994 0.573851
O O14 0.812670 0.002740 0.886155
#
# Coordination Sequence:
#
# PCOD8131925 Si02
#       7
#     8   8   8   8   8   8   8
#     4  10  20  30  51  78 104 133 169 213 270 321
#     4  10  18  35  55  74 106 143 179 222 257 306
#     4  10  20  36  51  77 110 133 171 224 265 320
#     4   9  18  32  54  77 101 136 178 218 261 310
#     4   9  20  35  54  76 103 139 178 216 264 317
#     4   9  21  32  50  82 108 135 179 220 263 313
#     4  11  20  32  52  78 106 138 167 216 276 318
#
# _framework density 18.046250000000001
#
# number of rings (size 3 to 8) (size 9 to 14) (size 15 to 20)
#    0.000    2.286    1.429    2.143    2.000    1.143 
#    0.000    3.571    0.000    1.714    0.000    0.000 
#    0.000    0.000    0.000    0.000    0.000    0.000 
#
# Total GULP energy -347096.657436 kJ/mol
# GULP energy per Si atom -12396.309194 kJ/mol
# Density = 1.800518 g / cm^3
# Si number density = 18.046250 Si / 1000 Ang^3
#
#
#
# Elastic Constant Matrix: (Units=GPa)
#
#
# Indices 1 2 3 4 5 6 
#
# 1 73.7163 13.5899 15.4054 0.0000 10.7138 0.0000
# 2 13.5899 71.8998 5.8130 0.0000 -3.0626 0.0000
# 3 15.4054 5.8130 46.7985 0.0000 13.0801 0.0000
# 4 0.0000 0.0000 0.0000 26.0683 0.0000 2.1247
# 5 10.7138 -3.0626 13.0801 0.0000 20.2476 0.0000
# 6 0.0000 0.0000 0.0000 2.1247 0.0000 25.1560
#
#
#
# Elastic Compliance Matrix: (Units=1/GPa)
#
#
# Indices 1 2 3 4 5 6 
#
# 1 0.015732 -0.003037 -0.002863 0.000000 -0.006934 0.000000
# 2 -0.003037 0.014902 -0.002356 0.000000 0.005383 0.000000
# 3 -0.002863 -0.002356 0.027189 0.000000 -0.016405 0.000000
# 4 0.000000 0.000000 0.000000 0.038627 0.000000 -0.003263
# 5 -0.006934 0.005383 -0.016405 0.000000 0.064470 0.000000
# 6 0.000000 0.000000 0.000000 -0.003263 0.000000 0.040028
#
#
# Mechanical properties :
#
#
# Convention : Reuss Voigt Hill
#
# Bulk Modulus (GPa) = 24.20747 29.11456 26.66101
# Shear Modulus (GPa) = 21.62360 24.80147 23.21253
#
# Velocity S-wave (km/s) = 3.46530 3.71122 3.59037
# Velocity P-wave (km/s) = 5.42719 5.87643 5.65627
#
# Compressibility (1/GPa) = 0.04130956
#
# Stress axis : x y z
#
# Youngs Moduli (GPa) = 63.56625 67.10477 36.78011
#
# Poissons Ratio (x) = 0.20382 0.10531
# Poissons Ratio (y) = 0.19307 0.08664
# Poissons Ratio (z) = 0.18201 0.15808
#
# Static dielectric constant tensor:
#      x y z
#    x 3.184520 0.000000 0.154560 
#    y 0.000000 3.466840 0.000000 
#    z 0.154560 0.000000 3.196750 
# 
# 
# High freq. dielectric constant tensor:
#      x y z
#    x 1.678010 0.000000 0.011270 
#    y 0.000000 1.707320 0.000000 
#    z 0.011270 0.000000 1.682550 
# 
# From -- ./inp_files/278981.got.cif
#   From: 2010.06.25/outbox.cif.g09.slc.cpg/sg15_140_cif.got.tgz:278981.got - 2010.06.28 07:06:18.
