data_PCOD8131727
_publ_section_title
;
Structure prediction by ZEFSAII (Michael W. Deem and Ramdas Pophale) SiO2 
 PCOD8131727
Probable space group: C 2/C
;
_chemical_formula_sum "Si O2"
_cell_formula_units_Z 56
_cell_length_a 17.658156
_cell_length_b 14.487861
_cell_length_c 13.758790
_cell_angle_alpha 90.000000
_cell_angle_beta 119.630813
_cell_angle_gamma 90.000000
_cell_volume 3059.596482
_symmetry_space_group_name_H-M "C 2/C"
_symmetry_group_IT_number 15
_symmetry_cell_setting 'monoclinic'
loop_
_space_group_symop_operation_xyz
x,y,z
-x,y,1/2-z
-x,-y,-z
x,-y,1/2+z
1/2+x,1/2+y,z
1/2-x,1/2+y,1/2-z
1/2-x,1/2-y,-z
1/2+x,1/2-y,1/2+z
loop_
_atom_site_type_symbol
_atom_site_label
_atom_site_fract_x
_atom_site_fract_y
_atom_site_fract_z
Si Si1 0.649985 0.197719 0.251543
Si Si2 0.492476 0.732560 0.543497
Si Si3 0.190928 0.071394 0.183741
Si Si4 0.304201 0.404745 0.178085
Si Si5 0.828044 0.680255 0.024007
Si Si6 0.017039 0.137620 0.152261
Si Si7 0.420384 0.553875 0.575219
O O1 0.562835 0.196627 0.131431
O O2 0.721537 0.130599 0.251059
O O3 0.685109 0.301942 0.274381
O O4 0.625310 0.159137 0.343526
O O5 0.396113 0.774709 0.492848
O O6 0.514033 0.715988 0.443474
O O7 0.492168 0.633539 0.599446
O O8 0.119599 0.122307 0.204372
O O9 0.208608 0.970500 0.238302
O O10 0.158803 0.062256 0.052070
O O11 0.385822 0.435113 0.162992
O O12 0.215755 0.408012 0.056122
O O13 0.750000 0.750000 0.000000
O O14 0.000000 0.173348 0.250000
O O15 0.966919 0.043648 0.094868
#
# Coordination Sequence:
#
# PCOD8131727 Si02
#       7
#     8   8   8   8   8   8   8
#     4  11  21  35  56  87 115 151 189 235 282 340
#     4  11  21  34  56  82 115 147 190 234 284 336
#     4  11  22  36  56  84 120 150 184 232 295 338
#     4  11  19  35  59  84 119 143 185 240 290 332
#     4  10  18  34  57  82 109 141 187 238 277 325
#     4  11  21  33  54  83 117 149 180 230 294 354
#     4  11  19  34  55  89 114 138 182 242 303 337
#
# _framework density 18.303066999999999
#
# number of rings (size 3 to 8) (size 9 to 14) (size 15 to 20)
#    0.000    1.143    5.714    6.429    0.000    0.000 
#    0.000    1.429    3.143    0.000    0.000    0.000 
#    0.000    0.000    0.000    0.000    0.000    0.000 
#
# Total GULP energy -347163.522486 kJ/mol
# GULP energy per Si atom -12398.697232 kJ/mol
# Density = 1.826141 g / cm^3
# Si number density = 18.303067 Si / 1000 Ang^3
#
#
#
# Elastic Constant Matrix: (Units=GPa)
#
#
# Indices 1 2 3 4 5 6 
#
# 1 86.6735 23.1876 25.9885 0.0000 -3.5676 0.0000
# 2 23.1876 35.9259 9.5227 0.0000 -1.9793 0.0000
# 3 25.9885 9.5227 69.6066 0.0000 -0.2531 0.0000
# 4 0.0000 0.0000 0.0000 33.5374 0.0000 6.2007
# 5 -3.5676 -1.9793 -0.2531 0.0000 31.7226 0.0000
# 6 0.0000 0.0000 0.0000 6.2007 0.0000 27.9639
#
#
#
# Elastic Compliance Matrix: (Units=1/GPa)
#
#
# Indices 1 2 3 4 5 6 
#
# 1 0.015230 -0.008572 -0.004509 0.000000 0.001142 0.000000
# 2 -0.008572 0.033806 -0.001421 0.000000 0.001134 0.000000
# 3 -0.004509 -0.001421 0.016243 0.000000 -0.000466 0.000000
# 4 0.000000 0.000000 0.000000 0.031092 0.000000 -0.006894
# 5 0.001142 0.001134 -0.000466 0.000000 0.031719 0.000000
# 6 0.000000 0.000000 0.000000 -0.006894 0.000000 0.037289
#
#
# Mechanical properties :
#
#
# Convention : Reuss Voigt Hill
#
# Bulk Modulus (GPa) = 27.56648 34.40040 30.98344
# Shear Modulus (GPa) = 24.21613 27.54527 25.88070
#
# Velocity S-wave (km/s) = 3.64134 3.88358 3.76441
# Velocity P-wave (km/s) = 5.72477 6.24062 5.98825
#
# Compressibility (1/GPa) = 0.03627594
#
# Stress axis : x y z
#
# Youngs Moduli (GPa) = 65.66069 29.58017 61.56591
#
# Poissons Ratio (x) = 0.25355 0.27763
# Poissons Ratio (y) = 0.56281 0.08746
# Poissons Ratio (z) = 0.29609 0.04202
#
# Static dielectric constant tensor:
#      x y z
#    x 3.344200 0.000000 0.005550 
#    y 0.000000 3.181580 0.000000 
#    z 0.005550 0.000000 3.876660 
# 
# 
# High freq. dielectric constant tensor:
#      x y z
#    x 1.701440 0.000000 -0.000870 
#    y 0.000000 1.668530 0.000000 
#    z -0.000870 0.000000 1.719780 
# 
# From -- ./inp_files/162015.got.cif
#   From: 2010.06.25/outbox.cif.g09.slc.cpg/sg15_82_cif.got.tgz:162015.got - 2010.06.28 07:06:18.
