data_PCOD8131615
_publ_section_title
;
Structure prediction by ZEFSAII (Michael W. Deem and Ramdas Pophale) SiO2 
 PCOD8131615
Probable space group: C 2/C
;
_chemical_formula_sum "Si O2"
_cell_formula_units_Z 60
_cell_length_a 11.184301
_cell_length_b 14.301804
_cell_length_c 19.977961
_cell_angle_alpha 90.000000
_cell_angle_beta 59.436928
_cell_angle_gamma 90.000000
_cell_volume 2751.625049
_symmetry_space_group_name_H-M "C 2/C"
_symmetry_group_IT_number 15
_symmetry_cell_setting 'monoclinic'
loop_
_space_group_symop_operation_xyz
x,y,z
-x,y,1/2-z
-x,-y,-z
x,-y,1/2+z
1/2+x,1/2+y,z
1/2-x,1/2+y,1/2-z
1/2-x,1/2-y,-z
1/2+x,1/2-y,1/2+z
loop_
_atom_site_type_symbol
_atom_site_label
_atom_site_fract_x
_atom_site_fract_y
_atom_site_fract_z
Si Si1 0.486290 0.701817 0.985613
Si Si2 0.007797 0.395588 0.467334
Si Si3 0.500000 0.976154 0.750000
Si Si4 0.117804 0.939980 0.672821
Si Si5 0.809308 0.558649 0.696848
Si Si6 0.783264 0.939738 0.600171
Si Si7 0.283906 0.397259 0.998536
Si Si8 0.559910 0.419973 0.348224
O O1 0.354543 0.659370 0.063093
O O2 0.631195 0.674718 0.980326
O O3 0.473047 0.814226 0.982839
O O4 0.492552 0.664360 0.908400
O O5 0.876279 0.369179 0.459118
O O6 0.000000 0.500000 0.500000
O O7 0.138743 0.383765 0.381550
O O8 0.438051 0.039362 0.708986
O O9 0.630576 0.921266 0.677394
O O10 0.246705 0.960254 0.685974
O O11 0.000000 0.884442 0.750000
O O12 0.054804 0.040832 0.669569
O O13 0.161917 0.887768 0.593176
O O14 0.692502 0.618265 0.769034
O O15 0.785178 0.998317 0.529878
O O16 0.886053 0.994289 0.620968
#
# Coordination Sequence:
#
# PCOD8131615 Si02
#       8
#     8   8   4   8   8   8   8   8
#     4  11  22  39  66  96 124 167 219 266 305 384
#     4  12  25  41  60  91 134 171 210 264 326 374
#     4  10  20  36  64  94 122 174 208 254 322 388
#     4  10  18  33  63  92 124 163 204 258 318 378
#     4  10  21  37  61  87 129 172 204 255 324 379
#     4  10  18  35  67  92 125 160 212 255 317 377
#     4  11  19  39  63  93 126 164 210 260 316 380
#     4   9  18  37  63  95 121 165 213 258 319 379
#
# _framework density 21.805296999999999
#
# number of rings (size 3 to 8) (size 9 to 14) (size 15 to 20)
#    0.000    1.600    5.333    1.200    0.000    0.000 
#    0.000    6.667    4.400    0.000    0.000    0.000 
#    0.000    0.000    0.000    0.000    0.000    0.000 
#
# Total GULP energy -371684.171791 kJ/mol
# GULP energy per Si atom -12389.472393 kJ/mol
# Density = 2.175567 g / cm^3
# Si number density = 21.805297 Si / 1000 Ang^3
#
#
#
# Elastic Constant Matrix: (Units=GPa)
#
#
# Indices 1 2 3 4 5 6 
#
# 1 63.8932 7.0330 7.2836 0.0000 -5.6652 0.0000
# 2 7.0330 105.8180 35.4890 0.0000 -10.4706 0.0000
# 3 7.2836 35.4890 139.7970 0.0000 -14.8181 0.0000
# 4 0.0000 0.0000 0.0000 19.6276 0.0000 2.1770
# 5 -5.6652 -10.4706 -14.8181 0.0000 39.8446 0.0000
# 6 0.0000 0.0000 0.0000 2.1770 0.0000 11.2930
#
#
#
# Elastic Compliance Matrix: (Units=1/GPa)
#
#
# Indices 1 2 3 4 5 6 
#
# 1 0.015951 -0.000722 -0.000445 0.000000 0.001913 0.000000
# 2 -0.000722 0.010489 -0.002440 0.000000 0.001746 0.000000
# 3 -0.000445 -0.002440 0.008038 0.000000 0.002285 0.000000
# 4 0.000000 0.000000 0.000000 0.052062 0.000000 -0.010036
# 5 0.001913 0.001746 0.002285 0.000000 0.026678 0.000000
# 6 0.000000 0.000000 0.000000 -0.010036 0.000000 0.090485
#
#
# Mechanical properties :
#
#
# Convention : Reuss Voigt Hill
#
# Bulk Modulus (GPa) = 36.67764 45.45770 41.06767
# Shear Modulus (GPa) = 22.72674 31.46655 27.09664
#
# Velocity S-wave (km/s) = 3.23190 3.80290 3.52897
# Velocity P-wave (km/s) = 5.54833 6.33838 5.95647
#
# Compressibility (1/GPa) = 0.02726457
#
# Stress axis : x y z
#
# Youngs Moduli (GPa) = 62.69248 95.33512 124.40819
#
# Poissons Ratio (x) = 0.06879 0.05538
# Poissons Ratio (y) = 0.04524 0.30357
# Poissons Ratio (z) = 0.02791 0.23263
#
# Static dielectric constant tensor:
#      x y z
#    x 4.169180 0.000000 -0.137860 
#    y 0.000000 3.263460 0.000000 
#    z -0.137860 0.000000 4.388810 
# 
# 
# High freq. dielectric constant tensor:
#      x y z
#    x 1.870310 0.000000 -0.007250 
#    y 0.000000 1.784150 0.000000 
#    z -0.007250 0.000000 1.882430 
# 
# From -- ./inp_files/238701.got.cif
#   From: 2010.06.25/outbox.cif.g09.slc.cpg/sg15_120_cif.got.tgz:238701.got - 2010.06.28 07:06:18.
