data_PCOD8131332
_publ_section_title
;
Structure prediction by ZEFSAII (Michael W. Deem and Ramdas Pophale) SiO2 
 PCOD8131332
Probable space group: C 2/C
;
_chemical_formula_sum "Si O2"
_cell_formula_units_Z 48
_cell_length_a 8.803692
_cell_length_b 23.780993
_cell_length_c 11.724146
_cell_angle_alpha 90.000000
_cell_angle_beta 87.084741
_cell_angle_gamma 90.000000
_cell_volume 2451.396921
_symmetry_space_group_name_H-M "C 2/C"
_symmetry_group_IT_number 15
_symmetry_cell_setting 'monoclinic'
loop_
_space_group_symop_operation_xyz
x,y,z
-x,y,1/2-z
-x,-y,-z
x,-y,1/2+z
1/2+x,1/2+y,z
1/2-x,1/2+y,1/2-z
1/2-x,1/2-y,-z
1/2+x,1/2-y,1/2+z
loop_
_atom_site_type_symbol
_atom_site_label
_atom_site_fract_x
_atom_site_fract_y
_atom_site_fract_z
Si Si1 0.500000 0.982486 0.750000
Si Si2 0.979342 0.119919 0.875581
Si Si3 0.000000 0.154291 0.250000
Si Si4 0.763884 0.531752 0.615184
Si Si5 0.046595 0.395190 0.558094
Si Si6 0.293486 0.691983 0.057714
Si Si7 0.792233 0.093976 0.445817
O O1 0.560074 0.944050 0.648009
O O2 0.351560 0.019409 0.729008
O O3 0.898620 0.059865 0.858074
O O4 0.000000 0.147962 0.750000
O O5 0.878194 0.159999 0.954801
O O6 0.136400 0.110291 0.935657
O O7 0.898304 0.193983 0.169153
O O8 0.893537 0.114257 0.333237
O O9 0.877498 0.576280 0.553551
O O10 0.733395 0.473074 0.551925
O O11 0.138809 0.340473 0.596186
O O12 0.872065 0.375805 0.548318
O O13 0.250000 0.750000 0.000000
#
# Coordination Sequence:
#
# PCOD8131332 Si02
#       7
#     4   8   4   8   8   8   8
#     4  10  18  32  57  86 115 154 194 224 288 352
#     4  10  23  37  55  88 122 154 194 244 295 352
#     4  10  22  40  65  90 115 156 194 244 298 354
#     4  10  21  32  56  84 122 159 188 236 282 356
#     4  10  21  37  58  88 115 153 201 241 279 351
#     4  10  22  46  62  85 117 150 205 252 296 346
#     4  10  20  38  59  88 121 157 196 232 294 360
#
# _framework density 19.580672
#
# number of rings (size 3 to 8) (size 9 to 14) (size 15 to 20)
#    0.000    2.000    0.000    4.500    5.833    0.000 
#    7.500    1.667    0.000    0.000    0.000    0.000 
#    0.000    0.000    0.000    0.000    0.000    0.000 
#
# Total GULP energy -297377.789612 kJ/mol
# GULP energy per Si atom -12390.741234 kJ/mol
# Density = 1.953611 g / cm^3
# Si number density = 19.580672 Si / 1000 Ang^3
#
#
#
# Elastic Constant Matrix: (Units=GPa)
#
#
# Indices 1 2 3 4 5 6 
#
# 1 149.6940 46.3339 61.6572 0.0000 25.0185 0.0000
# 2 46.3339 77.2706 24.4451 0.0000 25.0265 0.0000
# 3 61.6572 24.4451 120.4619 0.0000 26.9364 0.0000
# 4 0.0000 0.0000 0.0000 27.0301 0.0000 4.5133
# 5 25.0185 25.0265 26.9364 0.0000 37.7986 0.0000
# 6 0.0000 0.0000 0.0000 4.5133 0.0000 16.8048
#
#
#
# Elastic Compliance Matrix: (Units=1/GPa)
#
#
# Indices 1 2 3 4 5 6 
#
# 1 0.009789 -0.004371 -0.003952 0.000000 -0.000770 0.000000
# 2 -0.004371 0.018544 0.000681 0.000000 -0.009870 0.000000
# 3 -0.003952 0.000681 0.011541 0.000000 -0.006060 0.000000
# 4 0.000000 0.000000 0.000000 0.038733 0.000000 -0.010402
# 5 -0.000770 -0.009870 -0.006060 0.000000 0.037819 0.000000
# 6 0.000000 0.000000 0.000000 -0.010402 0.000000 0.062301
#
#
# Mechanical properties :
#
#
# Convention : Reuss Voigt Hill
#
# Bulk Modulus (GPa) = 40.66436 68.03322 54.34879
# Shear Modulus (GPa) = 24.72737 30.65939 27.69338
#
# Velocity S-wave (km/s) = 3.55751 3.96131 3.76483
# Velocity P-wave (km/s) = 6.13899 7.46613 6.83485
#
# Compressibility (1/GPa) = 0.02459156
#
# Stress axis : x y z
#
# Youngs Moduli (GPa) = 102.15197 53.92700 86.64962
#
# Poissons Ratio (x) = 0.23569 0.34240
# Poissons Ratio (y) = 0.44647 -0.05902
# Poissons Ratio (z) = 0.40366 -0.03673
#
# Static dielectric constant tensor:
#      x y z
#    x 3.979560 0.000000 0.181380 
#    y 0.000000 3.387770 0.000000 
#    z 0.181380 0.000000 3.506100 
# 
# 
# High freq. dielectric constant tensor:
#      x y z
#    x 1.782010 0.000000 0.007540 
#    y 0.000000 1.732110 0.000000 
#    z 0.007540 0.000000 1.767940 
# 
# From -- ./inp_files/79300.got.cif
#   From: 2010.06.25/outbox.cif.g09.slc.cpg/sg15_40_cif.got.tgz:79300.got - 2010.06.28 07:06:18.
