data_PCOD8131262
_publ_section_title
;
Structure prediction by ZEFSAII (Michael W. Deem and Ramdas Pophale) SiO2 
 PCOD8131262
Probable space group: C 2/C
;
_chemical_formula_sum "Si O2"
_cell_formula_units_Z 40
_cell_length_a 11.795988
_cell_length_b 19.718136
_cell_length_c 7.973439
_cell_angle_alpha 90.000000
_cell_angle_beta 66.091889
_cell_angle_gamma 90.000000
_cell_volume 1695.451825
_symmetry_space_group_name_H-M "C 2/C"
_symmetry_group_IT_number 15
_symmetry_cell_setting 'monoclinic'
loop_
_space_group_symop_operation_xyz
x,y,z
-x,y,1/2-z
-x,-y,-z
x,-y,1/2+z
1/2+x,1/2+y,z
1/2-x,1/2+y,1/2-z
1/2-x,1/2-y,-z
1/2+x,1/2-y,1/2+z
loop_
_atom_site_type_symbol
_atom_site_label
_atom_site_fract_x
_atom_site_fract_y
_atom_site_fract_z
Si Si1 0.792344 0.531858 0.776661
Si Si2 0.874083 0.945568 0.410971
Si Si3 0.620018 0.099791 0.462823
Si Si4 0.806717 0.826169 0.642326
Si Si5 0.418326 0.802041 0.953607
O O1 0.733287 0.574350 0.660028
O O2 0.869646 0.466388 0.663745
O O3 0.675658 0.510368 0.959927
O O4 0.878697 0.579470 0.841719
O O5 0.900870 0.884856 0.525692
O O6 0.000000 0.968875 0.250000
O O7 0.733427 0.152697 0.355997
O O8 0.488127 0.135356 0.502419
O O9 0.709955 0.825677 0.547363
O O10 0.886365 0.756916 0.609796
O O11 0.500000 0.772254 0.750000
#
# Coordination Sequence:
#
# PCOD8131262 Si02
#       5
#     8   8   8   8   8
#     4   9  19  34  54  84 116 144 185 230 281 346
#     4  10  18  32  54  80 110 146 183 230 284 334
#     4   9  18  35  57  83 115 147 182 233 284 332
#     4   9  18  32  54  79 104 143 192 228 269 336
#     4   9  17  33  56  78 105 146 190 228 274 328
#
# _framework density 23.592531999999999
#
# number of rings (size 3 to 8) (size 9 to 14) (size 15 to 20)
#    0.000    2.800    0.000    1.200    0.000    0.000 
#    0.000   28.000    0.000   33.600    0.000    0.000 
#    0.000    0.000    0.000    0.000    0.000    0.000 
#
# Total GULP energy -247836.618575 kJ/mol
# GULP energy per Si atom -12391.830929 kJ/mol
# Density = 2.353883 g / cm^3
# Si number density = 23.592532 Si / 1000 Ang^3
#
#
#
# Elastic Constant Matrix: (Units=GPa)
#
#
# Indices 1 2 3 4 5 6 
#
# 1 69.0631 42.9668 19.3116 0.0000 -3.9658 0.0000
# 2 42.9668 88.7855 18.3430 0.0000 8.2406 0.0000
# 3 19.3116 18.3430 44.3068 0.0000 3.4530 0.0000
# 4 0.0000 0.0000 0.0000 5.4200 0.0000 -25.1372
# 5 -3.9658 8.2406 3.4530 0.0000 37.4854 0.0000
# 6 0.0000 0.0000 0.0000 -25.1372 0.0000 18.5272
#
#
#
# Elastic Compliance Matrix: (Units=1/GPa)
#
#
# Indices 1 2 3 4 5 6 
#
# 1 0.022907 -0.010308 -0.006126 0.000000 0.005254 0.000000
# 2 -0.010308 0.017147 -0.002243 0.000000 -0.004653 0.000000
# 3 -0.006126 -0.002243 0.026370 0.000000 -0.002584 0.000000
# 4 0.000000 0.000000 0.000000 -0.034861 0.000000 -0.047298
# 5 0.005254 -0.004653 -0.002584 0.000000 0.028494 0.000000
# 6 0.000000 0.000000 0.000000 -0.047298 0.000000 -0.010198
#
#
# Mechanical properties :
#
#
# Convention : Reuss Voigt Hill
#
# Bulk Modulus (GPa) = 34.40053 40.37757 37.38905
# Shear Modulus (GPa) = 51.59778 20.38879 35.99329
#
# Velocity S-wave (km/s) = 4.68165 2.94293 3.91016
# Velocity P-wave (km/s) = 6.62092 5.35719 6.02229
#
# Compressibility (1/GPa) = 0.02906932
#
# Stress axis : x y z
#
# Youngs Moduli (GPa) = 43.65473 58.32021 37.92139
#
# Poissons Ratio (x) = 0.60114 0.23232
# Poissons Ratio (y) = 0.44997 0.08507
# Poissons Ratio (z) = 0.26745 0.13084
#
# Static dielectric constant tensor:
#      x y z
#    x 3.984040 0.000000 -0.006920 
#    y 0.000000 4.194560 0.000000 
#    z -0.006920 0.000000 4.345900 
# 
# 
# High freq. dielectric constant tensor:
#      x y z
#    x 1.908570 0.000000 -0.017650 
#    y 0.000000 1.918960 0.000000 
#    z -0.017650 0.000000 1.942860 
# 
# From -- ./inp_files/31736.got.cif
#   From: 2010.06.25/outbox.cif.g09.slc.cpg/sg15_16_cif.got.tgz:31736.got - 2010.06.28 07:06:18.
