data_PCOD8131277
_publ_section_title
;
Structure prediction by ZEFSAII (Michael W. Deem and Ramdas Pophale) SiO2 
 PCOD8131277
Probable space group: C 2/C
;
_chemical_formula_sum "Si O2"
_cell_formula_units_Z 60
_cell_length_a 12.642900
_cell_length_b 14.752560
_cell_length_c 28.869143
_cell_angle_alpha 90.000000
_cell_angle_beta 143.877726
_cell_angle_gamma 90.000000
_cell_volume 3174.237895
_symmetry_space_group_name_H-M "C 2/C"
_symmetry_group_IT_number 15
_symmetry_cell_setting 'monoclinic'
loop_
_space_group_symop_operation_xyz
x,y,z
-x,y,1/2-z
-x,-y,-z
x,-y,1/2+z
1/2+x,1/2+y,z
1/2-x,1/2+y,1/2-z
1/2-x,1/2-y,-z
1/2+x,1/2-y,1/2+z
loop_
_atom_site_type_symbol
_atom_site_label
_atom_site_fract_x
_atom_site_fract_y
_atom_site_fract_z
Si Si1 0.000000 0.713695 0.250000
Si Si2 0.446241 0.707015 0.573825
Si Si3 0.030428 0.478630 0.587845
Si Si4 0.336497 0.458187 0.081656
Si Si5 0.377730 0.809426 0.942538
Si Si6 0.385683 0.153085 0.304372
Si Si7 0.690116 0.153293 0.611813
Si Si8 0.489747 0.379228 0.691015
O O1 0.044750 0.646295 0.223589
O O2 0.176631 0.775797 0.317771
O O3 0.250000 0.750000 0.500000
O O4 0.444243 0.598030 0.580223
O O5 0.562983 0.727354 0.569501
O O6 0.540598 0.752002 0.651177
O O7 0.830185 0.509192 0.502059
O O8 0.103054 0.408032 0.575351
O O9 0.032928 0.432821 0.639189
O O10 0.160068 0.566220 0.634490
O O11 0.266981 0.377527 0.089772
O O12 0.459241 0.526238 0.153551
O O13 0.163981 0.805359 0.876542
O O14 0.495207 0.802544 0.031056
O O15 0.172476 0.158994 0.234814
O O16 0.500000 0.396106 0.750000
#
# Coordination Sequence:
#
# PCOD8131277 Si02
#       8
#     4   8   8   8   8   8   8   8
#     4  12  26  38  56  88 122 156 200 246 296 352
#     4  11  17  31  53  86 120 156 185 237 295 360
#     4  10  18  32  55  87 117 148 191 249 296 344
#     4  11  19  30  56  88 118 148 199 237 295 348
#     4  10  18  32  54  85 123 154 184 237 306 353
#     4  11  23  36  54  82 122 159 191 245 302 346
#     4  11  19  32  57  89 118 143 197 250 294 343
#     4  12  21  35  58  87 121 153 192 247 301 342
#
# _framework density 18.902176000000001
#
# number of rings (size 3 to 8) (size 9 to 14) (size 15 to 20)
#    0.000    1.067   10.667    0.800    2.800    0.000 
#    0.000    0.667    0.000    4.000    0.000    0.000 
#    0.000    0.000    0.000    0.000    0.000    0.000 
#
# Total GULP energy -371882.518659 kJ/mol
# GULP energy per Si atom -12396.083955 kJ/mol
# Density = 1.885915 g / cm^3
# Si number density = 18.902176 Si / 1000 Ang^3
#
#
#
# Elastic Constant Matrix: (Units=GPa)
#
#
# Indices 1 2 3 4 5 6 
#
# 1 84.5312 43.5199 46.2376 0.0000 1.3014 0.0000
# 2 43.5199 57.3551 33.6290 0.0000 0.7700 0.0000
# 3 46.2376 33.6290 132.1643 0.0000 12.2737 0.0000
# 4 0.0000 0.0000 0.0000 18.2171 0.0000 -3.3514
# 5 1.3014 0.7700 12.2737 0.0000 29.6034 0.0000
# 6 0.0000 0.0000 0.0000 -3.3514 0.0000 31.7859
#
#
#
# Elastic Compliance Matrix: (Units=1/GPa)
#
#
# Indices 1 2 3 4 5 6 
#
# 1 0.021001 -0.013614 -0.003984 0.000000 0.001083 0.000000
# 2 -0.013614 0.029400 -0.002811 0.000000 0.000999 0.000000
# 3 -0.003984 -0.002811 0.010039 0.000000 -0.003914 0.000000
# 4 0.000000 0.000000 0.000000 0.055979 0.000000 0.005902
# 5 0.001083 0.000999 -0.003914 0.000000 0.035329 0.000000
# 6 0.000000 0.000000 0.000000 0.005902 0.000000 0.032083
#
#
# Mechanical properties :
#
#
# Convention : Reuss Voigt Hill
#
# Bulk Modulus (GPa) = 50.96088 57.86927 54.41507
# Shear Modulus (GPa) = 21.62729 25.96556 23.79642
#
# Velocity S-wave (km/s) = 3.38623 3.71034 3.55198
# Velocity P-wave (km/s) = 6.50443 7.00265 6.75813
#
# Compressibility (1/GPa) = 0.01962289
#
# Stress axis : x y z
#
# Youngs Moduli (GPa) = 47.61577 34.01366 99.61463
#
# Poissons Ratio (x) = 0.46307 0.39684
# Poissons Ratio (y) = 0.64825 0.27998
# Poissons Ratio (z) = 0.18969 0.09560
#
# Static dielectric constant tensor:
#      x y z
#    x 3.697060 0.000000 0.334100 
#    y 0.000000 3.178100 0.000000 
#    z 0.334100 0.000000 3.918290 
# 
# 
# High freq. dielectric constant tensor:
#      x y z
#    x 1.702950 0.000000 0.010170 
#    y 0.000000 1.695110 0.000000 
#    z 0.010170 0.000000 1.755690 
# 
# From -- ./inp_files/293364.got.cif
#   From: 2010.06.25/outbox.cif.g09.slc.cpg/sg15_147_cif.got.tgz:293364.got - 2010.06.28 07:06:18.
