data_PCOD8131023
_publ_section_title
;
Structure prediction by ZEFSAII (Michael W. Deem and Ramdas Pophale) SiO2 
 PCOD8131023
Probable space group: C 2/C
;
_chemical_formula_sum "Si O2"
_cell_formula_units_Z 64
_cell_length_a 23.821277
_cell_length_b 11.693357
_cell_length_c 21.483154
_cell_angle_alpha 90.000000
_cell_angle_beta 146.280411
_cell_angle_gamma 90.000000
_cell_volume 3321.972825
_symmetry_space_group_name_H-M "C 2/C"
_symmetry_group_IT_number 15
_symmetry_cell_setting 'monoclinic'
loop_
_space_group_symop_operation_xyz
x,y,z
-x,y,1/2-z
-x,-y,-z
x,-y,1/2+z
1/2+x,1/2+y,z
1/2-x,1/2+y,1/2-z
1/2-x,1/2-y,-z
1/2+x,1/2-y,1/2+z
loop_
_atom_site_type_symbol
_atom_site_label
_atom_site_fract_x
_atom_site_fract_y
_atom_site_fract_z
Si Si1 0.013073 0.816009 0.400824
Si Si2 0.822007 0.409685 0.833667
Si Si3 0.067774 0.823802 0.045551
Si Si4 0.789997 0.901373 0.981771
Si Si5 0.640897 0.268387 0.691192
Si Si6 0.179760 0.172101 0.858473
Si Si7 0.238407 0.561628 0.833488
Si Si8 0.142595 0.631333 0.568366
O O1 0.114256 0.879209 0.473651
O O2 0.045262 0.682710 0.442665
O O3 0.973529 0.877803 0.427713
O O4 0.932455 0.824195 0.271982
O O5 0.892919 0.299963 0.896516
O O6 0.714921 0.377012 0.767470
O O7 0.803389 0.457911 0.747219
O O8 0.880528 0.503895 0.929111
O O9 0.151944 0.901585 0.091888
O O10 0.975415 0.808068 0.911603
O O11 0.707536 0.800839 0.903053
O O12 0.743440 0.017895 0.909647
O O13 0.821510 0.913016 0.082966
O O14 0.663884 0.171332 0.764319
O O15 0.669369 0.214313 0.650462
O O16 0.258139 0.121863 0.881892
#
# Coordination Sequence:
#
# PCOD8131023 Si02
#       8
#     8   8   8   8   8   8   8   8
#     4  10  18  31  48  73 102 127 161 204 246 297
#     4  10  18  31  48  73 102 130 165 205 249 304
#     4  10  20  31  49  75 103 131 163 204 254 301
#     4  10  21  32  49  72  98 132 169 198 243 301
#     4   9  19  32  48  74 104 132 164 206 252 300
#     4  10  19  34  49  69 100 131 162 208 245 282
#     4  10  19  32  49  73 104 133 165 205 249 305
#     4   9  19  31  50  74  96 130 169 199 249 304
#
# _framework density 19.26566
#
# number of rings (size 3 to 8) (size 9 to 14) (size 15 to 20)
#    0.000    2.250    0.000    5.625    0.000    8.500 
#    0.000    0.000    0.000    3.000    0.000    1.750 
#    0.000    0.000    0.000    0.000    0.000    0.000 
#
# Total GULP energy -396706.973727 kJ/mol
# GULP energy per Si atom -12397.092929 kJ/mol
# Density = 1.922181 g / cm^3
# Si number density = 19.265660 Si / 1000 Ang^3
#
#
#
# Elastic Constant Matrix: (Units=GPa)
#
#
# Indices 1 2 3 4 5 6 
#
# 1 54.2801 13.0883 16.7480 0.0000 -12.6549 0.0000
# 2 13.0883 31.3277 7.7886 0.0000 -19.6032 0.0000
# 3 16.7480 7.7886 101.6051 0.0000 -13.3404 0.0000
# 4 0.0000 0.0000 0.0000 24.5529 0.0000 -8.1952
# 5 -12.6549 -19.6032 -13.3404 0.0000 28.9798 0.0000
# 6 0.0000 0.0000 0.0000 -8.1952 0.0000 21.3482
#
#
#
# Elastic Compliance Matrix: (Units=1/GPa)
#
#
# Indices 1 2 3 4 5 6 
#
# 1 0.021600 -0.005587 -0.002544 0.000000 0.004482 0.000000
# 2 -0.005587 0.056843 0.001375 0.000000 0.036644 0.000000
# 3 -0.002544 0.001375 0.010784 0.000000 0.004783 0.000000
# 4 0.000000 0.000000 0.000000 0.046714 0.000000 0.017932
# 5 0.004482 0.036644 0.004783 0.000000 0.063454 0.000000
# 6 0.000000 0.000000 0.000000 0.017932 0.000000 0.053726
#
#
# Mechanical properties :
#
#
# Convention : Reuss Voigt Hill
#
# Bulk Modulus (GPa) = 13.20746 29.16254 21.18500
# Shear Modulus (GPa) = 17.13084 24.94871 21.03978
#
# Velocity S-wave (km/s) = 2.98516 3.60249 3.30826
# Velocity P-wave (km/s) = 4.33035 5.69858 5.06092
#
# Compressibility (1/GPa) = 0.07571480
#
# Stress axis : x y z
#
# Youngs Moduli (GPa) = 46.29640 17.59229 92.73025
#
# Poissons Ratio (x) = 0.09829 0.23587
# Poissons Ratio (y) = 0.25867 -0.12749
# Poissons Ratio (z) = 0.11776 -0.02419
#
# Static dielectric constant tensor:
#      x y z
#    x 3.279090 0.000000 0.023070 
#    y 0.000000 3.425090 0.000000 
#    z 0.023070 0.000000 3.740580 
# 
# 
# High freq. dielectric constant tensor:
#      x y z
#    x 1.715640 0.000000 0.014510 
#    y 0.000000 1.733480 0.000000 
#    z 0.014510 0.000000 1.760600 
# 
# From -- ./inp_files/255347.got.cif
#   From: 2010.06.25/outbox.cif.g09.slc.cpg/sg15_128_cif.got.tgz:255347.got - 2010.06.28 07:06:18.
