data_PCOD8131473
_publ_section_title
;
Structure prediction by ZEFSAII (Michael W. Deem and Ramdas Pophale) SiO2 
 PCOD8131473
Probable space group: C 2/C
;
_chemical_formula_sum "Si O2"
_cell_formula_units_Z 56
_cell_length_a 18.490062
_cell_length_b 11.551467
_cell_length_c 17.920625
_cell_angle_alpha 90.000000
_cell_angle_beta 45.509798
_cell_angle_gamma 90.000000
_cell_volume 2730.509457
_symmetry_space_group_name_H-M "C 2/C"
_symmetry_group_IT_number 15
_symmetry_cell_setting 'monoclinic'
loop_
_space_group_symop_operation_xyz
x,y,z
-x,y,1/2-z
-x,-y,-z
x,-y,1/2+z
1/2+x,1/2+y,z
1/2-x,1/2+y,1/2-z
1/2-x,1/2-y,-z
1/2+x,1/2-y,1/2+z
loop_
_atom_site_type_symbol
_atom_site_label
_atom_site_fract_x
_atom_site_fract_y
_atom_site_fract_z
Si Si1 0.805023 0.066082 0.299958
Si Si2 0.329297 0.360688 0.379000
Si Si3 0.307229 0.943445 0.249938
Si Si4 0.336927 0.263900 0.096297
Si Si5 0.397980 0.180316 0.210718
Si Si6 0.383314 0.242935 0.481163
Si Si7 0.933301 0.230035 0.109910
O O1 0.729229 0.160252 0.392080
O O2 0.896368 0.127634 0.190030
O O3 0.855101 0.987843 0.328686
O O4 0.743153 0.980285 0.291277
O O5 0.382640 0.259079 0.293692
O O6 0.372793 0.350936 0.431524
O O7 0.208407 0.345299 0.465002
O O8 0.224065 0.884926 0.365017
O O9 0.397525 0.854223 0.165681
O O10 0.354338 0.052863 0.259040
O O11 0.340298 0.236628 0.182334
O O12 0.444903 0.272755 0.978828
O O13 0.516112 0.168442 0.106110
O O14 0.386063 0.295340 0.562437
#
# Coordination Sequence:
#
# PCOD8131473 Si02
#       7
#     8   8   8   8   8   8   8
#     4  10  19  33  55  82 124 151 190 249 297 335
#     4  11  20  37  53  87 124 151 192 241 297 350
#     4  10  18  33  54  81 119 151 187 253 289 338
#     4   9  19  32  53  83 114 150 199 246 289 347
#     4  10  20  34  55  83 119 152 192 237 296 350
#     4  10  21  34  57  82 122 153 190 233 294 357
#     4  10  20  35  54  89 115 153 201 240 296 349
#
# _framework density 20.508994000000001
#
# number of rings (size 3 to 8) (size 9 to 14) (size 15 to 20)
#    0.000    2.000    2.857    2.143    2.000    2.286 
#    2.571    0.000    0.000    0.000    0.000   56.000 
#    0.000    0.000    0.000    0.000    0.000    0.000 
#
# Total GULP energy -347235.843712 kJ/mol
# GULP energy per Si atom -12401.280133 kJ/mol
# Density = 2.046231 g / cm^3
# Si number density = 20.508994 Si / 1000 Ang^3
#
#
#
# Elastic Constant Matrix: (Units=GPa)
#
#
# Indices 1 2 3 4 5 6 
#
# 1 50.7191 40.9876 35.5300 0.0000 -0.9587 0.0000
# 2 40.9876 126.1484 55.5106 0.0000 -4.3840 0.0000
# 3 35.5300 55.5106 112.8340 0.0000 -20.3617 0.0000
# 4 0.0000 0.0000 0.0000 27.1464 0.0000 1.3504
# 5 -0.9587 -4.3840 -20.3617 0.0000 29.7368 0.0000
# 6 0.0000 0.0000 0.0000 1.3504 0.0000 19.9042
#
#
#
# Elastic Compliance Matrix: (Units=1/GPa)
#
#
# Indices 1 2 3 4 5 6 
#
# 1 0.030046 -0.006872 -0.006946 0.000000 -0.004801 0.000000
# 2 -0.006872 0.011816 -0.003850 0.000000 -0.001116 0.000000
# 3 -0.006946 -0.003850 0.014606 0.000000 0.009210 0.000000
# 4 0.000000 0.000000 0.000000 0.036962 0.000000 -0.002508
# 5 -0.004801 -0.001116 0.009210 0.000000 0.039615 0.000000
# 6 0.000000 0.000000 0.000000 -0.002508 0.000000 0.050411
#
#
# Mechanical properties :
#
#
# Convention : Reuss Voigt Hill
#
# Bulk Modulus (GPa) = 47.32784 61.52867 54.42826
# Shear Modulus (GPa) = 22.13994 25.86903 24.00448
#
# Velocity S-wave (km/s) = 3.28917 3.55540 3.42488
# Velocity P-wave (km/s) = 6.12794 6.84985 6.49893
#
# Compressibility (1/GPa) = 0.02112921
#
# Stress axis : x y z
#
# Youngs Moduli (GPa) = 33.28275 84.63366 68.46500
#
# Poissons Ratio (x) = 0.58164 0.47558
# Poissons Ratio (y) = 0.22873 0.26361
# Poissons Ratio (z) = 0.23119 0.32586
#
# Static dielectric constant tensor:
#      x y z
#    x 3.502280 0.000000 -0.146770 
#    y 0.000000 3.675050 0.000000 
#    z -0.146770 0.000000 3.766820 
# 
# 
# High freq. dielectric constant tensor:
#      x y z
#    x 1.770880 0.000000 -0.020890 
#    y 0.000000 1.795580 0.000000 
#    z -0.020890 0.000000 1.809600 
# 
# From -- ./inp_files/252351.got.cif
#   From: 2010.06.25/outbox.cif.g09.slc.cpg/sg15_127_cif.got.tgz:252351.got - 2010.06.28 07:06:18.
