data_PCOD8131213
_publ_section_title
;
Structure prediction by ZEFSAII (Michael W. Deem and Ramdas Pophale) SiO2 
 PCOD8131213
Probable space group: C 2/C
;
_chemical_formula_sum "Si O2"
_cell_formula_units_Z 56
_cell_length_a 13.844040
_cell_length_b 30.388301
_cell_length_c 10.730011
_cell_angle_alpha 90.000000
_cell_angle_beta 39.189185
_cell_angle_gamma 90.000000
_cell_volume 2852.371666
_symmetry_space_group_name_H-M "C 2/C"
_symmetry_group_IT_number 15
_symmetry_cell_setting 'monoclinic'
loop_
_space_group_symop_operation_xyz
x,y,z
-x,y,1/2-z
-x,-y,-z
x,-y,1/2+z
1/2+x,1/2+y,z
1/2-x,1/2+y,1/2-z
1/2-x,1/2-y,-z
1/2+x,1/2-y,1/2+z
loop_
_atom_site_type_symbol
_atom_site_label
_atom_site_fract_x
_atom_site_fract_y
_atom_site_fract_z
Si Si1 0.680158 0.202253 0.820699
Si Si2 0.680633 0.034290 0.425163
Si Si3 0.318134 0.298530 0.431866
Si Si4 0.180158 0.297747 0.818985
Si Si5 0.680633 0.034290 0.713572
Si Si6 0.332711 0.623235 0.274928
Si Si7 0.832711 0.123235 0.559650
O O1 0.750720 0.179598 0.875004
O O2 0.750000 0.250000 0.720269
O O3 0.728145 0.167064 0.669634
O O4 0.500000 0.207943 0.011381
O O5 0.731820 0.022489 0.518180
O O6 0.500000 0.038383 0.603251
O O7 0.747425 0.080415 0.307299
O O8 0.737907 1.000000 0.262093
O O9 0.500000 0.298330 0.250000
O O10 0.250000 0.250000 0.500000
O O11 0.250720 0.320402 0.623556
O O12 0.228145 0.332936 0.874077
O O13 0.747424 0.080415 0.697852
O O14 0.360501 0.613245 0.389498
O O15 0.500000 0.629895 0.043033
#
# Coordination Sequence:
#
# PCOD8131213 Si02
#       7
#     8   8   8   8   8   8   8
#     4  11  21  35  55  79 109 146 186 228 274 328
#     4   9  18  35  58  82 110 145 183 229 283 340
#     4  10  18  32  52  74 104 140 180 224 272 320
#     4  11  21  35  55  79 109 146 186 228 274 328
#     4   9  18  35  58  82 110 145 183 229 283 340
#     4  10  21  37  56  79 109 145 184 228 277 330
#     4  10  21  37  56  79 109 145 184 228 277 330
#
# _framework density 19.632784999999998
#
# number of rings (size 3 to 8) (size 9 to 14) (size 15 to 20)
#    0.000    2.000    0.000    6.429    0.000    2.857 
#    2.571    0.000    0.000    0.000    0.000    0.000 
#    0.000    0.000    0.000    0.000    0.000    0.000 
#
# Total GULP energy -346910.310916 kJ/mol
# GULP energy per Si atom -12389.653961 kJ/mol
# Density = 1.958810 g / cm^3
# Si number density = 19.632785 Si / 1000 Ang^3
#
#
#
# Elastic Constant Matrix: (Units=GPa)
#
#
# Indices 1 2 3 4 5 6 
#
# 1 73.7539 48.8978 36.9233 0.0000 -13.2265 0.0000
# 2 48.8978 142.9167 52.7628 0.0000 -4.4571 0.0000
# 3 36.9233 52.7628 102.8397 0.0000 -20.3148 0.0000
# 4 0.0000 0.0000 0.0000 32.7286 0.0000 -2.7826
# 5 -13.2265 -4.4571 -20.3148 0.0000 32.3242 0.0000
# 6 0.0000 0.0000 0.0000 -2.7826 0.0000 30.3156
#
#
#
# Elastic Compliance Matrix: (Units=1/GPa)
#
#
# Indices 1 2 3 4 5 6 
#
# 1 0.019702 -0.005365 -0.003282 0.000000 0.005259 0.000000
# 2 -0.005365 0.010188 -0.003947 0.000000 -0.003271 0.000000
# 3 -0.003282 -0.003947 0.014334 0.000000 0.007121 0.000000
# 4 0.000000 0.000000 0.000000 0.030795 0.000000 0.002827
# 5 0.005259 -0.003271 0.007121 0.000000 0.037113 0.000000
# 6 0.000000 0.000000 0.000000 0.002827 0.000000 0.033246
#
#
# Mechanical properties :
#
#
# Convention : Reuss Voigt Hill
#
# Bulk Modulus (GPa) = 52.53370 66.29757 59.41563
# Shear Modulus (GPa) = 28.26288 31.13543 29.69916
#
# Velocity S-wave (km/s) = 3.79829 3.98664 3.89361
# Velocity P-wave (km/s) = 6.78618 7.41844 7.10934
#
# Compressibility (1/GPa) = 0.01903540
#
# Stress axis : x y z
#
# Youngs Moduli (GPa) = 50.75660 98.15662 69.76419
#
# Poissons Ratio (x) = 0.52662 0.22898
# Poissons Ratio (y) = 0.27231 0.27535
# Poissons Ratio (z) = 0.16660 0.38741
#
# Static dielectric constant tensor:
#      x y z
#    x 4.260270 0.000000 0.285720 
#    y 0.000000 3.417920 0.000000 
#    z 0.285720 0.000000 4.012510 
# 
# 
# High freq. dielectric constant tensor:
#      x y z
#    x 1.762590 0.000000 -0.009760 
#    y 0.000000 1.750820 0.000000 
#    z -0.009760 0.000000 1.771060 
# 
# From -- ./inp_files/101747.got.cif
#   From: 2010.06.25/outbox.cif.g09.slc.cpg/sg15_51_cif.got.tgz:101747.got - 2010.06.28 07:06:18.
