data_PCOD8131938
_publ_section_title
;
Structure prediction by ZEFSAII (Michael W. Deem and Ramdas Pophale) SiO2 
 PCOD8131938
Probable space group: C 2/C
;
_chemical_formula_sum "Si O2"
_cell_formula_units_Z 56
_cell_length_a 23.930552
_cell_length_b 19.367791
_cell_length_c 8.111653
_cell_angle_alpha 90.000000
_cell_angle_beta 57.933396
_cell_angle_gamma 90.000000
_cell_volume 3186.007405
_symmetry_space_group_name_H-M "C 2/C"
_symmetry_group_IT_number 15
_symmetry_cell_setting 'monoclinic'
loop_
_space_group_symop_operation_xyz
x,y,z
-x,y,1/2-z
-x,-y,-z
x,-y,1/2+z
1/2+x,1/2+y,z
1/2-x,1/2+y,1/2-z
1/2-x,1/2-y,-z
1/2+x,1/2-y,1/2+z
loop_
_atom_site_type_symbol
_atom_site_label
_atom_site_fract_x
_atom_site_fract_y
_atom_site_fract_z
Si Si1 0.334984 0.594647 0.146272
Si Si2 0.065876 0.173001 0.717393
Si Si3 0.322853 0.783147 0.894308
Si Si4 0.174017 0.042827 0.977202
Si Si5 0.715695 0.808201 0.878401
Si Si6 0.037350 0.936934 0.528008
Si Si7 0.726457 0.161349 0.711932
O O1 0.347750 0.562530 0.305775
O O2 0.302000 0.537052 0.076312
O O3 0.287766 0.660605 0.230525
O O4 0.404342 0.620586 0.965081
O O5 0.119118 0.228393 0.689874
O O6 0.000000 0.209957 0.750000
O O7 0.040437 0.129995 0.911108
O O8 0.331270 0.824659 0.706711
O O9 0.250000 0.750000 0.000000
O O10 0.324765 0.831118 0.055285
O O11 0.232310 0.092067 0.821641
O O12 0.112114 0.042698 0.951725
O O13 0.722394 0.725223 0.881856
O O14 0.687888 0.840229 0.094440
O O15 0.000000 0.913995 0.750000
O O16 0.000000 0.000000 0.500000
#
# Coordination Sequence:
#
# PCOD8131938 Si02
#       7
#     8   8   8   8   8   8   8
#     4  11  21  34  50  76 107 138 178 225 259 314
#     4  12  23  36  52  75 104 140 185 216 261 313
#     4  10  18  35  56  72  97 137 173 219 266 309
#     4  11  22  31  51  74 103 142 183 220 259 304
#     4   9  18  32  53  75  97 135 173 214 272 315
#     4  12  23  36  46  65 103 150 187 214 251 302
#     4   9  18  33  51  75  96 131 176 221 265 308
#
# _framework density 17.57686
#
# number of rings (size 3 to 8) (size 9 to 14) (size 15 to 20)
#    0.000    1.429    2.857    6.429    2.000    0.000 
#    2.571    0.000    0.000    0.000    0.000    0.000 
#    0.000    1.143    0.000    0.143    0.000    0.000 
#
# Total GULP energy -347004.547343 kJ/mol
# GULP energy per Si atom -12393.019548 kJ/mol
# Density = 1.753685 g / cm^3
# Si number density = 17.576860 Si / 1000 Ang^3
#
#
#
# Elastic Constant Matrix: (Units=GPa)
#
#
# Indices 1 2 3 4 5 6 
#
# 1 107.1440 44.1697 56.7680 0.0000 16.0603 0.0000
# 2 44.1697 60.2304 34.7513 0.0000 -5.8158 0.0000
# 3 56.7680 34.7513 108.1687 0.0000 24.5865 0.0000
# 4 0.0000 0.0000 0.0000 29.3383 0.0000 -0.7153
# 5 16.0603 -5.8158 24.5865 0.0000 29.7615 0.0000
# 6 0.0000 0.0000 0.0000 -0.7153 0.0000 29.6629
#
#
#
# Elastic Compliance Matrix: (Units=1/GPa)
#
#
# Indices 1 2 3 4 5 6 
#
# 1 0.017146 -0.011514 -0.003306 0.000000 -0.008772 0.000000
# 2 -0.011514 0.031953 -0.008686 0.000000 0.019633 0.000000
# 3 -0.003306 -0.008686 0.016929 0.000000 -0.013899 0.000000
# 4 0.000000 0.000000 0.000000 0.034105 0.000000 0.000822
# 5 -0.008772 0.019633 -0.013899 0.000000 0.053653 0.000000
# 6 0.000000 0.000000 0.000000 0.000822 0.000000 0.033732
#
#
# Mechanical properties :
#
#
# Convention : Reuss Voigt Hill
#
# Bulk Modulus (GPa) = 52.57926 60.76900 56.67413
# Shear Modulus (GPa) = 20.75825 27.07614 23.91719
#
# Velocity S-wave (km/s) = 3.44029 3.92910 3.69280
# Velocity P-wave (km/s) = 6.76459 7.43184 7.10605
#
# Compressibility (1/GPa) = 0.01901891
#
# Stress axis : x y z
#
# Youngs Moduli (GPa) = 58.32313 31.29551 59.06909
#
# Poissons Ratio (x) = 0.36032 0.19526
# Poissons Ratio (y) = 0.67151 0.51306
# Poissons Ratio (z) = 0.19279 0.27182
#
# Static dielectric constant tensor:
#      x y z
#    x 3.444700 0.000000 0.570160 
#    y 0.000000 3.152020 0.000000 
#    z 0.570160 0.000000 3.646150 
# 
# 
# High freq. dielectric constant tensor:
#      x y z
#    x 1.662460 0.000000 0.043350 
#    y 0.000000 1.654730 0.000000 
#    z 0.043350 0.000000 1.683350 
# 
# From -- ./inp_files/63222.got.cif
#   From: 2010.06.25/outbox.cif.g09.slc.cpg/sg15_32_cif.got.tgz:63222.got - 2010.06.28 07:06:18.
