data_PCOD8131485
_publ_section_title
;
Structure prediction by ZEFSAII (Michael W. Deem and Ramdas Pophale) SiO2 
 PCOD8131485
Probable space group: C 2/C
;
_chemical_formula_sum "Si O2"
_cell_formula_units_Z 52
_cell_length_a 8.373954
_cell_length_b 16.273095
_cell_length_c 21.108468
_cell_angle_alpha 90.000000
_cell_angle_beta 113.746148
_cell_angle_gamma 90.000000
_cell_volume 2632.929316
_symmetry_space_group_name_H-M "C 2/C"
_symmetry_group_IT_number 15
_symmetry_cell_setting 'monoclinic'
loop_
_space_group_symop_operation_xyz
x,y,z
-x,y,1/2-z
-x,-y,-z
x,-y,1/2+z
1/2+x,1/2+y,z
1/2-x,1/2+y,1/2-z
1/2-x,1/2-y,-z
1/2+x,1/2-y,1/2+z
loop_
_atom_site_type_symbol
_atom_site_label
_atom_site_fract_x
_atom_site_fract_y
_atom_site_fract_z
Si Si1 0.214320 0.837465 0.135510
Si Si2 0.052020 0.909538 0.328735
Si Si3 0.759013 0.478294 0.044885
Si Si4 0.487852 0.553692 0.400661
Si Si5 0.000000 0.435178 0.250000
Si Si6 0.627072 0.336085 0.829555
Si Si7 0.874241 0.506067 0.358032
O O1 0.232682 0.888649 0.073295
O O2 0.338489 0.876457 0.208528
O O3 0.263752 0.743318 0.133210
O O4 0.015304 0.840061 0.132274
O O5 0.000000 0.884809 0.250000
O O6 0.949525 0.991907 0.335862
O O7 0.258740 0.927569 0.361856
O O8 0.664670 0.549257 0.071997
O O9 0.958967 0.506285 0.068537
O O10 0.672295 0.474104 0.961942
O O11 0.506764 0.643314 0.371934
O O12 0.949887 0.493920 0.299922
O O13 0.500000 0.321022 0.750000
O O14 0.762619 0.410551 0.840264
#
# Coordination Sequence:
#
# PCOD8131485 Si02
#       7
#     8   8   8   8   4   8   8
#     4  10  20  36  54  77 116 146 189 221 288 340
#     4  10  18  33  55  79 108 151 181 231 277 335
#     4   9  20  37  61  84 101 153 195 232 272 344
#     4   9  19  37  60  80 111 142 197 234 278 332
#     4  10  18  34  54  76 104 146 182 228 254 354
#     4  11  23  35  53  86 119 148 176 240 288 330
#     4  10  20  33  57  81 108 142 190 231 277 325
#
# _framework density 19.749866000000001
#
# number of rings (size 3 to 8) (size 9 to 14) (size 15 to 20)
#    0.000    2.154    2.308    1.846    4.308    3.077 
#    1.385    3.077    0.000    9.231    0.000    0.000 
#    0.000    0.000    0.000    0.000    0.000    0.000 
#
# Total GULP energy -322185.986091 kJ/mol
# GULP energy per Si atom -12391.768696 kJ/mol
# Density = 1.970491 g / cm^3
# Si number density = 19.749866 Si / 1000 Ang^3
#
#
#
# Elastic Constant Matrix: (Units=GPa)
#
#
# Indices 1 2 3 4 5 6 
#
# 1 88.9381 36.0822 9.8976 0.0000 12.7815 0.0000
# 2 36.0822 102.3932 17.0182 0.0000 -6.0710 0.0000
# 3 9.8976 17.0182 43.6142 0.0000 -1.0199 0.0000
# 4 0.0000 0.0000 0.0000 13.1321 0.0000 -0.5867
# 5 12.7815 -6.0710 -1.0199 0.0000 30.2998 0.0000
# 6 0.0000 0.0000 0.0000 -0.5867 0.0000 32.9831
#
#
#
# Elastic Compliance Matrix: (Units=1/GPa)
#
#
# Indices 1 2 3 4 5 6 
#
# 1 0.014617 -0.005350 -0.001400 0.000000 -0.007285 0.000000
# 2 -0.005350 0.012519 -0.003562 0.000000 0.004645 0.000000
# 3 -0.001400 -0.003562 0.024652 0.000000 0.000707 0.000000
# 4 0.000000 0.000000 0.000000 0.076210 0.000000 0.001356
# 5 -0.007285 0.004645 0.000707 0.000000 0.037031 0.000000
# 6 0.000000 0.000000 0.000000 0.001356 0.000000 0.030343
#
#
# Mechanical properties :
#
#
# Convention : Reuss Voigt Hill
#
# Bulk Modulus (GPa) = 32.08808 40.10461 36.09634
# Shear Modulus (GPa) = 22.08629 26.74617 24.41623
#
# Velocity S-wave (km/s) = 3.34773 3.68400 3.51988
# Velocity P-wave (km/s) = 5.58798 6.20050 5.90219
#
# Compressibility (1/GPa) = 0.03116422
#
# Stress axis : x y z
#
# Youngs Moduli (GPa) = 68.41314 79.87810 40.56394
#
# Poissons Ratio (x) = 0.42736 0.05678
# Poissons Ratio (y) = 0.36602 0.14449
# Poissons Ratio (z) = 0.09577 0.28454
#
# Static dielectric constant tensor:
#      x y z
#    x 3.934590 0.000000 0.023360 
#    y 0.000000 3.320570 0.000000 
#    z 0.023360 0.000000 3.612700 
# 
# 
# High freq. dielectric constant tensor:
#      x y z
#    x 1.781290 0.000000 -0.004440 
#    y 0.000000 1.726020 0.000000 
#    z -0.004440 0.000000 1.771810 
# 
# From -- ./inp_files/190456.got.cif
#   From: 2010.06.25/outbox.cif.g09.slc.cpg/sg15_96_cif.got.tgz:190456.got - 2010.06.28 07:06:18.
