data_PCOD8131932
_publ_section_title
;
Structure prediction by ZEFSAII (Michael W. Deem and Ramdas Pophale) SiO2 
 PCOD8131932
Probable space group: C 2/C
;
_chemical_formula_sum "Si O2"
_cell_formula_units_Z 56
_cell_length_a 32.921539
_cell_length_b 7.364547
_cell_length_c 13.954982
_cell_angle_alpha 90.000000
_cell_angle_beta 126.896574
_cell_angle_gamma 90.000000
_cell_volume 2705.787642
_symmetry_space_group_name_H-M "C 2/C"
_symmetry_group_IT_number 15
_symmetry_cell_setting 'monoclinic'
loop_
_space_group_symop_operation_xyz
x,y,z
-x,y,1/2-z
-x,-y,-z
x,-y,1/2+z
1/2+x,1/2+y,z
1/2-x,1/2+y,1/2-z
1/2-x,1/2-y,-z
1/2+x,1/2-y,1/2+z
loop_
_atom_site_type_symbol
_atom_site_label
_atom_site_fract_x
_atom_site_fract_y
_atom_site_fract_z
Si Si1 0.771107 0.952833 0.531023
Si Si2 0.202851 0.553206 0.590255
Si Si3 0.711823 0.363654 0.146519
Si Si4 0.605983 0.148069 0.551110
Si Si5 0.430388 0.164340 0.390212
Si Si6 0.006071 0.488733 0.365013
Si Si7 0.137144 0.998933 0.696231
O O1 0.750000 0.750000 0.500000
O O2 0.729386 0.086687 0.523333
O O3 0.781169 0.003016 0.434080
O O4 0.824074 0.962978 0.662803
O O5 0.235962 0.641678 0.721356
O O6 0.199380 0.337091 0.594243
O O7 0.147599 0.643513 0.524140
O O8 0.665161 0.433325 0.141389
O O9 0.550080 0.144359 0.424260
O O10 0.609048 0.316040 0.627162
O O11 0.613310 0.970193 0.630002
O O12 0.453722 0.080884 0.325697
O O13 0.406068 0.358628 0.333119
O O14 0.476046 0.170594 0.535418
O O15 0.000000 0.406166 0.250000
#
# Coordination Sequence:
#
# PCOD8131932 Si02
#       7
#     8   8   8   8   8   8   8
#     4   9  20  35  56  88 126 162 205 246 294 362
#     4  10  18  35  55  82 122 159 197 250 291 358
#     4  10  19  36  54  83 124 157 204 242 294 356
#     4  10  20  38  61  86 116 158 198 249 311 365
#     4   9  21  42  61  88 119 157 203 251 322 371
#     4   9  20  43  63  88 122 152 200 267 313 374
#     4  11  21  39  63  87 124 162 202 252 301 373
#
# _framework density 20.696375
#
# number of rings (size 3 to 8) (size 9 to 14) (size 15 to 20)
#    0.857    1.429    1.429    2.571    0.000    1.714 
#   10.286    7.143    0.000    0.000    0.000    0.000 
#    0.000    0.000    0.000    0.000    0.000    0.000 
#
# Total GULP energy -346961.834994 kJ/mol
# GULP energy per Si atom -12391.494107 kJ/mol
# Density = 2.064927 g / cm^3
# Si number density = 20.696375 Si / 1000 Ang^3
#
#
#
# Elastic Constant Matrix: (Units=GPa)
#
#
# Indices 1 2 3 4 5 6 
#
# 1 107.0071 12.0937 39.0309 0.0000 -6.2601 0.0000
# 2 12.0937 58.6181 13.6154 0.0002 7.7959 0.0002
# 3 39.0309 13.6154 65.7315 0.0000 -8.4235 0.0000
# 4 0.0000 0.0002 0.0000 26.5156 0.0000 8.9404
# 5 -6.2601 7.7959 -8.4235 0.0000 39.0055 0.0000
# 6 0.0000 0.0002 0.0000 8.9404 0.0000 26.1583
#
#
#
# Elastic Compliance Matrix: (Units=1/GPa)
#
#
# Indices 1 2 3 4 5 6 
#
# 1 0.011985 -0.000971 -0.006833 0.000000 0.000642 0.000000
# 2 -0.000971 0.018806 -0.003929 0.000000 -0.004763 0.000000
# 3 -0.006833 -0.003929 0.020615 0.000000 0.004141 0.000000
# 4 0.000000 0.000000 0.000000 0.042626 0.000000 -0.014569
# 5 0.000642 -0.004763 0.004141 0.000000 0.027587 0.000000
# 6 0.000000 0.000000 0.000000 -0.014569 0.000000 0.043208
#
#
# Mechanical properties :
#
#
# Convention : Reuss Voigt Hill
#
# Bulk Modulus (GPa) = 35.79147 40.09298 37.94222
# Shear Modulus (GPa) = 25.30277 29.44364 27.37320
#
# Velocity S-wave (km/s) = 3.50032 3.77589 3.64071
# Velocity P-wave (km/s) = 5.80237 6.19870 6.00380
#
# Compressibility (1/GPa) = 0.02793962
#
# Stress axis : x y z
#
# Youngs Moduli (GPa) = 83.43871 53.17449 48.50741
#
# Poissons Ratio (x) = 0.05162 0.33146
# Poissons Ratio (y) = 0.08101 0.19060
# Poissons Ratio (z) = 0.57015 0.20894
#
# Static dielectric constant tensor:
#      x y z
#    x 4.842610 0.000000 -0.496190 
#    y 0.000000 3.532230 0.000000 
#    z -0.496190 0.000000 3.683990 
# 
# 
# High freq. dielectric constant tensor:
#      x y z
#    x 1.824250 0.000000 -0.004130 
#    y 0.000000 1.789460 0.000000 
#    z -0.004130 0.000000 1.786670 
# 
# From -- ./inp_files/180863.got.cif
#   From: 2010.06.25/outbox.cif.g09.slc.cpg/sg15_91_cif.got.tgz:180863.got - 2010.06.28 07:06:18.
