data_PCOD8131359
_publ_section_title
;
Structure prediction by ZEFSAII (Michael W. Deem and Ramdas Pophale) SiO2 
 PCOD8131359
Probable space group: C 2/C
;
_chemical_formula_sum "Si O2"
_cell_formula_units_Z 52
_cell_length_a 6.471993
_cell_length_b 22.990838
_cell_length_c 20.357671
_cell_angle_alpha 90.000000
_cell_angle_beta 53.436735
_cell_angle_gamma 90.000000
_cell_volume 2433.012853
_symmetry_space_group_name_H-M "C 2/C"
_symmetry_group_IT_number 15
_symmetry_cell_setting 'monoclinic'
loop_
_space_group_symop_operation_xyz
x,y,z
-x,y,1/2-z
-x,-y,-z
x,-y,1/2+z
1/2+x,1/2+y,z
1/2-x,1/2+y,1/2-z
1/2-x,1/2-y,-z
1/2+x,1/2-y,1/2+z
loop_
_atom_site_type_symbol
_atom_site_label
_atom_site_fract_x
_atom_site_fract_y
_atom_site_fract_z
Si Si1 0.872173 0.204413 0.053647
Si Si2 0.052053 0.974374 0.884255
Si Si3 0.000000 0.061242 0.250000
Si Si4 0.691594 0.675867 0.578667
Si Si5 0.239918 0.597789 0.655630
Si Si6 0.806362 0.618264 0.985667
Si Si7 0.484078 0.115199 0.326174
O O1 0.813564 0.268734 0.095410
O O2 0.620590 0.165850 0.109247
O O3 0.912793 0.204809 0.968222
O O4 0.115922 0.172126 0.041585
O O5 0.309650 0.942365 0.858963
O O6 0.029354 0.976885 0.809599
O O7 0.087658 0.041458 0.895839
O O8 0.808727 0.943051 0.965474
O O9 0.243037 0.102315 0.193737
O O10 0.433780 0.643930 0.654788
O O11 0.920073 0.628249 0.530511
O O12 0.143143 0.618384 0.602404
O O13 0.000000 0.585855 0.750000
O O14 0.500000 0.140434 0.250000
#
# Coordination Sequence:
#
# PCOD8131359 Si02
#       7
#     8   8   4   8   8   8   8
#     4   9  19  38  57  83 114 144 190 245 289 336
#     4  10  21  37  60  84 117 150 192 248 294 342
#     4  10  18  32  58  88 112 152 190 240 294 346
#     4  10  21  37  60  82 111 153 193 236 286 352
#     4  11  24  40  54  84 124 156 191 236 292 352
#     4  10  21  39  64  85 109 154 201 241 290 342
#     4   9  18  33  52  83 113 145 188 237 291 338
#
# _framework density 21.372678000000001
#
# number of rings (size 3 to 8) (size 9 to 14) (size 15 to 20)
#    0.000    2.154    0.000    3.231    0.000    3.692 
#    4.154    0.000    0.000    0.000    0.000    0.000 
#    0.000    0.000    0.000    0.000    0.000    0.000 
#
# Total GULP energy -322136.158313 kJ/mol
# GULP energy per Si atom -12389.852243 kJ/mol
# Density = 2.132403 g / cm^3
# Si number density = 21.372678 Si / 1000 Ang^3
#
#
#
# Elastic Constant Matrix: (Units=GPa)
#
#
# Indices 1 2 3 4 5 6 
#
# 1 74.7482 26.6357 14.7310 0.0000 -27.1807 0.0000
# 2 26.6357 107.9484 30.2061 0.0000 -8.1556 0.0000
# 3 14.7310 30.2061 63.7451 0.0000 -11.7547 0.0000
# 4 0.0000 0.0000 0.0000 -3.1827 0.0000 25.0654
# 5 -27.1807 -8.1556 -11.7547 0.0000 25.6985 0.0000
# 6 0.0000 0.0000 0.0000 25.0654 0.0000 -15.6828
#
#
#
# Elastic Compliance Matrix: (Units=1/GPa)
#
#
# Indices 1 2 3 4 5 6 
#
# 1 0.023351 -0.004244 0.001006 0.000000 0.023810 0.000000
# 2 -0.004244 0.011484 -0.005042 0.000000 -0.003151 0.000000
# 3 0.001006 -0.005042 0.019380 0.000000 0.008328 0.000000
# 4 0.000000 0.000000 0.000000 0.027116 0.000000 0.043339
# 5 0.023810 -0.003151 0.008328 0.000000 0.066906 0.000000
# 6 0.000000 0.000000 0.000000 0.043339 0.000000 0.005503
#
#
# Mechanical properties :
#
#
# Convention : Reuss Voigt Hill
#
# Bulk Modulus (GPa) = 26.55791 43.28746 34.92269
# Shear Modulus (GPa) = 27.34469 13.02453 20.18461
#
# Velocity S-wave (km/s) = 3.58078 2.47128 3.07646
# Velocity P-wave (km/s) = 5.43591 5.33297 5.38469
#
# Compressibility (1/GPa) = 0.03765356
#
# Stress axis : x y z
#
# Youngs Moduli (GPa) = 42.82544 87.08015 51.59982
#
# Poissons Ratio (x) = 0.36958 -0.05189
# Poissons Ratio (y) = 0.18176 0.26016
# Poissons Ratio (z) = -0.04307 0.43904
#
# Static dielectric constant tensor:
#      x y z
#    x 3.946740 0.000000 -0.071130 
#    y 0.000000 3.926340 0.000000 
#    z -0.071130 0.000000 3.796960 
# 
# 
# High freq. dielectric constant tensor:
#      x y z
#    x 1.838910 0.000000 -0.012320 
#    y 0.000000 1.833190 0.000000 
#    z -0.012320 0.000000 1.822170 
# 
# From -- ./inp_files/228578.got.cif
#   From: 2010.06.25/outbox.cif.g09.slc.cpg/sg15_115_cif.got.tgz:228578.got - 2010.06.28 07:06:18.
