data_PCOD8131539
_publ_section_title
;
Structure prediction by ZEFSAII (Michael W. Deem and Ramdas Pophale) SiO2 
 PCOD8131539
Probable space group: C 2/C
;
_chemical_formula_sum "Si O2"
_cell_formula_units_Z 44
_cell_length_a 9.370343
_cell_length_b 19.677108
_cell_length_c 12.486879
_cell_angle_alpha 90.000000
_cell_angle_beta 70.807765
_cell_angle_gamma 90.000000
_cell_volume 2174.384106
_symmetry_space_group_name_H-M "C 2/C"
_symmetry_group_IT_number 15
_symmetry_cell_setting 'monoclinic'
loop_
_space_group_symop_operation_xyz
x,y,z
-x,y,1/2-z
-x,-y,-z
x,-y,1/2+z
1/2+x,1/2+y,z
1/2-x,1/2+y,1/2-z
1/2-x,1/2-y,-z
1/2+x,1/2-y,1/2+z
loop_
_atom_site_type_symbol
_atom_site_label
_atom_site_fract_x
_atom_site_fract_y
_atom_site_fract_z
Si Si1 0.609839 0.800802 0.534780
Si Si2 0.000000 0.610757 0.250000
Si Si3 0.763192 0.968554 0.791764
Si Si4 0.772261 0.124955 0.826089
Si Si5 0.034374 0.059893 0.072616
Si Si6 0.450011 0.670979 0.598616
O O1 0.750000 0.750000 0.500000
O O2 0.603804 0.844017 0.645799
O O3 0.622577 0.849251 0.426724
O O4 0.466128 0.750823 0.566551
O O5 0.896535 0.564269 0.199337
O O6 0.809770 0.953356 0.902415
O O7 0.890362 0.936058 0.685016
O O8 0.750964 0.049463 0.786523
O O9 0.802548 0.168560 0.711177
O O10 0.912339 0.133666 0.872941
O O11 0.066061 0.131241 0.007920
O O12 0.000000 0.000000 0.000000
#
# Coordination Sequence:
#
# PCOD8131539 Si02
#       6
#     8   4   8   8   8   8
#     4  10  21  37  60  86 122 170 210 243 309 384
#     4  12  26  42  60  94 134 164 202 266 318 372
#     4  11  23  37  62  95 126 161 206 260 320 365
#     4  10  18  33  57  89 119 156 207 249 309 370
#     4  11  19  38  66  94 121 159 215 258 302 377
#     4  10  18  34  64  88 113 159 215 256 293 374
#
# _framework density 20.235614000000002
#
# number of rings (size 3 to 8) (size 9 to 14) (size 15 to 20)
#    0.000    1.455    3.636    5.455    0.000    0.727 
#    0.000    0.909    0.000    8.727    0.000    0.000 
#    0.000    0.000    0.000    0.000    0.000    0.000 
#
# Total GULP energy -272682.871579 kJ/mol
# GULP energy per Si atom -12394.675981 kJ/mol
# Density = 2.018956 g / cm^3
# Si number density = 20.235614 Si / 1000 Ang^3
#
#
#
# Elastic Constant Matrix: (Units=GPa)
#
#
# Indices 1 2 3 4 5 6 
#
# 1 82.1643 32.8787 33.6495 0.0000 14.7192 0.0000
# 2 32.8787 98.0615 64.3609 0.0000 -2.4524 0.0000
# 3 33.6495 64.3609 151.2761 0.0000 -7.1240 0.0000
# 4 0.0000 0.0000 0.0000 41.8510 0.0000 -1.1352
# 5 14.7192 -2.4524 -7.1240 0.0000 27.9377 0.0000
# 6 0.0000 0.0000 0.0000 -1.1352 0.0000 22.4333
#
#
#
# Elastic Compliance Matrix: (Units=1/GPa)
#
#
# Indices 1 2 3 4 5 6 
#
# 1 0.016570 -0.004272 -0.002325 0.000000 -0.009698 0.000000
# 2 -0.004272 0.015252 -0.005435 0.000000 0.002204 0.000000
# 3 -0.002325 -0.005435 0.009590 0.000000 0.003193 0.000000
# 4 0.000000 0.000000 0.000000 0.023927 0.000000 0.001211
# 5 -0.009698 0.002204 0.003193 0.000000 0.041911 0.000000
# 6 0.000000 0.000000 0.000000 0.001211 0.000000 0.044638
#
#
# Mechanical properties :
#
#
# Convention : Reuss Voigt Hill
#
# Bulk Modulus (GPa) = 57.64312 65.92003 61.78158
# Shear Modulus (GPa) = 27.51253 31.81859 29.66556
#
# Velocity S-wave (km/s) = 3.69129 3.96966 3.83300
# Velocity P-wave (km/s) = 6.83486 7.32515 7.08425
#
# Compressibility (1/GPa) = 0.01734812
#
# Stress axis : x y z
#
# Youngs Moduli (GPa) = 60.35118 65.56310 104.27197
#
# Poissons Ratio (x) = 0.28011 0.24241
# Poissons Ratio (y) = 0.25784 0.56673
# Poissons Ratio (z) = 0.14030 0.35634
#
# Static dielectric constant tensor:
#      x y z
#    x 3.731470 0.000000 0.034390 
#    y 0.000000 3.932380 0.000000 
#    z 0.034390 0.000000 4.560920 
# 
# 
# High freq. dielectric constant tensor:
#      x y z
#    x 1.735940 0.000000 -0.006740 
#    y 0.000000 1.797020 0.000000 
#    z -0.006740 0.000000 1.811770 
# 
# From -- ./inp_files/78115.got.cif
#   From: 2010.06.25/outbox.cif.g09.slc.cpg/sg15_40_cif.got.tgz:78115.got - 2010.06.28 07:06:18.
