data_PCOD8131962
_publ_section_title
;
Structure prediction by ZEFSAII (Michael W. Deem and Ramdas Pophale) SiO2 
 PCOD8131962
Probable space group: C 2/C
;
_chemical_formula_sum "Si O2"
_cell_formula_units_Z 48
_cell_length_a 16.274783
_cell_length_b 8.880252
_cell_length_c 20.261652
_cell_angle_alpha 90.000000
_cell_angle_beta 124.319284
_cell_angle_gamma 90.000000
_cell_volume 2418.506883
_symmetry_space_group_name_H-M "C 2/C"
_symmetry_group_IT_number 15
_symmetry_cell_setting 'monoclinic'
loop_
_space_group_symop_operation_xyz
x,y,z
-x,y,1/2-z
-x,-y,-z
x,-y,1/2+z
1/2+x,1/2+y,z
1/2-x,1/2+y,1/2-z
1/2-x,1/2-y,-z
1/2+x,1/2-y,1/2+z
loop_
_atom_site_type_symbol
_atom_site_label
_atom_site_fract_x
_atom_site_fract_y
_atom_site_fract_z
Si Si1 0.229347 0.028793 0.153623
Si Si2 0.675412 0.032223 0.666310
Si Si3 0.001945 0.901127 0.150551
Si Si4 0.343518 0.299216 0.171399
Si Si5 0.456109 0.303326 0.891023
Si Si6 0.399682 0.732266 0.928561
O O1 0.257884 0.027904 0.243762
O O2 0.315019 0.120482 0.152933
O O3 0.125082 0.115737 0.099381
O O4 0.206005 0.859989 0.116987
O O5 0.619194 0.899997 0.603742
O O6 0.744094 0.109037 0.642085
O O7 0.593271 0.148903 0.658320
O O8 0.891103 0.855504 0.124207
O O9 0.079859 0.822316 0.234288
O O10 0.021176 0.843053 0.085605
O O11 0.012685 0.083981 0.154854
O O12 0.553475 0.264449 0.977777
#
# Coordination Sequence:
#
# PCOD8131962 Si02
#       6
#     8   8   8   8   8   8
#     4  10  18  35  57  81 107 147 197 229 272 342
#     4  11  19  36  58  85 109 149 196 229 276 348
#     4  10  19  36  56  81 115 141 188 240 291 325
#     4  10  20  34  58  84 108 144 192 242 285 328
#     4  10  21  35  57  86 113 153 183 229 292 349
#     4  11  20  36  59  83 117 147 187 233 284 347
#
# _framework density 19.846955999999999
#
# number of rings (size 3 to 8) (size 9 to 14) (size 15 to 20)
#    0.000    1.667    5.000    3.500    0.000    0.000 
#    0.000   10.000    0.000    0.000    0.000    0.000 
#    0.000    0.000    0.000    0.000    0.000    0.000 
#
# Total GULP energy -297465.277024 kJ/mol
# GULP energy per Si atom -12394.386543 kJ/mol
# Density = 1.980178 g / cm^3
# Si number density = 19.846956 Si / 1000 Ang^3
#
#
#
# Elastic Constant Matrix: (Units=GPa)
#
#
# Indices 1 2 3 4 5 6 
#
# 1 98.0765 60.2567 18.1065 0.0000 8.0816 0.0000
# 2 60.2567 122.9937 14.0712 0.0000 12.0507 0.0000
# 3 18.1065 14.0712 71.5089 0.0000 13.5418 0.0000
# 4 0.0000 0.0000 0.0000 26.4768 0.0000 3.3331
# 5 8.0816 12.0507 13.5418 0.0000 12.3747 0.0000
# 6 0.0000 0.0000 0.0000 3.3331 0.0000 32.2383
#
#
#
# Elastic Compliance Matrix: (Units=1/GPa)
#
#
# Indices 1 2 3 4 5 6 
#
# 1 0.014981 -0.007035 -0.002338 0.000000 -0.000374 0.000000
# 2 -0.007035 0.012293 0.000958 0.000000 -0.008425 0.000000
# 3 -0.002338 0.000958 0.018007 0.000000 -0.019111 0.000000
# 4 0.000000 0.000000 0.000000 0.038267 0.000000 -0.003956
# 5 -0.000374 -0.008425 -0.019111 0.000000 0.110173 0.000000
# 6 0.000000 0.000000 0.000000 -0.003956 0.000000 0.031428
#
#
# Mechanical properties :
#
#
# Convention : Reuss Voigt Hill
#
# Bulk Modulus (GPa) = 35.14951 53.04976 44.09963
# Shear Modulus (GPa) = 19.88366 27.56093 23.72229
#
# Velocity S-wave (km/s) = 3.16863 3.73053 3.46101
# Velocity P-wave (km/s) = 5.57994 6.73374 6.18381
#
# Compressibility (1/GPa) = 0.02844990
#
# Stress axis : x y z
#
# Youngs Moduli (GPa) = 66.75138 81.34665 55.53422
#
# Poissons Ratio (x) = 0.57230 0.12984
# Poissons Ratio (y) = 0.46961 -0.05319
# Poissons Ratio (z) = 0.15607 -0.07792
#
# Static dielectric constant tensor:
#      x y z
#    x 3.604950 0.000000 0.202790 
#    y 0.000000 3.986110 0.000000 
#    z 0.202790 0.000000 3.345370 
# 
# 
# High freq. dielectric constant tensor:
#      x y z
#    x 1.735680 0.000000 0.021620 
#    y 0.000000 1.785870 0.000000 
#    z 0.021620 0.000000 1.762220 
# 
# From -- ./inp_files/208691.got.cif
#   From: 2010.06.25/outbox.cif.g09.slc.cpg/sg15_105_cif.got.tgz:208691.got - 2010.06.28 07:06:18.
