data_PCOD8131605
_publ_section_title
;
Structure prediction by ZEFSAII (Michael W. Deem and Ramdas Pophale) SiO2 
 PCOD8131605
Probable space group: C 2/C
;
_chemical_formula_sum "Si O2"
_cell_formula_units_Z 52
_cell_length_a 18.128515
_cell_length_b 8.898271
_cell_length_c 17.706894
_cell_angle_alpha 90.000000
_cell_angle_beta 55.026607
_cell_angle_gamma 90.000000
_cell_volume 2340.539160
_symmetry_space_group_name_H-M "C 2/C"
_symmetry_group_IT_number 15
_symmetry_cell_setting 'monoclinic'
loop_
_space_group_symop_operation_xyz
x,y,z
-x,y,1/2-z
-x,-y,-z
x,-y,1/2+z
1/2+x,1/2+y,z
1/2-x,1/2+y,1/2-z
1/2-x,1/2-y,-z
1/2+x,1/2-y,1/2+z
loop_
_atom_site_type_symbol
_atom_site_label
_atom_site_fract_x
_atom_site_fract_y
_atom_site_fract_z
Si Si1 0.043469 0.178211 0.478823
Si Si2 0.337657 0.730685 0.601335
Si Si3 0.663164 0.943996 0.207652
Si Si4 0.330890 0.937510 0.115939
Si Si5 0.344346 0.722411 0.773333
Si Si6 0.016532 0.003283 0.358594
Si Si7 0.500000 0.741634 0.250000
O O1 0.936764 0.175316 0.521245
O O2 0.056855 0.096308 0.552213
O O3 0.082243 0.344600 0.463889
O O4 0.083312 0.082074 0.383853
O O5 0.258687 0.618608 0.618636
O O6 0.326356 0.750774 0.696706
O O7 0.328199 0.901391 0.576256
O O8 0.663122 0.940303 0.297599
O O9 0.585275 0.841220 0.219785
O O10 0.642734 0.115852 0.193367
O O11 0.242707 0.852337 0.138043
O O12 0.427757 0.605952 0.730856
O O13 0.971201 0.135415 0.336963
#
# Coordination Sequence:
#
# PCOD8131605 Si02
#       7
#     8   8   8   8   8   8   4
#     4  10  20  35  62  91 119 147 196 251 292 336
#     4   9  19  34  58  91 119 148 193 248 295 337
#     4  10  21  35  57  85 116 155 199 240 289 350
#     4  10  18  33  62  87 117 146 199 245 291 336
#     4   9  20  34  58  89 114 151 198 249 284 345
#     4  10  22  37  59  85 118 154 196 235 299 340
#     4  12  22  40  60  80 118 164 198 234 288 374
#
# _framework density 22.217103000000002
#
# number of rings (size 3 to 8) (size 9 to 14) (size 15 to 20)
#    0.000    2.154    1.538    1.385   10.769    0.615 
#    0.000    0.769    0.000    1.846    0.000    0.000 
#    0.000    0.000    0.000    0.000    0.000    0.000 
#
# Total GULP energy -322105.610901 kJ/mol
# GULP energy per Si atom -12388.677342 kJ/mol
# Density = 2.216654 g / cm^3
# Si number density = 22.217103 Si / 1000 Ang^3
#
#
#
# Elastic Constant Matrix: (Units=GPa)
#
#
# Indices 1 2 3 4 5 6 
#
# 1 61.7783 40.7843 23.7518 0.0000 -14.1360 0.0000
# 2 40.7843 166.8623 26.1631 0.0000 -13.7754 0.0001
# 3 23.7518 26.1631 47.2217 0.0000 -16.2837 0.0000
# 4 0.0000 0.0000 0.0000 31.5317 0.0000 -1.4984
# 5 -14.1360 -13.7754 -16.2837 0.0000 26.5114 0.0000
# 6 0.0000 0.0001 0.0000 -1.4984 0.0000 27.3205
#
#
#
# Elastic Compliance Matrix: (Units=1/GPa)
#
#
# Indices 1 2 3 4 5 6 
#
# 1 0.022948 -0.003985 -0.007395 0.000000 0.005623 0.000000
# 2 -0.003985 0.007302 -0.001859 0.000000 0.000527 0.000000
# 3 -0.007395 -0.001859 0.030746 0.000000 0.013975 0.000000
# 4 0.000000 0.000000 0.000000 0.031797 0.000000 0.001744
# 5 0.005623 0.000527 0.013975 0.000000 0.049575 0.000000
# 6 0.000000 0.000000 0.000000 0.001744 0.000000 0.036698
#
#
# Mechanical properties :
#
#
# Convention : Reuss Voigt Hill
#
# Bulk Modulus (GPa) = 28.97250 50.80677 39.88963
# Shear Modulus (GPa) = 23.03604 29.41693 26.22648
#
# Velocity S-wave (km/s) = 3.22353 3.64272 3.43951
# Velocity P-wave (km/s) = 5.18881 6.37264 5.81095
#
# Compressibility (1/GPa) = 0.03451549
#
# Stress axis : x y z
#
# Youngs Moduli (GPa) = 43.57743 136.94731 32.52478
#
# Poissons Ratio (x) = 0.54575 0.24054
# Poissons Ratio (y) = 0.17366 0.06048
# Poissons Ratio (z) = 0.32227 0.25465
#
# Static dielectric constant tensor:
#      x y z
#    x 3.557660 0.000000 -0.189570 
#    y 0.000000 4.590910 0.000000 
#    z -0.189570 0.000000 3.839970 
# 
# 
# High freq. dielectric constant tensor:
#      x y z
#    x 1.826180 0.000000 -0.021840 
#    y 0.000000 1.909830 0.000000 
#    z -0.021840 0.000000 1.845100 
# 
# From -- ./inp_files/214222.got.cif
#   From: 2010.06.25/outbox.cif.g09.slc.cpg/sg15_108_cif.got.tgz:214222.got - 2010.06.28 07:06:18.
