data_PCOD8131386
_publ_section_title
;
Structure prediction by ZEFSAII (Michael W. Deem and Ramdas Pophale) SiO2 
 PCOD8131386
Probable space group: C 2/C
;
_chemical_formula_sum "Si O2"
_cell_formula_units_Z 64
_cell_length_a 27.325780
_cell_length_b 8.111799
_cell_length_c 16.373611
_cell_angle_alpha 90.000000
_cell_angle_beta 121.650525
_cell_angle_gamma 90.000000
_cell_volume 3089.575116
_symmetry_space_group_name_H-M "C 2/C"
_symmetry_group_IT_number 15
_symmetry_cell_setting 'monoclinic'
loop_
_space_group_symop_operation_xyz
x,y,z
-x,y,1/2-z
-x,-y,-z
x,-y,1/2+z
1/2+x,1/2+y,z
1/2-x,1/2+y,1/2-z
1/2-x,1/2-y,-z
1/2+x,1/2-y,1/2+z
loop_
_atom_site_type_symbol
_atom_site_label
_atom_site_fract_x
_atom_site_fract_y
_atom_site_fract_z
Si Si1 0.727239 0.788088 0.658257
Si Si2 0.085207 0.281938 0.978171
Si Si3 0.042538 0.192199 0.649922
Si Si4 0.362882 0.802722 0.645078
Si Si5 0.665655 0.098161 0.782877
Si Si6 0.390421 0.594103 0.338141
Si Si7 0.112787 0.396735 0.590320
Si Si8 0.787542 0.118275 0.697752
O O1 0.767173 0.651897 0.648347
O O2 0.658321 0.780234 0.580093
O O3 0.740477 0.755930 0.767004
O O4 0.744052 0.970686 0.642460
O O5 0.131690 0.269608 0.946303
O O6 0.023501 0.228961 0.890032
O O7 0.104929 0.160697 0.066545
O O8 0.082109 0.469973 0.006280
O O9 0.078267 0.248051 0.759893
O O10 0.062054 0.291555 0.585980
O O11 0.050868 0.995495 0.640150
O O12 0.308174 0.700122 0.631078
O O13 0.352252 0.997793 0.651857
O O14 0.626029 0.260910 0.739481
O O15 0.654232 0.980196 0.695114
O O16 0.342583 0.451196 0.295493
#
# Coordination Sequence:
#
# PCOD8131386 Si02
#       8
#     8   8   8   8   8   8   8   8
#     4  11  16  32  60  81 102 145 193 229 268 322
#     4  11  22  35  56  80 118 147 178 234 291 313
#     4  10  19  38  59  80 105 150 194 229 270 335
#     4  10  20  38  54  83 113 148 184 227 279 346
#     4   9  18  32  58  81 109 141 189 226 270 341
#     4   9  19  34  58  86 107 138 192 237 269 326
#     4  10  19  33  54  85 106 140 192 228 268 331
#     4  10  18  32  61  82 105 143 192 226 270 337
#
# _framework density 20.714822999999999
#
# number of rings (size 3 to 8) (size 9 to 14) (size 15 to 20)
#    0.000    2.000    5.000    1.125    0.000    0.000 
#    0.000    5.000    0.000   12.000    0.000    0.000 
#    0.000    0.000    0.000    0.000    0.000    0.000 
#
# Total GULP energy -396587.583077 kJ/mol
# GULP energy per Si atom -12393.361971 kJ/mol
# Density = 2.066768 g / cm^3
# Si number density = 20.714823 Si / 1000 Ang^3
#
#
#
# Elastic Constant Matrix: (Units=GPa)
#
#
# Indices 1 2 3 4 5 6 
#
# 1 84.6312 35.3021 11.1579 0.0000 -15.4361 0.0000
# 2 35.3021 104.4305 16.3326 0.0000 -15.9344 0.0000
# 3 11.1579 16.3326 29.2631 0.0000 -14.2157 0.0000
# 4 0.0000 0.0000 0.0000 17.3053 0.0000 3.5011
# 5 -15.4361 -15.9344 -14.2157 0.0000 23.9317 0.0000
# 6 0.0000 0.0000 0.0000 3.5011 0.0000 24.8718
#
#
#
# Elastic Compliance Matrix: (Units=1/GPa)
#
#
# Indices 1 2 3 4 5 6 
#
# 1 0.014706 -0.003914 -0.000114 0.000000 0.006812 0.000000
# 2 -0.003914 0.011964 -0.003573 0.000000 0.003319 0.000000
# 3 -0.000114 -0.003573 0.049223 0.000000 0.026787 0.000000
# 4 0.000000 0.000000 0.000000 0.059480 0.000000 -0.008373
# 5 0.006812 0.003319 0.026787 0.000000 0.064301 0.000000
# 6 0.000000 0.000000 0.000000 -0.008373 0.000000 0.041385
#
#
# Mechanical properties :
#
#
# Convention : Reuss Voigt Hill
#
# Bulk Modulus (GPa) = 16.47656 38.21222 27.34439
# Shear Modulus (GPa) = 18.08382 23.59057 20.83720
#
# Velocity S-wave (km/s) = 2.95784 3.37831 3.17505
# Velocity P-wave (km/s) = 4.43130 5.80553 5.16433
#
# Compressibility (1/GPa) = 0.06069227
#
# Stress axis : x y z
#
# Youngs Moduli (GPa) = 67.99901 83.58341 20.31574
#
# Poissons Ratio (x) = 0.32716 0.00231
# Poissons Ratio (y) = 0.26616 0.07258
# Poissons Ratio (z) = 0.00773 0.29861
#
# Static dielectric constant tensor:
#      x y z
#    x 3.773080 0.000000 0.044500 
#    y 0.000000 4.051790 0.000000 
#    z 0.044500 0.000000 3.198520 
# 
# 
# High freq. dielectric constant tensor:
#      x y z
#    x 1.809600 0.000000 0.004900 
#    y 0.000000 1.821970 0.000000 
#    z 0.004900 0.000000 1.758280 
# 
# From -- ./inp_files/176655.got.cif
#   From: 2010.06.25/outbox.cif.g09.slc.cpg/sg15_89_cif.got.tgz:176655.got - 2010.06.28 07:06:18.
