data_PCOD8131159
_publ_section_title
;
Structure prediction by ZEFSAII (Michael W. Deem and Ramdas Pophale) SiO2 
 PCOD8131159
Probable space group: C 2/C
;
_chemical_formula_sum "Si O2"
_cell_formula_units_Z 64
_cell_length_a 23.382535
_cell_length_b 17.217592
_cell_length_c 11.307300
_cell_angle_alpha 90.000000
_cell_angle_beta 118.084083
_cell_angle_gamma 90.000000
_cell_volume 4016.228080
_symmetry_space_group_name_H-M "C 2/C"
_symmetry_group_IT_number 15
_symmetry_cell_setting 'monoclinic'
loop_
_space_group_symop_operation_xyz
x,y,z
-x,y,1/2-z
-x,-y,-z
x,-y,1/2+z
1/2+x,1/2+y,z
1/2-x,1/2+y,1/2-z
1/2-x,1/2-y,-z
1/2+x,1/2-y,1/2+z
loop_
_atom_site_type_symbol
_atom_site_label
_atom_site_fract_x
_atom_site_fract_y
_atom_site_fract_z
Si Si1 0.327997 0.102259 0.746525
Si Si2 0.237727 0.782432 0.289323
Si Si3 0.927519 0.598513 0.642553
Si Si4 0.638426 0.833986 0.646572
Si Si5 0.382819 0.931534 0.540205
Si Si6 0.685489 0.668097 0.967365
Si Si7 0.072773 0.275932 0.818987
Si Si8 0.222186 0.552588 0.371111
O O1 0.290192 0.177233 0.756817
O O2 0.377456 0.128195 0.692913
O O3 0.275991 0.039958 0.645736
O O4 0.369071 0.059877 0.888254
O O5 0.187540 0.735458 0.156612
O O6 0.267742 0.724193 0.413845
O O7 0.200272 0.840986 0.341030
O O8 0.909583 0.643000 0.505128
O O9 0.923919 0.505305 0.624517
O O10 0.000000 0.621678 0.750000
O O11 0.595173 0.801700 0.711252
O O12 0.681848 0.908271 0.724861
O O13 0.422758 0.851936 0.594006
O O14 0.314954 0.925138 0.543649
O O15 0.613266 0.702491 0.910678
O O16 0.703248 0.583674 0.042482
O O17 0.000000 0.245166 0.750000
#
# Coordination Sequence:
#
# PCOD8131159 Si02
#       8
#     8   8   8   8   8   8   8   8
#     4  11  19  30  51  67  93 128 153 193 226 281
#     4   9  16  30  51  67  88 117 158 199 236 262
#     4  11  24  32  41  64 101 140 154 177 222 275
#     4   9  19  33  45  67  95 120 158 196 226 269
#     4  10  18  32  44  69  93 123 164 185 221 267
#     4   9  15  29  49  71  90 116 150 202 238 257
#     4  10  19  29  50  71  92 122 153 195 230 273
#     4   9  17  30  49  68  92 116 153 203 232 259
#
# _framework density 15.935349
#
# number of rings (size 3 to 8) (size 9 to 14) (size 15 to 20)
#    0.000    2.250    3.750    1.875    1.750    1.000 
#    0.000    0.000    0.000    0.000    0.000    4.375 
#    0.000    0.000    0.000    0.000    0.000    0.000 
#
# Total GULP energy -396500.880561 kJ/mol
# GULP energy per Si atom -12390.652518 kJ/mol
# Density = 1.589908 g / cm^3
# Si number density = 15.935349 Si / 1000 Ang^3
#
#
#
# Elastic Constant Matrix: (Units=GPa)
#
#
# Indices 1 2 3 4 5 6 
#
# 1 57.9899 33.5550 33.3657 0.0000 9.4468 0.0000
# 2 33.5550 52.5987 34.7346 0.0000 7.4184 0.0000
# 3 33.3657 34.7346 89.2948 0.0000 10.4775 0.0000
# 4 0.0000 0.0000 0.0000 14.4119 0.0000 2.7037
# 5 9.4468 7.4184 10.4775 0.0000 24.8714 0.0000
# 6 0.0000 0.0000 0.0000 2.7037 0.0000 17.6771
#
#
#
# Elastic Compliance Matrix: (Units=1/GPa)
#
#
# Indices 1 2 3 4 5 6 
#
# 1 0.029341 -0.015040 -0.004557 0.000000 -0.004739 0.000000
# 2 -0.015040 0.033607 -0.007308 0.000000 -0.001233 0.000000
# 3 -0.004557 -0.007308 0.016080 0.000000 -0.002863 0.000000
# 4 0.000000 0.000000 0.000000 0.071437 0.000000 -0.010926
# 5 -0.004739 -0.001233 -0.002863 0.000000 0.043581 0.000000
# 6 0.000000 0.000000 0.000000 -0.010926 0.000000 0.058241
#
#
# Mechanical properties :
#
#
# Convention : Reuss Voigt Hill
#
# Bulk Modulus (GPa) = 39.65519 44.79934 42.22727
# Shear Modulus (GPa) = 15.89808 17.94062 16.91935
#
# Velocity S-wave (km/s) = 3.16200 3.35899 3.26198
# Velocity P-wave (km/s) = 6.18628 6.57404 6.38311
#
# Compressibility (1/GPa) = 0.02521738
#
# Stress axis : x y z
#
# Youngs Moduli (GPa) = 34.08178 29.75614 62.18770
#
# Poissons Ratio (x) = 0.44754 0.28339
# Poissons Ratio (y) = 0.51260 0.45447
# Poissons Ratio (z) = 0.15531 0.21746
#
# Static dielectric constant tensor:
#      x y z
#    x 2.845110 0.000000 -0.020280 
#    y 0.000000 2.939670 0.000000 
#    z -0.020280 0.000000 3.006750 
# 
# 
# High freq. dielectric constant tensor:
#      x y z
#    x 1.589270 0.000000 -0.007360 
#    y 0.000000 1.588710 0.000000 
#    z -0.007360 0.000000 1.607840 
# 
# From -- ./inp_files/113470.got.cif
#   From: 2010.06.25/outbox.cif.g09.slc.cpg/sg15_57_cif.got.tgz:113470.got - 2010.06.28 07:06:18.
