data_PCOD8131559
_publ_section_title
;
Structure prediction by ZEFSAII (Michael W. Deem and Ramdas Pophale) SiO2 
 PCOD8131559
Probable space group: C 2/C
;
_chemical_formula_sum "Si O2"
_cell_formula_units_Z 64
_cell_length_a 19.457404
_cell_length_b 23.295133
_cell_length_c 8.507905
_cell_angle_alpha 90.000000
_cell_angle_beta 115.346167
_cell_angle_gamma 90.000000
_cell_volume 3485.099815
_symmetry_space_group_name_H-M "C 2/C"
_symmetry_group_IT_number 15
_symmetry_cell_setting 'monoclinic'
loop_
_space_group_symop_operation_xyz
x,y,z
-x,y,1/2-z
-x,-y,-z
x,-y,1/2+z
1/2+x,1/2+y,z
1/2-x,1/2+y,1/2-z
1/2-x,1/2-y,-z
1/2+x,1/2-y,1/2+z
loop_
_atom_site_type_symbol
_atom_site_label
_atom_site_fract_x
_atom_site_fract_y
_atom_site_fract_z
Si Si1 0.892593 0.724401 0.762851
Si Si2 0.195595 0.748392 0.295226
Si Si3 0.630263 0.434519 0.544710
Si Si4 0.756843 0.646373 0.668562
Si Si5 0.835977 0.946580 0.284608
Si Si6 0.954207 0.242481 0.985447
Si Si7 0.017746 0.889920 0.947476
Si Si8 0.209888 0.167712 0.280627
O O1 0.845577 0.664884 0.741000
O O2 0.909130 0.739340 0.598388
O O3 0.842774 0.776403 0.778216
O O4 0.969306 0.718798 0.943154
O O5 0.250000 0.750000 0.500000
O O6 0.208798 0.805298 0.208502
O O7 0.102444 0.747758 0.221049
O O8 0.210895 0.690072 0.213301
O O9 0.639536 0.443580 0.370414
O O10 0.669246 0.487237 0.673348
O O11 0.542019 0.425133 0.503509
O O12 0.676167 0.378134 0.630738
O O13 0.743695 0.586412 0.750609
O O14 0.721068 0.639893 0.460930
O O15 0.899144 0.914863 0.448681
O O16 0.984174 0.177335 0.017531
O O17 0.000000 0.901174 0.750000
#
# Coordination Sequence:
#
# PCOD8131559 Si02
#       8
#     8   8   8   8   8   8   8   8
#     4  10  18  33  58  87 114 152 200 243 288 363
#     4  11  21  34  54  84 119 152 197 240 300 359
#     4  12  25  40  56  84 114 160 207 248 295 351
#     4  11  20  37  56  82 114 156 201 248 296 349
#     4  12  25  40  57  78 118 159 209 252 295 350
#     4  11  18  34  57  87 119 156 194 237 299 355
#     4  12  21  37  59  84 118 160 200 241 287 355
#     4  11  19  35  55  81 113 152 193 246 295 352
#
# _framework density 18.363893999999998
#
# number of rings (size 3 to 8) (size 9 to 14) (size 15 to 20)
#    0.000    0.750    6.250    4.500    0.000    0.000 
#    0.000    2.500    0.000    0.000    0.000    0.875 
#    0.000    0.000    0.000    0.250    0.000    0.000 
#
# Total GULP energy -396584.365140 kJ/mol
# GULP energy per Si atom -12393.261411 kJ/mol
# Density = 1.832210 g / cm^3
# Si number density = 18.363894 Si / 1000 Ang^3
#
#
#
# Elastic Constant Matrix: (Units=GPa)
#
#
# Indices 1 2 3 4 5 6 
#
# 1 73.6438 42.9822 31.3343 0.0000 7.1368 0.0000
# 2 42.9822 75.7894 11.3374 0.0000 -0.8561 0.0000
# 3 31.3343 11.3374 111.0073 0.0000 5.0813 0.0000
# 4 0.0000 0.0000 0.0000 27.2212 0.0000 -1.3959
# 5 7.1368 -0.8561 5.0813 0.0000 34.3527 0.0000
# 6 0.0000 0.0000 0.0000 -1.3959 0.0000 31.6340
#
#
#
# Elastic Compliance Matrix: (Units=1/GPa)
#
#
# Indices 1 2 3 4 5 6 
#
# 1 0.023597 -0.012660 -0.005164 0.000000 -0.004454 0.000000
# 2 -0.012660 0.020202 0.001376 0.000000 0.002930 0.000000
# 3 -0.005164 0.001376 0.010345 0.000000 -0.000423 0.000000
# 4 0.000000 0.000000 0.000000 0.036819 0.000000 0.001625
# 5 -0.004454 0.002930 -0.000423 0.000000 0.030171 0.000000
# 6 0.000000 0.000000 0.000000 0.001625 0.000000 0.031683
#
#
# Mechanical properties :
#
#
# Convention : Reuss Voigt Hill
#
# Bulk Modulus (GPa) = 47.06393 47.97203 47.51798
# Shear Modulus (GPa) = 25.93434 30.29401 28.11417
#
# Velocity S-wave (km/s) = 3.76206 4.06600 3.91698
# Velocity P-wave (km/s) = 6.67495 6.94427 6.81094
#
# Compressibility (1/GPa) = 0.02124769
#
# Stress axis : x y z
#
# Youngs Moduli (GPa) = 42.37875 49.50101 96.66666
#
# Poissons Ratio (x) = 0.62669 0.49917
# Poissons Ratio (y) = 0.53652 -0.13304
# Poissons Ratio (z) = 0.21884 -0.06813
#
# Static dielectric constant tensor:
#      x y z
#    x 3.629820 0.000000 0.095660 
#    y 0.000000 5.365680 0.000000 
#    z 0.095660 0.000000 3.501000 
# 
# 
# High freq. dielectric constant tensor:
#      x y z
#    x 1.705150 0.000000 -0.002360 
#    y 0.000000 1.687020 0.000000 
#    z -0.002360 0.000000 1.716700 
# 
# From -- ./inp_files/57889.got.cif
#   From: 2010.06.25/outbox.cif.g09.slc.cpg/sg15_29_cif.got.tgz:57889.got - 2010.06.28 07:06:18.
