data_PCOD8131410
_publ_section_title
;
Structure prediction by ZEFSAII (Michael W. Deem and Ramdas Pophale) SiO2 
 PCOD8131410
Probable space group: C 2/C
;
_chemical_formula_sum "Si O2"
_cell_formula_units_Z 56
_cell_length_a 19.224371
_cell_length_b 17.757535
_cell_length_c 13.824900
_cell_angle_alpha 90.000000
_cell_angle_beta 137.724600
_cell_angle_gamma 90.000000
_cell_volume 3174.789576
_symmetry_space_group_name_H-M "C 2/C"
_symmetry_group_IT_number 15
_symmetry_cell_setting 'monoclinic'
loop_
_space_group_symop_operation_xyz
x,y,z
-x,y,1/2-z
-x,-y,-z
x,-y,1/2+z
1/2+x,1/2+y,z
1/2-x,1/2+y,1/2-z
1/2-x,1/2-y,-z
1/2+x,1/2-y,1/2+z
loop_
_atom_site_type_symbol
_atom_site_label
_atom_site_fract_x
_atom_site_fract_y
_atom_site_fract_z
Si Si1 0.300385 0.143731 0.670132
Si Si2 0.041189 0.363046 0.693428
Si Si3 0.376241 0.706884 0.910758
Si Si4 0.595429 0.164295 0.910782
Si Si5 0.471724 0.972378 0.366644
Si Si6 0.082914 0.253290 0.065796
Si Si7 0.735932 0.224977 0.375920
O O1 0.180407 0.141845 0.583406
O O2 0.306627 0.155724 0.560653
O O3 0.359191 0.066695 0.755705
O O4 0.351482 0.215749 0.776800
O O5 0.162909 0.348027 0.801076
O O6 0.000000 0.324658 0.750000
O O7 0.030352 0.451928 0.697607
O O8 0.975004 0.326603 0.538366
O O9 0.319605 0.711611 0.748059
O O10 0.369404 0.785265 0.963543
O O11 0.497973 0.692298 0.016199
O O12 0.500000 0.199388 0.750000
O O13 0.558175 0.082904 0.911220
O O14 0.500000 0.000000 0.500000
O O15 0.152888 0.209454 0.059067
O O16 0.750000 0.250000 0.500000
#
# Coordination Sequence:
#
# PCOD8131410 Si02
#       7
#     8   8   8   8   8   8   8
#     4  10  19  32  50  74 106 135 171 209 263 315
#     4  11  19  30  51  73 103 136 166 215 266 306
#     4  10  19  31  51  72 101 138 172 219 259 305
#     4  10  18  33  50  75 106 136 169 213 264 316
#     4  11  19  32  51  75 109 137 165 212 267 319
#     4  10  18  33  48  73 101 136 174 215 259 309
#     4  10  20  32  48  73 106 135 177 214 264 319
#
# _framework density 17.638963
#
# number of rings (size 3 to 8) (size 9 to 14) (size 15 to 20)
#    0.000    1.714    5.714    2.571    0.000    0.000 
#    0.000    0.000    0.000    0.857    0.000    0.000 
#    8.571    0.000    0.000    0.000    0.000    0.000 
#
# Total GULP energy -346889.395169 kJ/mol
# GULP energy per Si atom -12388.906970 kJ/mol
# Density = 1.759882 g / cm^3
# Si number density = 17.638963 Si / 1000 Ang^3
#
#
#
# Elastic Constant Matrix: (Units=GPa)
#
#
# Indices 1 2 3 4 5 6 
#
# 1 162.6782 35.9939 35.3665 0.0000 11.4825 0.0000
# 2 35.9939 52.3957 15.4960 0.0000 4.9712 0.0000
# 3 35.3665 15.4960 57.6147 0.0000 -5.2482 0.0000
# 4 0.0000 0.0000 0.0000 20.5961 0.0000 2.7136
# 5 11.4825 4.9712 -5.2482 0.0000 36.7281 0.0000
# 6 0.0000 0.0000 0.0000 2.7136 0.0000 28.1588
#
#
#
# Elastic Compliance Matrix: (Units=1/GPa)
#
#
# Indices 1 2 3 4 5 6 
#
# 1 0.008138 -0.004128 -0.004120 0.000000 -0.002574 0.000000
# 2 -0.004128 0.023323 -0.003961 0.000000 -0.002432 0.000000
# 3 -0.004120 -0.003961 0.021395 0.000000 0.004881 0.000000
# 4 0.000000 0.000000 0.000000 0.049177 0.000000 -0.004739
# 5 -0.002574 -0.002432 0.004881 0.000000 0.029059 0.000000
# 6 0.000000 0.000000 0.000000 -0.004739 0.000000 0.035970
#
#
# Mechanical properties :
#
#
# Convention : Reuss Voigt Hill
#
# Bulk Modulus (GPa) = 35.16146 49.60016 42.38081
# Shear Modulus (GPa) = 24.88082 29.48542 27.18312
#
# Velocity S-wave (km/s) = 3.75982 4.09296 3.92992
# Velocity P-wave (km/s) = 6.23101 7.10754 6.68366
#
# Compressibility (1/GPa) = 0.02844023
#
# Stress axis : x y z
#
# Youngs Moduli (GPa) = 122.88497 42.87558 46.73895
#
# Poissons Ratio (x) = 0.17698 0.19255
# Poissons Ratio (y) = 0.50723 0.18512
# Poissons Ratio (z) = 0.50624 0.16982
#
# Static dielectric constant tensor:
#      x y z
#    x 3.930520 0.000000 -0.217610 
#    y 0.000000 3.329150 0.000000 
#    z -0.217610 0.000000 3.103280 
# 
# 
# High freq. dielectric constant tensor:
#      x y z
#    x 1.712420 0.000000 -0.018020 
#    y 0.000000 1.622650 0.000000 
#    z -0.018020 0.000000 1.675400 
# 
# From -- ./inp_files/168498.got.cif
#   From: 2010.06.25/outbox.cif.g09.slc.cpg/sg15_85_cif.got.tgz:168498.got - 2010.06.28 07:06:18.
