data_PCOD8131413
_publ_section_title
;
Structure prediction by ZEFSAII (Michael W. Deem and Ramdas Pophale) SiO2 
 PCOD8131413
Probable space group: C 2/C
;
_chemical_formula_sum "Si O2"
_cell_formula_units_Z 56
_cell_length_a 29.083076
_cell_length_b 11.977234
_cell_length_c 26.992281
_cell_angle_alpha 90.000000
_cell_angle_beta 19.554054
_cell_angle_gamma 90.000000
_cell_volume 3146.929431
_symmetry_space_group_name_H-M "C 2/C"
_symmetry_group_IT_number 15
_symmetry_cell_setting 'monoclinic'
loop_
_space_group_symop_operation_xyz
x,y,z
-x,y,1/2-z
-x,-y,-z
x,-y,1/2+z
1/2+x,1/2+y,z
1/2-x,1/2+y,1/2-z
1/2-x,1/2-y,-z
1/2+x,1/2-y,1/2+z
loop_
_atom_site_type_symbol
_atom_site_label
_atom_site_fract_x
_atom_site_fract_y
_atom_site_fract_z
Si Si1 0.651907 0.252005 0.332182
Si Si2 0.121278 0.223882 0.163686
Si Si3 0.230815 0.676514 0.882981
Si Si4 0.213840 0.934682 0.651194
Si Si5 0.577489 0.135248 0.315071
Si Si6 0.601661 0.704379 0.347689
Si Si7 0.030022 0.384472 0.341598
O O1 0.727940 0.337134 0.217172
O O2 0.593582 0.147118 0.358709
O O3 0.526613 0.316299 0.485829
O O4 0.757383 0.208130 0.265442
O O5 0.151737 0.113393 0.164014
O O6 0.087181 0.329044 0.233529
O O7 0.000000 0.194553 0.250000
O O8 0.250000 0.250000 0.000000
O O9 0.284878 0.567454 0.856457
O O10 0.304190 0.787665 0.830832
O O11 0.067860 0.686934 0.054067
O O12 0.113814 0.899159 0.797721
O O13 0.365477 0.885734 0.507337
O O14 0.593319 0.008373 0.281541
O O15 0.580342 0.818527 0.338812
#
# Coordination Sequence:
#
# PCOD8131413 Si02
#       7
#     8   8   8   8   8   8   8
#     4  10  18  33  49  78 110 154 187 228 252 305
#     4  11  22  41  62  89 108 128 173 224 288 342
#     4   9  19  37  52  76 109 153 188 220 264 309
#     4  10  21  36  58  80 111 145 175 231 275 325
#     4   9  19  37  53  75 109 154 189 218 261 315
#     4  11  20  32  49  82 114 141 196 225 268 305
#     4  10  21  36  59  80 108 149 176 224 280 329
#
# _framework density 17.795124000000001
#
# number of rings (size 3 to 8) (size 9 to 14) (size 15 to 20)
#    0.857    1.143    4.286    0.000    0.000    2.286 
#    5.143    0.000    0.000    1.714    0.000    0.000 
#    0.000    0.000    0.000    0.000    0.000    0.000 
#
# Total GULP energy -347063.878820 kJ/mol
# GULP energy per Si atom -12395.138529 kJ/mol
# Density = 1.775462 g / cm^3
# Si number density = 17.795124 Si / 1000 Ang^3
#
#
#
# Elastic Constant Matrix: (Units=GPa)
#
#
# Indices 1 2 3 4 5 6 
#
# 1 98.0749 43.3882 16.5409 -0.0013 -16.0261 0.0017
# 2 43.3882 92.5531 15.3854 -0.0008 -16.4965 0.0044
# 3 16.5409 15.3854 50.4622 -0.0041 -9.5492 0.0080
# 4 -0.0013 -0.0008 -0.0041 21.6992 0.0029 -8.3166
# 5 -16.0261 -16.4965 -9.5492 0.0029 32.7299 -0.0017
# 6 0.0017 0.0044 0.0080 -8.3166 -0.0017 16.1187
#
#
#
# Elastic Compliance Matrix: (Units=1/GPa)
#
#
# Indices 1 2 3 4 5 6 
#
# 1 0.013471 -0.005376 -0.002160 0.000000 0.003256 0.000002
# 2 -0.005376 0.014356 -0.001846 -0.000002 0.004065 -0.000003
# 3 -0.002160 -0.001846 0.021922 0.000000 0.004408 -0.000010
# 4 0.000000 -0.000002 0.000000 0.057444 -0.000004 0.029639
# 5 0.003256 0.004065 0.004408 -0.000004 0.035482 -0.000002
# 6 0.000002 -0.000003 -0.000010 0.029639 -0.000002 0.077332
#
#
# Mechanical properties :
#
#
# Convention : Reuss Voigt Hill
#
# Bulk Modulus (GPa) = 32.27332 43.52436 37.89884
# Shear Modulus (GPa) = 20.07232 25.16126 22.61679
#
# Velocity S-wave (km/s) = 3.36217 3.76432 3.56891
# Velocity P-wave (km/s) = 5.76608 6.58826 6.19083
#
# Compressibility (1/GPa) = 0.03098534
#
# Stress axis : x y z
#
# Youngs Moduli (GPa) = 74.23417 69.65733 45.61664
#
# Poissons Ratio (x) = 0.37444 0.09855
# Poissons Ratio (y) = 0.39905 0.08420
# Poissons Ratio (z) = 0.16038 0.12857
#
# Static dielectric constant tensor:
#      x y z
#    x 3.308590 -0.000380 -0.066930 
#    y -0.000380 8.468250 0.000420 
#    z -0.066930 0.000420 3.356410 
# 
# 
# High freq. dielectric constant tensor:
#      x y z
#    x 1.679600 0.000000 -0.014030 
#    y 0.000000 1.670570 0.000000 
#    z -0.014030 0.000000 1.694470 
# 
# From -- ./inp_files/304250.got.cif
#   From: 2010.06.25/outbox.cif.g09.slc.cpg/sg15_153_cif.got.tgz:304250.got - 2010.06.28 07:06:18.
