data_PCOD8131372
_publ_section_title
;
Structure prediction by ZEFSAII (Michael W. Deem and Ramdas Pophale) SiO2 
 PCOD8131372
Probable space group: C 2/C
;
_chemical_formula_sum "Si O2"
_cell_formula_units_Z 60
_cell_length_a 24.057663
_cell_length_b 9.181245
_cell_length_c 17.119796
_cell_angle_alpha 90.000000
_cell_angle_beta 123.530917
_cell_angle_gamma 90.000000
_cell_volume 3152.136291
_symmetry_space_group_name_H-M "C 2/C"
_symmetry_group_IT_number 15
_symmetry_cell_setting 'monoclinic'
loop_
_space_group_symop_operation_xyz
x,y,z
-x,y,1/2-z
-x,-y,-z
x,-y,1/2+z
1/2+x,1/2+y,z
1/2-x,1/2+y,1/2-z
1/2-x,1/2-y,-z
1/2+x,1/2-y,1/2+z
loop_
_atom_site_type_symbol
_atom_site_label
_atom_site_fract_x
_atom_site_fract_y
_atom_site_fract_z
Si Si1 0.843340 0.075067 0.287327
Si Si2 0.180376 0.739557 0.587974
Si Si3 0.500000 0.009434 0.750000
Si Si4 0.374757 0.870241 0.608311
Si Si5 0.168030 0.750486 0.268988
Si Si6 0.821174 0.679082 0.537774
Si Si7 0.432579 0.716979 0.230305
Si Si8 0.691177 0.085346 0.138726
O O1 0.851277 0.133552 0.382386
O O2 0.903112 0.143210 0.283876
O O3 0.770332 0.120290 0.200041
O O4 0.849866 0.902611 0.285492
O O5 0.145677 0.741548 0.476074
O O6 0.258622 0.763124 0.637524
O O7 0.171164 0.583001 0.620782
O O8 0.547121 0.115264 0.733253
O O9 0.451935 0.917396 0.655480
O O10 0.378216 0.785485 0.693414
O O11 0.325245 0.011173 0.572072
O O12 0.156648 0.635906 0.191286
O O13 0.750000 0.750000 0.500000
O O14 0.876646 0.782517 0.619091
O O15 0.836333 0.673533 0.457045
O O16 0.500000 0.636030 0.250000
#
# Coordination Sequence:
#
# PCOD8131372 Si02
#       8
#     8   8   4   8   8   8   8   8
#     4  10  19  36  53  82 117 154 185 236 304 338
#     4   9  20  35  58  85 117 148 193 243 292 348
#     4   8  20  36  58  84 106 158 208 230 294 348
#     4  10  20  38  57  86 119 154 201 245 286 358
#     4  10  21  35  57  87 124 148 187 244 306 342
#     4  10  18  32  59  88 111 147 199 245 288 343
#     4   9  19  35  56  80 114 153 193 238 289 350
#     4   9  19  32  54  87 111 147 192 240 286 345
#
# _framework density 19.03471
#
# number of rings (size 3 to 8) (size 9 to 14) (size 15 to 20)
#    0.400    2.133    1.333    0.400    3.733    2.133 
#    3.600    2.000    0.000    1.600    0.000    0.000 
#    0.000    0.000    0.000    0.000    0.000    0.000 
#
# Total GULP energy -371750.267339 kJ/mol
# GULP energy per Si atom -12391.675578 kJ/mol
# Density = 1.899139 g / cm^3
# Si number density = 19.034710 Si / 1000 Ang^3
#
#
#
# Elastic Constant Matrix: (Units=GPa)
#
#
# Indices 1 2 3 4 5 6 
#
# 1 88.3610 31.6343 45.5478 0.0000 -6.7911 0.0000
# 2 31.6343 60.3693 37.2346 0.0000 -10.4275 0.0000
# 3 45.5478 37.2346 92.0002 0.0000 -11.5026 0.0000
# 4 0.0000 0.0000 0.0000 28.5928 0.0000 -5.1219
# 5 -6.7911 -10.4275 -11.5026 0.0000 33.3179 0.0000
# 6 0.0000 0.0000 0.0000 -5.1219 0.0000 17.9179
#
#
#
# Elastic Compliance Matrix: (Units=1/GPa)
#
#
# Indices 1 2 3 4 5 6 
#
# 1 0.016141 -0.004742 -0.006110 0.000000 -0.000304 0.000000
# 2 -0.004742 0.023990 -0.006839 0.000000 0.004180 0.000000
# 3 -0.006110 -0.006839 0.016972 0.000000 0.002474 0.000000
# 4 0.000000 0.000000 0.000000 0.036861 0.000000 0.010537
# 5 -0.000304 0.004180 0.002474 0.000000 0.032114 0.000000
# 6 0.000000 0.000000 0.000000 0.010537 0.000000 0.058822
#
#
# Mechanical properties :
#
#
# Convention : Reuss Voigt Hill
#
# Bulk Modulus (GPa) = 46.03883 52.17376 49.10629
# Shear Modulus (GPa) = 21.97589 24.38663 23.18126
#
# Velocity S-wave (km/s) = 3.40150 3.58322 3.49354
# Velocity P-wave (km/s) = 6.29812 6.67747 6.49056
#
# Compressibility (1/GPa) = 0.02172080
#
# Stress axis : x y z
#
# Youngs Moduli (GPa) = 61.95366 41.68444 58.92219
#
# Poissons Ratio (x) = 0.19767 0.36001
# Poissons Ratio (y) = 0.29379 0.40296
# Poissons Ratio (z) = 0.37853 0.28507
#
# Static dielectric constant tensor:
#      x y z
#    x 3.277000 0.000000 0.045960 
#    y 0.000000 3.421210 0.000000 
#    z 0.045960 0.000000 3.505000 
# 
# 
# High freq. dielectric constant tensor:
#      x y z
#    x 1.718040 0.000000 -0.003040 
#    y 0.000000 1.728840 0.000000 
#    z -0.003040 0.000000 1.733790 
# 
# From -- ./inp_files/218638.got.cif
#   From: 2010.06.25/outbox.cif.g09.slc.cpg/sg15_110_cif.got.tgz:218638.got - 2010.06.28 07:06:18.
