data_PCOD8131021
_publ_section_title
;
Structure prediction by ZEFSAII (Michael W. Deem and Ramdas Pophale) SiO2 
 PCOD8131021
Probable space group: C 2/C
;
_chemical_formula_sum "Si O2"
_cell_formula_units_Z 44
_cell_length_a 19.438973
_cell_length_b 23.362745
_cell_length_c 9.976619
_cell_angle_alpha 90.000000
_cell_angle_beta 34.537863
_cell_angle_gamma 90.000000
_cell_volume 2568.773939
_symmetry_space_group_name_H-M "C 2/C"
_symmetry_group_IT_number 15
_symmetry_cell_setting 'monoclinic'
loop_
_space_group_symop_operation_xyz
x,y,z
-x,y,1/2-z
-x,-y,-z
x,-y,1/2+z
1/2+x,1/2+y,z
1/2-x,1/2+y,1/2-z
1/2-x,1/2-y,-z
1/2+x,1/2-y,1/2+z
loop_
_atom_site_type_symbol
_atom_site_label
_atom_site_fract_x
_atom_site_fract_y
_atom_site_fract_z
Si Si1 0.196841 0.665992 0.610383
Si Si2 0.075976 0.323141 0.899970
Si Si3 0.868295 0.553076 0.124389
Si Si4 0.154307 0.458839 0.140537
Si Si5 0.734115 0.737484 0.245319
Si Si6 0.000000 0.274491 0.750000
O O1 0.219030 0.598340 0.594172
O O2 0.265326 0.688714 0.369193
O O3 0.246850 0.699167 0.660233
O O4 0.053161 0.677067 0.817061
O O5 0.153886 0.380536 0.803780
O O6 0.155807 0.270399 0.827258
O O7 0.054709 0.316230 0.775703
O O8 0.802364 0.513721 0.342791
O O9 0.812453 0.535674 0.069817
O O10 0.011461 0.544756 0.891312
O O11 0.604680 0.732987 0.526469
#
# Coordination Sequence:
#
# PCOD8131021 Si02
#       6
#     8   8   8   8   8   4
#     4   9  18  30  50  70  96 129 161 193 239 289
#     4  10  18  32  48  69 100 128 158 197 244 289
#     4   9  17  26  46  64  97 128 153 189 241 287
#     4   9  16  28  41  70  96 125 155 189 234 298
#     4  10  18  31  48  68  96 131 159 199 235 285
#     4  10  22  30  44  72 100 130 162 198 240 282
#
# _framework density 17.128793000000002
#
# number of rings (size 3 to 8) (size 9 to 14) (size 15 to 20)
#    0.000    2.545    1.818    1.091    0.000    5.818 
#    0.000    0.000    0.000    0.000    0.000    1.273 
#   10.909    0.182    0.000    0.000    0.000    0.000 
#
# Total GULP energy -272714.892976 kJ/mol
# GULP energy per Si atom -12396.131499 kJ/mol
# Density = 1.708981 g / cm^3
# Si number density = 17.128793 Si / 1000 Ang^3
#
#
#
# Elastic Constant Matrix: (Units=GPa)
#
#
# Indices 1 2 3 4 5 6 
#
# 1 89.7006 52.0212 25.4809 -0.0003 23.9249 0.0001
# 2 52.0212 112.5631 34.9429 0.0000 13.4628 -0.0001
# 3 25.4809 34.9429 81.3200 -0.0006 16.8920 0.0002
# 4 -0.0003 0.0000 -0.0006 21.0712 0.0003 4.8938
# 5 23.9249 13.4628 16.8920 0.0003 21.3194 0.0000
# 6 0.0001 -0.0001 0.0002 4.8938 0.0000 28.6948
#
#
#
# Elastic Compliance Matrix: (Units=1/GPa)
#
#
# Indices 1 2 3 4 5 6 
#
# 1 0.020126 -0.007296 0.000674 0.000001 -0.018512 0.000000
# 2 -0.007296 0.013129 -0.003991 0.000000 0.003059 0.000000
# 3 0.000674 -0.003991 0.016081 0.000001 -0.010978 0.000000
# 4 0.000001 0.000000 0.000001 0.049416 -0.000002 -0.008428
# 5 -0.018512 0.003059 -0.010978 -0.000002 0.074447 0.000001
# 6 0.000000 0.000000 0.000000 -0.008428 0.000001 0.036287
#
#
# Mechanical properties :
#
#
# Convention : Reuss Voigt Hill
#
# Bulk Modulus (GPa) = 35.57422 56.49707 46.03564
# Shear Modulus (GPa) = 20.82641 25.62632 23.22636
#
# Velocity S-wave (km/s) = 3.49072 3.87214 3.68636
# Velocity P-wave (km/s) = 6.08774 7.28331 6.71219
#
# Compressibility (1/GPa) = 0.02811024
#
# Stress axis : x y z
#
# Youngs Moduli (GPa) = 49.68796 76.16817 62.18514
#
# Poissons Ratio (x) = 0.55575 -0.04194
# Poissons Ratio (y) = 0.36254 0.24816
# Poissons Ratio (z) = -0.03351 0.30396
#
# Static dielectric constant tensor:
#      x y z
#    x 3.138760 0.000000 0.290870 
#    y 0.000000 3.317850 0.000000 
#    z 0.290870 0.000000 3.079780 
# 
# 
# High freq. dielectric constant tensor:
#      x y z
#    x 1.644840 0.000000 0.036950 
#    y 0.000000 1.654370 0.000000 
#    z 0.036950 0.000000 1.632790 
# 
# From -- ./inp_files/31832.got.cif
#   From: 2010.06.25/outbox.cif.g09.slc.cpg/sg15_16_cif.got.tgz:31832.got - 2010.06.28 07:06:18.
