data_PCOD8131174
_publ_section_title
;
Structure prediction by ZEFSAII (Michael W. Deem and Ramdas Pophale) SiO2 
 PCOD8131174
Probable space group: C 2/C
;
_chemical_formula_sum "Si O2"
_cell_formula_units_Z 64
_cell_length_a 23.284142
_cell_length_b 20.421324
_cell_length_c 8.737887
_cell_angle_alpha 90.000000
_cell_angle_beta 54.936478
_cell_angle_gamma 90.000000
_cell_volume 3400.772176
_symmetry_space_group_name_H-M "C 2/C"
_symmetry_group_IT_number 15
_symmetry_cell_setting 'monoclinic'
loop_
_space_group_symop_operation_xyz
x,y,z
-x,y,1/2-z
-x,-y,-z
x,-y,1/2+z
1/2+x,1/2+y,z
1/2-x,1/2+y,1/2-z
1/2-x,1/2-y,-z
1/2+x,1/2-y,1/2+z
loop_
_atom_site_type_symbol
_atom_site_label
_atom_site_fract_x
_atom_site_fract_y
_atom_site_fract_z
Si Si1 0.862092 0.433230 0.387397
Si Si2 0.848559 0.701068 0.272184
Si Si3 0.211788 0.075720 0.968369
Si Si4 0.702358 0.446909 0.124870
Si Si5 0.644429 0.940784 0.745479
Si Si6 0.318584 0.292111 0.853128
Si Si7 0.814919 0.818873 0.508239
Si Si8 0.079922 0.702789 0.654892
O O1 0.792176 0.414482 0.400801
O O2 0.844516 0.446906 0.590683
O O3 0.900173 0.497602 0.253683
O O4 0.915940 0.372647 0.297338
O O5 0.886077 0.631020 0.256344
O O6 0.864348 0.760306 0.365282
O O7 0.765912 0.689925 0.411300
O O8 0.872903 0.719681 0.065378
O O9 0.204801 0.060332 0.801362
O O10 0.174131 0.145167 0.048906
O O11 0.171147 0.018034 0.124242
O O12 0.660374 0.387459 0.106390
O O13 0.780747 0.451350 0.943836
O O14 0.319041 0.320727 0.682705
O O15 0.388164 0.248127 0.761616
O O16 0.250000 0.250000 0.000000
O O17 0.000000 0.722205 0.750000
#
# Coordination Sequence:
#
# PCOD8131174 Si02
#       8
#     8   8   8   8   8   8   8   8
#     4  10  18  32  49  73 106 146 191 231 275 318
#     4   9  18  33  52  79 110 141 182 230 285 320
#     4  11  19  31  52  81 114 143 180 228 279 332
#     4  10  19  29  50  84 118 141 170 229 292 326
#     4   9  17  27  47  70 104 141 182 232 269 319
#     4  12  21  34  57  82 106 141 193 231 279 331
#     4  10  19  32  56  84 111 136 181 237 278 333
#     4  11  23  38  53  76 112 152 189 233 281 334
#
# _framework density 18.819254999999998
#
# number of rings (size 3 to 8) (size 9 to 14) (size 15 to 20)
#    0.000    1.750    2.500    6.000    3.500    1.000 
#    0.000    3.125    0.000    0.000    0.000    7.875 
#    0.000    0.000    0.000    0.000    0.000    0.000 
#
# Total GULP energy -396523.817444 kJ/mol
# GULP energy per Si atom -12391.369295 kJ/mol
# Density = 1.877642 g / cm^3
# Si number density = 18.819255 Si / 1000 Ang^3
#
#
#
# Elastic Constant Matrix: (Units=GPa)
#
#
# Indices 1 2 3 4 5 6 
#
# 1 61.7406 48.4933 26.4683 0.0000 13.4782 0.0000
# 2 48.4933 154.9338 46.6776 0.0000 16.0148 0.0000
# 3 26.4683 46.6776 56.8672 0.0000 33.5647 0.0000
# 4 0.0000 0.0000 0.0000 29.5244 0.0000 13.9959
# 5 13.4782 16.0148 33.5647 0.0000 29.0520 0.0000
# 6 0.0000 0.0000 0.0000 13.9959 0.0000 26.7884
#
#
#
# Elastic Compliance Matrix: (Units=1/GPa)
#
#
# Indices 1 2 3 4 5 6 
#
# 1 0.023124 -0.005450 -0.005441 0.000000 -0.001438 0.000000
# 2 -0.005450 0.011067 -0.013955 0.000000 0.012551 0.000000
# 3 -0.005441 -0.013955 0.080296 0.000000 -0.082552 0.000000
# 4 0.000000 0.000000 0.000000 0.045021 0.000000 -0.023522
# 5 -0.001438 0.012551 -0.082552 0.000000 0.123544 0.000000
# 6 0.000000 0.000000 0.000000 -0.023522 0.000000 0.049619
#
#
# Mechanical properties :
#
#
# Convention : Reuss Voigt Hill
#
# Bulk Modulus (GPa) = 15.43320 57.42446 36.42883
# Shear Modulus (GPa) = 12.37745 27.19978 19.78862
#
# Velocity S-wave (km/s) = 2.56735 3.80586 3.24622
# Velocity P-wave (km/s) = 4.12395 7.06347 5.78358
#
# Compressibility (1/GPa) = 0.06479539
#
# Stress axis : x y z
#
# Youngs Moduli (GPa) = 43.24590 90.35710 12.45386
#
# Poissons Ratio (x) = 0.49242 0.06776
# Poissons Ratio (y) = 0.23568 0.17380
# Poissons Ratio (z) = 0.23529 1.26096
#
# Static dielectric constant tensor:
#      x y z
#    x 2.976500 0.000000 0.350140 
#    y 0.000000 4.451200 0.000000 
#    z 0.350140 0.000000 3.279500 
# 
# 
# High freq. dielectric constant tensor:
#      x y z
#    x 1.667620 0.000000 0.045820 
#    y 0.000000 1.765080 0.000000 
#    z 0.045820 0.000000 1.712550 
# 
# From -- ./inp_files/57840.got.cif
#   From: 2010.06.25/outbox.cif.g09.slc.cpg/sg15_29_cif.got.tgz:57840.got - 2010.06.28 07:06:18.
