data_PCOD8131248
_publ_section_title
;
Structure prediction by ZEFSAII (Michael W. Deem and Ramdas Pophale) SiO2 
 PCOD8131248
Probable space group: C 2/C
;
_chemical_formula_sum "Si O2"
_cell_formula_units_Z 48
_cell_length_a 15.618051
_cell_length_b 10.742181
_cell_length_c 25.768668
_cell_angle_alpha 90.000000
_cell_angle_beta 33.466669
_cell_angle_gamma 90.000000
_cell_volume 2384.069018
_symmetry_space_group_name_H-M "C 2/C"
_symmetry_group_IT_number 15
_symmetry_cell_setting 'monoclinic'
loop_
_space_group_symop_operation_xyz
x,y,z
-x,y,1/2-z
-x,-y,-z
x,-y,1/2+z
1/2+x,1/2+y,z
1/2-x,1/2+y,1/2-z
1/2-x,1/2-y,-z
1/2+x,1/2-y,1/2+z
loop_
_atom_site_type_symbol
_atom_site_label
_atom_site_fract_x
_atom_site_fract_y
_atom_site_fract_z
Si Si1 0.180717 0.794955 0.465374
Si Si2 0.523312 0.049375 0.047043
Si Si3 0.869855 0.681150 0.658877
Si Si4 0.900467 0.956542 0.251542
Si Si5 0.187724 0.952008 0.553476
Si Si6 0.737248 0.212702 0.329388
O O1 0.217314 0.923987 0.477209
O O2 0.288112 0.682581 0.431955
O O3 0.229607 0.811393 0.380492
O O4 0.995349 0.766021 0.564991
O O5 0.442098 0.183494 0.095959
O O6 0.444919 0.954598 0.127782
O O7 0.500000 0.000000 0.000000
O O8 0.701953 0.055538 0.975095
O O9 0.708923 0.660395 0.708730
O O10 0.838503 0.734488 0.731667
O O11 0.000000 0.911850 0.250000
O O12 0.801632 0.079097 0.316920
O O13 0.013495 0.996420 0.147334
#
# Coordination Sequence:
#
# PCOD8131248 Si02
#       6
#     8   8   8   8   8   8
#     4  10  19  33  54  82 110 140 179 235 271 316
#     4  10  18  35  57  81 112 144 183 234 276 316
#     4  10  21  34  53  86 111 142 183 230 282 327
#     4  11  20  32  58  84 107 138 191 229 270 331
#     4  10  18  32  53  85 109 135 188 233 263 319
#     4  11  20  35  56  80 112 148 179 227 285 324
#
# _framework density 20.133645999999999
#
# number of rings (size 3 to 8) (size 9 to 14) (size 15 to 20)
#    0.000    1.667    6.667    1.000    0.000    0.000 
#    0.000    1.667    0.000    0.000    0.000    0.000 
#    0.000    0.000    0.000    0.000    0.000    0.000 
#
# Total GULP energy -297321.664620 kJ/mol
# GULP energy per Si atom -12388.402693 kJ/mol
# Density = 2.008782 g / cm^3
# Si number density = 20.133646 Si / 1000 Ang^3
#
#
#
# Elastic Constant Matrix: (Units=GPa)
#
#
# Indices 1 2 3 4 5 6 
#
# 1 87.9551 19.2702 31.7434 0.0000 -4.1540 0.0000
# 2 19.2702 18.5171 9.5965 0.0000 3.8868 -0.0001
# 3 31.7434 9.5965 97.7601 -0.0004 5.3808 0.0001
# 4 0.0000 0.0000 -0.0004 18.6674 0.0001 -4.1084
# 5 -4.1540 3.8868 5.3808 0.0001 40.0653 0.0000
# 6 0.0000 -0.0001 0.0001 -4.1084 0.0000 24.0888
#
#
#
# Elastic Compliance Matrix: (Units=1/GPa)
#
#
# Indices 1 2 3 4 5 6 
#
# 1 0.016465 -0.015857 -0.003998 0.000000 0.003782 0.000000
# 2 -0.015857 0.073103 -0.001558 0.000000 -0.008527 0.000000
# 3 -0.003998 -0.001558 0.011782 0.000000 -0.001846 0.000000
# 4 0.000000 0.000000 0.000000 0.055659 0.000000 0.009493
# 5 0.003782 -0.008527 -0.001846 0.000000 0.026426 0.000000
# 6 0.000000 0.000000 0.000000 0.009493 0.000000 0.043132
#
#
# Mechanical properties :
#
#
# Convention : Reuss Voigt Hill
#
# Bulk Modulus (GPa) = 17.08689 36.16142 26.62416
# Shear Modulus (GPa) = 17.30704 26.13911 21.72307
#
# Velocity S-wave (km/s) = 2.93509 3.60707 3.28829
# Velocity P-wave (km/s) = 4.47118 5.94539 5.26019
#
# Compressibility (1/GPa) = 0.05852439
#
# Stress axis : x y z
#
# Youngs Moduli (GPa) = 60.73496 13.67939 84.87666
#
# Poissons Ratio (x) = 0.21691 0.33933
# Poissons Ratio (y) = 0.96305 0.13224
# Poissons Ratio (z) = 0.24281 0.02131
#
# Static dielectric constant tensor:
#      x y z
#    x 3.867670 0.000000 -0.274520 
#    y 0.000000 3.239270 0.000000 
#    z -0.274520 0.000000 3.987250 
# 
# 
# High freq. dielectric constant tensor:
#      x y z
#    x 1.777340 0.000000 -0.012530 
#    y 0.000000 1.714360 0.000000 
#    z -0.012530 0.000000 1.805650 
# 
# From -- ./inp_files/244407.got.cif
#   From: 2010.06.25/outbox.cif.g09.slc.cpg/sg15_123_cif.got.tgz:244407.got - 2010.06.28 07:06:18.
