data_PCOD8131083
_publ_section_title
;
Structure prediction by ZEFSAII (Michael W. Deem and Ramdas Pophale) SiO2 
 PCOD8131083
Probable space group: C 2/C
;
_chemical_formula_sum "Si O2"
_cell_formula_units_Z 60
_cell_length_a 21.760981
_cell_length_b 20.140745
_cell_length_c 8.416094
_cell_angle_alpha 90.000000
_cell_angle_beta 122.013017
_cell_angle_gamma 90.000000
_cell_volume 3127.687771
_symmetry_space_group_name_H-M "C 2/C"
_symmetry_group_IT_number 15
_symmetry_cell_setting 'monoclinic'
loop_
_space_group_symop_operation_xyz
x,y,z
-x,y,1/2-z
-x,-y,-z
x,-y,1/2+z
1/2+x,1/2+y,z
1/2-x,1/2+y,1/2-z
1/2-x,1/2-y,-z
1/2+x,1/2-y,1/2+z
loop_
_atom_site_type_symbol
_atom_site_label
_atom_site_fract_x
_atom_site_fract_y
_atom_site_fract_z
Si Si1 0.228968 0.930345 0.395048
Si Si2 0.760555 0.067468 0.946922
Si Si3 0.100025 0.573626 0.325366
Si Si4 0.910876 0.436266 0.332524
Si Si5 0.682245 0.293310 0.459626
Si Si6 0.741952 0.694451 0.356682
Si Si7 0.500000 0.165929 0.750000
Si Si8 0.610607 0.799432 0.638600
O O1 0.204927 0.922717 0.179343
O O2 0.314455 0.927900 0.533520
O O3 0.190533 0.871044 0.435925
O O4 0.204422 0.001019 0.431345
O O5 0.674685 0.066690 0.810958
O O6 0.782363 0.126923 0.093018
O O7 0.066455 0.510648 0.186767
O O8 0.064384 0.577144 0.451772
O O9 0.082001 0.636805 0.194524
O O10 0.945095 0.380615 0.269826
O O11 0.750000 0.250000 0.500000
O O12 0.677200 0.285465 0.644716
O O13 0.615178 0.262053 0.269418
O O14 0.750000 0.750000 0.500000
O O15 0.814748 0.685459 0.352378
O O16 0.452841 0.215078 0.574853
#
# Coordination Sequence:
#
# PCOD8131083 Si02
#       8
#     8   8   8   8   8   8   4   8
#     4  10  18  31  53  75 109 135 180 223 275 325
#     4  10  19  31  50  79 104 142 172 220 271 328
#     4  10  20  35  51  75 101 147 193 230 277 308
#     4  10  22  33  52  71 109 147 192 234 258 319
#     4  10  19  34  51  75  99 139 175 231 278 320
#     4  11  21  34  56  80 108 139 180 226 288 334
#     4  12  24  40  52  76 108 152 200 230 272 320
#     4  11  23  36  54  73 106 143 188 233 270 332
#
# _framework density 19.183501
#
# number of rings (size 3 to 8) (size 9 to 14) (size 15 to 20)
#    0.000    1.600    4.000    3.200    5.600    2.667 
#    0.000    0.000    0.000    0.000    0.000    0.000 
#    0.000    9.600    0.000    0.400    0.000    2.400 
#
# Total GULP energy -371901.856210 kJ/mol
# GULP energy per Si atom -12396.728540 kJ/mol
# Density = 1.913984 g / cm^3
# Si number density = 19.183501 Si / 1000 Ang^3
#
#
#
# Elastic Constant Matrix: (Units=GPa)
#
#
# Indices 1 2 3 4 5 6 
#
# 1 30.9088 16.9107 31.5354 0.0000 -14.9251 0.0000
# 2 16.9107 125.7876 68.4608 0.0000 -12.3360 0.0000
# 3 31.5354 68.4608 169.7635 0.0000 -28.0182 0.0000
# 4 0.0000 0.0000 0.0000 43.6002 0.0000 -7.4610
# 5 -14.9251 -12.3360 -28.0182 0.0000 27.9225 0.0000
# 6 0.0000 0.0000 0.0000 -7.4610 0.0000 13.6943
#
#
#
# Elastic Compliance Matrix: (Units=1/GPa)
#
#
# Indices 1 2 3 4 5 6 
#
# 1 0.047959 -0.001838 -0.004879 0.000000 0.019928 0.000000
# 2 -0.001838 0.010261 -0.003848 0.000000 -0.000310 0.000000
# 3 -0.004879 -0.003848 0.009153 0.000000 0.004877 0.000000
# 4 0.000000 0.000000 0.000000 0.025294 0.000000 0.013781
# 5 0.019928 -0.000310 0.004877 0.000000 0.051222 0.000000
# 6 0.000000 0.000000 0.000000 0.013781 0.000000 0.080531
#
#
# Mechanical properties :
#
#
# Convention : Reuss Voigt Hill
#
# Bulk Modulus (GPa) = 21.62420 62.25263 41.93842
# Shear Modulus (GPa) = 19.15976 31.01361 25.08668
#
# Velocity S-wave (km/s) = 3.16375 4.02516 3.62017
# Velocity P-wave (km/s) = 4.96412 7.35691 6.27561
#
# Compressibility (1/GPa) = 0.04624448
#
# Stress axis : x y z
#
# Youngs Moduli (GPa) = 20.85109 97.45955 109.24899
#
# Poissons Ratio (x) = 0.17912 0.53301
# Poissons Ratio (y) = 0.03832 0.42035
# Poissons Ratio (z) = 0.10173 0.37499
#
# Static dielectric constant tensor:
#      x y z
#    x 3.152040 0.000000 -0.318830 
#    y 0.000000 3.790390 0.000000 
#    z -0.318830 0.000000 4.030590 
# 
# 
# High freq. dielectric constant tensor:
#      x y z
#    x 1.691560 0.000000 -0.034830 
#    y 0.000000 1.740100 0.000000 
#    z -0.034830 0.000000 1.767260 
# 
# From -- ./inp_files/62744.got.cif
#   From: 2010.06.25/outbox.cif.g09.slc.cpg/sg15_32_cif.got.tgz:62744.got - 2010.06.28 07:06:18.
