data_PCOD8131817
_publ_section_title
;
Structure prediction by ZEFSAII (Michael W. Deem and Ramdas Pophale) SiO2 
 PCOD8131817
Probable space group: C 2/C
;
_chemical_formula_sum "Si O2"
_cell_formula_units_Z 60
_cell_length_a 11.773531
_cell_length_b 23.625739
_cell_length_c 14.786745
_cell_angle_alpha 90.000000
_cell_angle_beta 55.141067
_cell_angle_gamma 90.000000
_cell_volume 3375.017176
_symmetry_space_group_name_H-M "C 2/C"
_symmetry_group_IT_number 15
_symmetry_cell_setting 'monoclinic'
loop_
_space_group_symop_operation_xyz
x,y,z
-x,y,1/2-z
-x,-y,-z
x,-y,1/2+z
1/2+x,1/2+y,z
1/2-x,1/2+y,1/2-z
1/2-x,1/2-y,-z
1/2+x,1/2-y,1/2+z
loop_
_atom_site_type_symbol
_atom_site_label
_atom_site_fract_x
_atom_site_fract_y
_atom_site_fract_z
Si Si1 0.245923 0.841775 0.391448
Si Si2 0.986960 0.840037 0.120280
Si Si3 0.829960 0.658897 0.050268
Si Si4 0.773675 0.137988 0.874113
Si Si5 0.526806 0.942229 0.437476
Si Si6 0.858486 0.228616 0.259129
Si Si7 0.075417 0.261615 0.466063
Si Si8 0.000000 0.579370 0.750000
O O1 0.237933 0.839498 0.502182
O O2 0.266071 0.781283 0.334602
O O3 0.366940 0.881512 0.301468
O O4 0.094624 0.865713 0.429215
O O5 0.118481 0.877863 0.093520
O O6 0.868056 0.837256 0.250948
O O7 0.045897 0.778051 0.065882
O O8 0.725174 0.670762 0.180242
O O9 0.908414 0.599784 0.027411
O O10 0.938290 0.709285 0.990276
O O11 0.679743 0.083877 0.888440
O O12 0.679339 0.189511 0.951660
O O13 0.503137 0.956215 0.341472
O O14 0.500000 0.000000 0.500000
O O15 0.870829 0.227012 0.145384
O O16 0.000000 0.230845 0.250000
#
# Coordination Sequence:
#
# PCOD8131817 Si02
#       8
#     8   8   8   8   8   8   8   4
#     4  11  16  30  50  81 110 142 180 211 261 320
#     4  11  20  31  51  77 114 147 173 211 263 328
#     4  10  20  31  52  80 109 143 182 224 265 311
#     4  10  21  35  51  79 107 147 186 214 263 320
#     4  10  21  40  63  79 100 133 190 241 273 314
#     4  12  18  27  47  79 118 146 166 213 265 314
#     4  11  18  30  48  78 116 149 180 206 254 329
#     4  10  18  34  60  86 100 128 180 228 268 328
#
# _framework density 17.777687
#
# number of rings (size 3 to 8) (size 9 to 14) (size 15 to 20)
#    0.000    1.333    6.000    2.400    0.000    0.000 
#    0.000    1.333    2.933    6.400    0.000    0.000 
#    0.000    0.000    0.000    0.000    0.000    0.000 
#
# Total GULP energy -371705.525205 kJ/mol
# GULP energy per Si atom -12390.184173 kJ/mol
# Density = 1.773722 g / cm^3
# Si number density = 17.777687 Si / 1000 Ang^3
#
#
#
# Elastic Constant Matrix: (Units=GPa)
#
#
# Indices 1 2 3 4 5 6 
#
# 1 150.8137 40.6525 35.4322 0.0000 -5.1168 0.0000
# 2 40.6525 78.6682 54.2572 0.0000 7.2388 0.0000
# 3 35.4322 54.2572 82.5917 0.0000 0.1415 0.0000
# 4 0.0000 0.0000 0.0000 18.1666 0.0000 8.1101
# 5 -5.1168 7.2388 0.1415 0.0000 18.1075 0.0000
# 6 0.0000 0.0000 0.0000 8.1101 0.0000 3.0552
#
#
#
# Elastic Compliance Matrix: (Units=1/GPa)
#
#
# Indices 1 2 3 4 5 6 
#
# 1 0.008016 -0.003872 -0.000902 0.000000 0.003820 0.000000
# 2 -0.003872 0.026743 -0.015887 0.000000 -0.011661 0.000000
# 3 -0.000902 -0.015887 0.022921 0.000000 0.005917 0.000000
# 4 0.000000 0.000000 0.000000 -0.297449 0.000000 0.789585
# 5 0.003820 -0.011661 0.005917 0.000000 0.060920 0.000000
# 6 0.000000 0.000000 0.000000 0.789585 0.000000 -1.768661
#
#
# Mechanical properties :
#
#
# Convention : Reuss Voigt Hill
#
# Bulk Modulus (GPa) = 61.13125 63.63972 62.38548
# Shear Modulus (GPa) = -2.63056 19.98130 8.67537
#
# Velocity S-wave (km/s) = -1.21775 3.35618 2.21145
# Velocity P-wave (km/s) = 5.69947 7.13399 6.45669
#
# Compressibility (1/GPa) = 0.01635825
#
# Stress axis : x y z
#
# Youngs Moduli (GPa) = 124.75312 37.39345 43.62747
#
# Poissons Ratio (x) = 0.14478 0.03935
# Poissons Ratio (y) = 0.48300 0.69312
# Poissons Ratio (z) = 0.11252 0.59408
#
# Static dielectric constant tensor:
#      x y z
#    x 3.909030 0.000000 -0.049200 
#    y 0.000000 2.841400 0.000000 
#    z -0.049200 0.000000 3.403450 
# 
# 
# High freq. dielectric constant tensor:
#      x y z
#    x 1.712010 0.000000 -0.005710 
#    y 0.000000 1.628320 0.000000 
#    z -0.005710 0.000000 1.685260 
# 
# From -- ./inp_files/147849.got.cif
#   From: 2010.06.25/outbox.cif.g09.slc.cpg/sg15_74_cif.got.tgz:147849.got - 2010.06.28 07:06:18.
