data_PCOD8131163
_publ_section_title
;
Structure prediction by ZEFSAII (Michael W. Deem and Ramdas Pophale) SiO2 
 PCOD8131163
Probable space group: C 2/C
;
_chemical_formula_sum "Si O2"
_cell_formula_units_Z 64
_cell_length_a 20.078621
_cell_length_b 11.524221
_cell_length_c 29.587497
_cell_angle_alpha 90.000000
_cell_angle_beta 34.419272
_cell_angle_gamma 90.000000
_cell_volume 3869.813519
_symmetry_space_group_name_H-M "C 2/C"
_symmetry_group_IT_number 15
_symmetry_cell_setting 'monoclinic'
loop_
_space_group_symop_operation_xyz
x,y,z
-x,y,1/2-z
-x,-y,-z
x,-y,1/2+z
1/2+x,1/2+y,z
1/2-x,1/2+y,1/2-z
1/2-x,1/2-y,-z
1/2+x,1/2-y,1/2+z
loop_
_atom_site_type_symbol
_atom_site_label
_atom_site_fract_x
_atom_site_fract_y
_atom_site_fract_z
Si Si1 0.695970 0.547299 0.265505
Si Si2 0.081849 0.268509 0.356835
Si Si3 0.084771 0.626715 0.244214
Si Si4 0.175722 0.996902 0.879529
Si Si5 0.067284 0.405920 0.491527
Si Si6 0.041683 0.475012 0.860481
Si Si7 0.523177 0.316102 0.499546
Si Si8 0.721137 0.647912 0.685528
O O1 0.622260 0.666845 0.299806
O O2 0.665629 0.490881 0.331002
O O3 0.836402 0.569610 0.185229
O O4 0.659139 0.460214 0.245770
O O5 0.047999 0.385214 0.349091
O O6 0.191736 0.286810 0.328989
O O7 0.974148 0.228017 0.449662
O O8 0.195269 0.541118 0.176959
O O9 0.015300 0.590178 0.328536
O O10 0.121997 0.761656 0.225317
O O11 0.000000 0.606253 0.250000
O O12 0.084541 0.903097 0.949047
O O13 0.146396 0.121146 0.918628
O O14 0.063394 0.442781 0.546274
O O15 0.996282 0.287041 0.524804
O O16 0.000000 0.500000 0.500000
O O17 0.203579 0.396487 0.399703
#
# Coordination Sequence:
#
# PCOD8131163 Si02
#       8
#     8   8   8   8   8   8   8   8
#     4   9  16  27  48  74 105 127 161 213 263 307
#     4   9  15  30  47  79 109 121 157 223 270 306
#     4  11  22  38  52  68 105 146 178 208 238 308
#     4   9  17  31  48  76 101 136 166 210 258 308
#     4  11  17  28  49  81 111 127 149 211 280 318
#     4  10  19  29  49  76 101 134 168 203 261 308
#     4   9  16  27  49  77 110 124 154 216 274 302
#     4  10  18  32  46  74 108 129 168 209 258 315
#
# _framework density 16.538264999999999
#
# number of rings (size 3 to 8) (size 9 to 14) (size 15 to 20)
#    0.000    2.250    8.750    0.000    1.750    1.000 
#    0.000    0.625    0.000    1.500    0.000    0.000 
#    0.000    0.000    0.000    0.000    0.000    0.000 
#
# Total GULP energy -396674.520011 kJ/mol
# GULP energy per Si atom -12396.078750 kJ/mol
# Density = 1.650062 g / cm^3
# Si number density = 16.538265 Si / 1000 Ang^3
#
#
#
# Elastic Constant Matrix: (Units=GPa)
#
#
# Indices 1 2 3 4 5 6 
#
# 1 56.2617 30.0897 34.8932 0.0002 9.5129 -0.0009
# 2 30.0897 116.6151 67.8709 0.0006 7.9961 -0.0023
# 3 34.8932 67.8709 110.3856 -0.0001 12.9269 0.0000
# 4 0.0002 0.0006 -0.0001 39.1082 0.0001 2.6810
# 5 9.5129 7.9961 12.9269 0.0001 11.6577 0.0001
# 6 -0.0009 -0.0023 0.0000 2.6810 0.0001 12.8312
#
#
#
# Elastic Compliance Matrix: (Units=1/GPa)
#
#
# Indices 1 2 3 4 5 6 
#
# 1 0.024190 -0.002781 -0.004423 0.000000 -0.012928 0.000001
# 2 -0.002781 0.013674 -0.007695 0.000000 0.001423 0.000002
# 3 -0.004423 -0.007695 0.016259 0.000000 -0.009142 -0.000002
# 4 0.000000 0.000000 0.000000 0.025942 0.000000 -0.005420
# 5 -0.012928 0.001423 -0.009142 0.000000 0.105491 -0.000002
# 6 0.000001 0.000002 -0.000002 -0.005420 -0.000002 0.079067
#
#
# Mechanical properties :
#
#
# Convention : Reuss Voigt Hill
#
# Bulk Modulus (GPa) = 41.10900 60.99667 51.05284
# Shear Modulus (GPa) = 16.52735 22.74668 19.63702
#
# Velocity S-wave (km/s) = 3.16466 3.71266 3.44956
# Velocity P-wave (km/s) = 6.18582 7.43913 6.84123
#
# Compressibility (1/GPa) = 0.02432557
#
# Stress axis : x y z
#
# Youngs Moduli (GPa) = 41.33884 73.13299 61.50457
#
# Poissons Ratio (x) = 0.20340 0.27201
# Poissons Ratio (y) = 0.11498 0.47327
# Poissons Ratio (z) = 0.18283 0.56275
#
# Static dielectric constant tensor:
#      x y z
#    x 2.423480 0.000000 0.113980 
#    y 0.000000 3.562950 0.000000 
#    z 0.113980 0.000000 3.734860 
# 
# 
# High freq. dielectric constant tensor:
#      x y z
#    x 1.550130 0.000000 0.009650 
#    y 0.000000 1.653210 0.000000 
#    z 0.009650 0.000000 1.651600 
# 
# From -- ./inp_files/277088.got.cif
#   From: 2010.06.25/outbox.cif.g09.slc.cpg/sg15_139_cif.got.tgz:277088.got - 2010.06.28 07:06:18.
