data_PCOD8131271
_publ_section_title
;
Structure prediction by ZEFSAII (Michael W. Deem and Ramdas Pophale) SiO2 
 PCOD8131271
Probable space group: C 2/C
;
_chemical_formula_sum "Si O2"
_cell_formula_units_Z 60
_cell_length_a 31.221053
_cell_length_b 8.807376
_cell_length_c 20.259494
_cell_angle_alpha 90.000000
_cell_angle_beta 35.861769
_cell_angle_gamma 90.000000
_cell_volume 3263.589758
_symmetry_space_group_name_H-M "C 2/C"
_symmetry_group_IT_number 15
_symmetry_cell_setting 'monoclinic'
loop_
_space_group_symop_operation_xyz
x,y,z
-x,y,1/2-z
-x,-y,-z
x,-y,1/2+z
1/2+x,1/2+y,z
1/2-x,1/2+y,1/2-z
1/2-x,1/2-y,-z
1/2+x,1/2-y,1/2+z
loop_
_atom_site_type_symbol
_atom_site_label
_atom_site_fract_x
_atom_site_fract_y
_atom_site_fract_z
Si Si1 0.500000 0.551333 0.750000
Si Si2 0.314200 0.218645 0.674564
Si Si3 0.834525 0.626916 0.152411
Si Si4 0.920058 0.619957 0.913256
Si Si5 0.570611 0.717034 0.224602
Si Si6 0.404814 0.379981 0.666750
Si Si7 0.453474 0.712324 0.588220
Si Si8 0.551526 0.790647 0.583993
O O1 0.435890 0.450646 0.798186
O O2 0.539172 0.651114 0.646669
O O3 0.233933 0.263710 0.750566
O O4 0.338028 0.329718 0.704061
O O5 0.369576 0.240716 0.545437
O O6 0.313336 0.044039 0.698162
O O7 0.898898 0.671609 0.121505
O O8 0.859052 0.642330 0.045416
O O9 0.889915 0.669523 0.877738
O O10 0.947824 0.446848 0.876162
O O11 0.988690 0.726856 0.842936
O O12 0.613204 0.698551 0.240212
O O13 0.409006 0.562471 0.666079
O O14 0.482708 0.323795 0.543042
O O15 0.488077 0.797691 0.607923
#
# Coordination Sequence:
#
# PCOD8131271 Si02
#       8
#     4   8   8   8   8   8   8   8
#     4  10  18  32  54  82 112 138 184 214 276 316
#     4  10  24  35  60  77 115 139 189 222 281 318
#     4  11  21  39  54  83 105 152 177 231 270 332
#     4   9  20  32  55  77 114 140 181 217 272 320
#     4  10  19  32  53  85 110 148 173 228 262 329
#     4  10  19  35  53  87 108 144 178 233 265 323
#     4  10  20  32  59  79 116 136 186 225 275 313
#     4  10  20  36  54  89 104 147 174 233 266 325
#
# _framework density 18.384664000000001
#
# number of rings (size 3 to 8) (size 9 to 14) (size 15 to 20)
#    0.000    2.133    2.667    1.600    1.867    3.733 
#    0.000    0.667    0.000    0.800    0.000    0.000 
#    0.000    0.000    0.000    0.000    0.000    0.000 
#
# Total GULP energy -371952.479134 kJ/mol
# GULP energy per Si atom -12398.415971 kJ/mol
# Density = 1.834282 g / cm^3
# Si number density = 18.384664 Si / 1000 Ang^3
#
#
#
# Elastic Constant Matrix: (Units=GPa)
#
#
# Indices 1 2 3 4 5 6 
#
# 1 64.9654 35.9632 35.2811 0.0231 11.7333 -0.0089
# 2 35.9632 118.9317 36.6585 0.0082 8.6557 -0.0081
# 3 35.2811 36.6585 58.9817 0.0237 1.0753 -0.0106
# 4 0.0231 0.0082 0.0237 28.1268 -0.0176 5.6187
# 5 11.7333 8.6557 1.0753 -0.0176 33.1989 0.0095
# 6 -0.0089 -0.0081 -0.0106 5.6187 0.0095 26.0712
#
#
#
# Elastic Compliance Matrix: (Units=1/GPa)
#
#
# Indices 1 2 3 4 5 6 
#
# 1 0.025784 -0.003110 -0.013347 -0.000016 -0.007870 0.000009
# 2 -0.003110 0.010988 -0.004940 0.000002 -0.001606 0.000000
# 3 -0.013347 -0.004940 0.027915 -0.000009 0.005101 0.000005
# 4 -0.000016 0.000002 -0.000009 0.037153 0.000027 -0.008007
# 5 -0.007870 -0.001606 0.005101 0.000027 0.033156 -0.000019
# 6 0.000009 0.000000 0.000005 -0.008007 -0.000019 0.040082
#
#
# Mechanical properties :
#
#
# Convention : Reuss Voigt Hill
#
# Bulk Modulus (GPa) = 45.67420 50.96491 48.31955
# Shear Modulus (GPa) = 22.20546 26.47779 24.34163
#
# Velocity S-wave (km/s) = 3.47915 3.79913 3.64265
# Velocity P-wave (km/s) = 6.40600 6.85756 6.63562
#
# Compressibility (1/GPa) = 0.02189420
#
# Stress axis : x y z
#
# Youngs Moduli (GPa) = 38.78356 91.00788 35.82271
#
# Poissons Ratio (x) = 0.28304 0.47812
# Poissons Ratio (y) = 0.12062 0.17695
# Poissons Ratio (z) = 0.51764 0.44955
#
# Static dielectric constant tensor:
#      x y z
#    x 3.348900 -0.000020 0.246030 
#    y -0.000020 3.550710 0.000050 
#    z 0.246030 0.000050 3.238210 
# 
# 
# High freq. dielectric constant tensor:
#      x y z
#    x 1.702020 0.000000 0.018740 
#    y 0.000000 1.728110 0.000000 
#    z 0.018740 0.000000 1.690360 
# 
# From -- ./inp_files/258724.got.cif
#   From: 2010.06.25/outbox.cif.g09.slc.cpg/sg15_130_cif.got.tgz:258724.got - 2010.06.28 07:06:18.
