data_PCOD8131494
_publ_section_title
;
Structure prediction by ZEFSAII (Michael W. Deem and Ramdas Pophale) SiO2 
 PCOD8131494
Probable space group: C 2/C
;
_chemical_formula_sum "Si O2"
_cell_formula_units_Z 64
_cell_length_a 21.433345
_cell_length_b 24.632185
_cell_length_c 12.525932
_cell_angle_alpha 90.000000
_cell_angle_beta 150.163409
_cell_angle_gamma 90.000000
_cell_volume 3290.186433
_symmetry_space_group_name_H-M "C 2/C"
_symmetry_group_IT_number 15
_symmetry_cell_setting 'monoclinic'
loop_
_space_group_symop_operation_xyz
x,y,z
-x,y,1/2-z
-x,-y,-z
x,-y,1/2+z
1/2+x,1/2+y,z
1/2-x,1/2+y,1/2-z
1/2-x,1/2-y,-z
1/2+x,1/2-y,1/2+z
loop_
_atom_site_type_symbol
_atom_site_label
_atom_site_fract_x
_atom_site_fract_y
_atom_site_fract_z
Si Si1 0.265833 0.150801 0.479832
Si Si2 0.271853 0.042793 0.197890
Si Si3 0.604759 0.214420 0.996079
Si Si4 0.862406 0.828282 0.507449
Si Si5 0.403941 0.434133 0.868156
Si Si6 0.996299 0.618613 0.947555
Si Si7 0.197736 0.576631 0.690591
Si Si8 0.328646 0.451254 0.181304
O O1 0.281162 0.183984 0.393148
O O2 0.225854 0.187730 0.521715
O O3 0.150238 0.111597 0.288259
O O4 0.390629 0.116078 0.697278
O O5 0.166521 0.059831 0.124505
O O6 0.401195 0.072394 0.422113
O O7 0.293068 0.978029 0.225179
O O8 0.224431 0.063198 0.013029
O O9 0.642809 0.276418 0.082248
O O10 0.500000 0.220102 0.750000
O O11 0.559291 0.179202 0.031500
O O12 0.813218 0.883074 0.381092
O O13 0.000000 0.842067 0.750000
O O14 0.384481 0.488285 0.770004
O O15 0.547807 0.416389 0.105067
O O16 0.931439 0.607661 0.967375
O O17 0.210417 0.559664 0.585358
#
# Coordination Sequence:
#
# PCOD8131494 Si02
#       8
#     8   8   8   8   8   8   8   8
#     4  10  18  33  55  83 112 144 179 232 282 340
#     4  11  21  36  56  81 115 157 191 232 279 339
#     4   9  18  32  53  81 112 145 183 235 283 341
#     4  10  19  32  53  81 115 145 185 231 294 336
#     4  10  20  34  55  79 110 149 189 236 278 333
#     4  10  20  35  54  83 116 146 189 224 285 340
#     4  10  22  35  53  81 116 152 186 237 284 340
#     4  10  21  35  51  79 111 149 196 227 281 329
#
# _framework density 19.451785000000001
#
# number of rings (size 3 to 8) (size 9 to 14) (size 15 to 20)
#    0.000    2.000    1.250    3.375    0.000    3.500 
#    0.000    0.000    0.000    0.750    0.000    0.000 
#    0.000    0.000    0.000    0.000    0.000    0.000 
#
# Total GULP energy -396517.512932 kJ/mol
# GULP energy per Si atom -12391.172279 kJ/mol
# Density = 1.940751 g / cm^3
# Si number density = 19.451785 Si / 1000 Ang^3
#
#
#
# Elastic Constant Matrix: (Units=GPa)
#
#
# Indices 1 2 3 4 5 6 
#
# 1 80.9376 21.6725 14.4488 0.0000 11.0636 0.0000
# 2 21.6725 115.5695 35.5571 0.0000 8.4363 0.0000
# 3 14.4488 35.5571 65.9897 0.0000 7.0188 0.0000
# 4 0.0000 0.0000 0.0000 14.7653 0.0000 3.3751
# 5 11.0636 8.4363 7.0188 0.0000 26.0727 0.0000
# 6 0.0000 0.0000 0.0000 3.3751 0.0000 30.1555
#
#
#
# Elastic Compliance Matrix: (Units=1/GPa)
#
#
# Indices 1 2 3 4 5 6 
#
# 1 0.013765 -0.001748 -0.001555 0.000000 -0.004857 0.000000
# 2 -0.001748 0.010687 -0.005237 0.000000 -0.001306 0.000000
# 3 -0.001555 -0.005237 0.018598 0.000000 -0.002652 0.000000
# 4 0.000000 0.000000 0.000000 0.069504 0.000000 -0.007779
# 5 -0.004857 -0.001306 -0.002652 0.000000 0.041552 0.000000
# 6 0.000000 0.000000 0.000000 -0.007779 0.000000 0.034032
#
#
# Mechanical properties :
#
#
# Convention : Reuss Voigt Hill
#
# Bulk Modulus (GPa) = 38.50666 45.09483 41.80075
# Shear Modulus (GPa) = 23.37802 26.91992 25.14897
#
# Velocity S-wave (km/s) = 3.47052 3.72416 3.59958
# Velocity P-wave (km/s) = 5.99152 6.45954 6.22993
#
# Compressibility (1/GPa) = 0.02596953
#
# Stress axis : x y z
#
# Youngs Moduli (GPa) = 72.64892 93.56968 53.76838
#
# Poissons Ratio (x) = 0.16358 0.08363
# Poissons Ratio (y) = 0.12701 0.28158
# Poissons Ratio (z) = 0.11299 0.49001
#
# Static dielectric constant tensor:
#      x y z
#    x 3.694340 0.000000 0.313960 
#    y 0.000000 3.639230 0.000000 
#    z 0.313960 0.000000 3.309770 
# 
# 
# High freq. dielectric constant tensor:
#      x y z
#    x 1.765650 0.000000 0.030410 
#    y 0.000000 1.748060 0.000000 
#    z 0.030410 0.000000 1.722930 
# 
# From -- ./inp_files/115020.got.cif
#   From: 2010.06.25/outbox.cif.g09.slc.cpg/sg15_58_cif.got.tgz:115020.got - 2010.06.28 07:06:18.
