data_PCOD8131675
_publ_section_title
;
Structure prediction by ZEFSAII (Michael W. Deem and Ramdas Pophale) SiO2 
 PCOD8131675
Probable space group: C 2/C
;
_chemical_formula_sum "Si O2"
_cell_formula_units_Z 40
_cell_length_a 13.262459
_cell_length_b 22.719801
_cell_length_c 9.028566
_cell_angle_alpha 90.000000
_cell_angle_beta 50.730693
_cell_angle_gamma 90.000000
_cell_volume 2106.148378
_symmetry_space_group_name_H-M "C 2/C"
_symmetry_group_IT_number 15
_symmetry_cell_setting 'monoclinic'
loop_
_space_group_symop_operation_xyz
x,y,z
-x,y,1/2-z
-x,-y,-z
x,-y,1/2+z
1/2+x,1/2+y,z
1/2-x,1/2+y,1/2-z
1/2-x,1/2-y,-z
1/2+x,1/2-y,1/2+z
loop_
_atom_site_type_symbol
_atom_site_label
_atom_site_fract_x
_atom_site_fract_y
_atom_site_fract_z
Si Si1 0.130474 0.318027 0.211715
Si Si2 0.441218 0.577611 0.047781
Si Si3 0.743751 0.577305 0.776759
Si Si4 0.680206 0.498809 0.092374
Si Si5 0.373986 0.686746 0.270992
O O1 0.165650 0.364761 0.307745
O O2 0.113060 0.253521 0.302186
O O3 0.000000 0.337562 0.250000
O O4 0.245734 0.318336 0.986921
O O5 0.423197 0.531659 0.201469
O O6 0.365029 0.639141 0.147146
O O7 0.592576 0.593207 0.892369
O O8 0.390249 0.549541 0.944060
O O9 0.784079 0.534973 0.602516
O O10 0.760954 0.545198 0.919726
O O11 0.500000 0.669650 0.250000
#
# Coordination Sequence:
#
# PCOD8131675 Si02
#       5
#     8   8   8   8   8
#     4  10  21  33  52  77 107 137 175 210 258 308
#     4  11  17  31  53  83 104 130 171 225 257 299
#     4  11  18  33  51  80 106 137 168 218 258 309
#     4  10  20  29  54  82 108 131 174 217 263 299
#     4  10  18  34  55  78 100 136 176 221 252 298
#
# _framework density 18.992014999999999
#
# number of rings (size 3 to 8) (size 9 to 14) (size 15 to 20)
#    0.000    1.600    4.000    4.800    0.000    0.000 
#    0.000    2.000    0.000    0.000    0.000    0.000 
#    0.000    0.000    0.000    0.000    0.000    0.000 
#
# Total GULP energy -247910.283025 kJ/mol
# GULP energy per Si atom -12395.514151 kJ/mol
# Density = 1.894879 g / cm^3
# Si number density = 18.992015 Si / 1000 Ang^3
#
#
#
# Elastic Constant Matrix: (Units=GPa)
#
#
# Indices 1 2 3 4 5 6 
#
# 1 78.2087 44.1742 26.8272 0.0000 0.7200 0.0000
# 2 44.1742 120.0850 20.7659 0.0000 9.5294 0.0000
# 3 26.8272 20.7659 50.6712 0.0000 13.6197 0.0000
# 4 0.0000 0.0000 0.0000 21.0429 0.0000 2.9150
# 5 0.7200 9.5294 13.6197 0.0000 31.5550 0.0000
# 6 0.0000 0.0000 0.0000 2.9150 0.0000 38.8407
#
#
#
# Elastic Compliance Matrix: (Units=1/GPa)
#
#
# Indices 1 2 3 4 5 6 
#
# 1 0.019223 -0.005904 -0.009184 0.000000 0.005309 0.000000
# 2 -0.005904 0.010821 -0.000528 0.000000 -0.002905 0.000000
# 3 -0.009184 -0.000528 0.027958 0.000000 -0.011698 0.000000
# 4 0.000000 0.000000 0.000000 0.048021 0.000000 -0.003604
# 5 0.005309 -0.002905 -0.011698 0.000000 0.037496 0.000000
# 6 0.000000 0.000000 0.000000 -0.003604 0.000000 0.026017
#
#
# Mechanical properties :
#
#
# Convention : Reuss Voigt Hill
#
# Bulk Modulus (GPa) = 37.35638 48.05549 42.70593
# Shear Modulus (GPa) = 23.84442 28.76756 26.30599
#
# Velocity S-wave (km/s) = 3.54714 3.89616 3.72574
# Velocity P-wave (km/s) = 6.04057 6.75263 6.40650
#
# Compressibility (1/GPa) = 0.02676919
#
# Stress axis : x y z
#
# Youngs Moduli (GPa) = 52.02163 92.41127 35.76745
#
# Poissons Ratio (x) = 0.54562 0.32851
# Poissons Ratio (y) = 0.30715 0.01888
# Poissons Ratio (z) = 0.47779 0.04878
#
# Static dielectric constant tensor:
#      x y z
#    x 2.904790 0.000000 0.690160 
#    y 0.000000 4.068600 0.000000 
#    z 0.690160 0.000000 2.757490 
# 
# 
# High freq. dielectric constant tensor:
#      x y z
#    x 1.710930 0.000000 0.006350 
#    y 0.000000 1.757460 0.000000 
#    z 0.006350 0.000000 1.705900 
# 
# From -- ./inp_files/31731.got.cif
#   From: 2010.06.25/outbox.cif.g09.slc.cpg/sg15_16_cif.got.tgz:31731.got - 2010.06.28 07:06:18.
