data_PCOD8131389
_publ_section_title
;
Structure prediction by ZEFSAII (Michael W. Deem and Ramdas Pophale) SiO2 
 PCOD8131389
Probable space group: C 2/C
;
_chemical_formula_sum "Si O2"
_cell_formula_units_Z 44
_cell_length_a 13.126633
_cell_length_b 12.992873
_cell_length_c 16.659079
_cell_angle_alpha 90.000000
_cell_angle_beta 53.450010
_cell_angle_gamma 90.000000
_cell_volume 2282.483290
_symmetry_space_group_name_H-M "C 2/C"
_symmetry_group_IT_number 15
_symmetry_cell_setting 'monoclinic'
loop_
_space_group_symop_operation_xyz
x,y,z
-x,y,1/2-z
-x,-y,-z
x,-y,1/2+z
1/2+x,1/2+y,z
1/2-x,1/2+y,1/2-z
1/2-x,1/2-y,-z
1/2+x,1/2-y,1/2+z
loop_
_atom_site_type_symbol
_atom_site_label
_atom_site_fract_x
_atom_site_fract_y
_atom_site_fract_z
Si Si1 0.224036 0.871025 0.917972
Si Si2 0.253189 0.103376 0.883751
Si Si3 0.000000 0.735164 0.750000
Si Si4 0.500871 0.624272 0.096029
Si Si5 0.397998 0.592800 0.696858
Si Si6 0.352129 0.670361 0.873831
O O1 0.086219 0.852980 0.941137
O O2 0.312729 0.777310 0.849154
O O3 0.282142 0.981343 0.867686
O O4 0.229249 0.863587 0.011875
O O5 0.382648 0.165399 0.834261
O O6 0.200089 0.134334 0.821901
O O7 0.148882 0.132107 0.000961
O O8 0.033062 0.803431 0.812578
O O9 0.473050 0.508054 0.134482
O O10 0.330879 0.580791 0.815738
O O11 0.502842 0.680942 0.664283
#
# Coordination Sequence:
#
# PCOD8131389 Si02
#       6
#     8   8   4   8   8   8
#     4  10  20  36  62  86 122 141 188 238 294 330
#     4  11  22  41  56  84 115 158 184 242 284 340
#     4  12  26  36  60  80 120 150 198 238 290 326
#     4  11  21  41  58  85 111 160 194 234 270 356
#     4  10  19  36  64  84 113 148 198 224 280 348
#     4  10  18  32  61  97 106 145 187 241 273 341
#
# _framework density 19.277249999999999
#
# number of rings (size 3 to 8) (size 9 to 14) (size 15 to 20)
#    0.000    1.455    3.636    3.818    0.000    1.455 
#    0.000    0.000    0.000    5.455    0.000    0.000 
#    0.000    0.000    0.000    0.000    0.000    0.000 
#
# Total GULP energy -272586.987739 kJ/mol
# GULP energy per Si atom -12390.317625 kJ/mol
# Density = 1.923337 g / cm^3
# Si number density = 19.277250 Si / 1000 Ang^3
#
#
#
# Elastic Constant Matrix: (Units=GPa)
#
#
# Indices 1 2 3 4 5 6 
#
# 1 75.1710 46.9777 34.4643 0.0000 -1.8352 0.0000
# 2 46.9777 73.3474 31.6896 0.0000 -9.2579 0.0000
# 3 34.4643 31.6896 101.1675 0.0000 8.1060 0.0000
# 4 0.0000 0.0000 0.0000 27.7446 0.0000 0.9886
# 5 -1.8352 -9.2579 8.1060 0.0000 35.4630 0.0000
# 6 0.0000 0.0000 0.0000 0.9886 0.0000 33.0176
#
#
#
# Elastic Compliance Matrix: (Units=1/GPa)
#
#
# Indices 1 2 3 4 5 6 
#
# 1 0.023448 -0.013662 -0.003585 0.000000 -0.001534 0.000000
# 2 -0.013662 0.024789 -0.003639 0.000000 0.006596 0.000000
# 3 -0.003585 -0.003639 0.012567 0.000000 -0.004008 0.000000
# 4 0.000000 0.000000 0.000000 0.036081 0.000000 -0.001080
# 5 -0.001534 0.006596 -0.004008 0.000000 0.030757 0.000000
# 6 0.000000 0.000000 0.000000 -0.001080 0.000000 0.030319
#
#
# Mechanical properties :
#
#
# Convention : Reuss Voigt Hill
#
# Bulk Modulus (GPa) = 52.54820 52.88325 52.71573
# Shear Modulus (GPa) = 24.26261 28.34867 26.30564
#
# Velocity S-wave (km/s) = 3.55154 3.83897 3.69805
# Velocity P-wave (km/s) = 6.64352 6.86606 6.75570
#
# Compressibility (1/GPa) = 0.01903015
#
# Stress axis : x y z
#
# Youngs Moduli (GPa) = 42.64844 40.34035 79.57309
#
# Poissons Ratio (x) = 0.55114 0.28529
# Poissons Ratio (y) = 0.58268 0.28958
# Poissons Ratio (z) = 0.15291 0.14680
#
# Static dielectric constant tensor:
#      x y z
#    x 3.584630 0.000000 0.217960 
#    y 0.000000 3.558450 0.000000 
#    z 0.217960 0.000000 3.787220 
# 
# 
# High freq. dielectric constant tensor:
#      x y z
#    x 1.745340 0.000000 0.020500 
#    y 0.000000 1.736810 0.000000 
#    z 0.020500 0.000000 1.758700 
# 
# From -- ./inp_files/142938.got.cif
#   From: 2010.06.25/outbox.cif.g09.slc.cpg/sg15_72_cif.got.tgz:142938.got - 2010.06.28 07:06:18.
