data_PCOD8131298
_publ_section_title
;
Structure prediction by ZEFSAII (Michael W. Deem and Ramdas Pophale) SiO2 
 PCOD8131298
Probable space group: C 2/C
;
_chemical_formula_sum "Si O2"
_cell_formula_units_Z 52
_cell_length_a 20.062749
_cell_length_b 20.579777
_cell_length_c 13.906998
_cell_angle_alpha 90.000000
_cell_angle_beta 151.068390
_cell_angle_gamma 90.000000
_cell_volume 2777.788734
_symmetry_space_group_name_H-M "C 2/C"
_symmetry_group_IT_number 15
_symmetry_cell_setting 'monoclinic'
loop_
_space_group_symop_operation_xyz
x,y,z
-x,y,1/2-z
-x,-y,-z
x,-y,1/2+z
1/2+x,1/2+y,z
1/2-x,1/2+y,1/2-z
1/2-x,1/2-y,-z
1/2+x,1/2-y,1/2+z
loop_
_atom_site_type_symbol
_atom_site_label
_atom_site_fract_x
_atom_site_fract_y
_atom_site_fract_z
Si Si1 0.692922 0.463354 0.169943
Si Si2 0.147026 0.589670 0.463546
Si Si3 0.795907 0.779468 0.156618
Si Si4 0.897769 0.806493 0.967042
Si Si5 0.500000 0.405734 0.250000
Si Si6 0.099804 0.085540 0.168871
Si Si7 0.285619 0.491015 0.521609
O O1 0.829005 0.439213 0.398932
O O2 0.642880 0.533017 0.143533
O O3 0.565135 0.413715 0.021512
O O4 0.738005 0.468506 0.116323
O O5 0.263613 0.644578 0.603354
O O6 0.154528 0.529634 0.397386
O O7 0.000000 0.621473 0.250000
O O8 0.959370 0.769020 0.373437
O O9 0.750000 0.750000 0.000000
O O10 0.717292 0.746100 0.147503
O O11 0.912628 0.860335 0.069093
O O12 0.854478 0.843966 0.814379
O O13 0.595433 0.455156 0.310560
O O14 0.177389 0.071991 0.367514
#
# Coordination Sequence:
#
# PCOD8131298 Si02
#       7
#     8   8   8   8   4   8   8
#     4  10  18  33  57  84 111 142 179 230 284 326
#     4  11  23  36  50  81 122 147 182 222 276 349
#     4  12  22  35  54  80 113 155 187 227 278 329
#     4  12  21  34  54  83 117 147 183 232 277 335
#     4  12  16  30  56  84 108 132 176 230 280 324
#     4  10  18  32  55  87 109 136 186 232 275 327
#     4  11  19  33  62  86 109 140 181 235 283 328
#
# _framework density 18.719926000000001
#
# number of rings (size 3 to 8) (size 9 to 14) (size 15 to 20)
#    0.000    0.923    7.692    1.846    0.000    0.615 
#    0.000    0.000    0.000    0.923    0.000    0.000 
#    0.000    0.000    0.000    0.000    0.000    0.000 
#
# Total GULP energy -322240.276770 kJ/mol
# GULP energy per Si atom -12393.856799 kJ/mol
# Density = 1.867732 g / cm^3
# Si number density = 18.719926 Si / 1000 Ang^3
#
#
#
# Elastic Constant Matrix: (Units=GPa)
#
#
# Indices 1 2 3 4 5 6 
#
# 1 114.4008 42.9046 41.1563 0.0000 -20.5570 0.0000
# 2 42.9046 69.9716 27.0887 0.0000 -7.5035 0.0000
# 3 41.1563 27.0887 53.9731 0.0000 -7.0748 0.0000
# 4 0.0000 0.0000 0.0000 22.1556 0.0000 -1.9903
# 5 -20.5570 -7.5035 -7.0748 0.0000 34.9961 0.0000
# 6 0.0000 0.0000 0.0000 -1.9903 0.0000 36.3041
#
#
#
# Elastic Compliance Matrix: (Units=1/GPa)
#
#
# Indices 1 2 3 4 5 6 
#
# 1 0.014543 -0.005329 -0.007648 0.000000 0.005854 0.000000
# 2 -0.005329 0.019836 -0.005901 0.000000 -0.000070 0.000000
# 3 -0.007648 -0.005901 0.027290 0.000000 -0.000241 0.000000
# 4 0.000000 0.000000 0.000000 0.045359 0.000000 0.002487
# 5 0.005854 -0.000070 -0.000241 0.000000 0.031950 0.000000
# 6 0.000000 0.000000 0.000000 0.002487 0.000000 0.027681
#
#
# Mechanical properties :
#
#
# Convention : Reuss Voigt Hill
#
# Bulk Modulus (GPa) = 41.81828 51.18276 46.50052
# Shear Modulus (GPa) = 23.54213 27.17088 25.35650
#
# Velocity S-wave (km/s) = 3.55011 3.81391 3.68437
# Velocity P-wave (km/s) = 6.26033 6.84071 6.55694
#
# Compressibility (1/GPa) = 0.02391299
#
# Stress axis : x y z
#
# Youngs Moduli (GPa) = 68.76201 50.41302 36.64395
#
# Poissons Ratio (x) = 0.26864 0.28024
# Poissons Ratio (y) = 0.36642 0.21625
# Poissons Ratio (z) = 0.52586 0.29751
#
# Static dielectric constant tensor:
#      x y z
#    x 3.414700 0.000000 0.270420 
#    y 0.000000 3.846570 0.000000 
#    z 0.270420 0.000000 3.117770 
# 
# 
# High freq. dielectric constant tensor:
#      x y z
#    x 1.728090 0.000000 -0.001160 
#    y 0.000000 1.709520 0.000000 
#    z -0.001160 0.000000 1.697500 
# 
# From -- ./inp_files/169025.got.cif
#   From: 2010.06.25/outbox.cif.g09.slc.cpg/sg15_85_cif.got.tgz:169025.got - 2010.06.28 07:06:18.
