data_PCOD8131233
_publ_section_title
;
Structure prediction by ZEFSAII (Michael W. Deem and Ramdas Pophale) SiO2 
 PCOD8131233
Probable space group: C 2/C
;
_chemical_formula_sum "Si O2"
_cell_formula_units_Z 60
_cell_length_a 19.392298
_cell_length_b 8.718827
_cell_length_c 20.598244
_cell_angle_alpha 90.000000
_cell_angle_beta 72.027185
_cell_angle_gamma 90.000000
_cell_volume 3312.765992
_symmetry_space_group_name_H-M "C 2/C"
_symmetry_group_IT_number 15
_symmetry_cell_setting 'monoclinic'
loop_
_space_group_symop_operation_xyz
x,y,z
-x,y,1/2-z
-x,-y,-z
x,-y,1/2+z
1/2+x,1/2+y,z
1/2-x,1/2+y,1/2-z
1/2-x,1/2-y,-z
1/2+x,1/2-y,1/2+z
loop_
_atom_site_type_symbol
_atom_site_label
_atom_site_fract_x
_atom_site_fract_y
_atom_site_fract_z
Si Si1 0.326429 0.310422 0.498228
Si Si2 0.915920 0.352658 0.076032
Si Si3 0.537640 0.309623 0.130387
Si Si4 0.929106 0.300614 0.213537
Si Si5 0.054323 0.704941 0.458562
Si Si6 0.575282 0.638189 0.162254
Si Si7 0.324590 0.660748 0.488908
Si Si8 0.000000 0.572784 0.250000
O O1 0.250000 0.250000 0.500000
O O2 0.349929 0.210327 0.552996
O O3 0.385031 0.283820 0.425298
O O4 0.314712 0.488762 0.517246
O O5 0.889659 0.305336 0.155811
O O6 0.928748 0.533233 0.067932
O O7 0.991548 0.276360 0.031089
O O8 0.472310 0.303098 0.096335
O O9 0.538196 0.471537 0.167433
O O10 0.530000 0.174611 0.183319
O O11 0.894113 0.173661 0.273127
O O12 0.932134 0.470092 0.244635
O O13 0.012681 0.263135 0.171825
O O14 0.128284 0.764881 0.467808
O O15 0.637413 0.664479 0.092043
O O16 0.250000 0.750000 0.500000
#
# Coordination Sequence:
#
# PCOD8131233 Si02
#       8
#     8   8   8   8   8   8   8   4
#     4  10  23  37  58  81 108 147 183 229 280 324
#     4  10  19  34  57  83 115 139 181 233 268 323
#     4  10  20  35  57  82 112 140 181 232 268 329
#     4  10  19  32  55  84 113 143 178 226 274 329
#     4  10  20  33  56  86 109 142 184 228 274 316
#     4   9  20  33  54  82 110 144 178 222 278 325
#     4  11  22  37  58  79 112 145 186 229 277 333
#     4  10  18  32  52  86 108 146 180 218 276 318
#
# _framework density 18.111754000000001
#
# number of rings (size 3 to 8) (size 9 to 14) (size 15 to 20)
#    0.000    2.133    2.667    1.600    1.867    3.733 
#    0.000    0.000    2.933    0.000    0.000    0.000 
#    0.000    0.000    0.000    0.000    0.000    0.000 
#
# Total GULP energy -371794.057072 kJ/mol
# GULP energy per Si atom -12393.135236 kJ/mol
# Density = 1.807053 g / cm^3
# Si number density = 18.111754 Si / 1000 Ang^3
#
#
#
# Elastic Constant Matrix: (Units=GPa)
#
#
# Indices 1 2 3 4 5 6 
#
# 1 109.9885 37.0079 40.5437 0.0000 14.9692 0.0000
# 2 37.0079 99.2761 53.3103 -0.0002 11.2408 -0.0002
# 3 40.5437 53.3103 117.5453 0.0000 27.3500 0.0000
# 4 0.0000 -0.0002 0.0000 32.5780 0.0000 2.8277
# 5 14.9692 11.2408 27.3500 0.0000 23.4630 0.0000
# 6 0.0000 -0.0002 0.0000 2.8277 0.0000 25.9651
#
#
#
# Elastic Compliance Matrix: (Units=1/GPa)
#
#
# Indices 1 2 3 4 5 6 
#
# 1 0.011185 -0.002832 -0.001686 0.000000 -0.003814 0.000000
# 2 -0.002832 0.014047 -0.005830 0.000000 0.001873 0.000000
# 3 -0.001686 -0.005830 0.014864 0.000000 -0.013458 0.000000
# 4 0.000000 0.000000 0.000000 0.030988 0.000000 -0.003375
# 5 -0.003814 0.001873 -0.013458 0.000000 0.059844 0.000000
# 6 0.000000 0.000000 0.000000 -0.003375 0.000000 0.038881
#
#
# Mechanical properties :
#
#
# Convention : Reuss Voigt Hill
#
# Bulk Modulus (GPa) = 51.54476 65.39261 58.46869
# Shear Modulus (GPa) = 25.38420 29.46441 27.42431
#
# Velocity S-wave (km/s) = 3.74777 4.03775 3.89546
# Velocity P-wave (km/s) = 6.87377 7.61061 7.25155
#
# Compressibility (1/GPa) = 0.01940061
#
# Stress axis : x y z
#
# Youngs Moduli (GPa) = 89.40166 71.18873 67.27591
#
# Poissons Ratio (x) = 0.20164 0.11344
# Poissons Ratio (y) = 0.25322 0.39219
# Poissons Ratio (z) = 0.15074 0.41500
#
# Static dielectric constant tensor:
#      x y z
#    x 3.079040 0.000000 0.194440 
#    y 0.000000 3.457310 0.000000 
#    z 0.194440 0.000000 3.616260 
# 
# 
# High freq. dielectric constant tensor:
#      x y z
#    x 1.669010 0.000000 0.017110 
#    y 0.000000 1.716160 0.000000 
#    z 0.017110 0.000000 1.707870 
# 
# From -- ./inp_files/247436.got.cif
#   From: 2010.06.25/outbox.cif.g09.slc.cpg/sg15_124_cif.got.tgz:247436.got - 2010.06.28 07:06:18.
