data_PCOD8131390
_publ_section_title
;
Structure prediction by ZEFSAII (Michael W. Deem and Ramdas Pophale) SiO2 
 PCOD8131390
Probable space group: C 2/C
;
_chemical_formula_sum "Si O2"
_cell_formula_units_Z 56
_cell_length_a 21.784267
_cell_length_b 8.297194
_cell_length_c 20.262924
_cell_angle_alpha 90.000000
_cell_angle_beta 126.072307
_cell_angle_gamma 90.000000
_cell_volume 2960.296595
_symmetry_space_group_name_H-M "C 2/C"
_symmetry_group_IT_number 15
_symmetry_cell_setting 'monoclinic'
loop_
_space_group_symop_operation_xyz
x,y,z
-x,y,1/2-z
-x,-y,-z
x,-y,1/2+z
1/2+x,1/2+y,z
1/2-x,1/2+y,1/2-z
1/2-x,1/2-y,-z
1/2+x,1/2-y,1/2+z
loop_
_atom_site_type_symbol
_atom_site_label
_atom_site_fract_x
_atom_site_fract_y
_atom_site_fract_z
Si Si1 0.058286 0.238146 0.059228
Si Si2 0.181757 0.113879 0.907445
Si Si3 0.444223 0.612598 0.156059
Si Si4 0.152746 0.662223 0.504869
Si Si5 0.486841 0.944080 0.127675
Si Si6 0.966123 0.071292 0.889754
Si Si7 0.569778 0.215448 0.248796
O O1 0.132590 0.298521 0.067920
O O2 0.025441 0.379145 0.085153
O O3 0.083976 0.079195 0.116075
O O4 0.993050 0.187043 0.965860
O O5 0.268093 0.065002 0.944188
O O6 0.147418 0.258229 0.839119
O O7 0.138621 0.943591 0.871993
O O8 0.172137 0.176445 0.976222
O O9 0.500000 0.566997 0.250000
O O10 0.447715 0.801768 0.143899
O O11 0.462098 0.508839 0.101846
O O12 0.080635 0.569724 0.428581
O O13 0.551405 0.031913 0.213588
O O14 0.918285 0.177295 0.808921
O O15 0.500000 0.277850 0.250000
#
# Coordination Sequence:
#
# PCOD8131390 Si02
#       7
#     8   8   8   8   8   8   8
#     4  10  20  36  56  88 113 147 194 243 275 348
#     4  11  22  37  62  79 122 152 193 229 302 354
#     4  11  19  35  59  91 110 146 195 251 283 341
#     4  11  22  39  56  88 115 158 184 241 291 353
#     4  11  23  33  63  88 116 144 202 245 289 334
#     4  10  18  32  62  82 108 144 200 234 280 329
#     4  12  18  37  59  87 108 150 196 243 282 346
#
# _framework density 18.917023
#
# number of rings (size 3 to 8) (size 9 to 14) (size 15 to 20)
#    0.000    1.143    7.143    0.857    0.000    0.571 
#    0.000    1.429    0.000    0.000    0.000    0.000 
#    0.000    0.000    0.000    0.000    0.000    0.000 
#
# Total GULP energy -346986.935136 kJ/mol
# GULP energy per Si atom -12392.390541 kJ/mol
# Density = 1.887397 g / cm^3
# Si number density = 18.917023 Si / 1000 Ang^3
#
#
#
# Elastic Constant Matrix: (Units=GPa)
#
#
# Indices 1 2 3 4 5 6 
#
# 1 104.6723 37.8322 28.3055 0.0000 -3.9374 0.0000
# 2 37.8322 77.9077 12.8552 0.0000 -7.7942 0.0000
# 3 28.3055 12.8552 54.9243 0.0000 -9.5440 0.0000
# 4 0.0000 0.0000 0.0000 27.4841 0.0000 -16.4737
# 5 -3.9374 -7.7942 -9.5440 0.0000 29.3483 0.0000
# 6 0.0000 0.0000 0.0000 -16.4737 0.0000 27.6330
#
#
#
# Elastic Compliance Matrix: (Units=1/GPa)
#
#
# Indices 1 2 3 4 5 6 
#
# 1 0.013041 -0.005551 -0.005695 0.000000 -0.001577 0.000000
# 2 -0.005551 0.015916 -0.000275 0.000000 0.003393 0.000000
# 3 -0.005695 -0.000275 0.022322 0.000000 0.006422 0.000000
# 4 0.000000 0.000000 0.000000 0.056615 0.000000 0.033752
# 5 -0.001577 0.003393 0.006422 0.000000 0.036851 0.000000
# 6 0.000000 0.000000 0.000000 0.033752 0.000000 0.056310
#
#
# Mechanical properties :
#
#
# Convention : Reuss Voigt Hill
#
# Bulk Modulus (GPa) = 35.41488 43.94335 39.67911
# Shear Modulus (GPa) = 21.41236 27.46050 24.43643
#
# Velocity S-wave (km/s) = 3.36804 3.81416 3.59802
# Velocity P-wave (km/s) = 5.82123 6.53277 6.18723
#
# Compressibility (1/GPa) = 0.02823672
#
# Stress axis : x y z
#
# Youngs Moduli (GPa) = 76.68346 62.83039 44.79817
#
# Poissons Ratio (x) = 0.34874 0.25514
# Poissons Ratio (y) = 0.42563 0.01232
# Poissons Ratio (z) = 0.43674 0.01729
#
# Static dielectric constant tensor:
#      x y z
#    x 3.601810 0.000000 -0.309750 
#    y 0.000000 3.576120 0.000000 
#    z -0.309750 0.000000 3.484780 
# 
# 
# High freq. dielectric constant tensor:
#      x y z
#    x 1.713420 0.000000 -0.031650 
#    y 0.000000 1.737990 0.000000 
#    z -0.031650 0.000000 1.726020 
# 
# From -- ./inp_files/251501.got.cif
#   From: 2010.06.25/outbox.cif.g09.slc.cpg/sg15_126_cif.got.tgz:251501.got - 2010.06.28 07:06:18.
