data_PCOD8131342
_publ_section_title
;
Structure prediction by ZEFSAII (Michael W. Deem and Ramdas Pophale) SiO2 
 PCOD8131342
Probable space group: C 2/C
;
_chemical_formula_sum "Si O2"
_cell_formula_units_Z 52
_cell_length_a 20.639879
_cell_length_b 9.049543
_cell_length_c 19.545665
_cell_angle_alpha 90.000000
_cell_angle_beta 43.555647
_cell_angle_gamma 90.000000
_cell_volume 2515.593702
_symmetry_space_group_name_H-M "C 2/C"
_symmetry_group_IT_number 15
_symmetry_cell_setting 'monoclinic'
loop_
_space_group_symop_operation_xyz
x,y,z
-x,y,1/2-z
-x,-y,-z
x,-y,1/2+z
1/2+x,1/2+y,z
1/2-x,1/2+y,1/2-z
1/2-x,1/2-y,-z
1/2+x,1/2-y,1/2+z
loop_
_atom_site_type_symbol
_atom_site_label
_atom_site_fract_x
_atom_site_fract_y
_atom_site_fract_z
Si Si1 0.313312 0.904445 0.143163
Si Si2 0.288737 0.167017 0.067780
Si Si3 0.892332 0.036557 0.650024
Si Si4 0.000000 0.228240 0.250000
Si Si5 0.114653 0.722567 0.780035
Si Si6 0.156463 0.077184 0.058866
Si Si7 0.401957 0.625086 0.007640
O O1 0.200932 0.889399 0.244942
O O2 0.371848 0.896586 0.169393
O O3 0.336197 0.058231 0.087178
O O4 0.348820 0.775502 0.066620
O O5 0.210867 0.264092 0.165455
O O6 0.254116 0.076024 0.026603
O O7 0.358545 0.289897 0.984823
O O8 0.984064 0.142728 0.586313
O O9 0.917000 0.881461 0.666902
O O10 0.874965 0.001027 0.583583
O O11 0.032990 0.329963 0.289241
O O12 0.081312 0.109941 0.174480
O O13 0.140579 0.922361 0.033105
#
# Coordination Sequence:
#
# PCOD8131342 Si02
#       7
#     8   8   8   4   8   8   8
#     4  10  20  35  57  86 123 144 185 251 298 331
#     4   9  20  35  56  82 119 148 186 237 294 345
#     4   9  18  34  56  85 117 149 200 230 287 357
#     4  10  18  32  58  80 106 146 202 232 270 348
#     4   9  17  33  56  83 110 149 189 240 278 344
#     4  10  19  35  59  83 108 153 199 234 279 354
#     4  10  19  33  62  83 111 156 198 239 283 347
#
# _framework density 20.671063
#
# number of rings (size 3 to 8) (size 9 to 14) (size 15 to 20)
#    0.000    2.462    1.538    0.923    0.000    0.615 
#    0.000    0.769   16.923    0.000    0.000    0.000 
#    0.000    0.000    0.000    0.000    0.000    0.000 
#
# Total GULP energy -322106.549190 kJ/mol
# GULP energy per Si atom -12388.713430 kJ/mol
# Density = 2.062402 g / cm^3
# Si number density = 20.671063 Si / 1000 Ang^3
#
#
#
# Elastic Constant Matrix: (Units=GPa)
#
#
# Indices 1 2 3 4 5 6 
#
# 1 116.7341 41.6459 15.3487 -0.0001 28.0788 0.0001
# 2 41.6459 43.1761 18.7722 -0.0003 3.7395 0.0003
# 3 15.3487 18.7722 71.6891 -0.0001 -0.2727 0.0000
# 4 -0.0001 -0.0003 -0.0001 27.0901 0.0000 5.4207
# 5 28.0788 3.7395 -0.2727 0.0000 37.7535 0.0000
# 6 0.0001 0.0003 0.0000 5.4207 0.0000 30.7120
#
#
#
# Elastic Compliance Matrix: (Units=1/GPa)
#
#
# Indices 1 2 3 4 5 6 
#
# 1 0.016521 -0.015174 0.000395 0.000000 -0.010782 0.000000
# 2 -0.015174 0.040338 -0.007287 0.000001 0.007237 0.000000
# 3 0.000395 -0.007287 0.015775 0.000000 0.000542 0.000000
# 4 0.000000 0.000001 0.000000 0.038265 0.000000 -0.006754
# 5 -0.010782 0.007237 0.000542 0.000000 0.033794 0.000000
# 6 0.000000 0.000000 0.000000 -0.006754 0.000000 0.033753
#
#
# Mechanical properties :
#
#
# Convention : Reuss Voigt Hill
#
# Bulk Modulus (GPa) = 35.08315 42.57033 38.82674
# Shear Modulus (GPa) = 21.54456 29.49994 25.52225
#
# Velocity S-wave (km/s) = 3.23190 3.78181 3.51762
# Velocity P-wave (km/s) = 5.56200 6.30146 5.94324
#
# Compressibility (1/GPa) = 0.02850371
#
# Stress axis : x y z
#
# Youngs Moduli (GPa) = 60.52793 24.79040 63.39299
#
# Poissons Ratio (x) = 0.37616 -0.02505
# Poissons Ratio (y) = 0.91844 0.46192
# Poissons Ratio (z) = -0.02391 0.18064
#
# Static dielectric constant tensor:
#      x y z
#    x 3.887840 0.000000 0.249840 
#    y 0.000000 3.220730 0.000000 
#    z 0.249840 0.000000 4.051610 
# 
# 
# High freq. dielectric constant tensor:
#      x y z
#    x 1.809840 0.000000 0.014140 
#    y 0.000000 1.750400 0.000000 
#    z 0.014140 0.000000 1.826440 
# 
# From -- ./inp_files/256970.got.cif
#   From: 2010.06.25/outbox.cif.g09.slc.cpg/sg15_129_cif.got.tgz:256970.got - 2010.06.28 07:06:18.
