data_PCOD8131398
_publ_section_title
;
Structure prediction by ZEFSAII (Michael W. Deem and Ramdas Pophale) SiO2 
 PCOD8131398
Probable space group: C 2/C
;
_chemical_formula_sum "Si O2"
_cell_formula_units_Z 52
_cell_length_a 22.301013
_cell_length_b 9.334179
_cell_length_c 19.307712
_cell_angle_alpha 90.000000
_cell_angle_beta 42.239890
_cell_angle_gamma 90.000000
_cell_volume 2701.801341
_symmetry_space_group_name_H-M "C 2/C"
_symmetry_group_IT_number 15
_symmetry_cell_setting 'monoclinic'
loop_
_space_group_symop_operation_xyz
x,y,z
-x,y,1/2-z
-x,-y,-z
x,-y,1/2+z
1/2+x,1/2+y,z
1/2-x,1/2+y,1/2-z
1/2-x,1/2-y,-z
1/2+x,1/2-y,1/2+z
loop_
_atom_site_type_symbol
_atom_site_label
_atom_site_fract_x
_atom_site_fract_y
_atom_site_fract_z
Si Si1 0.000000 0.161864 0.750000
Si Si2 0.495894 0.571845 0.906072
Si Si3 0.666470 0.149649 0.081908
Si Si4 0.151281 0.303265 0.446306
Si Si5 0.877542 0.135136 0.586182
Si Si6 0.216129 0.453716 0.675086
Si Si7 0.100382 0.453546 0.900411
O O1 0.998563 0.064257 0.681986
O O2 0.086430 0.259404 0.682218
O O3 0.591889 0.585389 0.862342
O O4 0.438804 0.708842 0.980950
O O5 0.448528 0.425263 0.969973
O O6 0.688117 0.020982 0.118060
O O7 0.750000 0.250000 0.000000
O O8 0.644591 0.100650 0.022549
O O9 0.236252 0.200973 0.365000
O O10 0.161169 0.418596 0.377600
O O11 0.876306 0.306125 0.580747
O O12 0.779618 0.077325 0.650452
O O13 0.125938 0.442530 0.797501
O O14 0.000000 0.500000 0.000000
#
# Coordination Sequence:
#
# PCOD8131398 Si02
#       7
#     4   8   8   8   8   8   8
#     4  10  18  32  64  88 112 148 200 252 288 340
#     4   9  18  35  59  83 108 151 191 235 285 334
#     4   9  19  35  59  87 111 145 203 247 284 337
#     4   9  19  37  58  86 111 145 196 242 281 339
#     4  10  20  36  56  81 118 148 186 238 287 347
#     4  10  21  37  59  83 113 150 193 239 290 343
#     4  12  22  34  56  84 117 148 190 233 291 345
#
# _framework density 19.246418999999999
#
# number of rings (size 3 to 8) (size 9 to 14) (size 15 to 20)
#    0.000    2.154    1.538    2.769    2.154    1.231 
#    0.000    0.769    3.385    0.000    0.000    0.000 
#    0.000    0.000    0.000    0.000    0.000    0.000 
#
# Total GULP energy -322180.836930 kJ/mol
# GULP energy per Si atom -12391.570651 kJ/mol
# Density = 1.920261 g / cm^3
# Si number density = 19.246419 Si / 1000 Ang^3
#
#
#
# Elastic Constant Matrix: (Units=GPa)
#
#
# Indices 1 2 3 4 5 6 
#
# 1 91.9810 24.3229 39.7431 0.0000 14.4321 0.0000
# 2 24.3229 87.4007 28.7260 -0.0004 10.3126 0.0005
# 3 39.7431 28.7260 110.4168 0.0000 6.6751 0.0000
# 4 0.0000 -0.0004 0.0000 18.5879 0.0002 3.6608
# 5 14.4321 10.3126 6.6751 0.0002 39.9984 -0.0002
# 6 0.0000 0.0005 0.0000 3.6608 -0.0002 23.7633
#
#
#
# Elastic Compliance Matrix: (Units=1/GPa)
#
#
# Indices 1 2 3 4 5 6 
#
# 1 0.013819 -0.002014 -0.004223 0.000000 -0.003762 0.000000
# 2 -0.002014 0.013103 -0.002549 0.000000 -0.002226 0.000000
# 3 -0.004223 -0.002549 0.011221 0.000000 0.000308 0.000000
# 4 0.000000 0.000000 0.000000 0.055482 0.000000 -0.008547
# 5 -0.003762 -0.002226 0.000308 0.000000 0.026881 0.000000
# 6 0.000000 0.000000 0.000000 -0.008547 0.000000 0.043398
#
#
# Mechanical properties :
#
#
# Convention : Reuss Voigt Hill
#
# Bulk Modulus (GPa) = 48.61209 52.82026 50.71618
# Shear Modulus (GPa) = 26.54877 29.60370 28.07623
#
# Velocity S-wave (km/s) = 3.71807 3.92617 3.82354
# Velocity P-wave (km/s) = 6.61398 6.93230 6.77501
#
# Compressibility (1/GPa) = 0.02057101
#
# Stress axis : x y z
#
# Youngs Moduli (GPa) = 72.36313 76.32100 89.11813
#
# Poissons Ratio (x) = 0.15371 0.37631
# Poissons Ratio (y) = 0.14574 0.22719
# Poissons Ratio (z) = 0.30556 0.19456
#
# Static dielectric constant tensor:
#      x y z
#    x 4.018290 0.000000 0.231880 
#    y 0.000000 3.306130 0.000000 
#    z 0.231880 0.000000 3.641410 
# 
# 
# High freq. dielectric constant tensor:
#      x y z
#    x 1.757450 0.000000 0.000190 
#    y 0.000000 1.710370 0.000000 
#    z 0.000190 0.000000 1.757460 
# 
# From -- ./inp_files/171748.got.cif
#   From: 2010.06.25/outbox.cif.g09.slc.cpg/sg15_86_cif.got.tgz:171748.got - 2010.06.28 07:06:18.
