data_PCOD8131428
_publ_section_title
;
Structure prediction by ZEFSAII (Michael W. Deem and Ramdas Pophale) SiO2 
 PCOD8131428
Probable space group: C 2/C
;
_chemical_formula_sum "Si O2"
_cell_formula_units_Z 48
_cell_length_a 11.903770
_cell_length_b 25.070840
_cell_length_c 9.051377
_cell_angle_alpha 90.000000
_cell_angle_beta 85.472231
_cell_angle_gamma 90.000000
_cell_volume 2692.840292
_symmetry_space_group_name_H-M "C 2/C"
_symmetry_group_IT_number 15
_symmetry_cell_setting 'monoclinic'
loop_
_space_group_symop_operation_xyz
x,y,z
-x,y,1/2-z
-x,-y,-z
x,-y,1/2+z
1/2+x,1/2+y,z
1/2-x,1/2+y,1/2-z
1/2-x,1/2-y,-z
1/2+x,1/2-y,1/2+z
loop_
_atom_site_type_symbol
_atom_site_label
_atom_site_fract_x
_atom_site_fract_y
_atom_site_fract_z
Si Si1 0.633689 0.444248 0.098769
Si Si2 0.633881 0.251509 0.600138
Si Si3 0.131138 0.045460 0.925910
Si Si4 0.896689 0.271431 0.063556
Si Si5 0.786010 0.837239 0.548787
Si Si6 0.384819 0.631621 0.333227
O O1 0.500897 0.452006 0.094323
O O2 0.685103 0.450170 0.258129
O O3 0.681801 0.491006 0.989148
O O4 0.670610 0.385635 0.052353
O O5 0.750000 0.250000 0.500000
O O6 0.650178 0.228839 0.763059
O O7 0.531349 0.218576 0.536179
O O8 0.584410 0.311482 0.600583
O O9 0.164111 0.092694 0.036334
O O10 0.863519 0.213776 0.000335
O O11 0.841453 0.320367 0.979211
O O12 0.790382 0.856656 0.718679
O O13 0.500000 0.606821 0.250000
#
# Coordination Sequence:
#
# PCOD8131428 Si02
#       6
#     8   8   8   8   8   8
#     4  10  19  30  46  75 104 146 182 226 272 328
#     4  10  19  34  55  77 107 141 185 229 273 327
#     4  10  20  29  47  73 108 142 188 221 274 336
#     4   9  19  35  50  78 109 145 181 222 277 328
#     4  10  18  33  52  71 110 146 175 219 277 327
#     4  11  18  34  49  71 109 148 175 229 279 319
#
# _framework density 17.825044999999999
#
# number of rings (size 3 to 8) (size 9 to 14) (size 15 to 20)
#    0.000    2.000    5.000    1.000    4.667    0.000 
#    0.000    6.667    0.000    0.000    0.000    1.167 
#    0.000    0.000    0.000    0.000    0.000    0.000 
#
# Total GULP energy -297362.185571 kJ/mol
# GULP energy per Si atom -12390.091065 kJ/mol
# Density = 1.778447 g / cm^3
# Si number density = 17.825045 Si / 1000 Ang^3
#
#
#
# Elastic Constant Matrix: (Units=GPa)
#
#
# Indices 1 2 3 4 5 6 
#
# 1 93.5519 22.9233 44.3096 0.0000 5.5523 0.0000
# 2 22.9233 88.2455 47.7506 0.0000 18.0875 0.0000
# 3 44.3096 47.7506 106.6517 0.0000 14.9488 0.0000
# 4 0.0000 0.0000 0.0000 21.7327 0.0000 2.8092
# 5 5.5523 18.0875 14.9488 0.0000 26.3409 0.0000
# 6 0.0000 0.0000 0.0000 2.8092 0.0000 22.4672
#
#
#
# Elastic Compliance Matrix: (Units=1/GPa)
#
#
# Indices 1 2 3 4 5 6 
#
# 1 0.013344 -0.000736 -0.005314 0.000000 0.000708 0.000000
# 2 -0.000736 0.016298 -0.005915 0.000000 -0.007679 0.000000
# 3 -0.005314 -0.005915 0.014673 0.000000 -0.003146 0.000000
# 4 0.000000 0.000000 0.000000 0.046770 0.000000 -0.005848
# 5 0.000708 -0.007679 -0.003146 0.000000 0.044873 0.000000
# 6 0.000000 0.000000 0.000000 -0.005848 0.000000 0.045240
#
#
# Mechanical properties :
#
#
# Convention : Reuss Voigt Hill
#
# Bulk Modulus (GPa) = 49.05364 57.60181 53.32773
# Shear Modulus (GPa) = 23.59352 25.67254 24.63303
#
# Velocity S-wave (km/s) = 3.64210 3.79918 3.72147
# Velocity P-wave (km/s) = 6.72798 7.18542 6.96046
#
# Compressibility (1/GPa) = 0.02038585
#
# Stress axis : x y z
#
# Youngs Moduli (GPa) = 74.93776 61.35801 68.15250
#
# Poissons Ratio (x) = 0.04518 0.36214
# Poissons Ratio (y) = 0.05518 0.40310
# Poissons Ratio (z) = 0.39820 0.36291
#
# Static dielectric constant tensor:
#      x y z
#    x 3.073490 0.000000 0.287670 
#    y 0.000000 3.286780 0.000000 
#    z 0.287670 0.000000 3.533640 
# 
# 
# High freq. dielectric constant tensor:
#      x y z
#    x 1.640560 0.000000 0.029610 
#    y 0.000000 1.683900 0.000000 
#    z 0.029610 0.000000 1.692660 
# 
# From -- ./inp_files/31890.got.cif
#   From: 2010.06.25/outbox.cif.g09.slc.cpg/sg15_16_cif.got.tgz:31890.got - 2010.06.28 07:06:18.
