data_PCOD8131876
_publ_section_title
;
Structure prediction by ZEFSAII (Michael W. Deem and Ramdas Pophale) SiO2 
 PCOD8131876
Probable space group: C 2/C
;
_chemical_formula_sum "Si O2"
_cell_formula_units_Z 44
_cell_length_a 16.968713
_cell_length_b 7.954296
_cell_length_c 23.429451
_cell_angle_alpha 90.000000
_cell_angle_beta 132.456438
_cell_angle_gamma 90.000000
_cell_volume 2333.167862
_symmetry_space_group_name_H-M "C 2/C"
_symmetry_group_IT_number 15
_symmetry_cell_setting 'monoclinic'
loop_
_space_group_symop_operation_xyz
x,y,z
-x,y,1/2-z
-x,-y,-z
x,-y,1/2+z
1/2+x,1/2+y,z
1/2-x,1/2+y,1/2-z
1/2-x,1/2-y,-z
1/2+x,1/2-y,1/2+z
loop_
_atom_site_type_symbol
_atom_site_label
_atom_site_fract_x
_atom_site_fract_y
_atom_site_fract_z
Si Si1 0.493497 0.581650 0.623040
Si Si2 0.148525 0.408373 0.970579
Si Si3 0.278030 0.189956 0.108313
Si Si4 0.856059 0.769693 0.515020
Si Si5 0.382719 0.545163 0.920259
Si Si6 0.500000 0.681651 0.750000
O O1 0.430751 0.751803 0.576445
O O2 0.430925 0.411910 0.577996
O O3 0.603598 0.592204 0.639913
O O4 0.517603 0.569842 0.702093
O O5 0.216462 0.431314 0.944965
O O6 0.088435 0.583615 0.955021
O O7 0.232099 0.368912 0.062999
O O8 0.394847 0.203929 0.192928
O O9 0.196989 0.113291 0.114831
O O10 0.750000 0.750000 0.500000
O O11 0.835567 0.807043 0.437556
O O12 0.500000 0.500000 0.000000
#
# Coordination Sequence:
#
# PCOD8131876 Si02
#       6
#     8   8   8   8   8   4
#     4  10  22  40  56  88 117 153 193 246 296 332
#     4  10  18  34  64  86 109 150 201 235 279 351
#     4  10  18  37  59  85 116 152 194 237 293 344
#     4  11  18  32  62  91 109 144 191 250 285 332
#     4  10  19  36  60  87 119 141 186 259 289 323
#     4  10  22  38  62  74 118 172 190 226 300 372
#
# _framework density 18.858481000000001
#
# number of rings (size 3 to 8) (size 9 to 14) (size 15 to 20)
#    0.000    1.818    5.455    2.182    0.000    0.727 
#    0.000    7.273    8.000    0.000    0.000    0.000 
#    0.000    0.000    0.000    0.000    0.000    0.000 
#
# Total GULP energy -272547.487853 kJ/mol
# GULP energy per Si atom -12388.522175 kJ/mol
# Density = 1.881556 g / cm^3
# Si number density = 18.858481 Si / 1000 Ang^3
#
#
#
# Elastic Constant Matrix: (Units=GPa)
#
#
# Indices 1 2 3 4 5 6 
#
# 1 174.4125 51.8814 50.0180 0.0000 -15.8600 0.0000
# 2 51.8814 135.9992 39.9564 0.0000 -5.5784 0.0000
# 3 50.0180 39.9564 94.9472 0.0000 -5.5711 0.0000
# 4 0.0000 0.0000 0.0000 12.5848 0.0000 0.4968
# 5 -15.8600 -5.5784 -5.5711 0.0000 32.6564 0.0000
# 6 0.0000 0.0000 0.0000 0.4968 0.0000 25.4117
#
#
#
# Elastic Compliance Matrix: (Units=1/GPa)
#
#
# Indices 1 2 3 4 5 6 
#
# 1 0.007377 -0.001833 -0.002952 0.000000 0.002766 0.000000
# 2 -0.001833 0.008869 -0.002757 0.000000 0.000154 0.000000
# 3 -0.002952 -0.002757 0.013269 0.000000 0.000359 0.000000
# 4 0.000000 0.000000 0.000000 0.079522 0.000000 -0.001555
# 5 0.002766 0.000154 0.000359 0.000000 0.032053 0.000000
# 6 0.000000 0.000000 0.000000 -0.001555 0.000000 0.039382
#
#
# Mechanical properties :
#
#
# Convention : Reuss Voigt Hill
#
# Bulk Modulus (GPa) = 69.30720 76.56339 72.93529
# Shear Modulus (GPa) = 24.95409 31.69745 28.32577
#
# Velocity S-wave (km/s) = 3.64157 4.10421 3.87979
# Velocity P-wave (km/s) = 7.38325 7.94647 7.67003
#
# Compressibility (1/GPa) = 0.01442852
#
# Stress axis : x y z
#
# Youngs Moduli (GPa) = 135.55460 112.75456 75.36398
#
# Poissons Ratio (x) = 0.20672 0.22251
# Poissons Ratio (y) = 0.24852 0.20781
# Poissons Ratio (z) = 0.40021 0.31091
#
# Static dielectric constant tensor:
#      x y z
#    x 4.334100 0.000000 -0.305340 
#    y 0.000000 3.660220 0.000000 
#    z -0.305340 0.000000 3.213760 
# 
# 
# High freq. dielectric constant tensor:
#      x y z
#    x 1.751100 0.000000 -0.004710 
#    y 0.000000 1.725160 0.000000 
#    z -0.004710 0.000000 1.689800 
# 
# From -- ./inp_files/298225.got.cif
#   From: 2010.06.25/outbox.cif.g09.slc.cpg/sg15_150_cif.got.tgz:298225.got - 2010.06.28 07:06:18.
