data_PCOD8131071
_publ_section_title
;
Structure prediction by ZEFSAII (Michael W. Deem and Ramdas Pophale) SiO2 
 PCOD8131071
Probable space group: C 2/C
;
_chemical_formula_sum "Si O2"
_cell_formula_units_Z 64
_cell_length_a 11.960683
_cell_length_b 22.400077
_cell_length_c 14.332738
_cell_angle_alpha 90.000000
_cell_angle_beta 116.021338
_cell_angle_gamma 90.000000
_cell_volume 3450.769237
_symmetry_space_group_name_H-M "C 2/C"
_symmetry_group_IT_number 15
_symmetry_cell_setting 'monoclinic'
loop_
_space_group_symop_operation_xyz
x,y,z
-x,y,1/2-z
-x,-y,-z
x,-y,1/2+z
1/2+x,1/2+y,z
1/2-x,1/2+y,1/2-z
1/2-x,1/2-y,-z
1/2+x,1/2-y,1/2+z
loop_
_atom_site_type_symbol
_atom_site_label
_atom_site_fract_x
_atom_site_fract_y
_atom_site_fract_z
Si Si1 0.683200 0.895753 0.966781
Si Si2 0.324206 0.877322 0.231646
Si Si3 0.483681 0.904130 0.045406
Si Si4 0.120113 0.268165 0.908489
Si Si5 0.132556 0.151681 0.815257
Si Si6 0.875264 0.260714 0.152477
Si Si7 0.121203 0.490504 0.353568
Si Si8 0.115890 0.284573 0.551405
O O1 0.631358 0.838806 0.888822
O O2 0.705526 0.950459 0.902905
O O3 0.581553 0.921515 0.001538
O O4 0.805607 0.877481 0.070065
O O5 0.445822 0.874583 0.340825
O O6 0.206501 0.858325 0.248074
O O7 0.348801 0.830943 0.158002
O O8 0.301193 0.942648 0.178840
O O9 0.412573 0.962190 0.057614
O O10 0.391387 0.855473 0.967708
O O11 0.109644 0.223452 0.817261
O O12 0.999714 0.259494 0.930680
O O13 0.250000 0.250000 0.000000
O O14 0.000000 0.120218 0.750000
O O15 0.752218 0.226456 0.146690
O O16 0.000000 0.237891 0.250000
O O17 0.892572 0.248480 0.049193
O O18 0.000000 0.509581 0.250000
#
# Coordination Sequence:
#
# PCOD8131071 Si02
#       8
#     8   8   8   8   8   8   8   8
#     4   9  19  32  53  79 107 134 169 223 272 308
#     4  10  18  32  54  81 102 135 183 228 259 323
#     4   9  16  32  52  77 105 134 171 218 266 324
#     4   9  19  35  52  78 112 139 181 223 266 327
#     4  10  20  35  55  75 103 145 186 213 258 326
#     4  11  19  30  51  80 112 141 180 228 274 316
#     4  10  18  31  52  80 105 130 171 220 275 322
#     4  10  19  31  52  80 108 143 180 223 274 318
#
# _framework density 18.546589000000001
#
# number of rings (size 3 to 8) (size 9 to 14) (size 15 to 20)
#    0.000    2.250    2.500    2.250    0.000    0.500 
#    0.000    0.625    0.000    0.750    0.000    0.000 
#    0.000    0.000    0.000    0.000    0.000    0.000 
#
# Total GULP energy -396498.959287 kJ/mol
# GULP energy per Si atom -12390.592478 kJ/mol
# Density = 1.850438 g / cm^3
# Si number density = 18.546589 Si / 1000 Ang^3
#
#
#
# Elastic Constant Matrix: (Units=GPa)
#
#
# Indices 1 2 3 4 5 6 
#
# 1 115.9998 55.8693 44.1667 0.0000 15.4563 0.0000
# 2 55.8693 117.9249 43.0881 0.0000 -2.4395 0.0000
# 3 44.1667 43.0881 59.3667 0.0000 6.6273 0.0000
# 4 0.0000 0.0000 0.0000 25.3396 0.0000 -3.9854
# 5 15.4563 -2.4395 6.6273 0.0000 29.1619 0.0000
# 6 0.0000 0.0000 0.0000 -3.9854 0.0000 19.3483
#
#
#
# Elastic Compliance Matrix: (Units=1/GPa)
#
#
# Indices 1 2 3 4 5 6 
#
# 1 0.014092 -0.004403 -0.006580 0.000000 -0.006342 0.000000
# 2 -0.004403 0.013168 -0.006838 0.000000 0.004989 0.000000
# 3 -0.006580 -0.006838 0.027064 0.000000 -0.003235 0.000000
# 4 0.000000 0.000000 0.000000 0.040785 0.000000 0.008401
# 5 -0.006342 0.004989 -0.003235 0.000000 0.038805 0.000000
# 6 0.000000 0.000000 0.000000 0.008401 0.000000 0.053415
#
#
# Mechanical properties :
#
#
# Convention : Reuss Voigt Hill
#
# Bulk Modulus (GPa) = 53.53119 64.39329 58.96224
# Shear Modulus (GPa) = 21.81511 24.78111 23.29811
#
# Velocity S-wave (km/s) = 3.43335 3.65931 3.54813
# Velocity P-wave (km/s) = 6.68153 7.25598 6.97467
#
# Compressibility (1/GPa) = 0.01868070
#
# Stress axis : x y z
#
# Youngs Moduli (GPa) = 70.96335 75.94206 36.94929
#
# Poissons Ratio (x) = 0.33439 0.24313
# Poissons Ratio (y) = 0.31247 0.25267
# Poissons Ratio (z) = 0.46694 0.51932
#
# Static dielectric constant tensor:
#      x y z
#    x 3.431720 0.000000 -0.530610 
#    y 0.000000 3.401740 0.000000 
#    z -0.530610 0.000000 1.164310 
# 
# 
# High freq. dielectric constant tensor:
#      x y z
#    x 1.711710 0.000000 -0.004320 
#    y 0.000000 1.705170 0.000000 
#    z -0.004320 0.000000 1.708710 
# 
# From -- ./inp_files/147162.got.cif
#   From: 2010.06.25/outbox.cif.g09.slc.cpg/sg15_74_cif.got.tgz:147162.got - 2010.06.28 07:06:18.
