data_PCOD8131039
_publ_section_title
;
Structure prediction by ZEFSAII (Michael W. Deem and Ramdas Pophale) SiO2 
 PCOD8131039
Probable space group: C 2/C
;
_chemical_formula_sum "Si O2"
_cell_formula_units_Z 52
_cell_length_a 15.560007
_cell_length_b 19.569960
_cell_length_c 11.923587
_cell_angle_alpha 90.000000
_cell_angle_beta 52.086673
_cell_angle_gamma 90.000000
_cell_volume 2864.516160
_symmetry_space_group_name_H-M "C 2/C"
_symmetry_group_IT_number 15
_symmetry_cell_setting 'monoclinic'
loop_
_space_group_symop_operation_xyz
x,y,z
-x,y,1/2-z
-x,-y,-z
x,-y,1/2+z
1/2+x,1/2+y,z
1/2-x,1/2+y,1/2-z
1/2-x,1/2-y,-z
1/2+x,1/2-y,1/2+z
loop_
_atom_site_type_symbol
_atom_site_label
_atom_site_fract_x
_atom_site_fract_y
_atom_site_fract_z
Si Si1 0.894866 0.035389 0.533626
Si Si2 0.317767 0.046252 0.313533
Si Si3 0.500000 0.746961 0.750000
Si Si4 0.522798 0.920391 0.989764
Si Si5 0.500000 0.056555 0.750000
Si Si6 0.380299 0.361757 0.219585
Si Si7 0.000000 0.019473 0.750000
Si Si8 0.159558 0.648702 0.010486
O O1 0.876142 0.113761 0.592165
O O2 0.789992 0.989365 0.646650
O O3 0.000000 0.000000 0.500000
O O4 0.919992 0.032054 0.381362
O O5 0.367481 0.091367 0.170792
O O6 0.294968 0.095564 0.435520
O O7 0.399234 0.989120 0.293624
O O8 0.533615 0.698786 0.828090
O O9 0.397239 0.789737 0.876621
O O10 0.425585 0.880424 0.009545
O O11 0.533985 0.898402 0.112560
O O12 0.500000 0.000000 0.000000
O O13 0.416858 0.432350 0.248660
O O14 0.265435 0.331029 0.354098
#
# Coordination Sequence:
#
# PCOD8131039 Si02
#       8
#     8   8   4   8   4   8   4   8
#     4  10  21  34  54  82 117 154 187 239 300 349
#     4  11  18  31  54  81 117 145 185 240 297 348
#     4  11  23  38  56  82 116 164 198 228 280 347
#     4  10  18  31  50  84 116 144 183 235 302 349
#     4  10  19  28  49  83 114 145 172 232 306 344
#     4  10  21  35  53  83 117 148 194 236 280 349
#     4   9  18  34  55  79 112 143 190 236 292 341
#     4  12  19  36  57  83 118 152 191 239 288 347
#
# _framework density 18.153151999999999
#
# number of rings (size 3 to 8) (size 9 to 14) (size 15 to 20)
#    0.000    1.538    6.154    2.308    0.000    0.000 
#    0.000    0.000    0.000    0.923    0.000    3.231 
#    0.000    0.000    0.000    0.000    0.000    0.000 
#
# Total GULP energy -322092.164218 kJ/mol
# GULP energy per Si atom -12388.160162 kJ/mol
# Density = 1.811183 g / cm^3
# Si number density = 18.153152 Si / 1000 Ang^3
#
#
#
# Elastic Constant Matrix: (Units=GPa)
#
#
# Indices 1 2 3 4 5 6 
#
# 1 83.9553 26.3614 25.6214 0.0000 -7.6512 0.0000
# 2 26.3614 63.0138 20.9963 0.0000 1.7892 0.0000
# 3 25.6214 20.9963 88.6344 0.0000 -1.5105 0.0000
# 4 0.0000 0.0000 0.0000 9.6952 0.0000 5.2300
# 5 -7.6512 1.7892 -1.5105 0.0000 39.4261 0.0000
# 6 0.0000 0.0000 0.0000 5.2300 0.0000 21.3017
#
#
#
# Elastic Compliance Matrix: (Units=1/GPa)
#
#
# Indices 1 2 3 4 5 6 
#
# 1 0.014740 -0.005264 -0.002963 0.000000 0.002986 0.000000
# 2 -0.005264 0.019144 -0.003048 0.000000 -0.002007 0.000000
# 3 -0.002963 -0.003048 0.012862 0.000000 0.000056 0.000000
# 4 0.000000 0.000000 0.000000 0.118889 0.000000 -0.029190
# 5 0.002986 -0.002007 0.000056 0.000000 0.026037 0.000000
# 6 0.000000 0.000000 0.000000 -0.029190 0.000000 0.054111
#
#
# Mechanical properties :
#
#
# Convention : Reuss Voigt Hill
#
# Bulk Modulus (GPa) = 41.32759 42.39575 41.86167
# Shear Modulus (GPa) = 18.08983 24.92624 21.50804
#
# Velocity S-wave (km/s) = 3.16018 3.70957 3.44584
# Velocity P-wave (km/s) = 6.01092 6.46166 6.24036
#
# Compressibility (1/GPa) = 0.02419691
#
# Stress axis : x y z
#
# Youngs Moduli (GPa) = 67.84099 52.23531 77.75010
#
# Poissons Ratio (x) = 0.27497 0.23038
# Poissons Ratio (y) = 0.35711 0.23695
# Poissons Ratio (z) = 0.20102 0.15919
#
# Static dielectric constant tensor:
#      x y z
#    x 3.535060 0.000000 0.566840 
#    y 0.000000 3.019380 0.000000 
#    z 0.566840 0.000000 4.552920 
# 
# 
# High freq. dielectric constant tensor:
#      x y z
#    x 1.701340 0.000000 -0.007100 
#    y 0.000000 1.654550 0.000000 
#    z -0.007100 0.000000 1.719760 
# 
# From -- ./inp_files/99359.got.cif
#   From: 2010.06.25/outbox.cif.g09.slc.cpg/sg15_50_cif.got.tgz:99359.got - 2010.06.28 07:06:18.
