data_PCOD8131750
_publ_section_title
;
Structure prediction by ZEFSAII (Michael W. Deem and Ramdas Pophale) SiO2 
 PCOD8131750
Probable space group: C 2/C
;
_chemical_formula_sum "Si O2"
_cell_formula_units_Z 24
_cell_length_a 15.517887
_cell_length_b 8.044419
_cell_length_c 12.860968
_cell_angle_alpha 90.000000
_cell_angle_beta 35.368536
_cell_angle_gamma 90.000000
_cell_volume 929.297035
_symmetry_space_group_name_H-M "C 2/C"
_symmetry_group_IT_number 15
_symmetry_cell_setting 'monoclinic'
loop_
_space_group_symop_operation_xyz
x,y,z
-x,y,1/2-z
-x,-y,-z
x,-y,1/2+z
1/2+x,1/2+y,z
1/2-x,1/2+y,1/2-z
1/2-x,1/2-y,-z
1/2+x,1/2-y,1/2+z
loop_
_atom_site_type_symbol
_atom_site_label
_atom_site_fract_x
_atom_site_fract_y
_atom_site_fract_z
Si Si1 0.498420 0.686884 0.367398
Si Si2 0.240429 0.750229 0.254891
Si Si3 0.515704 0.919080 0.619603
O O1 0.500000 0.606868 0.250000
O O2 0.650942 0.642373 0.276655
O O3 0.356237 0.623635 0.574964
O O4 0.476956 0.884251 0.381187
O O5 0.125311 0.626748 0.312269
O O6 0.332625 0.851122 0.079232
O O7 0.500000 0.841031 0.750000
#
# Coordination Sequence:
#
# PCOD8131750 Si02
#       3
#     8   8   8
#     4  10  21  37  56  79 108 141 177 218 264 314
#     4  10  18  34  58  80 104 140 178 218 262 312
#     4  10  21  37  56  79 108 141 177 218 264 314
#
# _framework density 25.825973999999999
#
# number of rings (size 3 to 8) (size 9 to 14) (size 15 to 20)
#    0.000    2.000    0.000    6.000    0.000    0.000 
#    0.000   26.667    0.000   48.000    0.000    0.000 
#    0.000    0.000    0.000    0.000    0.000    0.000 
#
# Total GULP energy -148750.264441 kJ/mol
# GULP energy per Si atom -12395.855370 kJ/mol
# Density = 2.576719 g / cm^3
# Si number density = 25.825974 Si / 1000 Ang^3
#
#
#
# Elastic Constant Matrix: (Units=GPa)
#
#
# Indices 1 2 3 4 5 6 
#
# 1 121.1478 -28.2918 80.8441 0.0000 32.7626 0.0000
# 2 -28.2918 23.1328 -4.1296 0.0000 2.1261 0.0000
# 3 80.8441 -4.1296 220.8890 0.0000 14.3070 0.0000
# 4 0.0000 0.0000 0.0000 21.2043 0.0000 0.3527
# 5 32.7626 2.1261 14.3070 0.0000 60.2350 0.0000
# 6 0.0000 0.0000 0.0000 0.3527 0.0000 26.3459
#
#
#
# Elastic Compliance Matrix: (Units=1/GPa)
#
#
# Indices 1 2 3 4 5 6 
#
# 1 0.022271 0.027056 -0.006905 0.000000 -0.011429 0.000000
# 2 0.027056 0.076425 -0.007460 0.000000 -0.015642 0.000000
# 3 -0.006905 -0.007460 0.006759 0.000000 0.002414 0.000000
# 4 0.000000 0.000000 0.000000 0.047171 0.000000 -0.000632
# 5 -0.011429 -0.015642 0.002414 0.000000 0.022797 0.000000
# 6 0.000000 0.000000 0.000000 -0.000632 0.000000 0.037965
#
#
# Mechanical properties :
#
#
# Convention : Reuss Voigt Hill
#
# Bulk Modulus (GPa) = 7.64318 51.33499 29.48908
# Shear Modulus (GPa) = 21.58727 42.67351 32.13039
#
# Velocity S-wave (km/s) = 2.89429 4.06932 3.53102
# Velocity P-wave (km/s) = 3.75967 6.48071 5.29786
#
# Compressibility (1/GPa) = 0.13083565
#
# Stress axis : x y z
#
# Youngs Moduli (GPa) = 44.90048 13.08479 147.95983
#
# Poissons Ratio (x) = -0.35402 1.02169
# Poissons Ratio (y) = -1.21483 1.10385
# Poissons Ratio (z) = 0.31005 0.09762
#
# Static dielectric constant tensor:
#      x y z
#    x 5.281660 0.000000 0.685430 
#    y 0.000000 3.915280 0.000000 
#    z 0.685430 0.000000 5.847870 
# 
# 
# High freq. dielectric constant tensor:
#      x y z
#    x 2.048240 0.000000 0.008320 
#    y 0.000000 1.987990 0.000000 
#    z 0.008320 0.000000 2.068250 
# 
# From -- ./inp_files/27068.got.cif
#   From: 2010.06.25/outbox.cif.g09.slc.cpg/sg15_14_cif.got.tgz:27068.got - 2010.06.28 07:06:18.
