data_PCOD8131818
_publ_section_title
;
Structure prediction by ZEFSAII (Michael W. Deem and Ramdas Pophale) SiO2 
 PCOD8131818
Probable space group: C 2/C
;
_chemical_formula_sum "Si O2"
_cell_formula_units_Z 64
_cell_length_a 11.768150
_cell_length_b 18.781517
_cell_length_c 21.909611
_cell_angle_alpha 90.000000
_cell_angle_beta 142.458713
_cell_angle_gamma 90.000000
_cell_volume 2950.721344
_symmetry_space_group_name_H-M "C 2/C"
_symmetry_group_IT_number 15
_symmetry_cell_setting 'monoclinic'
loop_
_space_group_symop_operation_xyz
x,y,z
-x,y,1/2-z
-x,-y,-z
x,-y,1/2+z
1/2+x,1/2+y,z
1/2-x,1/2+y,1/2-z
1/2-x,1/2-y,-z
1/2+x,1/2-y,1/2+z
loop_
_atom_site_type_symbol
_atom_site_label
_atom_site_fract_x
_atom_site_fract_y
_atom_site_fract_z
Si Si1 0.686154 0.154739 0.082315
Si Si2 0.367212 0.029160 0.072815
Si Si3 0.736396 0.531520 0.297052
Si Si4 0.007463 0.214644 0.563677
Si Si5 0.608079 0.734140 0.852660
Si Si6 0.918757 0.915265 0.586734
Si Si7 0.075816 0.920294 0.531415
Si Si8 0.799554 0.406125 0.414743
O O1 0.750860 0.109936 0.168638
O O2 0.656163 0.236008 0.091277
O O3 0.844820 0.149881 0.097183
O O4 0.497672 0.121455 0.973213
O O5 0.589098 0.016217 0.174111
O O6 0.289428 0.073146 0.098234
O O7 0.333123 0.077936 0.999703
O O8 0.258309 0.955043 0.018024
O O9 0.542103 0.527851 0.177834
O O10 0.732619 0.475030 0.349989
O O11 0.800100 0.226332 0.448727
O O12 0.019272 0.232049 0.640603
O O13 0.044910 0.131046 0.565545
O O14 0.500000 0.772211 0.750000
O O15 0.645040 0.654329 0.844613
O O16 0.053792 0.886555 0.589972
O O17 0.000000 0.000000 0.500000
#
# Coordination Sequence:
#
# PCOD8131818 Si02
#       8
#     8   8   8   8   8   8   8   8
#     4  10  20  36  58  86 123 164 206 252 321 377
#     4  10  19  38  57  87 126 158 208 264 317 365
#     4  11  21  33  61  95 124 162 212 271 315 368
#     4  10  22  42  58  89 129 166 203 265 333 372
#     4  10  22  35  63  92 121 163 212 266 322 380
#     4  11  22  36  59  94 125 170 215 250 319 386
#     4  10  23  40  63  86 120 168 210 255 321 388
#     4  10  18  34  60  87 120 156 202 273 309 355
#
# _framework density 21.689610999999999
#
# number of rings (size 3 to 8) (size 9 to 14) (size 15 to 20)
#    0.000    1.750    3.750    1.125    3.500    2.000 
#    0.000    0.000    0.000    0.000    6.500    0.000 
#    0.000    0.000    0.000    0.000    0.000    0.000 
#
# Total GULP energy -396591.805275 kJ/mol
# GULP energy per Si atom -12393.493915 kJ/mol
# Density = 2.164024 g / cm^3
# Si number density = 21.689611 Si / 1000 Ang^3
#
#
#
# Elastic Constant Matrix: (Units=GPa)
#
#
# Indices 1 2 3 4 5 6 
#
# 1 190.3971 37.3626 37.9882 0.0000 -7.9915 -0.0001
# 2 37.3626 94.1367 11.0333 0.0000 -1.8102 0.0000
# 3 37.9882 11.0333 68.3954 0.0018 -9.2653 0.0004
# 4 0.0000 0.0000 0.0018 15.2476 0.0006 3.8091
# 5 -7.9915 -1.8102 -9.2653 0.0006 26.1030 0.0001
# 6 -0.0001 0.0000 0.0004 3.8091 0.0001 28.1443
#
#
#
# Elastic Compliance Matrix: (Units=1/GPa)
#
#
# Indices 1 2 3 4 5 6 
#
# 1 0.006312 -0.002132 -0.003068 0.000000 0.000696 0.000000
# 2 -0.002132 0.011548 -0.000692 0.000000 -0.000097 0.000000
# 3 -0.003068 -0.000692 0.017126 -0.000002 0.005092 0.000000
# 4 0.000000 0.000000 -0.000002 0.067879 -0.000002 -0.009187
# 5 0.000696 -0.000097 0.005092 -0.000002 0.040323 0.000000
# 6 0.000000 0.000000 0.000000 -0.009187 0.000000 0.036774
#
#
# Mechanical properties :
#
#
# Convention : Reuss Voigt Hill
#
# Bulk Modulus (GPa) = 43.09794 58.41082 50.75438
# Shear Modulus (GPa) = 25.06513 31.66869 28.36691
#
# Velocity S-wave (km/s) = 3.40314 3.82525 3.62035
# Velocity P-wave (km/s) = 5.94603 6.81901 6.39743
#
# Compressibility (1/GPa) = 0.02320297
#
# Stress axis : x y z
#
# Youngs Moduli (GPa) = 158.43255 86.59250 58.39077
#
# Poissons Ratio (x) = 0.18464 0.17911
# Poissons Ratio (y) = 0.33782 0.04040
# Poissons Ratio (z) = 0.48599 0.05991
#
# Static dielectric constant tensor:
#      x y z
#    x 4.520520 0.000000 0.005930 
#    y 0.000000 3.743910 0.000000 
#    z 0.005930 0.000000 3.696310 
# 
# 
# High freq. dielectric constant tensor:
#      x y z
#    x 1.866000 0.000000 0.000080 
#    y 0.000000 1.832990 0.000000 
#    z 0.000080 0.000000 1.817350 
# 
# From -- ./inp_files/240429.got.cif
#   From: 2010.06.25/outbox.cif.g09.slc.cpg/sg15_121_cif.got.tgz:240429.got - 2010.06.28 07:06:18.
