data_PCOD8131416
_publ_section_title
;
Structure prediction by ZEFSAII (Michael W. Deem and Ramdas Pophale) SiO2 
 PCOD8131416
Probable space group: C 2/C
;
_chemical_formula_sum "Si O2"
_cell_formula_units_Z 60
_cell_length_a 22.421536
_cell_length_b 30.201679
_cell_length_c 8.560919
_cell_angle_alpha 90.000000
_cell_angle_beta 35.887407
_cell_angle_gamma 90.000000
_cell_volume 3398.274294
_symmetry_space_group_name_H-M "C 2/C"
_symmetry_group_IT_number 15
_symmetry_cell_setting 'monoclinic'
loop_
_space_group_symop_operation_xyz
x,y,z
-x,y,1/2-z
-x,-y,-z
x,-y,1/2+z
1/2+x,1/2+y,z
1/2-x,1/2+y,1/2-z
1/2-x,1/2-y,-z
1/2+x,1/2-y,1/2+z
loop_
_atom_site_type_symbol
_atom_site_label
_atom_site_fract_x
_atom_site_fract_y
_atom_site_fract_z
Si Si1 0.687355 0.682127 0.169706
Si Si2 0.531093 0.135460 0.361645
Si Si3 0.937742 0.269658 0.618379
Si Si4 0.846353 0.743513 0.989818
Si Si5 0.609455 0.929244 0.934460
Si Si6 0.500000 0.707621 0.750000
Si Si7 0.576323 0.022344 0.958226
Si Si8 0.171423 0.393568 0.099893
O O1 0.684150 0.707997 0.011339
O O2 0.575803 0.677841 0.484979
O O3 0.759883 0.707830 0.136604
O O4 0.729463 0.632549 0.047649
O O5 0.500000 0.126772 0.250000
O O6 0.591764 0.181171 0.258843
O O7 0.599398 0.094800 0.286596
O O8 0.425683 0.138671 0.680525
O O9 0.860303 0.253650 0.647528
O O10 0.051458 0.271321 0.312255
O O11 0.930669 0.237776 0.782931
O O12 0.500000 0.929505 0.250000
O O13 0.688218 0.903580 0.880008
O O14 0.648160 0.980390 0.849143
O O15 0.649227 0.061274 0.742531
O O16 0.500000 0.042177 0.250000
O O17 0.500000 0.000000 0.000000
#
# Coordination Sequence:
#
# PCOD8131416 Si02
#       8
#     8   8   8   8   8   4   8   8
#     4  10  20  36  50  75  96 142 182 227 262 308
#     4  11  19  26  46  76 104 135 178 202 246 314
#     4  10  18  33  50  76  98 144 168 223 268 314
#     4   9  19  32  55  68 105 131 181 217 273 316
#     4   9  19  30  46  71 107 141 164 197 256 315
#     4  10  22  36  52  68 104 136 190 234 262 294
#     4  11  18  32  50  77 112 145 162 192 262 328
#     4  11  20  32  51  71 105 143 171 210 249 320
#
# _framework density 17.656019000000001
#
# number of rings (size 3 to 8) (size 9 to 14) (size 15 to 20)
#    0.000    1.867    6.000    1.200    3.733    0.533 
#    0.000    1.333    0.000    0.000    0.000    0.933 
#    0.000    0.000    0.000    0.000    0.000    0.000 
#
# Total GULP energy -371697.799920 kJ/mol
# GULP energy per Si atom -12389.926664 kJ/mol
# Density = 1.761583 g / cm^3
# Si number density = 17.656019 Si / 1000 Ang^3
#
#
#
# Elastic Constant Matrix: (Units=GPa)
#
#
# Indices 1 2 3 4 5 6 
#
# 1 105.8202 52.9696 22.6349 0.0000 23.7266 0.0000
# 2 52.9696 134.0806 36.7505 0.0000 5.0821 0.0000
# 3 22.6349 36.7505 44.7874 0.0000 7.2062 0.0000
# 4 0.0000 0.0000 0.0000 20.6219 0.0000 -5.0950
# 5 23.7266 5.0821 7.2062 0.0000 27.1832 0.0000
# 6 0.0000 0.0000 0.0000 -5.0950 0.0000 23.2337
#
#
#
# Elastic Compliance Matrix: (Units=1/GPa)
#
#
# Indices 1 2 3 4 5 6 
#
# 1 0.014911 -0.005029 -0.001532 0.000000 -0.011669 0.000000
# 2 -0.005029 0.011321 -0.007430 0.000000 0.004242 0.000000
# 3 -0.001532 -0.007430 0.030042 0.000000 -0.005237 0.000000
# 4 0.000000 0.000000 0.000000 0.051270 0.000000 0.011243
# 5 -0.011669 0.004242 -0.005237 0.000000 0.047568 0.000000
# 6 0.000000 0.000000 0.000000 0.011243 0.000000 0.045506
#
#
# Mechanical properties :
#
#
# Convention : Reuss Voigt Hill
#
# Bulk Modulus (GPa) = 35.34661 56.59981 45.97321
# Shear Modulus (GPa) = 21.00571 25.69663 23.35117
#
# Velocity S-wave (km/s) = 3.45297 3.81911 3.64065
# Velocity P-wave (km/s) = 5.99670 7.18151 6.61568
#
# Compressibility (1/GPa) = 0.02829126
#
# Stress axis : x y z
#
# Youngs Moduli (GPa) = 67.06395 88.33470 33.28689
#
# Poissons Ratio (x) = 0.44419 0.05100
# Poissons Ratio (y) = 0.33723 0.24734
# Poissons Ratio (z) = 0.10276 0.65636
#
# Static dielectric constant tensor:
#      x y z
#    x 3.766740 0.000000 0.497070 
#    y 0.000000 3.924960 0.000000 
#    z 0.497070 0.000000 3.092580 
# 
# 
# High freq. dielectric constant tensor:
#      x y z
#    x 1.673230 0.000000 0.037910 
#    y 0.000000 1.682270 0.000000 
#    z 0.037910 0.000000 1.638990 
# 
# From -- ./inp_files/64156.got.cif
#   From: 2010.06.25/outbox.cif.g09.slc.cpg/sg15_33_cif.got.tgz:64156.got - 2010.06.28 07:06:18.
