data_PCOD8131843
_publ_section_title
;
Structure prediction by ZEFSAII (Michael W. Deem and Ramdas Pophale) SiO2 
 PCOD8131843
Probable space group: C 2/C
;
_chemical_formula_sum "Si O2"
_cell_formula_units_Z 56
_cell_length_a 18.364223
_cell_length_b 11.949692
_cell_length_c 14.540244
_cell_angle_alpha 90.000000
_cell_angle_beta 71.319386
_cell_angle_gamma 90.000000
_cell_volume 3022.714126
_symmetry_space_group_name_H-M "C 2/C"
_symmetry_group_IT_number 15
_symmetry_cell_setting 'monoclinic'
loop_
_space_group_symop_operation_xyz
x,y,z
-x,y,1/2-z
-x,-y,-z
x,-y,1/2+z
1/2+x,1/2+y,z
1/2-x,1/2+y,1/2-z
1/2-x,1/2-y,-z
1/2+x,1/2-y,1/2+z
loop_
_atom_site_type_symbol
_atom_site_label
_atom_site_fract_x
_atom_site_fract_y
_atom_site_fract_z
Si Si1 0.993161 0.699210 0.146474
Si Si2 0.035208 0.294977 0.333287
Si Si3 0.701905 0.301975 0.435713
Si Si4 0.972146 0.127956 0.500396
Si Si5 0.672661 0.922137 0.218386
Si Si6 0.579212 0.011109 0.582950
Si Si7 0.652022 0.909515 0.869896
O O1 0.062625 0.621371 0.081773
O O2 0.000000 0.733041 0.250000
O O3 0.986423 0.813975 0.092901
O O4 0.922905 0.615539 0.159360
O O5 0.126333 0.318945 0.284192
O O6 0.000000 0.261189 0.250000
O O7 0.025060 0.188310 0.403469
O O8 0.994492 0.405258 0.394269
O O9 0.750000 0.250000 0.500000
O O10 0.617515 0.353056 0.494830
O O11 0.749697 0.397168 0.366725
O O12 0.697868 0.204817 0.361883
O O13 0.000000 0.000000 0.500000
O O14 0.614629 0.975545 0.169008
O O15 0.700074 0.004094 0.289031
O O16 0.636513 0.042873 0.478038
#
# Coordination Sequence:
#
# PCOD8131843 Si02
#       7
#     8   8   8   8   8   8   8
#     4  11  19  34  61  92 120 146 202 262 312 356
#     4  10  18  34  61  92 114 152 210 259 298 369
#     4  11  22  42  61  84 124 171 208 254 313 374
#     4  11  25  41  60  86 127 173 209 248 310 391
#     4  11  21  33  61  95 120 150 207 261 312 359
#     4  11  17  34  63  94 118 144 200 266 315 357
#     4  11  20  34  59  88 121 158 196 256 308 363
#
# _framework density 18.526396999999999
#
# number of rings (size 3 to 8) (size 9 to 14) (size 15 to 20)
#    0.000    1.143    7.143    2.571    0.000    1.714 
#    0.000    2.857    0.000    1.714    0.000    0.000 
#    0.000    0.000    0.000    0.000    0.000    0.000 
#
# Total GULP energy -346999.672699 kJ/mol
# GULP energy per Si atom -12392.845454 kJ/mol
# Density = 1.848423 g / cm^3
# Si number density = 18.526397 Si / 1000 Ang^3
#
#
#
# Elastic Constant Matrix: (Units=GPa)
#
#
# Indices 1 2 3 4 5 6 
#
# 1 62.8832 30.3653 15.0917 0.0000 -3.0128 0.0000
# 2 30.3653 113.6379 36.0623 0.0000 4.2291 0.0000
# 3 15.0917 36.0623 86.5813 0.0000 9.6225 0.0000
# 4 0.0000 0.0000 0.0000 35.6624 0.0000 -0.3513
# 5 -3.0128 4.2291 9.6225 0.0000 25.5462 0.0000
# 6 0.0000 0.0000 0.0000 -0.3513 0.0000 16.8781
#
#
#
# Elastic Compliance Matrix: (Units=1/GPa)
#
#
# Indices 1 2 3 4 5 6 
#
# 1 0.018708 -0.004576 -0.001758 0.000000 0.003626 0.000000
# 2 -0.004576 0.011260 -0.003783 0.000000 -0.000979 0.000000
# 3 -0.001758 -0.003783 0.013970 0.000000 -0.004843 0.000000
# 4 0.000000 0.000000 0.000000 0.028047 0.000000 0.000584
# 5 0.003626 -0.000979 -0.004843 0.000000 0.041559 0.000000
# 6 0.000000 0.000000 0.000000 0.000584 0.000000 0.059261
#
#
# Mechanical properties :
#
#
# Convention : Reuss Voigt Hill
#
# Bulk Modulus (GPa) = 42.18845 47.34899 44.76872
# Shear Modulus (GPa) = 24.88310 27.72286 26.30298
#
# Velocity S-wave (km/s) = 3.66883 3.87253 3.77205
# Velocity P-wave (km/s) = 6.38503 6.75340 6.57179
#
# Compressibility (1/GPa) = 0.02370317
#
# Stress axis : x y z
#
# Youngs Moduli (GPa) = 53.45360 88.81221 71.58002
#
# Poissons Ratio (x) = 0.40641 0.12583
# Poissons Ratio (y) = 0.24460 0.27082
# Poissons Ratio (z) = 0.09397 0.33602
#
# Static dielectric constant tensor:
#      x y z
#    x 3.377230 0.000000 0.089610 
#    y 0.000000 3.341050 0.000000 
#    z 0.089610 0.000000 3.480460 
# 
# 
# High freq. dielectric constant tensor:
#      x y z
#    x 1.697340 0.000000 0.013250 
#    y 0.000000 1.703720 0.000000 
#    z 0.013250 0.000000 1.730960 
# 
# From -- ./inp_files/160818.got.cif
#   From: 2010.06.25/outbox.cif.g09.slc.cpg/sg15_81_cif.got.tgz:160818.got - 2010.06.28 07:06:18.
