data_PCOD8131361
_publ_section_title
;
Structure prediction by ZEFSAII (Michael W. Deem and Ramdas Pophale) SiO2 
 PCOD8131361
Probable space group: C 2/C
;
_chemical_formula_sum "Si O2"
_cell_formula_units_Z 56
_cell_length_a 21.588818
_cell_length_b 7.434747
_cell_length_c 18.446438
_cell_angle_alpha 90.000000
_cell_angle_beta 57.890686
_cell_angle_gamma 90.000000
_cell_volume 2507.894146
_symmetry_space_group_name_H-M "C 2/C"
_symmetry_group_IT_number 15
_symmetry_cell_setting 'monoclinic'
loop_
_space_group_symop_operation_xyz
x,y,z
-x,y,1/2-z
-x,-y,-z
x,-y,1/2+z
1/2+x,1/2+y,z
1/2-x,1/2+y,1/2-z
1/2-x,1/2-y,-z
1/2+x,1/2-y,1/2+z
loop_
_atom_site_type_symbol
_atom_site_label
_atom_site_fract_x
_atom_site_fract_y
_atom_site_fract_z
Si Si1 0.746935 0.909569 0.872635
Si Si2 0.411028 0.002964 0.011648
Si Si3 0.758549 0.230975 0.757356
Si Si4 0.963740 0.335019 0.846108
Si Si5 0.077919 0.782197 0.378905
Si Si6 0.139133 0.106006 0.422471
Si Si7 0.180030 0.121970 0.553273
O O1 0.666820 0.901753 0.957457
O O2 0.740518 0.048786 0.809489
O O3 0.805463 0.964033 0.897051
O O4 0.765509 0.728761 0.814531
O O5 0.401180 0.796616 0.043671
O O6 0.451006 0.121968 0.048731
O O7 0.451947 0.003120 0.908299
O O8 0.845154 0.275367 0.705182
O O9 0.712055 0.384929 0.828190
O O10 0.887608 0.237651 0.874934
O O11 0.000000 0.408004 0.750000
O O12 0.018567 0.194344 0.852164
O O13 0.083335 0.967883 0.419765
O O14 0.161719 0.031435 0.487773
O O15 0.250000 0.250000 0.500000
#
# Coordination Sequence:
#
# PCOD8131361 Si02
#       7
#     8   8   8   8   8   8   8
#     4  10  18  34  59  84 122 152 204 249 304 360
#     4   9  21  39  60  89 123 164 201 260 304 370
#     4  10  18  32  58  88 119 155 203 257 290 367
#     4  11  23  37  65  93 122 170 203 262 318 363
#     4  11  22  38  63  95 123 160 220 246 309 386
#     4  10  21  37  66  89 121 173 201 252 318 359
#     4  11  20  38  61  88 125 163 204 253 311 376
#
# _framework density 22.329491000000001
#
# number of rings (size 3 to 8) (size 9 to 14) (size 15 to 20)
#    0.000    1.714    5.714    1.286    0.000    2.286 
#    0.000    2.857   15.714    4.286    0.000    0.000 
#    0.000    0.000    0.000    0.000    0.000    0.000 
#
# Total GULP energy -346964.054583 kJ/mol
# GULP energy per Si atom -12391.573378 kJ/mol
# Density = 2.227867 g / cm^3
# Si number density = 22.329491 Si / 1000 Ang^3
#
#
#
# Elastic Constant Matrix: (Units=GPa)
#
#
# Indices 1 2 3 4 5 6 
#
# 1 98.9604 18.5370 39.6779 -0.0037 4.6915 0.0054
# 2 18.5370 53.7411 17.6663 -0.0062 5.7620 0.0122
# 3 39.6779 17.6663 154.4653 -0.0048 -5.9058 0.0052
# 4 -0.0037 -0.0062 -0.0048 27.6297 -0.0001 9.5539
# 5 4.6915 5.7620 -5.9058 -0.0001 28.1593 0.0020
# 6 0.0054 0.0122 0.0052 9.5539 0.0020 30.6396
#
#
#
# Elastic Compliance Matrix: (Units=1/GPa)
#
#
# Indices 1 2 3 4 5 6 
#
# 1 0.011870 -0.002970 -0.002784 0.000001 -0.001954 -0.000001
# 2 -0.002970 0.020649 -0.001755 0.000007 -0.004099 -0.000009
# 3 -0.002784 -0.001755 0.007481 0.000001 0.002392 0.000000
# 4 0.000001 0.000007 0.000001 0.040567 0.000000 -0.012649
# 5 -0.001954 -0.004099 0.002392 0.000000 0.037178 -0.000001
# 6 -0.000001 -0.000009 0.000000 -0.012649 -0.000001 0.036582
#
#
# Mechanical properties :
#
#
# Convention : Reuss Voigt Hill
#
# Bulk Modulus (GPa) = 40.02959 50.99213 45.51086
# Shear Modulus (GPa) = 28.14160 32.70476 30.42318
#
# Velocity S-wave (km/s) = 3.55391 3.83122 3.69516
# Velocity P-wave (km/s) = 5.89966 6.51589 6.21542
#
# Compressibility (1/GPa) = 0.02498152
#
# Stress axis : x y z
#
# Youngs Moduli (GPa) = 84.24402 48.42946 133.66539
#
# Poissons Ratio (x) = 0.14382 0.37215
# Poissons Ratio (y) = 0.25018 0.23465
# Poissons Ratio (z) = 0.23455 0.08502
#
# Static dielectric constant tensor:
#      x y z
#    x 4.014630 -0.000010 -0.033520 
#    y -0.000010 3.805830 0.000000 
#    z -0.033520 0.000000 4.558210 
# 
# 
# High freq. dielectric constant tensor:
#      x y z
#    x 1.875170 0.000000 -0.008520 
#    y 0.000000 1.845960 0.000000 
#    z -0.008520 0.000000 1.899690 
# 
# From -- ./inp_files/218196.got.cif
#   From: 2010.06.25/outbox.cif.g09.slc.cpg/sg15_110_cif.got.tgz:218196.got - 2010.06.28 07:06:18.
