data_PCOD8131796
_publ_section_title
;
Structure prediction by ZEFSAII (Michael W. Deem and Ramdas Pophale) SiO2 
 PCOD8131796
Probable space group: C 2/C
;
_chemical_formula_sum "Si O2"
_cell_formula_units_Z 60
_cell_length_a 31.890704
_cell_length_b 20.150003
_cell_length_c 14.374671
_cell_angle_alpha 90.000000
_cell_angle_beta 159.070243
_cell_angle_gamma 90.000000
_cell_volume 3299.717163
_symmetry_space_group_name_H-M "C 2/C"
_symmetry_group_IT_number 15
_symmetry_cell_setting 'monoclinic'
loop_
_space_group_symop_operation_xyz
x,y,z
-x,y,1/2-z
-x,-y,-z
x,-y,1/2+z
1/2+x,1/2+y,z
1/2-x,1/2+y,1/2-z
1/2-x,1/2-y,-z
1/2+x,1/2-y,1/2+z
loop_
_atom_site_type_symbol
_atom_site_label
_atom_site_fract_x
_atom_site_fract_y
_atom_site_fract_z
Si Si1 0.335588 0.602533 0.040741
Si Si2 0.420614 0.466420 0.260530
Si Si3 0.816855 0.199859 0.329304
Si Si4 0.417128 0.345548 0.371850
Si Si5 0.511970 0.226491 0.112928
Si Si6 0.253445 0.184078 0.814819
Si Si7 0.697537 0.822918 0.406528
Si Si8 0.500000 0.400169 0.250000
O O1 0.282466 0.625934 0.831663
O O2 0.251772 0.624029 0.949859
O O3 0.333116 0.521851 0.036430
O O4 0.464693 0.632732 0.328517
O O5 0.500000 0.500000 0.500000
O O6 0.361488 0.404782 0.193236
O O7 0.508471 0.443375 0.360529
O O8 0.734825 0.245042 0.225157
O O9 0.915828 0.246032 0.486387
O O10 0.883882 0.143959 0.526644
O O11 0.731702 0.159734 0.082859
O O12 0.436168 0.286388 0.339169
O O13 0.325277 0.321121 0.257396
O O14 0.610239 0.183437 0.370233
O O15 0.442830 0.177402 0.899209
O O16 0.750000 0.750000 0.500000
#
# Coordination Sequence:
#
# PCOD8131796 Si02
#       8
#     8   8   8   8   8   8   8   4
#     4  11  21  36  54  85 115 156 192 236 287 353
#     4  10  23  36  54  81 117 157 190 236 291 344
#     4  11  18  35  58  90 109 148 196 236 287 342
#     4  11  21  38  52  83 126 148 180 240 305 346
#     4  11  19  36  55  84 114 148 187 235 291 347
#     4  12  22  30  57  89 120 143 187 244 295 343
#     4  10  18  34  59  77 115 147 192 239 282 334
#     4  12  20  36  64  84 118 148 198 240 282 354
#
# _framework density 18.183375999999999
#
# number of rings (size 3 to 8) (size 9 to 14) (size 15 to 20)
#    0.000    1.067    8.000    1.600    3.733    0.000 
#    0.000    0.000    0.000    0.800    3.467    0.000 
#    0.000    0.000    0.000    0.000    0.000    0.000 
#
# Total GULP energy -371714.589339 kJ/mol
# GULP energy per Si atom -12390.486311 kJ/mol
# Density = 1.814199 g / cm^3
# Si number density = 18.183376 Si / 1000 Ang^3
#
#
#
# Elastic Constant Matrix: (Units=GPa)
#
#
# Indices 1 2 3 4 5 6 
#
# 1 112.0109 53.6550 30.2962 0.0000 -0.6539 0.0000
# 2 53.6550 96.5847 38.2129 0.0000 6.1771 0.0000
# 3 30.2962 38.2129 98.2780 0.0000 -22.2956 0.0000
# 4 0.0000 0.0000 0.0000 24.0410 0.0000 -8.2536
# 5 -0.6539 6.1771 -22.2956 0.0000 31.2760 0.0000
# 6 0.0000 0.0000 0.0000 -8.2536 0.0000 22.2993
#
#
#
# Elastic Compliance Matrix: (Units=1/GPa)
#
#
# Indices 1 2 3 4 5 6 
#
# 1 0.012325 -0.006447 -0.001128 0.000000 0.000727 0.000000
# 2 -0.006447 0.017011 -0.006465 0.000000 -0.008104 0.000000
# 3 -0.001128 -0.006465 0.015891 0.000000 0.012582 0.000000
# 4 0.000000 0.000000 0.000000 0.047651 0.000000 0.017637
# 5 0.000727 -0.008104 0.012582 0.000000 0.042558 0.000000
# 6 0.000000 0.000000 0.000000 0.017637 0.000000 0.051372
#
#
# Mechanical properties :
#
#
# Convention : Reuss Voigt Hill
#
# Bulk Modulus (GPa) = 58.31900 61.24466 59.78183
# Shear Modulus (GPa) = 22.66490 27.83722 25.25106
#
# Velocity S-wave (km/s) = 3.53436 3.91694 3.73055
# Velocity P-wave (km/s) = 6.98555 7.36283 7.17667
#
# Compressibility (1/GPa) = 0.01714707
#
# Stress axis : x y z
#
# Youngs Moduli (GPa) = 81.13362 58.78382 62.92862
#
# Poissons Ratio (x) = 0.37900 0.07096
# Poissons Ratio (y) = 0.52310 0.40686
# Poissons Ratio (z) = 0.09149 0.38006
#
# Static dielectric constant tensor:
#      x y z
#    x 3.687300 0.000000 -0.592630 
#    y 0.000000 3.747040 0.000000 
#    z -0.592630 0.000000 0.301860 
# 
# 
# High freq. dielectric constant tensor:
#      x y z
#    x 1.717040 0.000000 -0.028780 
#    y 0.000000 1.683960 0.000000 
#    z -0.028780 0.000000 1.684790 
# 
# From -- ./inp_files/183087.got.cif
#   From: 2010.06.25/outbox.cif.g09.slc.cpg/sg15_92_cif.got.tgz:183087.got - 2010.06.28 07:06:18.
