data_PCOD8131803
_publ_section_title
;
Structure prediction by ZEFSAII (Michael W. Deem and Ramdas Pophale) SiO2 
 PCOD8131803
Probable space group: C 2/C
;
_chemical_formula_sum "Si O2"
_cell_formula_units_Z 56
_cell_length_a 19.812971
_cell_length_b 8.273575
_cell_length_c 16.470305
_cell_angle_alpha 90.000000
_cell_angle_beta 102.363764
_cell_angle_gamma 90.000000
_cell_volume 2637.264036
_symmetry_space_group_name_H-M "C 2/C"
_symmetry_group_IT_number 15
_symmetry_cell_setting 'monoclinic'
loop_
_space_group_symop_operation_xyz
x,y,z
-x,y,1/2-z
-x,-y,-z
x,-y,1/2+z
1/2+x,1/2+y,z
1/2-x,1/2+y,1/2-z
1/2-x,1/2-y,-z
1/2+x,1/2-y,1/2+z
loop_
_atom_site_type_symbol
_atom_site_label
_atom_site_fract_x
_atom_site_fract_y
_atom_site_fract_z
Si Si1 0.472455 0.182320 0.158324
Si Si2 0.858069 0.907652 0.760413
Si Si3 0.841126 0.886668 0.099731
Si Si4 0.112863 0.220696 0.653201
Si Si5 0.825028 0.185973 0.003339
Si Si6 0.616368 0.127693 0.837364
Si Si7 0.215175 0.632711 0.313413
O O1 0.500000 0.256000 0.250000
O O2 0.415298 0.301646 0.107501
O O3 0.540429 0.185795 0.118545
O O4 0.444440 0.001582 0.165678
O O5 0.899553 0.744569 0.744981
O O6 0.789695 0.865541 0.793635
O O7 0.834901 0.984498 0.670134
O O8 0.902810 0.033055 0.825612
O O9 0.784523 0.748876 0.106584
O O10 0.825899 0.989836 0.014490
O O11 0.156116 0.231061 0.582909
O O12 0.155890 0.302387 0.736967
O O13 0.878857 0.271434 0.078253
O O14 0.750000 0.250000 0.000000
O O15 0.690727 0.044152 0.836528
#
# Coordination Sequence:
#
# PCOD8131803 Si02
#       7
#     8   8   8   8   8   8   8
#     4  11  20  43  62  85 122 159 210 252 303 352
#     4  10  18  34  59  92 112 154 213 245 293 358
#     4   9  20  37  60  82 122 164 189 253 307 354
#     4  11  22  38  64  84 122 169 194 249 307 355
#     4  11  23  41  60  92 129 159 199 253 311 363
#     4  10  21  37  61  92 122 158 201 259 296 358
#     4  10  18  36  62  89 120 157 207 252 299 354
#
# _framework density 21.234127999999998
#
# number of rings (size 3 to 8) (size 9 to 14) (size 15 to 20)
#    0.000    1.714    4.286    4.286    0.000    1.143 
#    5.143    9.286    0.000    0.000    0.000    0.000 
#    0.000    0.000    0.000    0.000    0.000    0.000 
#
# Total GULP energy -347012.687193 kJ/mol
# GULP energy per Si atom -12393.310257 kJ/mol
# Density = 2.118580 g / cm^3
# Si number density = 21.234128 Si / 1000 Ang^3
#
#
#
# Elastic Constant Matrix: (Units=GPa)
#
#
# Indices 1 2 3 4 5 6 
#
# 1 97.3337 37.9388 2.7875 0.0000 -15.5141 0.0000
# 2 37.9388 119.8293 21.7135 0.0000 -7.4130 0.0000
# 3 2.7875 21.7135 38.8649 0.0000 -14.5594 0.0000
# 4 0.0000 0.0000 0.0000 29.1346 0.0000 2.3337
# 5 -15.5141 -7.4130 -14.5594 0.0000 26.2135 0.0000
# 6 0.0000 0.0000 0.0000 2.3337 0.0000 28.3386
#
#
#
# Elastic Compliance Matrix: (Units=1/GPa)
#
#
# Indices 1 2 3 4 5 6 
#
# 1 0.013439 -0.004603 0.005177 0.000000 0.009527 0.000000
# 2 -0.004603 0.010864 -0.007083 0.000000 -0.003586 0.000000
# 3 0.005177 -0.007083 0.037520 0.000000 0.021900 0.000000
# 4 0.000000 0.000000 0.000000 0.034551 0.000000 -0.002845
# 5 0.009527 -0.003586 0.021900 0.000000 0.054936 0.000000
# 6 0.000000 0.000000 0.000000 -0.002845 0.000000 0.035522
#
#
# Mechanical properties :
#
#
# Convention : Reuss Voigt Hill
#
# Bulk Modulus (GPa) = 20.49008 42.32306 31.40657
# Shear Modulus (GPa) = 23.13530 29.64319 26.38925
#
# Velocity S-wave (km/s) = 3.30439 3.74038 3.52913
# Velocity P-wave (km/s) = 4.92232 6.21521 5.60616
#
# Compressibility (1/GPa) = 0.04880410
#
# Stress axis : x y z
#
# Youngs Moduli (GPa) = 74.41285 92.04432 26.65224
#
# Poissons Ratio (x) = 0.42372 -0.13798
# Poissons Ratio (y) = 0.34256 0.18878
# Poissons Ratio (z) = -0.38524 0.65196
#
# Static dielectric constant tensor:
#      x y z
#    x 3.736230 0.000000 -0.224720 
#    y 0.000000 4.313010 0.000000 
#    z -0.224720 0.000000 3.787800 
# 
# 
# High freq. dielectric constant tensor:
#      x y z
#    x 1.818980 0.000000 -0.021970 
#    y 0.000000 1.847280 0.000000 
#    z -0.021970 0.000000 1.810370 
# 
# From -- ./inp_files/213406.got.cif
#   From: 2010.06.25/outbox.cif.g09.slc.cpg/sg15_107_cif.got.tgz:213406.got - 2010.06.28 07:06:18.
