data_PCOD8131583
_publ_section_title
;
Structure prediction by ZEFSAII (Michael W. Deem and Ramdas Pophale) SiO2 
 PCOD8131583
Probable space group: C 2/C
;
_chemical_formula_sum "Si O2"
_cell_formula_units_Z 44
_cell_length_a 9.782654
_cell_length_b 16.380889
_cell_length_c 17.083735
_cell_angle_alpha 90.000000
_cell_angle_beta 50.040520
_cell_angle_gamma 90.000000
_cell_volume 2098.401009
_symmetry_space_group_name_H-M "C 2/C"
_symmetry_group_IT_number 15
_symmetry_cell_setting 'monoclinic'
loop_
_space_group_symop_operation_xyz
x,y,z
-x,y,1/2-z
-x,-y,-z
x,-y,1/2+z
1/2+x,1/2+y,z
1/2-x,1/2+y,1/2-z
1/2-x,1/2-y,-z
1/2+x,1/2-y,1/2+z
loop_
_atom_site_type_symbol
_atom_site_label
_atom_site_fract_x
_atom_site_fract_y
_atom_site_fract_z
Si Si1 0.082526 0.696118 0.088645
Si Si2 0.644804 0.907426 0.945764
Si Si3 0.000000 0.419114 0.750000
Si Si4 0.875503 0.765572 0.883474
Si Si5 0.614944 0.039594 0.838386
Si Si6 0.261255 0.202954 0.768107
O O1 0.011918 0.641986 0.042312
O O2 0.126147 0.637530 0.147454
O O3 0.929305 0.757146 0.175509
O O4 0.250000 0.750000 0.000000
O O5 0.830253 0.857827 0.873132
O O6 0.690385 0.992824 0.886845
O O7 0.576202 0.923168 0.060693
O O8 0.110289 0.477563 0.767225
O O9 0.819461 0.700270 0.837636
O O10 0.082635 0.757191 0.831089
O O11 0.750000 0.750000 0.000000
O O12 0.745449 0.112382 0.765058
#
# Coordination Sequence:
#
# PCOD8131583 Si02
#       6
#     8   8   4   8   8   8
#     4  10  23  40  62  89 119 164 208 244 293 358
#     4   9  20  36  61  86 127 156 190 250 311 351
#     4  10  22  38  66  84 122 158 196 252 302 356
#     4  10  18  33  59  95 116 150 199 252 294 354
#     4  10  19  37  61  91 119 159 193 246 310 355
#     4  10  21  35  64  91 115 158 206 245 294 356
#
# _framework density 20.968347000000001
#
# number of rings (size 3 to 8) (size 9 to 14) (size 15 to 20)
#    0.000    2.182    1.818    1.091    2.545    0.000 
#    0.000    0.909   64.000    0.000    0.000    0.000 
#    0.000    0.000    0.000    0.000    0.000    0.000 
#
# Total GULP energy -272540.852943 kJ/mol
# GULP energy per Si atom -12388.220588 kJ/mol
# Density = 2.092062 g / cm^3
# Si number density = 20.968347 Si / 1000 Ang^3
#
#
#
# Elastic Constant Matrix: (Units=GPa)
#
#
# Indices 1 2 3 4 5 6 
#
# 1 55.5859 41.4710 41.2496 0.0002 -18.1459 -0.0002
# 2 41.4710 146.2249 66.8236 0.0000 -11.4659 -0.0001
# 3 41.2496 66.8236 145.9778 0.0002 -7.4447 -0.0006
# 4 0.0002 0.0000 0.0002 52.5622 -0.0002 5.8706
# 5 -18.1459 -11.4659 -7.4447 -0.0002 34.9716 0.0004
# 6 -0.0002 -0.0001 -0.0006 5.8706 0.0004 14.3892
#
#
#
# Elastic Compliance Matrix: (Units=1/GPa)
#
#
# Indices 1 2 3 4 5 6 
#
# 1 0.029970 -0.004967 -0.005546 0.000000 0.012742 0.000000
# 2 -0.004967 0.009614 -0.003001 0.000000 -0.000064 0.000000
# 3 -0.005546 -0.003001 0.009699 0.000000 -0.001796 0.000000
# 4 0.000000 0.000000 0.000000 0.019933 0.000000 -0.008133
# 5 0.012742 -0.000064 -0.001796 0.000000 0.034803 -0.000001
# 6 0.000000 0.000000 0.000000 -0.008133 -0.000001 0.072815
#
#
# Mechanical properties :
#
#
# Convention : Reuss Voigt Hill
#
# Bulk Modulus (GPa) = 44.92767 71.87524 58.40146
# Shear Modulus (GPa) = 23.66540 33.60088 28.63314
#
# Velocity S-wave (km/s) = 3.36315 4.00741 3.69933
# Velocity P-wave (km/s) = 6.04599 7.46759 6.79407
#
# Compressibility (1/GPa) = 0.02225800
#
# Stress axis : x y z
#
# Youngs Moduli (GPa) = 33.36618 104.01938 103.09964
#
# Poissons Ratio (x) = 0.51662 0.57175
# Poissons Ratio (y) = 0.16571 0.30936
# Poissons Ratio (z) = 0.18503 0.31212
#
# Static dielectric constant tensor:
#      x y z
#    x 2.923100 0.000000 0.503340 
#    y 0.000000 5.416700 0.000000 
#    z 0.503340 0.000000 3.971870 
# 
# 
# High freq. dielectric constant tensor:
#      x y z
#    x 1.771520 0.000000 0.023080 
#    y 0.000000 1.834480 0.000000 
#    z 0.023080 0.000000 1.836860 
# 
# From -- ./inp_files/198625.got.cif
#   From: 2010.06.25/outbox.cif.g09.slc.cpg/sg15_100_cif.got.tgz:198625.got - 2010.06.28 07:06:18.
