data_PCOD8131633
_publ_section_title
;
Structure prediction by ZEFSAII (Michael W. Deem and Ramdas Pophale) SiO2 
 PCOD8131633
Probable space group: C 2/C
;
_chemical_formula_sum "Si O2"
_cell_formula_units_Z 60
_cell_length_a 10.799907
_cell_length_b 28.177556
_cell_length_c 9.678531
_cell_angle_alpha 90.000000
_cell_angle_beta 117.697579
_cell_angle_gamma 90.000000
_cell_volume 2607.827181
_symmetry_space_group_name_H-M "C 2/C"
_symmetry_group_IT_number 15
_symmetry_cell_setting 'monoclinic'
loop_
_space_group_symop_operation_xyz
x,y,z
-x,y,1/2-z
-x,-y,-z
x,-y,1/2+z
1/2+x,1/2+y,z
1/2-x,1/2+y,1/2-z
1/2-x,1/2-y,-z
1/2+x,1/2-y,1/2+z
loop_
_atom_site_type_symbol
_atom_site_label
_atom_site_fract_x
_atom_site_fract_y
_atom_site_fract_z
Si Si1 0.409341 0.212110 0.006519
Si Si2 0.000000 0.940013 0.750000
Si Si3 0.317259 0.686199 0.416520
Si Si4 0.774945 0.440798 0.247219
Si Si5 0.469175 0.590737 0.525432
Si Si6 0.221981 0.007446 0.974391
Si Si7 0.646980 0.158778 0.776085
Si Si8 0.778395 0.298026 0.928597
O O1 0.343709 0.188105 0.111018
O O2 0.568522 0.197945 0.061457
O O3 0.400151 0.268641 0.018274
O O4 0.309637 0.192791 0.828948
O O5 0.003962 0.905527 0.622586
O O6 0.865356 0.973493 0.670849
O O7 0.394423 0.640316 0.523055
O O8 0.324198 0.690012 0.252156
O O9 0.615623 0.419549 0.180660
O O10 0.821897 0.465446 0.416093
O O11 0.873317 0.395571 0.279804
O O12 0.799951 0.476636 0.131960
O O13 0.372659 0.545328 0.496696
O O14 0.500000 0.179855 0.750000
O O15 0.747104 0.162518 0.963456
O O16 0.750000 0.250000 0.000000
#
# Coordination Sequence:
#
# PCOD8131633 Si02
#       8
#     8   4   8   8   8   8   8   8
#     4  10  23  44  59  87 132 164 198 261 313 359
#     4  10  18  34  50  84 128 152 184 250 314 360
#     4  11  24  38  64  93 123 162 210 249 306 381
#     4  11  22  37  64  88 125 164 204 259 317 379
#     4  11  22  33  59  93 124 157 203 250 314 379
#     4  11  19  38  57  88 126 159 192 252 330 366
#     4  10  23  43  61  86 122 164 209 257 314 360
#     4  11  23  40  64  87 120 166 209 256 307 357
#
# _framework density 23.007657999999999
#
# number of rings (size 3 to 8) (size 9 to 14) (size 15 to 20)
#    0.000    1.333    4.000    2.000    5.600    0.000 
#    0.000    2.000    0.000    1.600    0.000    0.000 
#    0.000    0.000    0.000    0.000    0.000    0.000 
#
# Total GULP energy -371706.086188 kJ/mol
# GULP energy per Si atom -12390.202873 kJ/mol
# Density = 2.295529 g / cm^3
# Si number density = 23.007658 Si / 1000 Ang^3
#
#
#
# Elastic Constant Matrix: (Units=GPa)
#
#
# Indices 1 2 3 4 5 6 
#
# 1 31.0882 21.3633 13.3988 0.0000 -17.1297 0.0000
# 2 21.3633 118.6825 16.4677 0.0000 -9.9593 0.0000
# 3 13.3988 16.4677 77.8108 0.0000 -19.9723 0.0000
# 4 0.0000 0.0000 0.0000 11.8035 0.0000 -5.2587
# 5 -17.1297 -9.9593 -19.9723 0.0000 23.1481 0.0000
# 6 0.0000 0.0000 0.0000 -5.2587 0.0000 35.2658
#
#
#
# Elastic Compliance Matrix: (Units=1/GPa)
#
#
# Indices 1 2 3 4 5 6 
#
# 1 0.060209 -0.007527 0.002351 0.000000 0.043345 0.000000
# 2 -0.007527 0.009761 -0.001440 0.000000 -0.002613 0.000000
# 3 0.002351 -0.001440 0.016748 0.000000 0.015570 0.000000
# 4 0.000000 0.000000 0.000000 0.090749 0.000000 0.013532
# 5 0.043345 -0.002613 0.015570 0.000000 0.087585 0.000000
# 6 0.000000 0.000000 0.000000 0.013532 0.000000 0.030374
#
#
# Mechanical properties :
#
#
# Convention : Reuss Voigt Hill
#
# Bulk Modulus (GPa) = 13.60811 36.67126 25.13969
# Shear Modulus (GPa) = 15.00803 25.80028 20.40415
#
# Velocity S-wave (km/s) = 2.55680 3.35233 2.98122
# Velocity P-wave (km/s) = 3.82671 5.56394 4.77500
#
# Compressibility (1/GPa) = 0.07348559
#
# Stress axis : x y z
#
# Youngs Moduli (GPa) = 16.60889 102.44552 59.70749
#
# Poissons Ratio (x) = 0.77108 -0.14036
# Poissons Ratio (y) = 0.12501 0.08601
# Poissons Ratio (z) = -0.03904 0.14757
#
# Static dielectric constant tensor:
#      x y z
#    x 4.004610 0.000000 -0.523780 
#    y 0.000000 4.110170 0.000000 
#    z -0.523780 0.000000 4.388930 
# 
# 
# High freq. dielectric constant tensor:
#      x y z
#    x 1.878170 0.000000 -0.036790 
#    y 0.000000 1.911910 0.000000 
#    z -0.036790 0.000000 1.913220 
# 
# From -- ./inp_files/35726.got.cif
#   From: 2010.06.25/outbox.cif.g09.slc.cpg/sg15_18_cif.got.tgz:35726.got - 2010.06.28 07:06:18.
