data_PCOD8131958
_publ_section_title
;
Structure prediction by ZEFSAII (Michael W. Deem and Ramdas Pophale) SiO2 
 PCOD8131958
Probable space group: C 2/C
;
_chemical_formula_sum "Si O2"
_cell_formula_units_Z 64
_cell_length_a 21.354213
_cell_length_b 18.403531
_cell_length_c 18.247484
_cell_angle_alpha 90.000000
_cell_angle_beta 27.961794
_cell_angle_gamma 90.000000
_cell_volume 3362.419686
_symmetry_space_group_name_H-M "C 2/C"
_symmetry_group_IT_number 15
_symmetry_cell_setting 'monoclinic'
loop_
_space_group_symop_operation_xyz
x,y,z
-x,y,1/2-z
-x,-y,-z
x,-y,1/2+z
1/2+x,1/2+y,z
1/2-x,1/2+y,1/2-z
1/2-x,1/2-y,-z
1/2+x,1/2-y,1/2+z
loop_
_atom_site_type_symbol
_atom_site_label
_atom_site_fract_x
_atom_site_fract_y
_atom_site_fract_z
Si Si1 0.114243 0.324095 0.687897
Si Si2 0.665335 0.537707 0.014806
Si Si3 0.122689 0.987983 0.219453
Si Si4 0.727981 0.296057 0.449757
Si Si5 0.137239 0.547215 0.441253
Si Si6 0.114009 0.548608 0.297686
Si Si7 0.380975 0.663125 0.821518
Si Si8 0.018139 0.685222 0.643815
O O1 0.119378 0.374714 0.752577
O O2 0.251529 0.329307 0.504192
O O3 0.087056 0.242127 0.746166
O O4 0.000000 0.349195 0.750000
O O5 0.677286 0.498349 0.080489
O O6 0.525941 0.520007 0.118484
O O7 0.673738 0.623524 0.021328
O O8 0.785831 0.510968 0.839401
O O9 0.129892 0.900771 0.228004
O O10 0.216801 0.027483 0.180037
O O11 0.750000 0.250000 0.500000
O O12 0.614259 0.252666 0.522422
O O13 0.871347 0.300105 0.260294
O O14 0.154594 0.566637 0.338531
O O15 0.080736 0.613583 0.545783
O O16 0.036767 0.479880 0.553317
O O17 0.500000 0.636289 0.750000
O O18 0.000000 0.674202 0.750000
#
# Coordination Sequence:
#
# PCOD8131958 Si02
#       8
#     8   8   8   8   8   8   8   8
#     4  10  20  34  63  86 116 152 200 247 305 347
#     4  11  22  37  64  90 122 158 201 259 299 355
#     4  11  21  35  62  92 121 156 210 249 307 359
#     4  10  21  35  58  89 121 148 194 248 305 346
#     4  11  25  39  61  86 125 162 208 243 306 371
#     4  11  23  42  58  89 123 165 197 253 307 367
#     4  10  18  35  56  92 118 146 197 257 295 352
#     4  10  21  37  61  88 118 155 201 251 294 355
#
# _framework density 19.033912000000001
#
# number of rings (size 3 to 8) (size 9 to 14) (size 15 to 20)
#    0.000    1.500    3.750    2.250    7.000    0.500 
#    0.000    1.250   11.000    0.000    0.000    0.000 
#    0.000    0.000    0.000    0.000    0.000    0.000 
#
# Total GULP energy -396751.890903 kJ/mol
# GULP energy per Si atom -12398.496591 kJ/mol
# Density = 1.899059 g / cm^3
# Si number density = 19.033912 Si / 1000 Ang^3
#
#
#
# Elastic Constant Matrix: (Units=GPa)
#
#
# Indices 1 2 3 4 5 6 
#
# 1 93.2804 45.0917 45.0949 -0.0019 -13.8935 0.0013
# 2 45.0917 140.8286 27.4400 -0.0031 -3.8549 0.0017
# 3 45.0949 27.4400 71.7672 -0.0053 -17.4715 0.0037
# 4 -0.0019 -0.0031 -0.0053 22.5469 0.0018 -12.1196
# 5 -13.8935 -3.8549 -17.4715 0.0018 31.8390 -0.0004
# 6 0.0013 0.0017 0.0037 -12.1196 -0.0004 18.5824
#
#
#
# Elastic Compliance Matrix: (Units=1/GPa)
#
#
# Indices 1 2 3 4 5 6 
#
# 1 0.017081 -0.003697 -0.008788 -0.000001 0.002184 0.000000
# 2 -0.003697 0.008490 -0.001230 0.000001 -0.001260 0.000000
# 3 -0.008788 -0.001230 0.021879 0.000003 0.008022 -0.000002
# 4 -0.000001 0.000001 0.000003 0.068295 -0.000002 0.044543
# 5 0.002184 -0.001260 0.008022 -0.000002 0.036611 -0.000002
# 6 0.000000 0.000000 -0.000002 0.044543 -0.000002 0.082865
#
#
# Mechanical properties :
#
#
# Convention : Reuss Voigt Hill
#
# Bulk Modulus (GPa) = 49.94851 60.12550 55.03700
# Shear Modulus (GPa) = 18.56505 27.14363 22.85434
#
# Velocity S-wave (km/s) = 3.12647 3.78043 3.46890
# Velocity P-wave (km/s) = 6.27152 7.12128 6.70987
#
# Compressibility (1/GPa) = 0.02002062
#
# Stress axis : x y z
#
# Youngs Moduli (GPa) = 58.54430 117.78942 45.70626
#
# Poissons Ratio (x) = 0.43548 0.40165
# Poissons Ratio (y) = 0.21645 0.05621
# Poissons Ratio (z) = 0.51447 0.14485
#
# Static dielectric constant tensor:
#      x y z
#    x 3.341490 -0.000010 -0.442270 
#    y -0.000010 3.826930 0.000020 
#    z -0.442270 0.000020 3.741530 
# 
# 
# High freq. dielectric constant tensor:
#      x y z
#    x 1.708820 0.000000 -0.035770 
#    y 0.000000 1.759790 0.000000 
#    z -0.035770 0.000000 1.743040 
# 
# From -- ./inp_files/216134.got.cif
#   From: 2010.06.25/outbox.cif.g09.slc.cpg/sg15_109_cif.got.tgz:216134.got - 2010.06.28 07:06:18.
