data_PCOD8131998
_publ_section_title
;
Structure prediction by ZEFSAII (Michael W. Deem and Ramdas Pophale) SiO2 
 PCOD8131998
Probable space group: C 2/C
;
_chemical_formula_sum "Si O2"
_cell_formula_units_Z 44
_cell_length_a 14.795521
_cell_length_b 27.574665
_cell_length_c 8.222576
_cell_angle_alpha 90.000000
_cell_angle_beta 38.275706
_cell_angle_gamma 90.000000
_cell_volume 2078.030957
_symmetry_space_group_name_H-M "C 2/C"
_symmetry_group_IT_number 15
_symmetry_cell_setting 'monoclinic'
loop_
_space_group_symop_operation_xyz
x,y,z
-x,y,1/2-z
-x,-y,-z
x,-y,1/2+z
1/2+x,1/2+y,z
1/2-x,1/2+y,1/2-z
1/2-x,1/2-y,-z
1/2+x,1/2-y,1/2+z
loop_
_atom_site_type_symbol
_atom_site_label
_atom_site_fract_x
_atom_site_fract_y
_atom_site_fract_z
Si Si1 0.256142 0.067264 0.115368
Si Si2 0.082305 0.800837 0.461266
Si Si3 0.464691 0.600078 0.614735
Si Si4 0.158839 0.024497 0.943455
Si Si5 0.139001 0.721629 0.770206
Si Si6 0.500000 0.139688 0.750000
O O1 0.276834 0.045710 0.904581
O O2 0.112522 0.099936 0.302032
O O3 0.229502 0.025498 0.284953
O O4 0.383673 0.102932 0.994753
O O5 0.091075 0.845559 0.325881
O O6 0.256534 0.790444 0.226343
O O7 0.000000 0.811798 0.750000
O O8 0.998978 0.755864 0.492342
O O9 0.500000 0.586956 0.750000
O O10 0.355149 0.560104 0.692833
O O11 0.000000 0.015017 0.250000
O O12 0.250000 0.750000 0.500000
O O13 0.077029 0.672573 0.776986
#
# Coordination Sequence:
#
# PCOD8131998 Si02
#       6
#     8   8   8   8   8   4
#     4  11  22  36  61  87 123 160 204 251 304 364
#     4  10  19  34  61  86 115 154 204 258 301 353
#     4  11  21  36  60  89 120 161 207 254 302 361
#     4  10  20  39  60  88 121 158 208 253 300 356
#     4  10  18  35  58  87 117 153 204 254 297 354
#     4  12  22  34  60  94 122 160 202 250 308 364
#
# _framework density 21.17389
#
# number of rings (size 3 to 8) (size 9 to 14) (size 15 to 20)
#    0.000    1.455    2.727    8.727    0.000    0.727 
#    0.000    0.909    0.000    2.182    0.000    0.000 
#    0.000    0.000    0.000    0.000    0.000    0.000 
#
# Total GULP energy -272582.822746 kJ/mol
# GULP energy per Si atom -12390.128307 kJ/mol
# Density = 2.112570 g / cm^3
# Si number density = 21.173890 Si / 1000 Ang^3
#
#
#
# Elastic Constant Matrix: (Units=GPa)
#
#
# Indices 1 2 3 4 5 6 
#
# 1 116.7111 69.3017 37.1045 0.0000 -14.9342 0.0000
# 2 69.3017 172.9917 50.4545 0.0000 -17.6459 0.0000
# 3 37.1045 50.4545 36.9280 0.0000 -13.4307 0.0000
# 4 0.0000 0.0000 0.0000 35.5598 0.0000 -12.9660
# 5 -14.9342 -17.6459 -13.4307 0.0000 39.1766 0.0000
# 6 0.0000 0.0000 0.0000 -12.9660 0.0000 41.0360
#
#
#
# Elastic Compliance Matrix: (Units=1/GPa)
#
#
# Indices 1 2 3 4 5 6 
#
# 1 0.013153 -0.002356 -0.009778 0.000000 0.000600 0.000000
# 2 -0.002356 0.010034 -0.011453 0.000000 -0.000305 0.000000
# 3 -0.009778 -0.011453 0.056346 0.000000 0.010431 0.000000
# 4 0.000000 0.000000 0.000000 0.031783 0.000000 0.010042
# 5 0.000600 -0.000305 0.010431 0.000000 0.029193 0.000000
# 6 0.000000 0.000000 0.000000 0.010042 0.000000 0.027542
#
#
# Mechanical properties :
#
#
# Convention : Reuss Voigt Hill
#
# Bulk Modulus (GPa) = 30.90359 71.15024 51.02692
# Shear Modulus (GPa) = 22.12295 34.47249 28.29772
#
# Velocity S-wave (km/s) = 3.23588 4.03931 3.65971
# Velocity P-wave (km/s) = 5.34678 7.44516 6.48145
#
# Compressibility (1/GPa) = 0.03235870
#
# Stress axis : x y z
#
# Youngs Moduli (GPa) = 76.03095 99.66594 17.74752
#
# Poissons Ratio (x) = 0.23480 0.17354
# Poissons Ratio (y) = 0.17912 0.20325
# Poissons Ratio (z) = 0.74345 1.14143
#
# Static dielectric constant tensor:
#      x y z
#    x 3.848820 0.000000 -0.129280 
#    y 0.000000 4.243050 0.000000 
#    z -0.129280 0.000000 3.340030 
# 
# 
# High freq. dielectric constant tensor:
#      x y z
#    x 1.830710 0.000000 -0.013840 
#    y 0.000000 1.852950 0.000000 
#    z -0.013840 0.000000 1.775730 
# 
# From -- ./inp_files/43359.got.cif
#   From: 2010.06.25/outbox.cif.g09.slc.cpg/sg15_22_cif.got.tgz:43359.got - 2010.06.28 07:06:18.
