data_PCOD8131005
_publ_section_title
;
Structure prediction by ZEFSAII (Michael W. Deem and Ramdas Pophale) SiO2 
 PCOD8131005
Probable space group: C 2/C
;
_chemical_formula_sum "Si O2"
_cell_formula_units_Z 52
_cell_length_a 19.654112
_cell_length_b 11.501002
_cell_length_c 20.135682
_cell_angle_alpha 90.000000
_cell_angle_beta 33.265001
_cell_angle_gamma 90.000000
_cell_volume 2496.558304
_symmetry_space_group_name_H-M "C 2/C"
_symmetry_group_IT_number 15
_symmetry_cell_setting 'monoclinic'
loop_
_space_group_symop_operation_xyz
x,y,z
-x,y,1/2-z
-x,-y,-z
x,-y,1/2+z
1/2+x,1/2+y,z
1/2-x,1/2+y,1/2-z
1/2-x,1/2-y,-z
1/2+x,1/2-y,1/2+z
loop_
_atom_site_type_symbol
_atom_site_label
_atom_site_fract_x
_atom_site_fract_y
_atom_site_fract_z
Si Si1 0.551315 0.501132 0.778678
Si Si2 0.332618 0.356146 0.498197
Si Si3 0.785708 0.559897 0.842571
Si Si4 0.989530 0.555378 0.580132
Si Si5 0.197605 0.595617 0.972526
Si Si6 0.500000 0.845041 0.250000
Si Si7 0.933413 0.788691 0.933019
O O1 0.500000 0.455319 0.750000
O O2 0.695067 0.535171 0.658808
O O3 0.529348 0.397752 0.850107
O O4 0.473486 0.616669 0.861441
O O5 0.291078 0.441152 0.590706
O O6 0.237771 0.388427 0.516016
O O7 0.327299 0.226820 0.531824
O O8 0.900143 0.569580 0.799422
O O9 0.845304 0.556614 0.720421
O O10 0.698727 0.669331 0.931203
O O11 0.075763 0.483640 0.562226
O O12 0.026051 0.691164 0.547290
O O13 0.000000 0.500000 0.500000
O O14 0.571238 0.767436 0.136675
#
# Coordination Sequence:
#
# PCOD8131005 Si02
#       7
#     8   8   8   8   8   4   8
#     4   9  18  34  59  95 125 149 189 241 313 376
#     4   9  19  36  60  94 122 152 193 247 317 378
#     4  10  21  37  59  93 119 156 198 248 302 368
#     4  11  26  43  58  84 119 166 215 254 300 357
#     4  10  21  36  61  86 127 162 190 249 310 372
#     4  10  18  30  62 100 132 144 180 244 324 380
#     4  10  20  36  63  89 125 152 194 254 308 367
#
# _framework density 20.828675
#
# number of rings (size 3 to 8) (size 9 to 14) (size 15 to 20)
#    0.000    2.154    0.769    2.308    6.462    0.000 
#    4.154    0.000    0.000    3.692    0.000    0.000 
#    0.000    0.000    0.000    0.000    0.000    0.000 
#
# Total GULP energy -322185.309360 kJ/mol
# GULP energy per Si atom -12391.742668 kJ/mol
# Density = 2.078127 g / cm^3
# Si number density = 20.828675 Si / 1000 Ang^3
#
#
#
# Elastic Constant Matrix: (Units=GPa)
#
#
# Indices 1 2 3 4 5 6 
#
# 1 31.5617 20.3120 25.8371 0.0000 9.8981 0.0000
# 2 20.3120 139.9427 53.3669 0.0000 -2.2102 0.0000
# 3 25.8371 53.3669 150.9933 -0.0001 5.2222 0.0000
# 4 0.0000 0.0000 -0.0001 31.0038 0.0000 6.5942
# 5 9.8981 -2.2102 5.2222 0.0000 23.9334 0.0000
# 6 0.0000 0.0000 0.0000 6.5942 0.0000 20.0658
#
#
#
# Elastic Compliance Matrix: (Units=1/GPa)
#
#
# Indices 1 2 3 4 5 6 
#
# 1 0.044676 -0.004719 -0.005363 0.000000 -0.017742 0.000000
# 2 -0.004719 0.008805 -0.002418 0.000000 0.003293 0.000000
# 3 -0.005363 -0.002418 0.008390 0.000000 0.000164 0.000000
# 4 0.000000 0.000000 0.000000 0.034678 0.000000 -0.011396
# 5 -0.017742 0.003293 0.000164 0.000000 0.049388 0.000000
# 6 0.000000 0.000000 0.000000 -0.011396 0.000000 0.053581
#
#
# Mechanical properties :
#
#
# Convention : Reuss Voigt Hill
#
# Bulk Modulus (GPa) = 27.12334 57.94774 42.53554
# Shear Modulus (GPa) = 21.11406 29.86604 25.49005
#
# Velocity S-wave (km/s) = 3.18732 3.79078 3.50207
# Velocity P-wave (km/s) = 5.15711 6.85869 6.06784
#
# Compressibility (1/GPa) = 0.03686861
#
# Stress axis : x y z
#
# Youngs Moduli (GPa) = 22.38355 113.57145 119.19583
#
# Poissons Ratio (x) = 0.53600 0.63924
# Poissons Ratio (y) = 0.10564 0.28826
# Poissons Ratio (z) = 0.12004 0.27465
#
# Static dielectric constant tensor:
#      x y z
#    x 3.153950 0.000000 -0.021270 
#    y 0.000000 3.902630 0.000000 
#    z -0.021270 0.000000 4.007530 
# 
# 
# High freq. dielectric constant tensor:
#      x y z
#    x 1.749950 0.000000 -0.003880 
#    y 0.000000 1.829480 0.000000 
#    z -0.003880 0.000000 1.832450 
# 
# From -- ./inp_files/252708.got.cif
#   From: 2010.06.25/outbox.cif.g09.slc.cpg/sg15_127_cif.got.tgz:252708.got - 2010.06.28 07:06:18.
