data_PCOD8131085
_publ_section_title
;
Structure prediction by ZEFSAII (Michael W. Deem and Ramdas Pophale) SiO2 
 PCOD8131085
Probable space group: C 2/C
;
_chemical_formula_sum "Si O2"
_cell_formula_units_Z 52
_cell_length_a 9.393649
_cell_length_b 15.327868
_cell_length_c 20.945827
_cell_angle_alpha 90.000000
_cell_angle_beta 66.299008
_cell_angle_gamma 90.000000
_cell_volume 2761.504558
_symmetry_space_group_name_H-M "C 2/C"
_symmetry_group_IT_number 15
_symmetry_cell_setting 'monoclinic'
loop_
_space_group_symop_operation_xyz
x,y,z
-x,y,1/2-z
-x,-y,-z
x,-y,1/2+z
1/2+x,1/2+y,z
1/2-x,1/2+y,1/2-z
1/2-x,1/2-y,-z
1/2+x,1/2-y,1/2+z
loop_
_atom_site_type_symbol
_atom_site_label
_atom_site_fract_x
_atom_site_fract_y
_atom_site_fract_z
Si Si1 0.174520 0.148569 0.928914
Si Si2 0.603295 0.012333 0.327941
Si Si3 0.000000 0.738551 0.750000
Si Si4 0.737621 0.990082 0.667825
Si Si5 0.252213 0.327267 0.863425
Si Si6 0.521284 0.347176 0.916836
Si Si7 0.515674 0.161267 0.883568
O O1 0.147819 0.245679 0.905532
O O2 0.337751 0.146572 0.938920
O O3 0.175989 0.077543 0.871855
O O4 0.035201 0.126052 0.002458
O O5 0.427924 0.022091 0.335652
O O6 0.721937 0.005576 0.247257
O O7 0.640548 0.093266 0.366825
O O8 0.618307 0.926501 0.371434
O O9 0.153027 0.799256 0.717406
O O10 0.006572 0.675295 0.808952
O O11 0.838843 0.907100 0.630304
O O12 0.378210 0.354598 0.893759
O O13 0.584909 0.246375 0.906188
#
# Coordination Sequence:
#
# PCOD8131085 Si02
#       7
#     8   8   4   8   8   8   8
#     4   9  18  34  52  73  99 136 169 196 244 307
#     4  10  19  33  50  77 101 129 165 204 257 294
#     4   8  14  28  50  72  92 128 168 204 246 286
#     4  10  20  33  53  72 101 134 165 203 248 306
#     4  10  18  31  53  76 100 127 169 217 244 284
#     4  10  19  34  53  75  98 132 170 205 243 294
#     4   9  16  29  50  71  97 129 165 204 241 294
#
# _framework density 18.830314999999999
#
# number of rings (size 3 to 8) (size 9 to 14) (size 15 to 20)
#    0.000    2.769    0.000    6.923    0.000    0.000 
#    0.000    9.231    0.000    3.692    0.000    0.000 
#    0.000    0.000    0.000    0.000    0.000    0.000 
#
# Total GULP energy -322238.413556 kJ/mol
# GULP energy per Si atom -12393.785137 kJ/mol
# Density = 1.878746 g / cm^3
# Si number density = 18.830315 Si / 1000 Ang^3
#
#
#
# Elastic Constant Matrix: (Units=GPa)
#
#
# Indices 1 2 3 4 5 6 
#
# 1 28.3135 36.0060 19.9069 0.0000 -1.0663 0.0000
# 2 36.0060 159.4732 47.0253 0.0000 -12.4422 0.0000
# 3 19.9069 47.0253 107.2350 0.0000 -19.4722 0.0000
# 4 0.0000 0.0000 0.0000 19.2245 0.0000 -2.7136
# 5 -1.0663 -12.4422 -19.4722 0.0000 16.4800 0.0000
# 6 0.0000 0.0000 0.0000 -2.7136 0.0000 35.0261
#
#
#
# Elastic Compliance Matrix: (Units=1/GPa)
#
#
# Indices 1 2 3 4 5 6 
#
# 1 0.054338 -0.011069 -0.007782 0.000000 -0.014036 0.000000
# 2 -0.011069 0.009518 -0.001202 0.000000 0.005049 0.000000
# 3 -0.007782 -0.001202 0.014057 0.000000 0.015198 0.000000
# 4 0.000000 0.000000 0.000000 0.052592 0.000000 0.004075
# 5 -0.014036 0.005049 0.015198 0.000000 0.081541 0.000000
# 6 0.000000 0.000000 0.000000 0.004075 0.000000 0.028866
#
#
# Mechanical properties :
#
#
# Convention : Reuss Voigt Hill
#
# Bulk Modulus (GPa) = 26.45027 55.65535 41.05281
# Shear Modulus (GPa) = 17.02884 26.95169 21.99027
#
# Velocity S-wave (km/s) = 3.01047 3.78735 3.42103
# Velocity P-wave (km/s) = 5.11479 6.98182 6.11992
#
# Compressibility (1/GPa) = 0.03780680
#
# Stress axis : x y z
#
# Youngs Moduli (GPa) = 18.40347 105.06127 71.13953
#
# Poissons Ratio (x) = 1.16290 0.55360
# Poissons Ratio (y) = 0.20370 0.08553
# Poissons Ratio (z) = 0.14321 0.12632
#
# Static dielectric constant tensor:
#      x y z
#    x 2.931940 0.000000 -0.188280 
#    y 0.000000 3.725310 0.000000 
#    z -0.188280 0.000000 3.646820 
# 
# 
# High freq. dielectric constant tensor:
#      x y z
#    x 1.665540 0.000000 -0.013430 
#    y 0.000000 1.749010 0.000000 
#    z -0.013430 0.000000 1.744760 
# 
# From -- ./inp_files/264165.got.cif
#   From: 2010.06.25/outbox.cif.g09.slc.cpg/sg15_133_cif.got.tgz:264165.got - 2010.06.28 07:06:18.
