data_PCOD8131628
_publ_section_title
;
Structure prediction by ZEFSAII (Michael W. Deem and Ramdas Pophale) SiO2 
 PCOD8131628
Probable space group: C 2/C
;
_chemical_formula_sum "Si O2"
_cell_formula_units_Z 40
_cell_length_a 17.328647
_cell_length_b 21.914218
_cell_length_c 5.207989
_cell_angle_alpha 90.000000
_cell_angle_beta 65.043826
_cell_angle_gamma 90.000000
_cell_volume 1793.044850
_symmetry_space_group_name_H-M "C 2/C"
_symmetry_group_IT_number 15
_symmetry_cell_setting 'monoclinic'
loop_
_space_group_symop_operation_xyz
x,y,z
-x,y,1/2-z
-x,-y,-z
x,-y,1/2+z
1/2+x,1/2+y,z
1/2-x,1/2+y,1/2-z
1/2-x,1/2-y,-z
1/2+x,1/2-y,1/2+z
loop_
_atom_site_type_symbol
_atom_site_label
_atom_site_fract_x
_atom_site_fract_y
_atom_site_fract_z
Si Si1 0.714649 0.113904 0.264683
Si Si2 0.537196 0.932096 0.948339
Si Si3 0.163968 0.255487 0.771859
Si Si4 0.500000 0.364197 0.750000
Si Si5 0.179345 0.875678 0.402004
Si Si6 0.500000 0.285531 0.250000
O O1 0.639976 0.065800 0.307367
O O2 0.668079 0.178157 0.397087
O O3 0.763166 0.094861 0.456352
O O4 0.780387 0.113608 0.934729
O O5 0.500000 0.897578 0.750000
O O6 0.500000 0.897276 0.250000
O O7 0.500000 0.000000 0.000000
O O8 0.250000 0.250000 0.500000
O O9 0.162250 0.197585 0.968803
O O10 0.082171 0.255730 0.699621
O O11 0.584084 0.404728 0.559892
O O12 0.475918 0.325097 0.532260
#
# Coordination Sequence:
#
# PCOD8131628 Si02
#       6
#     8   8   8   4   8   4
#     4  11  21  34  55  78 109 145 194 232 290 343
#     4  10  22  41  60  81 113 144 185 246 298 343
#     4   9  19  33  48  71 112 147 193 239 274 325
#     4  10  18  34  50  70 110 149 189 228 270 320
#     4  10  20  34  51  78 110 152 187 233 278 334
#     4  10  20  30  46  70  98 155 199 224 284 318
#
# _framework density 22.308420000000002
#
# number of rings (size 3 to 8) (size 9 to 14) (size 15 to 20)
#    0.000    2.000    0.000    5.400    1.400    4.800 
#    7.200    0.000    0.000    0.000    0.000    0.000 
#    0.000   64.000    0.000    0.000    0.000    0.000 
#
# Total GULP energy -247762.103799 kJ/mol
# GULP energy per Si atom -12388.105190 kJ/mol
# Density = 2.225765 g / cm^3
# Si number density = 22.308420 Si / 1000 Ang^3
#
#
#
# Elastic Constant Matrix: (Units=GPa)
#
#
# Indices 1 2 3 4 5 6 
#
# 1 189.6374 12.9104 59.0431 0.0000 -13.9575 0.0000
# 2 12.9104 29.3652 1.5864 0.0000 -9.6971 0.0000
# 3 59.0431 1.5864 150.3192 0.0000 5.2483 0.0000
# 4 0.0000 0.0000 0.0000 8.2514 0.0000 -7.8974
# 5 -13.9575 -9.6971 5.2483 0.0000 53.3248 0.0000
# 6 0.0000 0.0000 0.0000 -7.8974 0.0000 28.4992
#
#
#
# Elastic Compliance Matrix: (Units=1/GPa)
#
#
# Indices 1 2 3 4 5 6 
#
# 1 0.006311 -0.002141 -0.002509 0.000000 0.001510 0.000000
# 2 -0.002141 0.037012 0.000236 0.000000 0.006147 0.000000
# 3 -0.002509 0.000236 0.007683 0.000000 -0.001370 0.000000
# 4 0.000000 0.000000 0.000000 0.164937 0.000000 0.045706
# 5 0.001510 0.006147 -0.001370 0.000000 0.020401 0.000000
# 6 0.000000 0.000000 0.000000 0.045706 0.000000 0.047754
#
#
# Mechanical properties :
#
#
# Convention : Reuss Voigt Hill
#
# Bulk Modulus (GPa) = 23.70870 57.37795 40.54332
# Shear Modulus (GPa) = 16.28732 37.73389 27.01060
#
# Velocity S-wave (km/s) = 2.70496 4.11720 3.48340
# Velocity P-wave (km/s) = 4.51736 6.95543 5.86449
#
# Compressibility (1/GPa) = 0.04217861
#
# Stress axis : x y z
#
# Youngs Moduli (GPa) = 158.44685 27.01804 130.15089
#
# Poissons Ratio (x) = 0.05784 0.32656
# Poissons Ratio (y) = 0.33919 -0.03066
# Poissons Ratio (z) = 0.39756 -0.00637
#
# Static dielectric constant tensor:
#      x y z
#    x 0.956330 0.000000 -7.452090 
#    y 0.000000 3.811110 0.000000 
#    z -7.452090 0.000000 -11.188600 
# 
# 
# High freq. dielectric constant tensor:
#      x y z
#    x 1.905360 0.000000 -0.008440 
#    y 0.000000 1.802810 0.000000 
#    z -0.008440 0.000000 1.893390 
# 
# From -- ./inp_files/7528.got.cif
#   From: 2010.06.25/outbox.cif.g09.slc.cpg/sg15_4_cif.got.tgz:7528.got - 2010.06.28 07:06:18.
