data_PCOD8131217
_publ_section_title
;
Structure prediction by ZEFSAII (Michael W. Deem and Ramdas Pophale) SiO2 
 PCOD8131217
Probable space group: C 2/C
;
_chemical_formula_sum "Si O2"
_cell_formula_units_Z 64
_cell_length_a 22.933760
_cell_length_b 13.709892
_cell_length_c 12.785540
_cell_angle_alpha 90.000000
_cell_angle_beta 73.991145
_cell_angle_gamma 90.000000
_cell_volume 3864.121356
_symmetry_space_group_name_H-M "C 2/C"
_symmetry_group_IT_number 15
_symmetry_cell_setting 'monoclinic'
loop_
_space_group_symop_operation_xyz
x,y,z
-x,y,1/2-z
-x,-y,-z
x,-y,1/2+z
1/2+x,1/2+y,z
1/2-x,1/2+y,1/2-z
1/2-x,1/2-y,-z
1/2+x,1/2-y,1/2+z
loop_
_atom_site_type_symbol
_atom_site_label
_atom_site_fract_x
_atom_site_fract_y
_atom_site_fract_z
Si Si1 0.068939 0.503822 0.215450
Si Si2 0.568954 0.773390 0.220087
Si Si3 0.745244 0.147628 0.635917
Si Si4 0.336706 0.747384 0.154852
Si Si5 0.343676 0.223714 0.991485
Si Si6 0.250614 0.579883 0.151598
Si Si7 0.162935 0.401997 0.512787
Si Si8 0.850566 0.435089 0.640138
O O1 0.073701 0.388628 0.194553
O O2 0.095211 0.523987 0.316856
O O3 0.000000 0.540235 0.250000
O O4 0.105077 0.563203 0.109169
O O5 0.500000 0.736191 0.250000
O O6 0.599662 0.742181 0.314089
O O7 0.606300 0.723414 0.106352
O O8 0.713856 0.194714 0.753039
O O9 0.701286 0.158582 0.558036
O O10 0.809030 0.196420 0.576777
O O11 0.760480 0.035701 0.650720
O O12 0.312889 0.638224 0.141686
O O13 0.350120 0.799186 0.037464
O O14 0.377104 0.150549 0.054563
O O15 0.203590 0.610126 0.264961
O O16 0.222597 0.610535 0.054002
O O17 0.177155 0.478663 0.415083
#
# Coordination Sequence:
#
# PCOD8131217 Si02
#       8
#     8   8   8   8   8   8   8   8
#     4  10  21  32  48  74 104 137 172 200 244 312
#     4  10  20  33  51  77  99 131 180 212 242 295
#     4  10  19  31  52  78 100 130 172 202 249 311
#     4  11  20  33  51  75 107 137 161 208 262 300
#     4  10  18  32  52  75 102 134 164 209 252 292
#     4  11  21  32  49  76 106 134 167 204 254 311
#     4  11  19  32  48  74 107 138 159 201 252 309
#     4  11  17  31  51  71 106 136 160 202 253 297
#
# _framework density 16.562626000000002
#
# number of rings (size 3 to 8) (size 9 to 14) (size 15 to 20)
#    0.000    1.500    6.250    1.875    0.000    1.500 
#    0.000    0.000    0.000    0.750    0.000    1.750 
#    0.000    0.000    0.000    0.000    0.000    0.000 
#
# Total GULP energy -396753.643884 kJ/mol
# GULP energy per Si atom -12398.551371 kJ/mol
# Density = 1.652493 g / cm^3
# Si number density = 16.562626 Si / 1000 Ang^3
#
#
#
# Elastic Constant Matrix: (Units=GPa)
#
#
# Indices 1 2 3 4 5 6 
#
# 1 104.0069 36.5122 39.8564 0.0000 -2.6079 0.0000
# 2 36.5122 64.7082 23.8804 0.0000 3.2279 0.0000
# 3 39.8564 23.8804 75.2385 0.0000 12.3098 0.0000
# 4 0.0000 0.0000 0.0000 23.0798 0.0000 1.1761
# 5 -2.6079 3.2279 12.3098 0.0000 20.2838 0.0000
# 6 0.0000 0.0000 0.0000 1.1761 0.0000 22.7386
#
#
#
# Elastic Compliance Matrix: (Units=1/GPa)
#
#
# Indices 1 2 3 4 5 6 
#
# 1 0.014568 -0.006001 -0.006967 0.000000 0.007056 0.000000
# 2 -0.006001 0.019984 -0.002795 0.000000 -0.002256 0.000000
# 3 -0.006967 -0.002795 0.019921 0.000000 -0.012540 0.000000
# 4 0.000000 0.000000 0.000000 0.043443 0.000000 -0.002247
# 5 0.007056 -0.002256 -0.012540 0.000000 0.058177 0.000000
# 6 0.000000 0.000000 0.000000 -0.002247 0.000000 0.044094
#
#
# Mechanical properties :
#
#
# Convention : Reuss Voigt Hill
#
# Bulk Modulus (GPa) = 43.57878 49.38351 46.48114
# Shear Modulus (GPa) = 20.88892 22.80075 21.84484
#
# Velocity S-wave (km/s) = 3.55520 3.71433 3.63564
# Velocity P-wave (km/s) = 6.57429 6.94809 6.76377
#
# Compressibility (1/GPa) = 0.02294695
#
# Stress axis : x y z
#
# Youngs Moduli (GPa) = 68.64266 50.03978 50.19947
#
# Poissons Ratio (x) = 0.30029 0.34974
# Poissons Ratio (y) = 0.41193 0.14030
# Poissons Ratio (z) = 0.47823 0.13985
#
# Static dielectric constant tensor:
#      x y z
#    x 3.045890 0.000000 0.069000 
#    y 0.000000 2.912290 0.000000 
#    z 0.069000 0.000000 3.354740 
# 
# 
# High freq. dielectric constant tensor:
#      x y z
#    x 1.616530 0.000000 0.009940 
#    y 0.000000 1.611660 0.000000 
#    z 0.009940 0.000000 1.653840 
# 
# From -- ./inp_files/118543.got.cif
#   From: 2010.06.25/outbox.cif.g09.slc.cpg/sg15_60_cif.got.tgz:118543.got - 2010.06.28 07:06:18.
