data_PCOD8131129
_publ_section_title
;
Structure prediction by ZEFSAII (Michael W. Deem and Ramdas Pophale) SiO2 
 PCOD8131129
Probable space group: C 2/C
;
_chemical_formula_sum "Si O2"
_cell_formula_units_Z 56
_cell_length_a 15.883013
_cell_length_b 21.175238
_cell_length_c 14.562427
_cell_angle_alpha 90.000000
_cell_angle_beta 40.786223
_cell_angle_gamma 90.000000
_cell_volume 3199.386939
_symmetry_space_group_name_H-M "C 2/C"
_symmetry_group_IT_number 15
_symmetry_cell_setting 'monoclinic'
loop_
_space_group_symop_operation_xyz
x,y,z
-x,y,1/2-z
-x,-y,-z
x,-y,1/2+z
1/2+x,1/2+y,z
1/2-x,1/2+y,1/2-z
1/2-x,1/2-y,-z
1/2+x,1/2-y,1/2+z
loop_
_atom_site_type_symbol
_atom_site_label
_atom_site_fract_x
_atom_site_fract_y
_atom_site_fract_z
Si Si1 0.297091 0.477178 0.874794
Si Si2 0.500000 0.378199 0.750000
Si Si3 0.500000 0.421590 0.250000
Si Si4 0.792900 0.987856 0.177431
Si Si5 0.988010 0.205568 0.097478
Si Si6 0.259762 0.222503 0.890784
Si Si7 0.468603 0.598747 0.976345
Si Si8 0.643901 0.916020 0.157400
O O1 0.394393 0.418897 0.783966
O O2 0.371964 0.536103 0.855402
O O3 0.241504 0.494263 0.820824
O O4 0.186163 0.454835 0.033114
O O5 0.445441 0.335283 0.876045
O O6 0.508676 0.381034 0.149143
O O7 0.669870 0.962162 0.222609
O O8 0.903141 0.934035 0.089249
O O9 0.850754 0.049648 0.080197
O O10 0.874083 0.248581 0.232772
O O11 0.933562 0.162451 0.060166
O O12 0.121580 0.239949 0.954901
O O13 0.282867 0.148074 0.880195
O O14 0.250000 0.250000 0.000000
O O15 0.500000 0.898605 0.250000
#
# Coordination Sequence:
#
# PCOD8131129 Si02
#       8
#     8   4   4   8   8   8   8   8
#     4  10  18  31  55  83 111 141 180 227 284 333
#     4  11  16  30  56  82 108 144 176 235 270 326
#     4   9  18  30  60  86 104 128 184 243 282 324
#     4  10  19  33  55  85 109 143 188 231 288 337
#     4  12  21  35  58  82 119 150 190 236 280 338
#     4  12  23  37  53  82 116 160 193 226 278 336
#     4  10  18  34  58  86 107 137 189 247 282 327
#     4  12  23  36  51  79 125 155 182 226 278 348
#
# _framework density 17.503352
#
# number of rings (size 3 to 8) (size 9 to 14) (size 15 to 20)
#    0.000    1.143    7.143    0.857    0.000    0.571 
#    0.000    0.000    0.000    0.857    0.000    0.000 
#    0.000    0.000    0.000    0.000    0.000    0.000 
#
# Total GULP energy -346892.837272 kJ/mol
# GULP energy per Si atom -12389.029903 kJ/mol
# Density = 1.746351 g / cm^3
# Si number density = 17.503352 Si / 1000 Ang^3
#
#
#
# Elastic Constant Matrix: (Units=GPa)
#
#
# Indices 1 2 3 4 5 6 
#
# 1 79.8887 34.9727 40.3626 -0.0003 9.1399 0.0004
# 2 34.9727 55.7225 31.3414 0.0004 13.0519 -0.0002
# 3 40.3626 31.3414 93.0897 -0.0008 7.2958 0.0007
# 4 -0.0003 0.0004 -0.0008 15.7054 0.0004 10.3207
# 5 9.1399 13.0519 7.2958 0.0004 33.2108 -0.0004
# 6 0.0004 -0.0002 0.0007 10.3207 -0.0004 20.1725
#
#
#
# Elastic Compliance Matrix: (Units=1/GPa)
#
#
# Indices 1 2 3 4 5 6 
#
# 1 0.019144 -0.008920 -0.005250 0.000001 -0.000610 -0.000001
# 2 -0.008920 0.028119 -0.005012 -0.000002 -0.007495 0.000001
# 3 -0.005250 -0.005012 0.014691 0.000002 0.000187 -0.000001
# 4 0.000001 -0.000002 0.000002 0.095922 -0.000002 -0.049076
# 5 -0.000610 -0.007495 0.000187 -0.000002 0.033183 0.000002
# 6 -0.000001 0.000001 -0.000001 -0.049076 0.000002 0.074681
#
#
# Mechanical properties :
#
#
# Convention : Reuss Voigt Hill
#
# Bulk Modulus (GPa) = 42.38873 49.11714 45.75293
# Shear Modulus (GPa) = 16.02730 21.95270 18.99000
#
# Velocity S-wave (km/s) = 3.02929 3.54531 3.29741
# Velocity P-wave (km/s) = 6.04198 6.69936 6.37914
#
# Compressibility (1/GPa) = 0.02359118
#
# Stress axis : x y z
#
# Youngs Moduli (GPa) = 52.23451 35.56320 68.06685
#
# Poissons Ratio (x) = 0.31722 0.35734
# Poissons Ratio (y) = 0.46592 0.34116
# Poissons Ratio (z) = 0.27423 0.17825
#
# Static dielectric constant tensor:
#      x y z
#    x 3.303840 0.000000 0.166920 
#    y 0.000000 3.141400 0.000000 
#    z 0.166920 0.000000 3.299130 
# 
# 
# High freq. dielectric constant tensor:
#      x y z
#    x 1.661150 0.000000 0.009090 
#    y 0.000000 1.653480 0.000000 
#    z 0.009090 0.000000 1.675410 
# 
# From -- ./inp_files/98432.got.cif
#   From: 2010.06.25/outbox.cif.g09.slc.cpg/sg15_50_cif.got.tgz:98432.got - 2010.06.28 07:06:18.
