data_PCOD8131713
_publ_section_title
;
Structure prediction by ZEFSAII (Michael W. Deem and Ramdas Pophale) SiO2 
 PCOD8131713
Probable space group: C 2/C
;
_chemical_formula_sum "Si O2"
_cell_formula_units_Z 56
_cell_length_a 23.230923
_cell_length_b 8.926096
_cell_length_c 18.465509
_cell_angle_alpha 90.000000
_cell_angle_beta 141.102754
_cell_angle_gamma 90.000000
_cell_volume 2404.349102
_symmetry_space_group_name_H-M "C 2/C"
_symmetry_group_IT_number 15
_symmetry_cell_setting 'monoclinic'
loop_
_space_group_symop_operation_xyz
x,y,z
-x,y,1/2-z
-x,-y,-z
x,-y,1/2+z
1/2+x,1/2+y,z
1/2-x,1/2+y,1/2-z
1/2-x,1/2-y,-z
1/2+x,1/2-y,1/2+z
loop_
_atom_site_type_symbol
_atom_site_label
_atom_site_fract_x
_atom_site_fract_y
_atom_site_fract_z
Si Si1 0.730613 0.569030 0.058618
Si Si2 0.310525 0.987711 0.371234
Si Si3 0.667891 0.635395 0.844217
Si Si4 0.551910 0.571245 0.157158
Si Si5 0.164621 0.160043 0.141725
Si Si6 0.065062 0.679137 0.912043
Si Si7 0.131081 0.679997 0.821876
O O1 0.815456 0.686739 0.136588
O O2 0.660235 0.605659 0.054516
O O3 0.780590 0.410481 0.118833
O O4 0.669073 0.570260 0.926436
O O5 0.250238 0.933940 0.378882
O O6 0.342861 0.840178 0.358543
O O7 0.259787 0.100772 0.267570
O O8 0.397094 0.077663 0.486635
O O9 0.569952 0.595443 0.708102
O O10 0.577037 0.585000 0.096403
O O11 0.453949 0.648199 0.078307
O O12 0.633353 0.662077 0.281359
O O13 0.135136 0.695878 0.913422
O O14 0.967802 0.604652 0.794090
#
# Coordination Sequence:
#
# PCOD8131713 Si02
#       7
#     8   8   8   8   8   8   8
#     4  10  18  34  56  86 115 153 195 247 295 346
#     4  10  19  38  57  82 117 153 193 250 290 357
#     4   9  19  33  59  81 116 151 199 246 293 341
#     4   9  19  36  55  86 118 152 195 247 287 354
#     4  10  21  34  56  88 118 150 197 244 299 351
#     4   9  19  36  61  80 116 152 203 241 294 346
#     4   9  18  35  59  87 108 151 204 247 284 354
#
# _framework density 23.291126999999999
#
# number of rings (size 3 to 8) (size 9 to 14) (size 15 to 20)
#    0.857    1.714    1.429    0.857    0.000    1.143 
#    2.571    0.000    9.429    2.571    0.000    0.000 
#    0.000    0.000    0.000    0.000    0.000    0.000 
#
# Total GULP energy -346977.000169 kJ/mol
# GULP energy per Si atom -12392.035720 kJ/mol
# Density = 2.323812 g / cm^3
# Si number density = 23.291127 Si / 1000 Ang^3
#
#
#
# Elastic Constant Matrix: (Units=GPa)
#
#
# Indices 1 2 3 4 5 6 
#
# 1 49.7564 -0.7321 12.7668 0.0000 -19.3625 0.0000
# 2 -0.7321 51.2935 2.0943 0.0000 2.1959 0.0000
# 3 12.7668 2.0943 43.3700 0.0000 -15.2276 0.0000
# 4 0.0000 0.0000 0.0000 40.7043 0.0000 0.8884
# 5 -19.3625 2.1959 -15.2276 0.0000 30.8746 0.0000
# 6 0.0000 0.0000 0.0000 0.8884 0.0000 27.1476
#
#
#
# Elastic Compliance Matrix: (Units=1/GPa)
#
#
# Indices 1 2 3 4 5 6 
#
# 1 0.026794 -0.000190 -0.002387 0.000000 0.015639 0.000000
# 2 -0.000190 0.019665 -0.001725 0.000000 -0.002369 0.000000
# 3 -0.002387 -0.001725 0.028254 0.000000 0.012561 0.000000
# 4 0.000000 0.000000 0.000000 0.024585 0.000000 -0.000805
# 5 0.015639 -0.002369 0.012561 0.000000 0.048560 0.000000
# 6 0.000000 0.000000 0.000000 -0.000805 0.000000 0.036862
#
#
# Mechanical properties :
#
#
# Convention : Reuss Voigt Hill
#
# Bulk Modulus (GPa) = 15.12677 19.18642 17.15659
# Shear Modulus (GPa) = 23.21704 28.43139 25.82422
#
# Velocity S-wave (km/s) = 3.16067 3.49764 3.33341
# Velocity P-wave (km/s) = 4.45292 4.95649 4.71144
#
# Compressibility (1/GPa) = 0.06610796
#
# Stress axis : x y z
#
# Youngs Moduli (GPa) = 37.32246 50.85235 35.39382
#
# Poissons Ratio (x) = 0.00964 0.08448
# Poissons Ratio (y) = 0.00708 0.06107
# Poissons Ratio (z) = 0.08909 0.08774
#
# Static dielectric constant tensor:
#      x y z
#    x 3.890310 0.000000 -0.305090 
#    y 0.000000 4.206790 0.000000 
#    z -0.305090 0.000000 3.951680 
# 
# 
# High freq. dielectric constant tensor:
#      x y z
#    x 1.906820 0.000000 -0.023650 
#    y 0.000000 1.912240 0.000000 
#    z -0.023650 0.000000 1.911610 
# 
# From -- ./inp_files/221723.got.cif
#   From: 2010.06.25/outbox.cif.g09.slc.cpg/sg15_111_cif.got.tgz:221723.got - 2010.06.28 07:06:18.
