data_PCOD8131862
_publ_section_title
;
Structure prediction by ZEFSAII (Michael W. Deem and Ramdas Pophale) SiO2 
 PCOD8131862
Probable space group: C 2/C
;
_chemical_formula_sum "Si O2"
_cell_formula_units_Z 60
_cell_length_a 11.856328
_cell_length_b 26.804947
_cell_length_c 9.686346
_cell_angle_alpha 90.000000
_cell_angle_beta 78.155248
_cell_angle_gamma 90.000000
_cell_volume 3012.853348
_symmetry_space_group_name_H-M "C 2/C"
_symmetry_group_IT_number 15
_symmetry_cell_setting 'monoclinic'
loop_
_space_group_symop_operation_xyz
x,y,z
-x,y,1/2-z
-x,-y,-z
x,-y,1/2+z
1/2+x,1/2+y,z
1/2-x,1/2+y,1/2-z
1/2-x,1/2-y,-z
1/2+x,1/2-y,1/2+z
loop_
_atom_site_type_symbol
_atom_site_label
_atom_site_fract_x
_atom_site_fract_y
_atom_site_fract_z
Si Si1 0.369078 0.597491 0.756888
Si Si2 0.741935 0.893631 0.865446
Si Si3 0.186239 0.182647 0.940726
Si Si4 0.733817 0.027613 0.591600
Si Si5 0.931601 0.727079 0.901766
Si Si6 0.500000 0.932893 0.250000
Si Si7 0.759674 0.589216 0.437044
Si Si8 0.515584 0.869953 0.506235
O O1 0.500000 0.582578 0.750000
O O2 0.357905 0.648046 0.671614
O O3 0.309755 0.550104 0.697373
O O4 0.314884 0.610371 0.918962
O O5 0.791735 0.895590 0.698458
O O6 0.604504 0.887629 0.900386
O O7 0.807353 0.847868 0.918773
O O8 0.768503 0.944280 0.942183
O O9 0.314515 0.201813 0.874114
O O10 0.096827 0.227431 0.987917
O O11 0.600218 0.032928 0.664846
O O12 0.748818 0.970172 0.556061
O O13 0.000000 0.745849 0.750000
O O14 0.008493 0.688862 0.973050
O O15 0.550362 0.897613 0.355941
O O16 0.885967 0.614567 0.410695
#
# Coordination Sequence:
#
# PCOD8131862 Si02
#       8
#     8   8   8   8   8   4   8   8
#     4  11  24  43  61  81 122 172 220 261 298 356
#     4   9  21  35  55  87 130 157 195 250 306 369
#     4   9  21  41  59  88 119 159 211 260 306 375
#     4  10  22  38  60  92 123 170 206 243 310 383
#     4  10  18  35  67  91 116 156 209 253 320 384
#     4  10  18  34  62  90 132 158 194 240 312 384
#     4  12  22  36  60  92 126 158 206 254 318 365
#     4  10  19  33  58  93 127 157 186 250 316 375
#
# _framework density 19.914676
#
# number of rings (size 3 to 8) (size 9 to 14) (size 15 to 20)
#    0.000    1.867    2.000    2.800    1.867    2.667 
#    0.000    6.000    0.000    9.600    0.000    0.000 
#    0.000    0.000    0.000    0.000    0.000    0.000 
#
# Total GULP energy -371966.798332 kJ/mol
# GULP energy per Si atom -12398.893278 kJ/mol
# Density = 1.986935 g / cm^3
# Si number density = 19.914676 Si / 1000 Ang^3
#
#
#
# Elastic Constant Matrix: (Units=GPa)
#
#
# Indices 1 2 3 4 5 6 
#
# 1 66.7500 31.0728 34.2629 0.0000 5.5541 0.0000
# 2 31.0728 105.3515 38.8761 0.0000 -3.2382 0.0000
# 3 34.2629 38.8761 140.2067 0.0000 2.8723 0.0000
# 4 0.0000 0.0000 0.0000 19.1399 0.0000 4.8492
# 5 5.5541 -3.2382 2.8723 0.0000 18.1760 0.0000
# 6 0.0000 0.0000 0.0000 4.8492 0.0000 13.5970
#
#
#
# Elastic Compliance Matrix: (Units=1/GPa)
#
#
# Indices 1 2 3 4 5 6 
#
# 1 0.019380 -0.004687 -0.003309 0.000000 -0.006234 0.000000
# 2 -0.004687 0.011809 -0.002209 0.000000 0.003885 0.000000
# 3 -0.003309 -0.002209 0.008568 0.000000 -0.000736 0.000000
# 4 0.000000 0.000000 0.000000 0.057437 0.000000 -0.020484
# 5 -0.006234 0.003885 -0.000736 0.000000 0.057731 0.000000
# 6 0.000000 0.000000 0.000000 -0.020484 0.000000 0.080851
#
#
# Mechanical properties :
#
#
# Convention : Reuss Voigt Hill
#
# Bulk Modulus (GPa) = 51.68181 57.85908 54.77045
# Shear Modulus (GPa) = 19.03793 24.05568 21.54680
#
# Velocity S-wave (km/s) = 3.09524 3.47931 3.29288
# Velocity P-wave (km/s) = 6.22752 6.72736 6.48226
#
# Compressibility (1/GPa) = 0.01934917
#
# Stress axis : x y z
#
# Youngs Moduli (GPa) = 51.59937 84.68299 116.70817
#
# Poissons Ratio (x) = 0.39688 0.38616
# Poissons Ratio (y) = 0.24183 0.25776
# Poissons Ratio (z) = 0.17073 0.18703
#
# Static dielectric constant tensor:
#      x y z
#    x 3.451610 0.000000 0.028950 
#    y 0.000000 3.570980 0.000000 
#    z 0.028950 0.000000 3.688780 
# 
# 
# High freq. dielectric constant tensor:
#      x y z
#    x 1.757230 0.000000 -0.004720 
#    y 0.000000 1.772510 0.000000 
#    z -0.004720 0.000000 1.783460 
# 
# From -- ./inp_files/34264.got.cif
#   From: 2010.06.25/outbox.cif.g09.slc.cpg/sg15_18_cif.got.tgz:34264.got - 2010.06.28 07:06:18.
