data_PCOD8131940
_publ_section_title
;
Structure prediction by ZEFSAII (Michael W. Deem and Ramdas Pophale) SiO2 
 PCOD8131940
Probable space group: C 2/C
;
_chemical_formula_sum "Si O2"
_cell_formula_units_Z 44
_cell_length_a 11.117789
_cell_length_b 13.717053
_cell_length_c 27.339285
_cell_angle_alpha 90.000000
_cell_angle_beta 33.530333
_cell_angle_gamma 90.000000
_cell_volume 2303.048402
_symmetry_space_group_name_H-M "C 2/C"
_symmetry_group_IT_number 15
_symmetry_cell_setting 'monoclinic'
loop_
_space_group_symop_operation_xyz
x,y,z
-x,y,1/2-z
-x,-y,-z
x,-y,1/2+z
1/2+x,1/2+y,z
1/2-x,1/2+y,1/2-z
1/2-x,1/2-y,-z
1/2+x,1/2-y,1/2+z
loop_
_atom_site_type_symbol
_atom_site_label
_atom_site_fract_x
_atom_site_fract_y
_atom_site_fract_z
Si Si1 0.249206 0.910102 0.821599
Si Si2 0.878790 0.266996 0.708702
Si Si3 0.450608 0.384132 0.111423
Si Si4 0.822794 0.584137 0.562263
Si Si5 0.128665 0.197570 0.453777
Si Si6 0.000000 0.875626 0.250000
O O1 0.500000 0.891344 0.750000
O O2 0.218323 0.856167 0.778757
O O3 0.092505 0.860935 0.915318
O O4 0.204504 0.023274 0.832301
O O5 0.868300 0.193014 0.757796
O O6 0.815267 0.205558 0.681944
O O7 0.119894 0.307131 0.615791
O O8 0.676461 0.409041 0.062795
O O9 0.489072 0.356694 0.042269
O O10 0.941155 0.689058 0.529155
O O11 0.669956 0.559769 0.661067
O O12 0.000000 0.500000 0.500000
#
# Coordination Sequence:
#
# PCOD8131940 Si02
#       6
#     8   8   8   8   8   4
#     4  10  18  35  56  75 105 144 171 213 268 312
#     4   9  15  33  54  73  99 139 179 206 254 317
#     4  10  20  33  53  84 101 131 187 218 254 320
#     4  10  19  35  55  79 107 140 179 216 271 310
#     4   9  17  35  54  74 105 140 178 212 257 325
#     4   8  14  34  54  70 100 142 176 208 248 326
#
# _framework density 19.105112999999999
#
# number of rings (size 3 to 8) (size 9 to 14) (size 15 to 20)
#    0.000    2.909    4.545    2.727    0.000    0.000 
#   19.636    2.727    0.000    0.000    0.000    0.000 
#    0.000    0.000    0.000    0.000    0.000    0.000 
#
# Total GULP energy -272544.087268 kJ/mol
# GULP energy per Si atom -12388.367603 kJ/mol
# Density = 1.906163 g / cm^3
# Si number density = 19.105113 Si / 1000 Ang^3
#
#
#
# Elastic Constant Matrix: (Units=GPa)
#
#
# Indices 1 2 3 4 5 6 
#
# 1 18.9158 14.6802 22.0769 0.0034 9.9546 -0.0012
# 2 14.6802 131.5119 79.2712 -0.0047 13.8363 -0.0004
# 3 22.0769 79.2712 131.6778 -0.0046 30.6425 -0.0025
# 4 0.0034 -0.0047 -0.0046 47.4885 -0.0034 -2.0017
# 5 9.9546 13.8363 30.6425 -0.0034 21.2650 -0.0001
# 6 -0.0012 -0.0004 -0.0025 -2.0017 -0.0001 24.4073
#
#
#
# Elastic Compliance Matrix: (Units=1/GPa)
#
#
# Indices 1 2 3 4 5 6 
#
# 1 0.074260 -0.002672 -0.004749 -0.000008 -0.026180 0.000002
# 2 -0.002672 0.012249 -0.008068 0.000001 0.004907 -0.000001
# 3 -0.004749 -0.008068 0.017314 0.000000 -0.017477 0.000001
# 4 -0.000008 0.000001 0.000000 0.021131 0.000006 0.001733
# 5 -0.026180 0.004907 -0.017477 0.000006 0.081273 -0.000002
# 6 0.000002 -0.000001 0.000001 0.001733 -0.000002 0.041113
#
#
# Mechanical properties :
#
#
# Convention : Reuss Voigt Hill
#
# Bulk Modulus (GPa) = 13.72777 57.12912 35.42845
# Shear Modulus (GPa) = 16.52340 29.70397 23.11369
#
# Velocity S-wave (km/s) = 2.94405 3.94733 3.48202
# Velocity P-wave (km/s) = 4.33100 7.12339 5.89492
#
# Compressibility (1/GPa) = 0.07284505
#
# Stress axis : x y z
#
# Youngs Moduli (GPa) = 13.46618 81.63980 57.75512
#
# Poissons Ratio (x) = 0.21817 0.27429
# Poissons Ratio (y) = 0.03599 0.46595
# Poissons Ratio (z) = 0.06395 0.65865
#
# Static dielectric constant tensor:
#      x y z
#    x 3.048330 0.000000 0.432460 
#    y 0.000000 3.612600 0.000000 
#    z 0.432460 0.000000 3.641280 
# 
# 
# High freq. dielectric constant tensor:
#      x y z
#    x 1.683190 0.000000 0.039560 
#    y 0.000000 1.747930 0.000000 
#    z 0.039560 0.000000 1.747120 
# 
# From -- ./inp_files/151338.got.cif
#   From: 2010.06.25/outbox.cif.g09.slc.cpg/sg15_76_cif.got.tgz:151338.got - 2010.06.28 07:06:18.
