data_PCOD8131610
_publ_section_title
;
Structure prediction by ZEFSAII (Michael W. Deem and Ramdas Pophale) SiO2 
 PCOD8131610
Probable space group: C 2/C
;
_chemical_formula_sum "Si O2"
_cell_formula_units_Z 60
_cell_length_a 14.048246
_cell_length_b 16.582600
_cell_length_c 15.118819
_cell_angle_alpha 90.000000
_cell_angle_beta 114.772545
_cell_angle_gamma 90.000000
_cell_volume 3197.923702
_symmetry_space_group_name_H-M "C 2/C"
_symmetry_group_IT_number 15
_symmetry_cell_setting 'monoclinic'
loop_
_space_group_symop_operation_xyz
x,y,z
-x,y,1/2-z
-x,-y,-z
x,-y,1/2+z
1/2+x,1/2+y,z
1/2-x,1/2+y,1/2-z
1/2-x,1/2-y,-z
1/2+x,1/2-y,1/2+z
loop_
_atom_site_type_symbol
_atom_site_label
_atom_site_fract_x
_atom_site_fract_y
_atom_site_fract_z
Si Si1 0.241683 0.997716 0.437100
Si Si2 0.617688 0.708062 0.641510
Si Si3 0.406354 0.867708 0.955524
Si Si4 0.894987 0.950084 0.456370
Si Si5 0.500000 0.790900 0.750000
Si Si6 0.483550 0.912507 0.334915
Si Si7 0.414297 0.920699 0.607054
Si Si8 0.740971 0.571424 0.755647
O O1 0.319395 0.065336 0.431918
O O2 0.157113 0.039900 0.467582
O O3 0.303883 0.926284 0.512593
O O4 0.190277 0.958161 0.329091
O O5 0.650741 0.785474 0.596715
O O6 0.571698 0.642276 0.553668
O O7 0.533559 0.733307 0.682891
O O8 0.716226 0.666910 0.730598
O O9 0.490149 0.895452 0.917358
O O10 0.470949 0.855474 0.071159
O O11 0.812962 0.978707 0.346833
O O12 0.000000 0.000000 0.500000
O O13 0.406818 0.852412 0.681184
O O14 0.500000 0.863032 0.250000
O O15 0.365271 0.940035 0.308326
O O16 0.558415 0.990229 0.347949
#
# Coordination Sequence:
#
# PCOD8131610 Si02
#       8
#     8   8   8   8   4   8   8   8
#     4  11  20  37  67  93 115 163 200 261 299 362
#     4   9  24  39  57  85 122 164 197 246 305 359
#     4  10  19  37  60  91 129 143 187 256 323 361
#     4  10  25  41  60  82 118 169 216 245 284 357
#     4  10  20  36  62  84 126 162 176 256 312 358
#     4  11  18  33  61  93 122 151 188 253 304 369
#     4  10  18  33  62  98 121 137 196 246 328 361
#     4  10  21  39  62  87 120 160 210 242 303 363
#
# _framework density 18.762173000000001
#
# number of rings (size 3 to 8) (size 9 to 14) (size 15 to 20)
#    0.800    1.067    3.333    2.400    1.867    1.067 
#    0.000    3.333    0.000    0.000    0.000    0.000 
#    0.000    0.000    0.000    0.000    0.000    0.000 
#
# Total GULP energy -371655.641927 kJ/mol
# GULP energy per Si atom -12388.521398 kJ/mol
# Density = 1.871947 g / cm^3
# Si number density = 18.762173 Si / 1000 Ang^3
#
#
#
# Elastic Constant Matrix: (Units=GPa)
#
#
# Indices 1 2 3 4 5 6 
#
# 1 55.5896 24.9262 26.8514 0.0000 -10.6527 0.0000
# 2 24.9262 83.6596 43.0092 0.0000 -5.4049 0.0000
# 3 26.8514 43.0092 125.0630 0.0000 -13.0691 0.0000
# 4 0.0000 0.0000 0.0000 38.7337 0.0000 -3.6802
# 5 -10.6527 -5.4049 -13.0691 0.0000 32.7560 0.0000
# 6 0.0000 0.0000 0.0000 -3.6802 0.0000 18.8570
#
#
#
# Elastic Compliance Matrix: (Units=1/GPa)
#
#
# Indices 1 2 3 4 5 6 
#
# 1 0.022528 -0.005061 -0.002523 0.000000 0.005485 0.000000
# 2 -0.005061 0.015663 -0.004385 0.000000 -0.000811 0.000000
# 3 -0.002523 -0.004385 0.010314 0.000000 0.002571 0.000000
# 4 0.000000 0.000000 0.000000 0.026305 0.000000 0.005134
# 5 0.005485 -0.000811 0.002571 0.000000 0.033204 0.000000
# 6 0.000000 0.000000 0.000000 0.005134 0.000000 0.054033
#
#
# Mechanical properties :
#
#
# Convention : Reuss Voigt Hill
#
# Bulk Modulus (GPa) = 40.70349 50.43175 45.56762
# Shear Modulus (GPa) = 25.75017 29.37105 27.56061
#
# Velocity S-wave (km/s) = 3.70868 3.96086 3.83684
# Velocity P-wave (km/s) = 6.33093 6.91778 6.63085
#
# Compressibility (1/GPa) = 0.02456792
#
# Stress axis : x y z
#
# Youngs Moduli (GPa) = 44.38923 63.84587 96.95279
#
# Poissons Ratio (x) = 0.32310 0.24465
# Poissons Ratio (y) = 0.22463 0.42510
# Poissons Ratio (z) = 0.11201 0.27994
#
# Static dielectric constant tensor:
#      x y z
#    x 3.841550 0.000000 -0.372570 
#    y 0.000000 3.455380 0.000000 
#    z -0.372570 0.000000 3.909890 
# 
# 
# High freq. dielectric constant tensor:
#      x y z
#    x 1.705160 0.000000 -0.018850 
#    y 0.000000 1.704590 0.000000 
#    z -0.018850 0.000000 1.746200 
# 
# From -- ./inp_files/154909.got.cif
#   From: 2010.06.25/outbox.cif.g09.slc.cpg/sg15_78_cif.got.tgz:154909.got - 2010.06.28 07:06:18.
