data_PCOD8131392
_publ_section_title
;
Structure prediction by ZEFSAII (Michael W. Deem and Ramdas Pophale) SiO2 
 PCOD8131392
Probable space group: C 2/C
;
_chemical_formula_sum "Si O2"
_cell_formula_units_Z 60
_cell_length_a 27.538933
_cell_length_b 9.686452
_cell_length_c 29.262343
_cell_angle_alpha 90.000000
_cell_angle_beta 153.327385
_cell_angle_gamma 90.000000
_cell_volume 3503.989183
_symmetry_space_group_name_H-M "C 2/C"
_symmetry_group_IT_number 15
_symmetry_cell_setting 'monoclinic'
loop_
_space_group_symop_operation_xyz
x,y,z
-x,y,1/2-z
-x,-y,-z
x,-y,1/2+z
1/2+x,1/2+y,z
1/2-x,1/2+y,1/2-z
1/2-x,1/2-y,-z
1/2+x,1/2-y,1/2+z
loop_
_atom_site_type_symbol
_atom_site_label
_atom_site_fract_x
_atom_site_fract_y
_atom_site_fract_z
Si Si1 0.201992 0.116661 0.867330
Si Si2 0.228258 0.894760 0.148901
Si Si3 0.860972 0.668038 0.260971
Si Si4 0.872091 0.103879 0.838950
Si Si5 0.336858 0.398501 0.736827
Si Si6 0.941948 0.003591 0.558500
Si Si7 0.500000 0.691515 0.750000
Si Si8 0.914654 0.722256 0.086375
O O1 0.189988 0.249746 0.824567
O O2 0.093613 0.097704 0.806233
O O3 0.218617 0.978073 0.852037
O O4 0.305291 0.137246 0.986461
O O5 0.147812 0.891314 0.124187
O O6 0.297228 0.756727 0.203882
O O7 0.312202 0.017674 0.224730
O O8 0.157459 0.912784 0.043586
O O9 0.834848 0.751294 0.285360
O O10 0.989637 0.652627 0.362437
O O11 0.806436 0.978477 0.758616
O O12 0.000332 0.082263 0.936041
O O13 0.468238 0.405513 0.841664
O O14 0.900912 0.116916 0.560344
O O15 0.556707 0.787740 0.835897
#
# Coordination Sequence:
#
# PCOD8131392 Si02
#       8
#     8   8   8   8   8   8   4   8
#     4  10  18  36  55  80 106 136 167 221 270 319
#     4  12  18  31  57  75 103 155 184 214 263 312
#     4   9  19  31  52  77 107 140 179 223 256 307
#     4   8  18  35  47  76 109 138 189 225 252 299
#     4   9  21  34  48  79 113 136 176 221 264 314
#     4   9  19  34  51  75 109 142 174 219 275 315
#     4  10  18  32  62  88  98 126 178 224 264 328
#     4  10  18  35  57  84 104 133 176 222 272 315
#
# _framework density 17.123341
#
# number of rings (size 3 to 8) (size 9 to 14) (size 15 to 20)
#    0.800    1.600    4.000    1.600    0.000    1.067 
#    0.000    0.000    0.000    8.800    0.000    0.000 
#    0.000    0.000    0.000    0.000    0.000    0.000 
#
# Total GULP energy -371764.074817 kJ/mol
# GULP energy per Si atom -12392.135827 kJ/mol
# Density = 1.708437 g / cm^3
# Si number density = 17.123341 Si / 1000 Ang^3
#
#
#
# Elastic Constant Matrix: (Units=GPa)
#
#
# Indices 1 2 3 4 5 6 
#
# 1 51.9933 17.0627 16.0320 0.0004 -8.7308 0.0001
# 2 17.0627 108.3800 38.0417 0.0006 0.5724 0.0002
# 3 16.0320 38.0417 107.6168 0.0008 -5.6627 0.0003
# 4 0.0004 0.0006 0.0008 13.6459 0.0004 -5.5371
# 5 -8.7308 0.5724 -5.6627 0.0004 21.0548 0.0001
# 6 0.0001 0.0002 0.0003 -5.5371 0.0001 7.9211
#
#
#
# Elastic Compliance Matrix: (Units=1/GPa)
#
#
# Indices 1 2 3 4 5 6 
#
# 1 0.022227 -0.002907 -0.001820 -0.000001 0.008806 -0.000001
# 2 -0.002907 0.010950 -0.003567 0.000000 -0.002462 0.000000
# 3 -0.001820 -0.003567 0.010945 -0.000001 0.002286 -0.000001
# 4 -0.000001 0.000000 -0.000001 0.102300 -0.000003 0.071511
# 5 0.008806 -0.002462 0.002286 -0.000003 0.051829 -0.000003
# 6 -0.000001 0.000000 -0.000001 0.071511 -0.000003 0.176234
#
#
# Mechanical properties :
#
#
# Convention : Reuss Voigt Hill
#
# Bulk Modulus (GPa) = 36.32029 45.58477 40.95253
# Shear Modulus (GPa) = 12.49220 21.64793 17.07007
#
# Velocity S-wave (km/s) = 2.70393 3.55947 3.16078
# Velocity P-wave (km/s) = 5.56825 6.60093 6.10646
#
# Compressibility (1/GPa) = 0.02753282
#
# Stress axis : x y z
#
# Youngs Moduli (GPa) = 44.98968 91.32835 91.36916
#
# Poissons Ratio (x) = 0.26548 0.16632
# Poissons Ratio (y) = 0.13078 0.32592
# Poissons Ratio (z) = 0.08190 0.32578
#
# Static dielectric constant tensor:
#      x y z
#    x 3.070520 0.000000 -0.052940 
#    y 0.000000 2.878070 0.000000 
#    z -0.052940 0.000000 3.202900 
# 
# 
# High freq. dielectric constant tensor:
#      x y z
#    x 1.647420 0.000000 -0.002530 
#    y 0.000000 1.630900 0.000000 
#    z -0.002530 0.000000 1.664590 
# 
# From -- ./inp_files/303104.got.cif
#   From: 2010.06.25/outbox.cif.g09.slc.cpg/sg15_152_cif.got.tgz:303104.got - 2010.06.28 07:06:18.
