data_PCOD8131639
_publ_section_title
;
Structure prediction by ZEFSAII (Michael W. Deem and Ramdas Pophale) SiO2 
 PCOD8131639
Probable space group: C 2/C
;
_chemical_formula_sum "Si O2"
_cell_formula_units_Z 48
_cell_length_a 21.244882
_cell_length_b 20.708467
_cell_length_c 14.774984
_cell_angle_alpha 90.000000
_cell_angle_beta 23.379999
_cell_angle_gamma 90.000000
_cell_volume 2579.473359
_symmetry_space_group_name_H-M "C 2/C"
_symmetry_group_IT_number 15
_symmetry_cell_setting 'monoclinic'
loop_
_space_group_symop_operation_xyz
x,y,z
-x,y,1/2-z
-x,-y,-z
x,-y,1/2+z
1/2+x,1/2+y,z
1/2-x,1/2+y,1/2-z
1/2-x,1/2-y,-z
1/2+x,1/2-y,1/2+z
loop_
_atom_site_type_symbol
_atom_site_label
_atom_site_fract_x
_atom_site_fract_y
_atom_site_fract_z
Si Si1 0.180964 0.507790 0.532493
Si Si2 0.683775 0.369989 0.187166
Si Si3 0.111430 0.056436 0.382284
Si Si4 0.162589 0.469354 0.753131
Si Si5 0.697356 0.825644 0.657916
Si Si6 0.404983 0.773901 0.964869
O O1 0.228508 0.438424 0.430259
O O2 0.270904 0.565632 0.359209
O O3 0.220141 0.508589 0.588011
O O4 0.000000 0.520238 0.750000
O O5 0.494964 0.380207 0.455491
O O6 0.766173 0.328114 0.158244
O O7 0.703789 0.330217 0.066554
O O8 0.201684 0.029115 0.351104
O O9 0.000000 0.000000 0.500000
O O10 0.130549 0.394714 0.773548
O O11 0.000000 0.500000 0.000000
O O12 0.820462 0.796280 0.569061
O O13 0.540910 0.778551 0.862556
O O14 0.500000 0.794333 0.750000
#
# Coordination Sequence:
#
# PCOD8131639 Si02
#       6
#     8   8   8   8   8   8
#     4  10  18  34  52  77 109 148 187 233 279 330
#     4   9  18  31  50  74 112 143 182 223 277 334
#     4  10  22  33  54  79 109 149 195 235 278 338
#     4  11  22  36  57  80 115 153 196 228 290 344
#     4  10  22  32  55  77 117 149 185 227 280 347
#     4  10  19  33  50  78 111 150 181 222 278 349
#
# _framework density 18.608450000000001
#
# number of rings (size 3 to 8) (size 9 to 14) (size 15 to 20)
#    0.000    2.000    1.667    4.500    7.000    5.333 
#    0.000    0.000    0.000    0.000    0.000    1.167 
#    0.000    0.000    0.000    0.000    0.000    0.000 
#
# Total GULP energy -297329.890941 kJ/mol
# GULP energy per Si atom -12388.745456 kJ/mol
# Density = 1.856610 g / cm^3
# Si number density = 18.608450 Si / 1000 Ang^3
#
#
#
# Elastic Constant Matrix: (Units=GPa)
#
#
# Indices 1 2 3 4 5 6 
#
# 1 100.9936 22.4606 51.1262 -0.0270 -12.1536 0.0096
# 2 22.4606 53.4626 46.1343 -0.0100 -3.6437 0.0054
# 3 51.1262 46.1343 130.7315 -0.0107 -9.0918 0.0185
# 4 -0.0270 -0.0100 -0.0107 37.5736 0.0176 -10.2793
# 5 -12.1536 -3.6437 -9.0918 0.0176 31.4117 -0.0090
# 6 0.0096 0.0054 0.0185 -10.2793 -0.0090 23.9710
#
#
#
# Elastic Compliance Matrix: (Units=1/GPa)
#
#
# Indices 1 2 3 4 5 6 
#
# 1 0.012804 -0.001480 -0.004238 0.000007 0.003556 0.000003
# 2 -0.001480 0.027070 -0.008976 0.000004 -0.000031 0.000003
# 3 -0.004238 -0.008976 0.012540 -0.000004 0.000949 -0.000007
# 4 0.000007 0.000004 -0.000004 0.030152 -0.000011 0.012930
# 5 0.003556 -0.000031 0.000949 -0.000011 0.033482 0.000006
# 6 0.000003 0.000003 -0.000007 0.012930 0.000006 0.047262
#
#
# Mechanical properties :
#
#
# Convention : Reuss Voigt Hill
#
# Bulk Modulus (GPa) = 43.42842 58.29221 50.86031
# Shear Modulus (GPa) = 24.95344 29.62239 27.28792
#
# Velocity S-wave (km/s) = 3.66590 3.99416 3.83355
# Velocity P-wave (km/s) = 6.42706 7.25705 6.85463
#
# Compressibility (1/GPa) = 0.02302640
#
# Stress axis : x y z
#
# Youngs Moduli (GPa) = 78.10081 36.94104 79.74346
#
# Poissons Ratio (x) = 0.05467 0.33794
# Poissons Ratio (y) = 0.11558 0.71580
# Poissons Ratio (z) = 0.33098 0.33159
#
# Static dielectric constant tensor:
#      x y z
#    x 3.352430 -0.000320 -0.265900 
#    y -0.000320 3.678180 0.000060 
#    z -0.265900 0.000060 4.084360 
# 
# 
# High freq. dielectric constant tensor:
#      x y z
#    x 1.702770 0.000000 -0.039590 
#    y 0.000000 1.702310 0.000000 
#    z -0.039590 0.000000 1.719940 
# 
# From -- ./inp_files/57683.got.cif
#   From: 2010.06.25/outbox.cif.g09.slc.cpg/sg15_29_cif.got.tgz:57683.got - 2010.06.28 07:06:18.
