data_PCOD8131182
_publ_section_title
;
Structure prediction by ZEFSAII (Michael W. Deem and Ramdas Pophale) SiO2 
 PCOD8131182
Probable space group: C 2/C
;
_chemical_formula_sum "Si O2"
_cell_formula_units_Z 56
_cell_length_a 21.240881
_cell_length_b 17.456292
_cell_length_c 7.990943
_cell_angle_alpha 90.000000
_cell_angle_beta 84.395847
_cell_angle_gamma 90.000000
_cell_volume 2948.776068
_symmetry_space_group_name_H-M "C 2/C"
_symmetry_group_IT_number 15
_symmetry_cell_setting 'monoclinic'
loop_
_space_group_symop_operation_xyz
x,y,z
-x,y,1/2-z
-x,-y,-z
x,-y,1/2+z
1/2+x,1/2+y,z
1/2-x,1/2+y,1/2-z
1/2-x,1/2-y,-z
1/2+x,1/2-y,1/2+z
loop_
_atom_site_type_symbol
_atom_site_label
_atom_site_fract_x
_atom_site_fract_y
_atom_site_fract_z
Si Si1 0.742516 0.646929 0.342475
Si Si2 0.115141 0.916334 0.957626
Si Si3 0.075929 0.770070 0.404824
Si Si4 0.064571 0.243981 0.516484
Si Si5 0.183320 0.316120 0.364708
Si Si6 0.068705 0.067447 0.813532
Si Si7 0.302720 0.186652 0.001487
O O1 0.685265 0.585971 0.360155
O O2 0.785644 0.633432 0.495979
O O3 0.715023 0.732412 0.354058
O O4 0.784096 0.632137 0.162963
O O5 0.073389 0.986617 0.902846
O O6 0.077480 0.838325 0.927145
O O7 0.121868 0.927488 0.155499
O O8 0.084743 0.758399 0.205018
O O9 0.079536 0.861894 0.439675
O O10 0.129961 0.726806 0.490125
O O11 0.009143 0.735576 0.485840
O O12 0.108058 0.308053 0.417318
O O13 0.193566 0.356618 0.179909
O O14 0.000000 0.079414 0.750000
O O15 0.250000 0.250000 0.000000
#
# Coordination Sequence:
#
# PCOD8131182 Si02
#       7
#     8   8   8   8   8   8   8
#     4   9  18  34  48  66  99 123 171 211 262 304
#     4  10  21  34  47  68  96 142 176 220 250 289
#     4  10  18  32  50  70 103 138 177 211 256 306
#     4   9  17  32  49  68  97 141 165 210 266 289
#     4   9  17  30  50  70  91 124 164 211 261 307
#     4  11  21  34  49  69 101 140 187 215 251 288
#     4  10  20  30  49  76  91 129 173 211 259 309
#
# _framework density 18.990931
#
# number of rings (size 3 to 8) (size 9 to 14) (size 15 to 20)
#    0.000    2.286    4.286    0.429    6.000    4.000 
#    0.000    0.000    0.000    0.000    0.000    0.000 
#    0.000    0.000    0.000   11.571    0.000    0.286 
#
# Total GULP energy -347018.189044 kJ/mol
# GULP energy per Si atom -12393.506752 kJ/mol
# Density = 1.894771 g / cm^3
# Si number density = 18.990931 Si / 1000 Ang^3
#
#
#
# Elastic Constant Matrix: (Units=GPa)
#
#
# Indices 1 2 3 4 5 6 
#
# 1 106.9466 12.3167 50.5199 0.0000 -7.8601 0.0000
# 2 12.3167 11.7852 12.7739 0.0000 -2.1506 0.0000
# 3 50.5199 12.7739 124.2339 0.0000 -11.1672 0.0000
# 4 0.0000 0.0000 0.0000 11.3904 0.0000 -4.4275
# 5 -7.8601 -2.1506 -11.1672 0.0000 28.3509 0.0000
# 6 0.0000 0.0000 0.0000 -4.4275 0.0000 19.4379
#
#
#
# Elastic Compliance Matrix: (Units=1/GPa)
#
#
# Indices 1 2 3 4 5 6 
#
# 1 0.012300 -0.008251 -0.004046 0.000000 0.001190 0.000000
# 2 -0.008251 0.101367 -0.006823 0.000000 0.002714 0.000000
# 3 -0.004046 -0.006823 0.010625 0.000000 0.002546 0.000000
# 4 0.000000 0.000000 0.000000 0.096321 0.000000 0.021940
# 5 0.001190 0.002714 0.002546 0.000000 0.036811 0.000000
# 6 0.000000 0.000000 0.000000 0.021940 0.000000 0.056443
#
#
# Mechanical properties :
#
#
# Convention : Reuss Voigt Hill
#
# Bulk Modulus (GPa) = 11.62120 43.79850 27.70985
# Shear Modulus (GPa) = 13.13056 22.99286 18.06171
#
# Velocity S-wave (km/s) = 2.63232 3.48333 3.08729
# Velocity P-wave (km/s) = 3.92065 6.26825 5.22793
#
# Compressibility (1/GPa) = 0.08604960
#
# Stress axis : x y z
#
# Youngs Moduli (GPa) = 81.30340 9.86519 94.11631
#
# Poissons Ratio (x) = 0.08140 0.38082
# Poissons Ratio (y) = 0.67087 0.64218
# Poissons Ratio (z) = 0.32897 0.06731
#
# Static dielectric constant tensor:
#      x y z
#    x 3.370160 0.000000 -0.245690 
#    y 0.000000 2.835060 0.000000 
#    z -0.245690 0.000000 3.991210 
# 
# 
# High freq. dielectric constant tensor:
#      x y z
#    x 1.739910 0.000000 -0.013660 
#    y 0.000000 1.654320 0.000000 
#    z -0.013660 0.000000 1.752490 
# 
# From -- ./inp_files/56097.got.cif
#   From: 2010.06.25/outbox.cif.g09.slc.cpg/sg15_29_cif.got.tgz:56097.got - 2010.06.28 07:06:18.
