data_PCOD8131097
_publ_section_title
;
Structure prediction by ZEFSAII (Michael W. Deem and Ramdas Pophale) SiO2 
 PCOD8131097
Probable space group: C 2/C
;
_chemical_formula_sum "Si O2"
_cell_formula_units_Z 32
_cell_length_a 7.379098
_cell_length_b 18.829500
_cell_length_c 9.251099
_cell_angle_alpha 90.000000
_cell_angle_beta 118.391822
_cell_angle_gamma 90.000000
_cell_volume 1130.779973
_symmetry_space_group_name_H-M "C 2/C"
_symmetry_group_IT_number 15
_symmetry_cell_setting 'monoclinic'
loop_
_space_group_symop_operation_xyz
x,y,z
-x,y,1/2-z
-x,-y,-z
x,-y,1/2+z
1/2+x,1/2+y,z
1/2-x,1/2+y,1/2-z
1/2-x,1/2-y,-z
1/2+x,1/2-y,1/2+z
loop_
_atom_site_type_symbol
_atom_site_label
_atom_site_fract_x
_atom_site_fract_y
_atom_site_fract_z
Si Si1 0.737996 0.063679 0.378466
Si Si2 0.366093 0.169996 0.943852
Si Si3 0.778877 0.921808 0.573217
Si Si4 0.877256 0.202541 0.936504
O O1 0.500000 0.069145 0.250000
O O2 0.789652 0.132594 0.500088
O O3 0.855845 0.062550 0.267458
O O4 0.783116 0.993186 0.483356
O O5 0.255805 0.181766 0.751362
O O6 0.553789 0.114659 0.987553
O O7 0.433390 0.246274 0.037297
O O8 0.936676 0.869054 0.547317
O O9 0.750000 0.250000 0.000000
#
# Coordination Sequence:
#
# PCOD8131097 Si02
#       4
#     8   8   8   8
#     4  10  18  31  53  84 110 143 192 239 276 330
#     4  10  20  34  53  81 113 150 187 231 283 338
#     4  10  18  31  53  83 111 144 189 238 280 330
#     4  10  19  34  53  80 113 151 186 230 284 338
#
# _framework density 28.299052
#
# number of rings (size 3 to 8) (size 9 to 14) (size 15 to 20)
#    0.000    2.000    0.000    9.000    0.000    0.000 
#    0.000   22.500    0.000    0.000    0.000  155.750 
#    0.000    0.000    0.000    0.000    0.000    0.000 
#
# Total GULP energy -198461.172039 kJ/mol
# GULP energy per Si atom -12403.823252 kJ/mol
# Density = 2.823464 g / cm^3
# Si number density = 28.299052 Si / 1000 Ang^3
#
#
#
# Elastic Constant Matrix: (Units=GPa)
#
#
# Indices 1 2 3 4 5 6 
#
# 1 118.9690 42.3577 70.6073 0.0000 -44.6401 0.0000
# 2 42.3577 276.9275 142.3940 0.0000 -32.8093 0.0000
# 3 70.6073 142.3940 285.4161 0.0000 -30.1155 0.0000
# 4 0.0000 0.0000 0.0000 78.0039 0.0000 -2.6293
# 5 -44.6401 -32.8093 -30.1155 0.0000 46.6184 0.0000
# 6 0.0000 0.0000 0.0000 -2.6293 0.0000 27.4226
#
#
#
# Elastic Compliance Matrix: (Units=1/GPa)
#
#
# Indices 1 2 3 4 5 6 
#
# 1 0.014423 0.000588 -0.002533 0.000000 0.012588 0.000000
# 2 0.000588 0.005059 -0.002398 0.000000 0.002574 0.000000
# 3 -0.002533 -0.002398 0.005250 0.000000 -0.000721 0.000000
# 4 0.000000 0.000000 0.000000 0.012861 0.000000 0.001233
# 5 0.012588 0.002574 -0.000721 0.000000 0.034851 0.000000
# 6 0.000000 0.000000 0.000000 0.001233 0.000000 0.036584
#
#
# Mechanical properties :
#
#
# Convention : Reuss Voigt Hill
#
# Bulk Modulus (GPa) = 62.31863 132.44786 97.38324
# Shear Modulus (GPa) = 40.62929 58.80590 49.71760
#
# Velocity S-wave (km/s) = 3.79319 4.56347 4.19604
# Velocity P-wave (km/s) = 6.42290 8.64127 7.61332
#
# Compressibility (1/GPa) = 0.01604656
#
# Stress axis : x y z
#
# Youngs Moduli (GPa) = 69.33345 197.66571 190.46120
#
# Poissons Ratio (x) = -0.11618 0.48244
# Poissons Ratio (y) = -0.04075 0.45667
# Poissons Ratio (z) = 0.17562 0.47395
#
# Static dielectric constant tensor:
#      x y z
#    x 7.042100 0.000000 -0.538440 
#    y 0.000000 6.391630 0.000000 
#    z -0.538440 0.000000 5.543810 
# 
# 
# High freq. dielectric constant tensor:
#      x y z
#    x 2.209690 0.000000 -0.007580 
#    y 0.000000 2.172480 0.000000 
#    z -0.007580 0.000000 2.161550 
# 
# From -- ./inp_files/28885.got.cif
#   From: 2010.06.25/outbox.cif.g09.slc.cpg/sg15_15_cif.got.tgz:28885.got - 2010.06.28 07:06:18.
