data_PCOD8131492
_publ_section_title
;
Structure prediction by ZEFSAII (Michael W. Deem and Ramdas Pophale) SiO2 
 PCOD8131492
Probable space group: C 2/C
;
_chemical_formula_sum "Si O2"
_cell_formula_units_Z 60
_cell_length_a 26.740046
_cell_length_b 22.572971
_cell_length_c 5.218155
_cell_angle_alpha 90.000000
_cell_angle_beta 106.821311
_cell_angle_gamma 90.000000
_cell_volume 3014.921093
_symmetry_space_group_name_H-M "C 2/C"
_symmetry_group_IT_number 15
_symmetry_cell_setting 'monoclinic'
loop_
_space_group_symop_operation_xyz
x,y,z
-x,y,1/2-z
-x,-y,-z
x,-y,1/2+z
1/2+x,1/2+y,z
1/2-x,1/2+y,1/2-z
1/2-x,1/2-y,-z
1/2+x,1/2-y,1/2+z
loop_
_atom_site_type_symbol
_atom_site_label
_atom_site_fract_x
_atom_site_fract_y
_atom_site_fract_z
Si Si1 0.380804 0.638005 0.785238
Si Si2 0.986737 0.920920 0.482297
Si Si3 0.500000 0.039673 0.250000
Si Si4 0.094036 0.629306 0.364477
Si Si5 0.074622 0.182433 0.154101
Si Si6 0.058302 0.311764 0.311574
Si Si7 0.321031 0.036652 0.061634
Si Si8 0.198620 0.037028 0.877824
O O1 0.426183 0.590262 0.875746
O O2 0.393786 0.682693 0.568791
O O3 0.327796 0.601825 0.658777
O O4 0.381440 0.669787 0.062167
O O5 0.000000 0.958091 0.250000
O O6 0.024978 0.862267 0.560979
O O7 0.000000 0.960657 0.750000
O O8 0.550965 0.078898 0.291825
O O9 0.500000 0.000000 0.500000
O O10 0.092921 0.656807 0.646000
O O11 0.150429 0.599866 0.404218
O O12 0.085486 0.679000 0.129328
O O13 0.050939 0.245061 0.200026
O O14 0.000000 0.339223 0.250000
O O15 0.259804 0.050190 0.967893
O O16 0.337906 0.997614 0.843027
O O17 0.181444 0.999787 0.602859
#
# Coordination Sequence:
#
# PCOD8131492 Si02
#       8
#     8   8   4   8   8   8   8   8
#     4  10  18  33  55  82 108 140 191 224 274 325
#     4   8  15  27  46  72 100 134 178 207 253 308
#     4  12  22  36  54  76 110 148 180 216 280 338
#     4  12  23  37  55  83 114 147 182 239 275 328
#     4  10  20  33  56  79 109 155 183 224 262 338
#     4  12  22  37  54  83 120 144 191 226 279 318
#     4  10  21  40  61  81 105 146 191 224 281 341
#     4  10  21  37  61  86 108 137 184 244 281 321
#
# _framework density 19.901019000000002
#
# number of rings (size 3 to 8) (size 9 to 14) (size 15 to 20)
#    0.000    1.600    1.333    5.200    0.000    2.133 
#    0.000    0.000    0.000   26.400    0.000    0.000 
#    0.000    0.000    0.000    0.000    0.000    0.000 
#
# Total GULP energy -371669.769247 kJ/mol
# GULP energy per Si atom -12388.992308 kJ/mol
# Density = 1.985572 g / cm^3
# Si number density = 19.901019 Si / 1000 Ang^3
#
#
#
# Elastic Constant Matrix: (Units=GPa)
#
#
# Indices 1 2 3 4 5 6 
#
# 1 65.5864 26.8808 35.5253 0.0000 -6.1958 0.0000
# 2 26.8808 72.9262 12.8612 0.0000 0.6626 0.0000
# 3 35.5253 12.8612 135.7754 0.0000 -33.2190 0.0000
# 4 0.0000 0.0000 0.0000 47.2919 0.0000 -11.3692
# 5 -6.1958 0.6626 -33.2190 0.0000 31.2436 0.0000
# 6 0.0000 0.0000 0.0000 -11.3692 0.0000 35.7904
#
#
#
# Elastic Compliance Matrix: (Units=1/GPa)
#
#
# Indices 1 2 3 4 5 6 
#
# 1 0.020614 -0.006700 -0.005033 0.000000 -0.001122 0.000000
# 2 -0.006700 0.016247 -0.000264 0.000000 -0.001954 0.000000
# 3 -0.005033 -0.000264 0.011440 0.000000 0.011171 0.000000
# 4 0.000000 0.000000 0.000000 0.022894 0.000000 0.007272
# 5 -0.001122 -0.001954 0.011171 0.000000 0.043703 0.000000
# 6 0.000000 0.000000 0.000000 0.007272 0.000000 0.030251
#
#
# Mechanical properties :
#
#
# Convention : Reuss Voigt Hill
#
# Bulk Modulus (GPa) = 41.14305 47.20250 44.17277
# Shear Modulus (GPa) = 28.20974 36.13322 32.17148
#
# Velocity S-wave (km/s) = 3.76906 4.26566 4.02503
# Velocity P-wave (km/s) = 6.29760 6.93046 6.62160
#
# Compressibility (1/GPa) = 0.02430544
#
# Stress axis : x y z
#
# Youngs Moduli (GPa) = 48.51177 61.55152 87.41190
#
# Poissons Ratio (x) = 0.41242 0.43996
# Poissons Ratio (y) = 0.32505 0.02306
# Poissons Ratio (z) = 0.24417 0.01624
#
# Static dielectric constant tensor:
#      x y z
#    x 3.434680 0.000000 -0.443530 
#    y 0.000000 3.324820 0.000000 
#    z -0.443530 0.000000 4.477900 
# 
# 
# High freq. dielectric constant tensor:
#      x y z
#    x 1.759600 0.000000 -0.021750 
#    y 0.000000 1.762020 0.000000 
#    z -0.021750 0.000000 1.805240 
# 
# From -- ./inp_files/17477.got.cif
#   From: 2010.06.25/outbox.cif.g09.slc.cpg/sg15_9_cif.got.tgz:17477.got - 2010.06.28 07:06:18.
