data_PCOD8131140
_publ_section_title
;
Structure prediction by ZEFSAII (Michael W. Deem and Ramdas Pophale) SiO2 
 PCOD8131140
Probable space group: C 2/C
;
_chemical_formula_sum "Si O2"
_cell_formula_units_Z 40
_cell_length_a 18.842984
_cell_length_b 8.877639
_cell_length_c 18.909053
_cell_angle_alpha 90.000000
_cell_angle_beta 151.667361
_cell_angle_gamma 90.000000
_cell_volume 1501.188576
_symmetry_space_group_name_H-M "C 2/C"
_symmetry_group_IT_number 15
_symmetry_cell_setting 'monoclinic'
loop_
_space_group_symop_operation_xyz
x,y,z
-x,y,1/2-z
-x,-y,-z
x,-y,1/2+z
1/2+x,1/2+y,z
1/2-x,1/2+y,1/2-z
1/2-x,1/2-y,-z
1/2+x,1/2-y,1/2+z
loop_
_atom_site_type_symbol
_atom_site_label
_atom_site_fract_x
_atom_site_fract_y
_atom_site_fract_z
Si Si1 0.574010 0.499974 0.385021
Si Si2 0.714973 0.141635 0.188583
Si Si3 0.798292 0.839032 0.196691
Si Si4 0.883522 0.428049 0.593446
Si Si5 0.997139 0.292004 0.385536
O O1 0.500000 0.571927 0.250000
O O2 0.466247 0.361283 0.314275
O O3 0.739918 0.443216 0.517297
O O4 0.583782 0.636238 0.448110
O O5 0.707862 0.181220 0.265970
O O6 0.821524 0.255607 0.237325
O O7 0.772086 0.971594 0.230923
O O8 0.550851 0.153221 0.010124
O O9 0.671458 0.836283 0.024150
O O10 0.960044 0.584827 0.636318
O O11 0.000000 0.345473 0.750000
#
# Coordination Sequence:
#
# PCOD8131140 Si02
#       5
#     8   8   8   8   8
#     4   9  17  31  52  82 114 148 188 238 291 338
#     4  10  21  36  54  86 121 152 190 230 288 349
#     4   9  21  38  57  85 118 154 190 231 289 347
#     4  10  18  31  56  89 116 141 189 253 294 325
#     4  10  19  32  56  86 117 148 187 240 294 335
#
# _framework density 26.645554000000001
#
# number of rings (size 3 to 8) (size 9 to 14) (size 15 to 20)
#    0.000    2.400    0.000    3.600    0.000    6.400 
#    0.000    2.000    0.000    0.000    0.000  144.200 
#    0.000    0.000    0.000    0.000    0.000    0.000 
#
# Total GULP energy -247895.725883 kJ/mol
# GULP energy per Si atom -12394.786294 kJ/mol
# Density = 2.658491 g / cm^3
# Si number density = 26.645554 Si / 1000 Ang^3
#
#
#
# Elastic Constant Matrix: (Units=GPa)
#
#
# Indices 1 2 3 4 5 6 
#
# 1 101.0088 31.1658 34.4059 0.0006 -20.8105 0.0004
# 2 31.1658 47.5424 23.4624 -0.0007 -10.4662 -0.0003
# 3 34.4059 23.4624 136.9502 -0.0007 -13.9175 0.0000
# 4 0.0006 -0.0007 -0.0007 23.4605 -0.0006 -16.9654
# 5 -20.8105 -10.4662 -13.9175 -0.0006 38.5252 -0.0002
# 6 0.0004 -0.0003 0.0000 -16.9654 -0.0002 26.2155
#
#
#
# Elastic Compliance Matrix: (Units=1/GPa)
#
#
# Indices 1 2 3 4 5 6 
#
# 1 0.013658 -0.007031 -0.001735 -0.000001 0.004841 -0.000001
# 2 -0.007031 0.027565 -0.002679 0.000002 0.002722 0.000002
# 3 -0.001735 -0.002679 0.008333 0.000000 0.001346 0.000000
# 4 -0.000001 0.000002 0.000000 0.080120 0.000002 0.051850
# 5 0.004841 0.002722 0.001346 0.000002 0.029798 0.000001
# 6 -0.000001 0.000002 0.000000 0.051850 0.000001 0.071700
#
#
# Mechanical properties :
#
#
# Convention : Reuss Voigt Hill
#
# Bulk Modulus (GPa) = 37.50189 51.50773 44.50481
# Shear Modulus (GPa) = 19.01481 30.73807 24.87644
#
# Velocity S-wave (km/s) = 2.67427 3.40014 3.05881
# Velocity P-wave (km/s) = 4.86215 5.89807 5.40499
#
# Compressibility (1/GPa) = 0.02666532
#
# Stress axis : x y z
#
# Youngs Moduli (GPa) = 73.21790 36.27819 119.99783
#
# Poissons Ratio (x) = 0.25509 0.20816
# Poissons Ratio (y) = 0.51483 0.32150
# Poissons Ratio (z) = 0.12701 0.09720
#
# Static dielectric constant tensor:
#      x y z
#    x 4.912270 0.000000 0.124640 
#    y 0.000000 4.505150 0.000000 
#    z 0.124640 0.000000 4.705830 
# 
# 
# High freq. dielectric constant tensor:
#      x y z
#    x 2.076720 0.000000 0.007200 
#    y 0.000000 2.060260 0.000000 
#    z 0.007200 0.000000 2.072340 
# 
# From -- ./inp_files/46272.got.cif
#   From: 2010.06.25/outbox.cif.g09.slc.cpg/sg15_24_cif.got.tgz:46272.got - 2010.06.28 07:06:18.
