data_PCOD8131133
_publ_section_title
;
Structure prediction by ZEFSAII (Michael W. Deem and Ramdas Pophale) SiO2 
 PCOD8131133
Probable space group: C 2/C
;
_chemical_formula_sum "Si O2"
_cell_formula_units_Z 48
_cell_length_a 21.044818
_cell_length_b 23.735649
_cell_length_c 14.557900
_cell_angle_alpha 90.000000
_cell_angle_beta 159.689099
_cell_angle_gamma 90.000000
_cell_volume 2524.162181
_symmetry_space_group_name_H-M "C 2/C"
_symmetry_group_IT_number 15
_symmetry_cell_setting 'monoclinic'
loop_
_space_group_symop_operation_xyz
x,y,z
-x,y,1/2-z
-x,-y,-z
x,-y,1/2+z
1/2+x,1/2+y,z
1/2-x,1/2+y,1/2-z
1/2-x,1/2-y,-z
1/2+x,1/2-y,1/2+z
loop_
_atom_site_type_symbol
_atom_site_label
_atom_site_fract_x
_atom_site_fract_y
_atom_site_fract_z
Si Si1 0.500000 0.464183 0.250000
Si Si2 0.679352 0.362820 0.583395
Si Si3 0.000000 0.605514 0.250000
Si Si4 0.220951 0.184073 0.957141
Si Si5 0.896242 0.478657 0.451290
Si Si6 0.990333 0.036659 0.396249
Si Si7 0.830106 0.406037 0.962125
O O1 0.642890 0.427364 0.502502
O O2 0.395077 0.502445 0.183056
O O3 0.491399 0.329766 0.345612
O O4 0.791771 0.334326 0.654032
O O5 0.801644 0.362579 0.840088
O O6 0.172326 0.648357 0.475540
O O7 0.006144 0.568564 0.352157
O O8 0.250000 0.250000 0.000000
O O9 0.873948 0.531550 0.487713
O O10 0.000000 0.500000 0.500000
O O11 0.701772 0.450672 0.155805
O O12 0.860448 0.090985 0.237559
O O13 0.000000 0.000000 0.500000
O O14 0.000000 0.381756 0.250000
#
# Coordination Sequence:
#
# PCOD8131133 Si02
#       7
#     4   8   4   8   8   8   8
#     4  10  18  31  56  72 110 160 187 226 282 332
#     4  10  21  36  60  80 115 153 193 238 307 348
#     4  12  22  33  58  86 116 156 191 244 296 354
#     4  10  22  39  62  86 110 143 201 263 311 341
#     4  11  23  32  50  83 122 157 197 232 281 366
#     4  10  21  33  48  72 117 159 199 226 271 340
#     4  11  22  35  54  80 120 159 199 224 279 371
#
# _framework density 19.016210000000001
#
# number of rings (size 3 to 8) (size 9 to 14) (size 15 to 20)
#    0.000    1.667    4.167    3.000   11.667    0.000 
#    0.000    0.000    0.000    1.000    0.000    0.000 
#    0.000    0.000    0.000    0.000    0.000    0.000 
#
# Total GULP energy -297331.097539 kJ/mol
# GULP energy per Si atom -12388.795731 kJ/mol
# Density = 1.897293 g / cm^3
# Si number density = 19.016210 Si / 1000 Ang^3
#
#
#
# Elastic Constant Matrix: (Units=GPa)
#
#
# Indices 1 2 3 4 5 6 
#
# 1 120.1763 40.8847 47.0596 0.0000 -9.1311 0.0000
# 2 40.8847 74.0828 20.3292 0.0000 -10.1021 0.0000
# 3 47.0596 20.3292 105.8607 0.0000 -13.7483 0.0000
# 4 0.0000 0.0000 0.0000 10.9759 0.0000 1.1894
# 5 -9.1311 -10.1021 -13.7483 0.0000 39.3175 0.0000
# 6 0.0000 0.0000 0.0000 1.1894 0.0000 14.2569
#
#
#
# Elastic Compliance Matrix: (Units=1/GPa)
#
#
# Indices 1 2 3 4 5 6 
#
# 1 0.011792 -0.005364 -0.004227 0.000000 -0.000118 0.000000
# 2 -0.005364 0.016997 -0.000497 0.000000 0.002948 0.000000
# 3 -0.004227 -0.000497 0.011813 0.000000 0.003021 0.000000
# 4 0.000000 0.000000 0.000000 0.091940 0.000000 -0.007670
# 5 -0.000118 0.002948 0.003021 0.000000 0.027220 0.000000
# 6 0.000000 0.000000 0.000000 -0.007670 0.000000 0.070781
#
#
# Mechanical properties :
#
#
# Convention : Reuss Voigt Hill
#
# Bulk Modulus (GPa) = 48.95592 57.40744 53.18168
# Shear Modulus (GPa) = 19.41524 25.69981 22.55753
#
# Velocity S-wave (km/s) = 3.19875 3.68022 3.44790
# Velocity P-wave (km/s) = 6.28036 6.95075 6.62404
#
# Compressibility (1/GPa) = 0.02042654
#
# Stress axis : x y z
#
# Youngs Moduli (GPa) = 84.80008 58.83411 84.64924
#
# Poissons Ratio (x) = 0.31559 0.35785
# Poissons Ratio (y) = 0.45487 0.04205
# Poissons Ratio (z) = 0.35849 0.02922
#
# Static dielectric constant tensor:
#      x y z
#    x 3.797520 0.000000 0.175190 
#    y 0.000000 3.145830 0.000000 
#    z 0.175190 0.000000 3.808560 
# 
# 
# High freq. dielectric constant tensor:
#      x y z
#    x 1.755260 0.000000 0.006540 
#    y 0.000000 1.685170 0.000000 
#    z 0.006540 0.000000 1.734240 
# 
# From -- ./inp_files/169828.got.cif
#   From: 2010.06.25/outbox.cif.g09.slc.cpg/sg15_85_cif.got.tgz:169828.got - 2010.06.28 07:06:18.
