data_PCOD8131933
_publ_section_title
;
Structure prediction by ZEFSAII (Michael W. Deem and Ramdas Pophale) SiO2 
 PCOD8131933
Probable space group: C 2/C
;
_chemical_formula_sum "Si O2"
_cell_formula_units_Z 64
_cell_length_a 34.341146
_cell_length_b 16.249873
_cell_length_c 12.744196
_cell_angle_alpha 90.000000
_cell_angle_beta 26.617944
_cell_angle_gamma 90.000000
_cell_volume 3186.347312
_symmetry_space_group_name_H-M "C 2/C"
_symmetry_group_IT_number 15
_symmetry_cell_setting 'monoclinic'
loop_
_space_group_symop_operation_xyz
x,y,z
-x,y,1/2-z
-x,-y,-z
x,-y,1/2+z
1/2+x,1/2+y,z
1/2-x,1/2+y,1/2-z
1/2-x,1/2-y,-z
1/2+x,1/2-y,1/2+z
loop_
_atom_site_type_symbol
_atom_site_label
_atom_site_fract_x
_atom_site_fract_y
_atom_site_fract_z
Si Si1 0.913475 0.952085 0.890254
Si Si2 0.732442 0.498742 0.598799
Si Si3 0.862199 0.074788 0.855958
Si Si4 0.400548 0.098441 0.221327
Si Si5 0.612445 0.725549 0.067596
Si Si6 0.421366 0.731424 0.587688
Si Si7 0.948184 0.519049 0.773144
Si Si8 0.715013 0.874942 0.866164
O O1 0.887158 0.868475 0.893772
O O2 0.000000 0.937627 0.750000
O O3 0.930131 0.025017 0.766161
O O4 0.829796 0.969210 0.160841
O O5 0.681789 0.503563 0.610467
O O6 0.815372 0.555929 0.379641
O O7 0.763396 0.408941 0.567888
O O8 0.912644 0.142737 0.665444
O O9 0.794623 0.120595 0.094135
O O10 0.384396 0.196499 0.251938
O O11 0.414170 0.067456 0.307399
O O12 0.487346 0.071099 0.953677
O O13 0.518973 0.759302 0.327112
O O14 0.629085 0.728172 0.901514
O O15 0.686901 0.779384 0.944908
O O16 0.000000 0.492664 0.750000
O O17 0.864452 0.575777 0.996779
#
# Coordination Sequence:
#
# PCOD8131933 Si02
#       8
#     8   8   8   8   8   8   8   8
#     4  11  23  41  61  86 115 157 201 249 297 347
#     4  10  21  39  56  88 118 154 195 241 298 355
#     4  11  23  39  63  86 118 157 201 247 294 352
#     4  10  21  32  57  88 119 154 201 237 294 356
#     4  11  20  37  58  87 117 147 193 250 293 340
#     4  11  21  35  59  89 114 154 202 244 291 342
#     4  10  18  35  55  82 123 165 189 235 294 361
#     4  10  22  35  59  89 122 150 194 249 295 348
#
# _framework density 20.085694
#
# number of rings (size 3 to 8) (size 9 to 14) (size 15 to 20)
#    0.000    1.500    3.750    2.250    1.750    3.000 
#    0.000    1.250    0.000    0.000    0.000    0.000 
#    0.000    0.000    0.000    0.000    0.000    0.000 
#
# Total GULP energy -396552.063759 kJ/mol
# GULP energy per Si atom -12392.251992 kJ/mol
# Density = 2.003998 g / cm^3
# Si number density = 20.085694 Si / 1000 Ang^3
#
#
#
# Elastic Constant Matrix: (Units=GPa)
#
#
# Indices 1 2 3 4 5 6 
#
# 1 69.8031 47.9917 9.0944 0.0000 -3.6068 0.0000
# 2 47.9917 139.9523 26.5866 0.0000 -0.6475 0.0000
# 3 9.0944 26.5866 47.8234 0.0000 -0.0891 0.0000
# 4 0.0000 0.0000 0.0000 6.4343 0.0000 11.6122
# 5 -3.6068 -0.6475 -0.0891 0.0000 19.8405 0.0000
# 6 0.0000 0.0000 0.0000 11.6122 0.0000 22.1739
#
#
#
# Elastic Compliance Matrix: (Units=1/GPa)
#
#
# Indices 1 2 3 4 5 6 
#
# 1 0.018951 -0.006485 0.000007 0.000000 0.003233 0.000000
# 2 -0.006485 0.010209 -0.004444 0.000000 -0.000866 0.000000
# 3 0.000007 -0.004444 0.023379 0.000000 -0.000039 0.000000
# 4 0.000000 0.000000 0.000000 2.831911 0.000000 -1.483041
# 5 0.003233 -0.000866 -0.000039 0.000000 0.050961 0.000000
# 6 0.000000 0.000000 0.000000 -1.483041 0.000000 0.821750
#
#
# Mechanical properties :
#
#
# Convention : Reuss Voigt Hill
#
# Bulk Modulus (GPa) = 32.57728 47.21381 39.89555
# Shear Modulus (GPa) = 1.31953 21.28346 11.30149
#
# Velocity S-wave (km/s) = 0.81140 3.25873 2.37463
# Velocity P-wave (km/s) = 4.13911 6.14136 5.23682
#
# Compressibility (1/GPa) = 0.03069624
#
# Stress axis : x y z
#
# Youngs Moduli (GPa) = 52.76849 97.94980 42.77265
#
# Poissons Ratio (x) = 0.63520 -0.00032
# Poissons Ratio (y) = 0.34220 0.19009
# Poissons Ratio (z) = -0.00039 0.43530
#
# Static dielectric constant tensor:
#      x y z
#    x 3.860870 0.000000 -0.030620 
#    y 0.000000 3.718480 0.000000 
#    z -0.030620 0.000000 3.730570 
# 
# 
# High freq. dielectric constant tensor:
#      x y z
#    x 1.757770 0.000000 0.000170 
#    y 0.000000 1.776790 0.000000 
#    z 0.000170 0.000000 1.796910 
# 
# From -- ./inp_files/127290.got.cif
#   From: 2010.06.25/outbox.cif.g09.slc.cpg/sg15_64_cif.got.tgz:127290.got - 2010.06.28 07:06:18.
