data_PCOD8131619
_publ_section_title
;
Structure prediction by ZEFSAII (Michael W. Deem and Ramdas Pophale) SiO2 
 PCOD8131619
Probable space group: C 2/C
;
_chemical_formula_sum "Si O2"
_cell_formula_units_Z 56
_cell_length_a 10.743079
_cell_length_b 14.353157
_cell_length_c 19.581057
_cell_angle_alpha 90.000000
_cell_angle_beta 67.914616
_cell_angle_gamma 90.000000
_cell_volume 2797.796677
_symmetry_space_group_name_H-M "C 2/C"
_symmetry_group_IT_number 15
_symmetry_cell_setting 'monoclinic'
loop_
_space_group_symop_operation_xyz
x,y,z
-x,y,1/2-z
-x,-y,-z
x,-y,1/2+z
1/2+x,1/2+y,z
1/2-x,1/2+y,1/2-z
1/2-x,1/2-y,-z
1/2+x,1/2-y,1/2+z
loop_
_atom_site_type_symbol
_atom_site_label
_atom_site_fract_x
_atom_site_fract_y
_atom_site_fract_z
Si Si1 0.841060 0.872819 0.781395
Si Si2 0.964841 0.275720 0.980316
Si Si3 0.657937 0.517091 0.350789
Si Si4 0.169209 0.339817 0.036280
Si Si5 0.155004 0.975914 0.580987
Si Si6 0.738292 0.618756 0.465581
Si Si7 0.716946 0.688092 0.853184
O O1 0.789976 0.922783 0.723670
O O2 0.797703 0.939062 0.854413
O O3 0.769185 0.771939 0.794969
O O4 0.000000 0.858685 0.750000
O O5 0.890507 0.344361 0.942337
O O6 0.083305 0.221623 0.918501
O O7 0.859635 0.203456 0.034550
O O8 0.023054 0.337972 0.031007
O O9 0.502373 0.539962 0.396323
O O10 0.736559 0.544463 0.403780
O O11 0.680416 0.409106 0.323516
O O12 0.160747 0.337426 0.120147
O O13 0.250000 0.250000 0.000000
O O14 0.259695 0.425298 0.994721
O O15 0.189951 0.081730 0.551095
#
# Coordination Sequence:
#
# PCOD8131619 Si02
#       7
#     8   8   8   8   8   8   8
#     4  10  24  40  60  89 118 156 210 254 295 354
#     4  10  22  37  59  94 127 149 197 251 309 353
#     4  11  22  40  63  88 120 164 204 246 298 372
#     4  10  18  33  65  89 112 150 196 253 290 348
#     4  11  19  37  64  90 117 153 207 249 292 359
#     4  11  22  37  61  96 122 159 196 251 304 361
#     4  11  20  42  64  85 116 164 201 245 306 357
#
# _framework density 20.015751999999999
#
# number of rings (size 3 to 8) (size 9 to 14) (size 15 to 20)
#    0.000    1.429    5.714    2.143    2.000    0.571 
#    5.143    2.143    0.000    0.000    0.000    0.000 
#    0.000    0.000    0.000    0.000    0.000    0.000 
#
# Total GULP energy -346943.967834 kJ/mol
# GULP energy per Si atom -12390.855994 kJ/mol
# Density = 1.997019 g / cm^3
# Si number density = 20.015752 Si / 1000 Ang^3
#
#
#
# Elastic Constant Matrix: (Units=GPa)
#
#
# Indices 1 2 3 4 5 6 
#
# 1 97.6518 51.5231 33.2459 0.0000 13.1807 0.0000
# 2 51.5231 106.0639 51.7195 0.0000 10.9476 0.0000
# 3 33.2459 51.7195 89.1422 0.0000 15.4717 0.0000
# 4 0.0000 0.0000 0.0000 40.3385 0.0000 -1.7525
# 5 13.1807 10.9476 15.4717 0.0000 15.1535 0.0000
# 6 0.0000 0.0000 0.0000 -1.7525 0.0000 27.7434
#
#
#
# Elastic Compliance Matrix: (Units=1/GPa)
#
#
# Indices 1 2 3 4 5 6 
#
# 1 0.014682 -0.006021 -0.000633 0.000000 -0.007775 0.000000
# 2 -0.006021 0.015671 -0.007038 0.000000 0.001101 0.000000
# 3 -0.000633 -0.007038 0.017695 0.000000 -0.012432 0.000000
# 4 0.000000 0.000000 0.000000 0.024858 0.000000 0.001570
# 5 -0.007775 0.001101 -0.012432 0.000000 0.084650 0.000000
# 6 0.000000 0.000000 0.000000 0.001570 0.000000 0.036144
#
#
# Mechanical properties :
#
#
# Convention : Reuss Voigt Hill
#
# Bulk Modulus (GPa) = 48.39201 62.87057 55.63129
# Shear Modulus (GPa) = 21.93234 27.07170 24.50202
#
# Velocity S-wave (km/s) = 3.31381 3.68165 3.50256
# Velocity P-wave (km/s) = 6.23468 7.03928 6.64916
#
# Compressibility (1/GPa) = 0.02066457
#
# Stress axis : x y z
#
# Youngs Moduli (GPa) = 68.10957 63.81049 56.51274
#
# Poissons Ratio (x) = 0.38421 0.03577
# Poissons Ratio (y) = 0.41009 0.39773
# Poissons Ratio (z) = 0.04312 0.44910
#
# Static dielectric constant tensor:
#      x y z
#    x 4.289090 0.000000 0.453860 
#    y 0.000000 3.855900 0.000000 
#    z 0.453860 0.000000 3.600470 
# 
# 
# High freq. dielectric constant tensor:
#      x y z
#    x 1.773820 0.000000 0.011170 
#    y 0.000000 1.793330 0.000000 
#    z 0.011170 0.000000 1.750330 
# 
# From -- ./inp_files/238312.got.cif
#   From: 2010.06.25/outbox.cif.g09.slc.cpg/sg15_120_cif.got.tgz:238312.got - 2010.06.28 07:06:18.
