data_PCOD8131481
_publ_section_title
;
Structure prediction by ZEFSAII (Michael W. Deem and Ramdas Pophale) SiO2 
 PCOD8131481
Probable space group: C 2/C
;
_chemical_formula_sum "Si O2"
_cell_formula_units_Z 64
_cell_length_a 25.455265
_cell_length_b 14.611348
_cell_length_c 14.966241
_cell_angle_alpha 90.000000
_cell_angle_beta 39.899258
_cell_angle_gamma 90.000000
_cell_volume 3570.561146
_symmetry_space_group_name_H-M "C 2/C"
_symmetry_group_IT_number 15
_symmetry_cell_setting 'monoclinic'
loop_
_space_group_symop_operation_xyz
x,y,z
-x,y,1/2-z
-x,-y,-z
x,-y,1/2+z
1/2+x,1/2+y,z
1/2-x,1/2+y,1/2-z
1/2-x,1/2-y,-z
1/2+x,1/2-y,1/2+z
loop_
_atom_site_type_symbol
_atom_site_label
_atom_site_fract_x
_atom_site_fract_y
_atom_site_fract_z
Si Si1 0.199760 0.584942 0.892940
Si Si2 0.342864 0.406125 0.537698
Si Si3 0.606246 0.235641 0.920453
Si Si4 0.303689 0.333973 0.400920
Si Si5 0.252795 0.740970 0.600876
Si Si6 0.183357 0.390453 0.853656
Si Si7 0.925550 0.756378 0.095155
Si Si8 0.645241 0.394374 0.435335
O O1 0.131359 0.662436 0.963939
O O2 0.239368 0.594406 0.939972
O O3 0.156317 0.487368 0.931779
O O4 0.277360 0.601518 0.729972
O O5 0.389394 0.335356 0.540607
O O6 0.348499 0.381410 0.426055
O O7 0.248580 0.409013 0.690256
O O8 0.385664 0.505277 0.495595
O O9 0.663804 0.218825 0.759039
O O10 0.514000 0.223342 0.009765
O O11 0.250000 0.250000 0.500000
O O12 0.373651 0.294635 0.245335
O O13 0.250000 0.750000 0.500000
O O14 0.280166 0.834574 0.611532
O O15 0.321039 0.662257 0.524512
O O16 0.110764 0.335423 0.901678
O O17 0.927875 0.838134 0.018157
#
# Coordination Sequence:
#
# PCOD8131481 Si02
#       8
#     8   8   8   8   8   8   8   8
#     4   9  18  33  52  78 102 135 179 213 253 316
#     4  10  18  33  55  77 104 138 175 219 255 307
#     4  10  20  34  53  75 109 139 164 211 270 312
#     4  11  18  33  56  79 103 135 182 217 254 305
#     4   9  18  34  55  78  95 132 183 216 248 309
#     4   9  18  34  54  75 105 139 174 216 263 303
#     4  10  20  35  53  76 109 144 167 213 270 317
#     4   8  18  34  52  74 103 135 177 213 256 307
#
# _framework density 17.924354000000001
#
# number of rings (size 3 to 8) (size 9 to 14) (size 15 to 20)
#    0.000    2.500    2.500    1.500    1.750    1.500 
#    0.000    2.500    2.750    1.500    0.000    0.000 
#    0.000    0.000    0.000    0.000    0.000    0.000 
#
# Total GULP energy -396578.443544 kJ/mol
# GULP energy per Si atom -12393.076361 kJ/mol
# Density = 1.788356 g / cm^3
# Si number density = 17.924354 Si / 1000 Ang^3
#
#
#
# Elastic Constant Matrix: (Units=GPa)
#
#
# Indices 1 2 3 4 5 6 
#
# 1 95.6499 14.4889 38.3098 0.0000 3.3137 0.0000
# 2 14.4889 90.8455 13.2755 0.0000 -1.6302 0.0000
# 3 38.3098 13.2755 47.4776 0.0000 3.3380 0.0000
# 4 0.0000 0.0000 0.0000 14.1112 0.0000 3.7195
# 5 3.3137 -1.6302 3.3380 0.0000 34.0654 0.0000
# 6 0.0000 0.0000 0.0000 3.7195 0.0000 20.6917
#
#
#
# Elastic Compliance Matrix: (Units=1/GPa)
#
#
# Indices 1 2 3 4 5 6 
#
# 1 0.015490 -0.000681 -0.012285 0.000000 -0.000336 0.000000
# 2 -0.000681 0.011532 -0.002737 0.000000 0.000886 0.000000
# 3 -0.012285 -0.002737 0.031885 0.000000 -0.002060 0.000000
# 4 0.000000 0.000000 0.000000 0.074391 0.000000 -0.013372
# 5 -0.000336 0.000886 -0.002060 0.000000 0.029632 0.000000
# 6 0.000000 0.000000 0.000000 -0.013372 0.000000 0.050732
#
#
# Mechanical properties :
#
#
# Convention : Reuss Voigt Hill
#
# Bulk Modulus (GPa) = 36.36220 40.68015 38.52118
# Shear Modulus (GPa) = 19.66675 24.96691 22.31683
#
# Velocity S-wave (km/s) = 3.31601 3.73621 3.53236
# Velocity P-wave (km/s) = 5.91538 6.43095 6.17854
#
# Compressibility (1/GPa) = 0.02750109
#
# Stress axis : x y z
#
# Youngs Moduli (GPa) = 64.55813 86.71325 31.36233
#
# Poissons Ratio (x) = 0.05908 0.38528
# Poissons Ratio (y) = 0.04398 0.08584
# Poissons Ratio (z) = 0.79308 0.23735
#
# Static dielectric constant tensor:
#      x y z
#    x 3.516360 0.000000 -0.058140 
#    y 0.000000 3.514950 0.000000 
#    z -0.058140 0.000000 1.919510 
# 
# 
# High freq. dielectric constant tensor:
#      x y z
#    x 1.697720 0.000000 0.012790 
#    y 0.000000 1.703490 0.000000 
#    z 0.012790 0.000000 1.654220 
# 
# From -- ./inp_files/173645.got.cif
#   From: 2010.06.25/outbox.cif.g09.slc.cpg/sg15_87_cif.got.tgz:173645.got - 2010.06.28 07:06:18.
