data_PCOD8131303
_publ_section_title
;
Structure prediction by ZEFSAII (Michael W. Deem and Ramdas Pophale) SiO2 
 PCOD8131303
Probable space group: C 2/C
;
_chemical_formula_sum "Si O2"
_cell_formula_units_Z 60
_cell_length_a 19.754707
_cell_length_b 9.091585
_cell_length_c 24.093145
_cell_angle_alpha 90.000000
_cell_angle_beta 48.533135
_cell_angle_gamma 90.000000
_cell_volume 3242.514375
_symmetry_space_group_name_H-M "C 2/C"
_symmetry_group_IT_number 15
_symmetry_cell_setting 'monoclinic'
loop_
_space_group_symop_operation_xyz
x,y,z
-x,y,1/2-z
-x,-y,-z
x,-y,1/2+z
1/2+x,1/2+y,z
1/2-x,1/2+y,1/2-z
1/2-x,1/2-y,-z
1/2+x,1/2-y,1/2+z
loop_
_atom_site_type_symbol
_atom_site_label
_atom_site_fract_x
_atom_site_fract_y
_atom_site_fract_z
Si Si1 0.197806 0.186960 0.114687
Si Si2 0.697175 0.888658 0.833674
Si Si3 0.480404 0.585734 0.139159
Si Si4 0.863438 0.890981 0.557850
Si Si5 0.939590 0.845329 0.077365
Si Si6 0.318981 0.573741 0.491129
Si Si7 0.679665 0.774835 0.316560
Si Si8 0.500000 0.351061 0.750000
O O1 0.243275 0.110644 0.142919
O O2 0.249282 0.328521 0.063856
O O3 0.204664 0.065000 0.061394
O O4 0.093777 0.237199 0.185579
O O5 0.599042 0.818685 0.896838
O O6 0.740448 0.782215 0.764844
O O7 0.684158 0.049920 0.816059
O O8 0.448013 0.431086 0.131279
O O9 0.414834 0.719651 0.157888
O O10 0.480100 0.554438 0.205485
O O11 0.577730 0.634132 0.062025
O O12 0.804174 0.789202 0.630173
O O13 0.962985 0.821073 0.502974
O O14 0.872349 0.058535 0.575685
O O15 0.818093 0.911635 0.521333
#
# Coordination Sequence:
#
# PCOD8131303 Si02
#       8
#     8   8   8   8   8   8   8   4
#     4  10  20  33  55  86 106 149 188 235 267 332
#     4  12  23  36  53  86 115 150 182 236 276 341
#     4   9  18  35  56  86 106 149 180 230 275 333
#     4   9  17  35  57  83 108 151 177 231 271 335
#     4   9  18  33  57  79 115 139 185 219 281 331
#     4   9  18  35  60  82 111 143 192 227 277 327
#     4  11  23  34  54  83 118 147 186 229 287 323
#     4  10  18  32  56  78 110 140 198 226 262 326
#
# _framework density 18.504158
#
# number of rings (size 3 to 8) (size 9 to 14) (size 15 to 20)
#    0.000    2.133    2.667    2.400    0.000    0.533 
#    0.000    0.667    0.000    0.800    0.000    0.000 
#    0.000    0.000    0.000    0.000    0.000    0.000 
#
# Total GULP energy -371656.284996 kJ/mol
# GULP energy per Si atom -12388.542833 kJ/mol
# Density = 1.846204 g / cm^3
# Si number density = 18.504158 Si / 1000 Ang^3
#
#
#
# Elastic Constant Matrix: (Units=GPa)
#
#
# Indices 1 2 3 4 5 6 
#
# 1 92.0341 36.5968 37.7344 0.0000 10.9813 0.0002
# 2 36.5968 77.3135 22.6764 0.0000 18.3667 0.0005
# 3 37.7344 22.6764 86.7103 0.0000 17.7739 0.0000
# 4 0.0000 0.0000 0.0000 26.2543 0.0000 2.8006
# 5 10.9813 18.3667 17.7739 0.0000 21.3570 0.0000
# 6 0.0002 0.0005 0.0000 2.8006 0.0000 18.8579
#
#
#
# Elastic Compliance Matrix: (Units=1/GPa)
#
#
# Indices 1 2 3 4 5 6 
#
# 1 0.015298 -0.006097 -0.005456 0.000000 0.001918 0.000000
# 2 -0.006097 0.018888 0.000483 0.000000 -0.013511 0.000000
# 3 -0.005456 0.000483 0.016024 0.000000 -0.010946 0.000000
# 4 0.000000 0.000000 0.000000 0.038702 0.000000 -0.005748
# 5 0.001918 -0.013511 -0.010946 0.000000 0.066566 0.000000
# 6 0.000000 0.000000 0.000000 -0.005748 0.000000 0.053882
#
#
# Mechanical properties :
#
#
# Convention : Reuss Voigt Hill
#
# Bulk Modulus (GPa) = 35.62389 50.00813 42.81601
# Shear Modulus (GPa) = 20.75920 23.89718 22.32819
#
# Velocity S-wave (km/s) = 3.35306 3.59757 3.47747
# Velocity P-wave (km/s) = 5.85528 6.65888 6.26997
#
# Compressibility (1/GPa) = 0.02807105
#
# Stress axis : x y z
#
# Youngs Moduli (GPa) = 65.36782 52.94290 62.40468
#
# Poissons Ratio (x) = 0.32278 0.34049
# Poissons Ratio (y) = 0.39853 -0.03014
# Poissons Ratio (z) = 0.35665 -0.02557
#
# Static dielectric constant tensor:
#      x y z
#    x 3.710680 0.000000 0.171450 
#    y 0.000000 2.929400 0.000000 
#    z 0.171450 0.000000 3.739160 
# 
# 
# High freq. dielectric constant tensor:
#      x y z
#    x 1.721350 0.000000 0.012260 
#    y 0.000000 1.662950 0.000000 
#    z 0.012260 0.000000 1.744340 
# 
# From -- ./inp_files/300491.got.cif
#   From: 2010.06.25/outbox.cif.g09.slc.cpg/sg15_151_cif.got.tgz:300491.got - 2010.06.28 07:06:18.
