data_PCOD8131256
_publ_section_title
;
Structure prediction by ZEFSAII (Michael W. Deem and Ramdas Pophale) SiO2 
 PCOD8131256
Probable space group: C 2/C
;
_chemical_formula_sum "Si O2"
_cell_formula_units_Z 56
_cell_length_a 15.472542
_cell_length_b 26.547837
_cell_length_c 8.932264
_cell_angle_alpha 90.000000
_cell_angle_beta 126.254365
_cell_angle_gamma 90.000000
_cell_volume 2958.711652
_symmetry_space_group_name_H-M "C 2/C"
_symmetry_group_IT_number 15
_symmetry_cell_setting 'monoclinic'
loop_
_space_group_symop_operation_xyz
x,y,z
-x,y,1/2-z
-x,-y,-z
x,-y,1/2+z
1/2+x,1/2+y,z
1/2-x,1/2+y,1/2-z
1/2-x,1/2-y,-z
1/2+x,1/2-y,1/2+z
loop_
_atom_site_type_symbol
_atom_site_label
_atom_site_fract_x
_atom_site_fract_y
_atom_site_fract_z
Si Si1 0.780823 0.663627 0.698589
Si Si2 0.956542 0.202502 0.043218
Si Si3 0.098880 0.374271 0.451574
Si Si4 0.766108 0.043816 0.149568
Si Si5 0.702649 0.443963 0.163144
Si Si6 0.980884 0.906019 0.906940
Si Si7 0.013520 0.301271 0.938806
O O1 0.669953 0.692982 0.574693
O O2 0.824231 0.660171 0.572873
O O3 0.767047 0.607741 0.753650
O O4 0.862127 0.693345 0.888522
O O5 0.000000 0.219984 0.250000
O O6 0.017564 0.152765 0.044411
O O7 0.975787 0.245538 0.941893
O O8 0.161924 0.422745 0.578308
O O9 0.000000 0.393763 0.250000
O O10 0.059147 0.342152 0.551057
O O11 0.868748 0.068737 0.338650
O O12 0.744191 0.987563 0.184132
O O13 0.790364 0.039536 0.000671
O O14 0.578278 0.436399 0.084429
O O15 0.000000 0.906235 0.750000
O O16 0.000000 0.310235 0.750000
#
# Coordination Sequence:
#
# PCOD8131256 Si02
#       7
#     8   8   8   8   8   8   8
#     4   9  20  39  57  77 108 140 181 223 253 312
#     4  10  19  35  61  82 101 141 184 216 260 314
#     4   9  19  37  56  75 102 139 183 220 253 308
#     4  10  18  32  54  78 105 136 174 215 258 309
#     4   9  18  32  52  79 107 137 170 212 263 309
#     4   8  16  31  52  79 107 135 172 211 251 314
#     4  11  24  38  53  79 111 140 173 221 276 319
#
# _framework density 18.927157000000001
#
# number of rings (size 3 to 8) (size 9 to 14) (size 15 to 20)
#    0.000    2.571    0.000    4.286    0.000    5.143 
#    0.000   10.000    0.000    0.000    0.000    0.000 
#    0.000    0.000    0.000    0.000    0.000    0.000 
#
# Total GULP energy -347216.069083 kJ/mol
# GULP energy per Si atom -12400.573896 kJ/mol
# Density = 1.888408 g / cm^3
# Si number density = 18.927157 Si / 1000 Ang^3
#
#
#
# Elastic Constant Matrix: (Units=GPa)
#
#
# Indices 1 2 3 4 5 6 
#
# 1 92.4417 55.8400 48.3941 0.0000 17.8458 0.0000
# 2 55.8400 115.9710 53.5392 0.0000 6.6317 0.0000
# 3 48.3941 53.5392 85.2191 0.0000 7.7371 0.0000
# 4 0.0000 0.0000 0.0000 32.6109 0.0000 1.7805
# 5 17.8458 6.6317 7.7371 0.0000 25.8152 0.0000
# 6 0.0000 0.0000 0.0000 1.7805 0.0000 22.0141
#
#
#
# Elastic Compliance Matrix: (Units=1/GPa)
#
#
# Indices 1 2 3 4 5 6 
#
# 1 0.019818 -0.005903 -0.006619 0.000000 -0.010199 0.000000
# 2 -0.005903 0.013922 -0.005592 0.000000 0.002180 0.000000
# 3 -0.006619 -0.005592 0.018978 0.000000 0.000325 0.000000
# 4 0.000000 0.000000 0.000000 0.030801 0.000000 -0.002491
# 5 -0.010199 0.002180 0.000325 0.000000 0.045130 0.000000
# 6 0.000000 0.000000 0.000000 -0.002491 0.000000 0.045627
#
#
# Mechanical properties :
#
#
# Convention : Reuss Voigt Hill
#
# Bulk Modulus (GPa) = 60.65164 67.68650 64.16907
# Shear Modulus (GPa) = 23.14802 25.14526 24.14664
#
# Velocity S-wave (km/s) = 3.50094 3.64885 3.57566
# Velocity P-wave (km/s) = 6.96107 7.32061 7.14310
#
# Compressibility (1/GPa) = 0.01648760
#
# Stress axis : x y z
#
# Youngs Moduli (GPa) = 50.45982 71.82725 52.69393
#
# Poissons Ratio (x) = 0.42400 0.34881
# Poissons Ratio (y) = 0.29787 0.29469
# Poissons Ratio (z) = 0.33402 0.40169
#
# Static dielectric constant tensor:
#      x y z
#    x 3.469340 0.000000 0.300680 
#    y 0.000000 3.493990 0.000000 
#    z 0.300680 0.000000 3.334850 
# 
# 
# High freq. dielectric constant tensor:
#      x y z
#    x 1.725610 0.000000 0.022600 
#    y 0.000000 1.740060 0.000000 
#    z 0.022600 0.000000 1.718120 
# 
# From -- ./inp_files/43440.got.cif
#   From: 2010.06.25/outbox.cif.g09.slc.cpg/sg15_22_cif.got.tgz:43440.got - 2010.06.28 07:06:18.
