data_PCOD8131890
_publ_section_title
;
Structure prediction by ZEFSAII (Michael W. Deem and Ramdas Pophale) SiO2 
 PCOD8131890
Probable space group: C 2/C
;
_chemical_formula_sum "Si O2"
_cell_formula_units_Z 40
_cell_length_a 9.666252
_cell_length_b 22.698055
_cell_length_c 8.217033
_cell_angle_alpha 90.000000
_cell_angle_beta 88.814884
_cell_angle_gamma 90.000000
_cell_volume 1802.473458
_symmetry_space_group_name_H-M "C 2/C"
_symmetry_group_IT_number 15
_symmetry_cell_setting 'monoclinic'
loop_
_space_group_symop_operation_xyz
x,y,z
-x,y,1/2-z
-x,-y,-z
x,-y,1/2+z
1/2+x,1/2+y,z
1/2-x,1/2+y,1/2-z
1/2-x,1/2-y,-z
1/2+x,1/2-y,1/2+z
loop_
_atom_site_type_symbol
_atom_site_label
_atom_site_fract_x
_atom_site_fract_y
_atom_site_fract_z
Si Si1 0.000000 0.976722 0.750000
Si Si2 0.281599 0.764219 0.811964
Si Si3 0.438005 0.112775 0.586385
Si Si4 0.374226 0.576725 0.959103
Si Si5 0.000000 0.363537 0.750000
Si Si6 0.000000 0.170518 0.750000
Si Si7 0.000000 0.726676 0.750000
O O1 0.897374 0.935146 0.648816
O O2 0.098909 0.016018 0.635729
O O3 0.360848 0.825547 0.782880
O O4 0.366438 0.711160 0.726410
O O5 0.134791 0.767526 0.718982
O O6 0.250000 0.750000 0.000000
O O7 0.500000 0.082109 0.750000
O O8 0.277953 0.097954 0.580715
O O9 0.513709 0.095497 0.413054
O O10 0.464690 0.183734 0.597448
O O11 0.481295 0.628280 0.906684
#
# Coordination Sequence:
#
# PCOD8131890 Si02
#       7
#     4   8   8   8   4   4   4
#     4   9  22  39  71  90 118 156 194 268 312 397
#     4  11  20  38  56  89 127 165 217 254 292 359
#     4  10  21  42  61  89 129 163 204 263 306 377
#     4  10  19  43  62  95 122 151 207 253 324 378
#     4  11  22  39  64  87 128 174 219 247 306 359
#     4  10  18  34  66  80 123 169 192 264 304 350
#     4  10  20  38  57  79 125 171 195 269 294 342
#
# _framework density 22.191727
#
# number of rings (size 3 to 8) (size 9 to 14) (size 15 to 20)
#    0.600    1.200    4.000    0.000    0.000    0.800 
#   18.000    3.000    6.600    0.000    0.000    0.000 
#    0.000    0.000    0.000    0.000    0.000    0.000 
#
# Total GULP energy -247797.571357 kJ/mol
# GULP energy per Si atom -12389.878568 kJ/mol
# Density = 2.214122 g / cm^3
# Si number density = 22.191727 Si / 1000 Ang^3
#
#
#
# Elastic Constant Matrix: (Units=GPa)
#
#
# Indices 1 2 3 4 5 6 
#
# 1 173.3599 32.2811 64.1617 0.0000 12.1910 0.0000
# 2 32.2811 41.3617 28.5657 0.0000 7.1368 0.0000
# 3 64.1617 28.5657 164.7835 0.0000 8.6564 0.0000
# 4 0.0000 0.0000 0.0000 12.8666 0.0000 2.4375
# 5 12.1910 7.1368 8.6564 0.0000 33.2349 0.0000
# 6 0.0000 0.0000 0.0000 2.4375 0.0000 19.8485
#
#
#
# Elastic Compliance Matrix: (Units=1/GPa)
#
#
# Indices 1 2 3 4 5 6 
#
# 1 0.007401 -0.004102 -0.002103 0.000000 -0.001286 0.000000
# 2 -0.004102 0.030489 -0.003471 0.000000 -0.004139 0.000000
# 3 -0.002103 -0.003471 0.007512 0.000000 -0.000440 0.000000
# 4 0.000000 0.000000 0.000000 0.079572 0.000000 -0.009772
# 5 -0.001286 -0.004139 -0.000440 0.000000 0.031564 0.000000
# 6 0.000000 0.000000 0.000000 -0.009772 0.000000 0.051582
#
#
# Mechanical properties :
#
#
# Convention : Reuss Voigt Hill
#
# Bulk Modulus (GPa) = 38.38611 69.94691 54.16651
# Shear Modulus (GPa) = 21.17254 30.15646 25.66450
#
# Velocity S-wave (km/s) = 3.09216 3.69033 3.40441
# Velocity P-wave (km/s) = 5.48486 7.05307 6.31781
#
# Compressibility (1/GPa) = 0.02605109
#
# Stress axis : x y z
#
# Youngs Moduli (GPa) = 135.11797 32.79830 133.11594
#
# Poissons Ratio (x) = 0.13453 0.27995
# Poissons Ratio (y) = 0.55422 0.46204
# Poissons Ratio (z) = 0.28417 0.11384
#
# Static dielectric constant tensor:
#      x y z
#    x 4.078780 0.000000 -0.016340 
#    y 0.000000 3.781520 0.000000 
#    z -0.016340 0.000000 4.326260 
# 
# 
# High freq. dielectric constant tensor:
#      x y z
#    x 1.872150 0.000000 -0.002700 
#    y 0.000000 1.840390 0.000000 
#    z -0.002700 0.000000 1.877720 
# 
# From -- ./inp_files/24492.got.cif
#   From: 2010.06.25/outbox.cif.g09.slc.cpg/sg15_13_cif.got.tgz:24492.got - 2010.06.28 07:06:18.
