data_PCOD8131362
_publ_section_title
;
Structure prediction by ZEFSAII (Michael W. Deem and Ramdas Pophale) SiO2 
 PCOD8131362
Probable space group: C 2/C
;
_chemical_formula_sum "Si O2"
_cell_formula_units_Z 60
_cell_length_a 9.824061
_cell_length_b 15.938711
_cell_length_c 21.089428
_cell_angle_alpha 90.000000
_cell_angle_beta 117.255450
_cell_angle_gamma 90.000000
_cell_volume 2935.606924
_symmetry_space_group_name_H-M "C 2/C"
_symmetry_group_IT_number 15
_symmetry_cell_setting 'monoclinic'
loop_
_space_group_symop_operation_xyz
x,y,z
-x,y,1/2-z
-x,-y,-z
x,-y,1/2+z
1/2+x,1/2+y,z
1/2-x,1/2+y,1/2-z
1/2-x,1/2-y,-z
1/2+x,1/2-y,1/2+z
loop_
_atom_site_type_symbol
_atom_site_label
_atom_site_fract_x
_atom_site_fract_y
_atom_site_fract_z
Si Si1 0.718720 0.161152 0.728703
Si Si2 0.020941 0.517112 0.826608
Si Si3 0.050596 0.017682 0.376530
Si Si4 0.661567 0.399830 0.113451
Si Si5 0.500000 0.584990 0.750000
Si Si6 0.400029 0.946031 0.930019
Si Si7 0.796994 0.737454 0.438709
Si Si8 0.510041 0.688513 0.181111
O O1 0.572518 0.102772 0.689367
O O2 0.799351 0.147615 0.812998
O O3 0.661690 0.255847 0.705755
O O4 0.849530 0.142067 0.704122
O O5 0.959132 0.455451 0.869610
O O6 0.000000 0.478515 0.750000
O O7 0.196319 0.541881 0.878562
O O8 0.230913 0.016217 0.403104
O O9 0.986180 0.112283 0.368324
O O10 0.988683 0.960726 0.421059
O O11 0.960423 0.975208 0.299478
O O12 0.613150 0.323610 0.057083
O O13 0.397701 0.846864 0.947775
O O14 0.500000 0.000000 0.000000
O O15 0.750000 0.750000 0.500000
O O16 0.644451 0.740718 0.363259
O O17 0.500000 0.651764 0.250000
#
# Coordination Sequence:
#
# PCOD8131362 Si02
#       8
#     8   8   8   8   4   8   8   8
#     4  10  18  33  60  90 124 160 197 258 308 377
#     4  10  19  37  64  89 126 166 211 264 323 379
#     4  10  22  37  64  90 125 164 206 268 310 382
#     4  10  20  38  62  93 121 160 207 261 318 369
#     4  10  18  32  58  88 124 156 196 250 330 358
#     4  11  24  42  65  93 127 175 222 261 319 392
#     4  11  23  39  64  93 122 169 215 260 311 393
#     4  11  19  36  62  89 118 159 212 251 304 382
#
# _framework density 20.438703
#
# number of rings (size 3 to 8) (size 9 to 14) (size 15 to 20)
#    0.000    1.600    4.667    1.200    0.000    0.000 
#    0.000    9.333    1.467    0.000    0.000    0.000 
#    0.000    0.000    0.000    0.000    0.000    0.000 
#
# Total GULP energy -371661.647126 kJ/mol
# GULP energy per Si atom -12388.721571 kJ/mol
# Density = 2.039218 g / cm^3
# Si number density = 20.438703 Si / 1000 Ang^3
#
#
#
# Elastic Constant Matrix: (Units=GPa)
#
#
# Indices 1 2 3 4 5 6 
#
# 1 114.4575 60.0214 23.5724 0.0000 -5.9257 0.0000
# 2 60.0214 124.0643 29.1602 0.0000 -15.4756 0.0000
# 3 23.5724 29.1602 66.0099 0.0000 -14.9331 0.0000
# 4 0.0000 0.0000 0.0000 22.7109 0.0000 -6.8569
# 5 -5.9257 -15.4756 -14.9331 0.0000 28.7629 0.0000
# 6 0.0000 0.0000 0.0000 -6.8569 0.0000 41.7187
#
#
#
# Elastic Compliance Matrix: (Units=1/GPa)
#
#
# Indices 1 2 3 4 5 6 
#
# 1 0.011984 -0.005478 -0.002230 0.000000 -0.001636 0.000000
# 2 -0.005478 0.011756 -0.002336 0.000000 0.003984 0.000000
# 3 -0.002230 -0.002336 0.018797 0.000000 0.008043 0.000000
# 4 0.000000 0.000000 0.000000 0.046331 0.000000 0.007615
# 5 -0.001636 0.003984 0.008043 0.000000 0.040749 0.000000
# 6 0.000000 0.000000 0.000000 0.007615 0.000000 0.025222
#
#
# Mechanical properties :
#
#
# Convention : Reuss Voigt Hill
#
# Bulk Modulus (GPa) = 44.54308 58.89330 51.71819
# Shear Modulus (GPa) = 27.41086 31.42369 29.41727
#
# Velocity S-wave (km/s) = 3.66611 3.92530 3.79792
# Velocity P-wave (km/s) = 6.30566 7.03002 6.67766
#
# Compressibility (1/GPa) = 0.02245018
#
# Stress axis : x y z
#
# Youngs Moduli (GPa) = 83.44538 85.05971 53.20018
#
# Poissons Ratio (x) = 0.46593 0.11863
# Poissons Ratio (y) = 0.45709 0.12428
# Poissons Ratio (z) = 0.18607 0.19870
#
# Static dielectric constant tensor:
#      x y z
#    x 4.058680 0.000000 -0.136430 
#    y 0.000000 3.784190 0.000000 
#    z -0.136430 0.000000 3.603960 
# 
# 
# High freq. dielectric constant tensor:
#      x y z
#    x 1.793260 0.000000 -0.002210 
#    y 0.000000 1.797120 0.000000 
#    z -0.002210 0.000000 1.781530 
# 
# From -- ./inp_files/232763.got.cif
#   From: 2010.06.25/outbox.cif.g09.slc.cpg/sg15_117_cif.got.tgz:232763.got - 2010.06.28 07:06:18.
