data_PCOD8131743
_publ_section_title
;
Structure prediction by ZEFSAII (Michael W. Deem and Ramdas Pophale) SiO2 
 PCOD8131743
Probable space group: C 2/C
;
_chemical_formula_sum "Si O2"
_cell_formula_units_Z 60
_cell_length_a 29.511660
_cell_length_b 22.631413
_cell_length_c 16.761965
_cell_angle_alpha 90.000000
_cell_angle_beta 162.564475
_cell_angle_gamma 90.000000
_cell_volume 3354.432042
_symmetry_space_group_name_H-M "C 2/C"
_symmetry_group_IT_number 15
_symmetry_cell_setting 'monoclinic'
loop_
_space_group_symop_operation_xyz
x,y,z
-x,y,1/2-z
-x,-y,-z
x,-y,1/2+z
1/2+x,1/2+y,z
1/2-x,1/2+y,1/2-z
1/2-x,1/2-y,-z
1/2+x,1/2-y,1/2+z
loop_
_atom_site_type_symbol
_atom_site_label
_atom_site_fract_x
_atom_site_fract_y
_atom_site_fract_z
Si Si1 0.179075 0.326665 0.546145
Si Si2 0.272548 0.935725 0.773849
Si Si3 0.655386 0.965029 0.978732
Si Si4 0.778714 0.142333 0.037429
Si Si5 0.000000 0.995441 0.750000
Si Si6 0.594856 0.602608 0.531038
Si Si7 0.433845 0.963954 0.317027
Si Si8 0.178694 0.803623 0.053314
O O1 0.268490 0.373498 0.752205
O O2 0.221907 0.330799 0.524775
O O3 0.230215 0.262232 0.665323
O O4 0.000000 0.337689 0.250000
O O5 0.429759 0.926487 0.991950
O O6 0.145224 0.960449 0.498469
O O7 0.299846 0.980484 0.890952
O O8 0.500000 0.936005 0.750000
O O9 0.637537 0.986673 0.859464
O O10 0.792496 0.918881 0.210702
O O11 0.960408 0.136920 0.348988
O O12 0.699078 0.080390 0.882489
O O13 0.743700 0.183573 0.902032
O O14 0.987425 0.951719 0.653338
O O15 0.705883 0.643477 0.662232
O O16 0.500000 0.000000 0.500000
O O17 0.000000 0.802944 0.750000
#
# Coordination Sequence:
#
# PCOD8131743 Si02
#       8
#     8   8   8   8   4   8   8   8
#     4  11  19  36  54  77 110 144 185 227 272 321
#     4  10  19  36  52  77 108 146 175 222 267 325
#     4   9  19  34  54  75 108 145 175 219 269 327
#     4  11  19  33  52  84 109 136 180 226 273 323
#     4  10  18  34  58  74 112 140 176 220 270 324
#     4  10  19  36  54  81 110 139 184 223 277 326
#     4  11  21  32  52  82 112 137 177 214 277 334
#     4   9  20  33  56  80 105 142 182 234 273 312
#
# _framework density 17.886783000000001
#
# number of rings (size 3 to 8) (size 9 to 14) (size 15 to 20)
#    0.000    1.867    4.667    1.600    3.733    0.533 
#    2.400    0.000    1.467    0.000    0.000    2.800 
#    0.000    0.000    0.000    0.000    0.000    0.000 
#
# Total GULP energy -371693.956995 kJ/mol
# GULP energy per Si atom -12389.798566 kJ/mol
# Density = 1.784607 g / cm^3
# Si number density = 17.886783 Si / 1000 Ang^3
#
#
#
# Elastic Constant Matrix: (Units=GPa)
#
#
# Indices 1 2 3 4 5 6 
#
# 1 93.6277 33.1811 27.1536 -0.0001 3.8728 -0.0002
# 2 33.1811 80.8375 31.1633 0.0000 -2.9804 0.0000
# 3 27.1536 31.1633 78.8027 -0.0005 -8.7989 -0.0006
# 4 -0.0001 0.0000 -0.0005 87.2417 -0.0002 101.9289
# 5 3.8728 -2.9804 -8.7989 -0.0002 24.1630 -0.0003
# 6 -0.0002 0.0000 -0.0006 101.9289 -0.0003 168.3972
#
#
#
# Elastic Compliance Matrix: (Units=1/GPa)
#
#
# Indices 1 2 3 4 5 6 
#
# 1 0.013341 -0.004342 -0.003313 0.000000 -0.003880 0.000000
# 2 -0.004342 0.016011 -0.004730 0.000000 0.000948 0.000000
# 3 -0.003313 -0.004730 0.016361 0.000000 0.005906 0.000000
# 4 0.000000 0.000000 0.000000 0.039146 0.000000 -0.023695
# 5 -0.003880 0.000948 0.005906 0.000000 0.044275 0.000000
# 6 0.000000 0.000000 0.000000 -0.023695 0.000000 0.020280
#
#
# Mechanical properties :
#
#
# Convention : Reuss Voigt Hill
#
# Bulk Modulus (GPa) = 47.74693 48.47377 48.11035
# Shear Modulus (GPa) = 27.59915 66.74504 47.17210
#
# Velocity S-wave (km/s) = 3.93235 6.11525 5.14100
# Velocity P-wave (km/s) = 6.88257 8.77615 7.88640
#
# Compressibility (1/GPa) = 0.02094375
#
# Stress axis : x y z
#
# Youngs Moduli (GPa) = 74.95892 62.45733 61.11958
#
# Poissons Ratio (x) = 0.27117 0.20250
# Poissons Ratio (y) = 0.32545 0.28908
# Poissons Ratio (z) = 0.24835 0.29541
#
# Static dielectric constant tensor:
#      x y z
#    x 3.269960 0.000000 0.135150 
#    y 0.000000 3.977050 0.000000 
#    z 0.135150 0.000000 3.377510 
# 
# 
# High freq. dielectric constant tensor:
#      x y z
#    x 1.690080 0.000000 0.010370 
#    y 0.000000 1.685550 0.000000 
#    z 0.010370 0.000000 1.669160 
# 
# From -- ./inp_files/179297.got.cif
#   From: 2010.06.25/outbox.cif.g09.slc.cpg/sg15_90_cif.got.tgz:179297.got - 2010.06.28 07:06:18.
