data_PCOD8131156
_publ_section_title
;
Structure prediction by ZEFSAII (Michael W. Deem and Ramdas Pophale) SiO2 
 PCOD8131156
Probable space group: C 2/C
;
_chemical_formula_sum "Si O2"
_cell_formula_units_Z 56
_cell_length_a 9.368902
_cell_length_b 20.696503
_cell_length_c 14.986374
_cell_angle_alpha 90.000000
_cell_angle_beta 96.832489
_cell_angle_gamma 90.000000
_cell_volume 2885.273326
_symmetry_space_group_name_H-M "C 2/C"
_symmetry_group_IT_number 15
_symmetry_cell_setting 'monoclinic'
loop_
_space_group_symop_operation_xyz
x,y,z
-x,y,1/2-z
-x,-y,-z
x,-y,1/2+z
1/2+x,1/2+y,z
1/2-x,1/2+y,1/2-z
1/2-x,1/2-y,-z
1/2+x,1/2-y,1/2+z
loop_
_atom_site_type_symbol
_atom_site_label
_atom_site_fract_x
_atom_site_fract_y
_atom_site_fract_z
Si Si1 0.500000 0.912804 0.750000
Si Si2 0.095290 0.552011 0.957623
Si Si3 0.614862 0.839411 0.592323
Si Si4 0.104767 0.370445 0.186012
Si Si5 0.891018 0.265272 0.455044
Si Si6 0.069326 0.820882 0.844249
Si Si7 0.260500 0.016879 0.698457
Si Si8 0.500000 0.444915 0.750000
O O1 0.521801 0.865238 0.668109
O O2 0.363320 0.958678 0.735469
O O3 0.226026 0.524236 0.907978
O O4 0.988832 0.580995 0.877819
O O5 0.162393 0.601802 0.032304
O O6 0.000000 0.500000 0.000000
O O7 0.511251 0.793045 0.529415
O O8 0.761883 0.801496 0.630841
O O9 0.165473 0.315073 0.125438
O O10 0.220237 0.415392 0.246056
O O11 0.000000 0.336006 0.250000
O O12 0.750000 0.250000 0.500000
O O13 0.967072 0.202228 0.417740
O O14 0.000000 0.788798 0.750000
O O15 0.069121 0.898956 0.832027
O O16 0.103247 0.993105 0.706801
#
# Coordination Sequence:
#
# PCOD8131156 Si02
#       8
#     4   8   8   8   8   8   8   4
#     4  12  18  36  67  89 122 166 216 248 308 398
#     4  10  18  31  60  94 118 155 203 258 300 374
#     4  11  23  38  64  92 124 162 217 260 316 369
#     4   9  19  37  62  84 117 166 201 248 310 374
#     4  11  25  41  63  93 123 162 220 269 306 370
#     4  10  23  43  65  84 126 170 207 252 321 376
#     4  11  19  38  62  92 128 160 209 254 318 386
#     4  10  24  36  63  93 130 166 200 256 324 382
#
# _framework density 19.408906000000002
#
# number of rings (size 3 to 8) (size 9 to 14) (size 15 to 20)
#    0.429    1.143    5.000    0.857    4.000    0.000 
#    2.571    0.714    0.000    0.000    0.000    0.000 
#    0.000    0.000    0.000    0.000    0.000    0.000 
#
# Total GULP energy -346908.702649 kJ/mol
# GULP energy per Si atom -12389.596523 kJ/mol
# Density = 1.936473 g / cm^3
# Si number density = 19.408906 Si / 1000 Ang^3
#
#
#
# Elastic Constant Matrix: (Units=GPa)
#
#
# Indices 1 2 3 4 5 6 
#
# 1 122.1912 46.5246 57.9742 0.0000 -20.7459 0.0000
# 2 46.5246 76.7791 51.4416 0.0000 -18.7024 0.0000
# 3 57.9742 51.4416 132.2565 0.0000 -21.1834 0.0000
# 4 0.0000 0.0000 0.0000 25.2070 0.0000 -13.8182
# 5 -20.7459 -18.7024 -21.1834 0.0000 40.3084 0.0000
# 6 0.0000 0.0000 0.0000 -13.8182 0.0000 27.5383
#
#
#
# Elastic Compliance Matrix: (Units=1/GPa)
#
#
# Indices 1 2 3 4 5 6 
#
# 1 0.011732 -0.004520 -0.003007 0.000000 0.002361 0.000000
# 2 -0.004520 0.020327 -0.005227 0.000000 0.004358 0.000000
# 3 -0.003007 -0.005227 0.011220 0.000000 0.001924 0.000000
# 4 0.000000 0.000000 0.000000 0.054725 0.000000 0.027460
# 5 0.002361 0.004358 0.001924 0.000000 0.029057 0.000000
# 6 0.000000 0.000000 0.000000 0.027460 0.000000 0.050092
#
#
# Mechanical properties :
#
#
# Convention : Reuss Voigt Hill
#
# Bulk Modulus (GPa) = 56.26607 71.45641 63.86124
# Shear Modulus (GPa) = 23.97122 30.29650 27.13386
#
# Velocity S-wave (km/s) = 3.51816 3.95518 3.74305
# Velocity P-wave (km/s) = 6.74952 7.59962 7.18715
#
# Compressibility (1/GPa) = 0.01777270
#
# Stress axis : x y z
#
# Youngs Moduli (GPa) = 85.23593 49.19654 89.12487
#
# Poissons Ratio (x) = 0.22235 0.26797
# Poissons Ratio (y) = 0.38523 0.46585
# Poissons Ratio (z) = 0.25628 0.25715
#
# Static dielectric constant tensor:
#      x y z
#    x 3.431430 0.000000 -0.165550 
#    y 0.000000 3.535880 0.000000 
#    z -0.165550 0.000000 3.587130 
# 
# 
# High freq. dielectric constant tensor:
#      x y z
#    x 1.734810 0.000000 -0.011130 
#    y 0.000000 1.750330 0.000000 
#    z -0.011130 0.000000 1.771230 
# 
# From -- ./inp_files/136491.got.cif
#   From: 2010.06.25/outbox.cif.g09.slc.cpg/sg15_69_cif.got.tgz:136491.got - 2010.06.28 07:06:18.
