data_PCOD8131821
_publ_section_title
;
Structure prediction by ZEFSAII (Michael W. Deem and Ramdas Pophale) SiO2 
 PCOD8131821
Probable space group: C 2/C
;
_chemical_formula_sum "Si O2"
_cell_formula_units_Z 60
_cell_length_a 17.784486
_cell_length_b 10.290738
_cell_length_c 13.965717
_cell_angle_alpha 90.000000
_cell_angle_beta 88.210448
_cell_angle_gamma 90.000000
_cell_volume 2554.695877
_symmetry_space_group_name_H-M "C 2/C"
_symmetry_group_IT_number 15
_symmetry_cell_setting 'monoclinic'
loop_
_space_group_symop_operation_xyz
x,y,z
-x,y,1/2-z
-x,-y,-z
x,-y,1/2+z
1/2+x,1/2+y,z
1/2-x,1/2+y,1/2-z
1/2-x,1/2-y,-z
1/2+x,1/2-y,1/2+z
loop_
_atom_site_type_symbol
_atom_site_label
_atom_site_fract_x
_atom_site_fract_y
_atom_site_fract_z
Si Si1 0.909844 0.863470 0.009427
Si Si2 0.733726 0.306040 0.376884
Si Si3 0.000000 0.551313 0.250000
Si Si4 0.560619 0.084673 0.444861
Si Si5 0.657804 0.990571 0.679959
Si Si6 0.718895 0.015337 0.385634
Si Si7 0.827101 0.201118 0.835101
Si Si8 0.967479 0.965283 0.351254
O O1 0.826444 0.878577 0.054151
O O2 0.930584 0.713690 0.994926
O O3 0.964734 0.933204 0.081560
O O4 0.915746 0.925289 0.903605
O O5 0.808671 0.393421 0.386376
O O6 0.751922 0.158884 0.412398
O O7 0.702058 0.299378 0.271516
O O8 0.962672 0.630014 0.162832
O O9 0.929985 0.471185 0.298297
O O10 0.637597 0.999732 0.440033
O O11 0.500000 0.000000 0.500000
O O12 0.707146 0.987121 0.772899
O O13 0.669390 0.850322 0.627298
O O14 0.775358 0.893693 0.404864
O O15 0.914044 0.157680 0.832820
O O16 0.000000 0.019800 0.250000
#
# Coordination Sequence:
#
# PCOD8131821 Si02
#       8
#     8   8   4   8   8   8   8   8
#     4  10  22  40  63  92 121 162 208 259 313 366
#     4   9  17  37  60  84 123 162 206 255 306 368
#     4  10  20  38  66  92 116 172 216 246 312 368
#     4  10  21  42  63  89 123 164 209 257 306 374
#     4   9  18  32  62  89 114 159 214 255 297 367
#     4   8  18  35  58  85 123 158 199 257 315 366
#     4  10  18  34  60  89 117 161 206 252 315 366
#     4  11  22  39  63  91 124 160 206 259 312 374
#
# _framework density 23.486160000000002
#
# number of rings (size 3 to 8) (size 9 to 14) (size 15 to 20)
#    0.000    2.400    1.333    1.600    1.867    0.000 
#   10.800    3.333    0.000    0.000    0.000    0.000 
#    0.000    0.000    0.000    0.000    0.000    0.000 
#
# Total GULP energy -371753.975979 kJ/mol
# GULP energy per Si atom -12391.799199 kJ/mol
# Density = 2.343270 g / cm^3
# Si number density = 23.486160 Si / 1000 Ang^3
#
#
#
# Elastic Constant Matrix: (Units=GPa)
#
#
# Indices 1 2 3 4 5 6 
#
# 1 135.2056 74.1845 38.4834 0.0000 -38.9077 0.0000
# 2 74.1845 123.1848 45.3993 0.0000 -38.1818 0.0000
# 3 38.4834 45.3993 73.4131 0.0000 -20.0081 0.0000
# 4 0.0000 0.0000 0.0000 26.5677 0.0000 -8.3185
# 5 -38.9077 -38.1818 -20.0081 0.0000 51.0273 0.0000
# 6 0.0000 0.0000 0.0000 -8.3185 0.0000 36.4013
#
#
#
# Elastic Compliance Matrix: (Units=1/GPa)
#
#
# Indices 1 2 3 4 5 6 
#
# 1 0.012092 -0.005151 -0.001893 0.000000 0.004623 0.000000
# 2 -0.005151 0.014618 -0.004959 0.000000 0.005066 0.000000
# 3 -0.001893 -0.004959 0.018223 0.000000 0.001992 0.000000
# 4 0.000000 0.000000 0.000000 0.040540 0.000000 0.009264
# 5 0.004623 0.005066 0.001992 0.000000 0.027694 0.000000
# 6 0.000000 0.000000 0.000000 0.009264 0.000000 0.029589
#
#
# Mechanical properties :
#
#
# Convention : Reuss Voigt Hill
#
# Bulk Modulus (GPa) = 47.78610 71.99310 59.88960
# Shear Modulus (GPa) = 28.77908 34.38169 31.58038
#
# Velocity S-wave (km/s) = 3.50432 3.83026 3.67091
# Velocity P-wave (km/s) = 6.06336 7.09092 6.59718
#
# Compressibility (1/GPa) = 0.02092659
#
# Stress axis : x y z
#
# Youngs Moduli (GPa) = 82.70137 68.40955 54.87513
#
# Poissons Ratio (x) = 0.35240 0.10387
# Poissons Ratio (y) = 0.42602 0.27212
# Poissons Ratio (z) = 0.15655 0.33923
#
# Static dielectric constant tensor:
#      x y z
#    x 4.458910 0.000000 -0.037290 
#    y 0.000000 4.360120 0.000000 
#    z -0.037290 0.000000 4.348160 
# 
# 
# High freq. dielectric constant tensor:
#      x y z
#    x 1.948930 0.000000 0.006170 
#    y 0.000000 1.907400 0.000000 
#    z 0.006170 0.000000 1.931250 
# 
# From -- ./inp_files/160902.got.cif
#   From: 2010.06.25/outbox.cif.g09.slc.cpg/sg15_81_cif.got.tgz:160902.got - 2010.06.28 07:06:18.
