data_PCOD8131006
_publ_section_title
;
Structure prediction by ZEFSAII (Michael W. Deem and Ramdas Pophale) SiO2 
 PCOD8131006
Probable space group: C 2/C
;
_chemical_formula_sum "Si O2"
_cell_formula_units_Z 48
_cell_length_a 26.418213
_cell_length_b 13.306021
_cell_length_c 9.030948
_cell_angle_alpha 90.000000
_cell_angle_beta 110.752605
_cell_angle_gamma 90.000000
_cell_volume 2968.601561
_symmetry_space_group_name_H-M "C 2/C"
_symmetry_group_IT_number 15
_symmetry_cell_setting 'monoclinic'
loop_
_space_group_symop_operation_xyz
x,y,z
-x,y,1/2-z
-x,-y,-z
x,-y,1/2+z
1/2+x,1/2+y,z
1/2-x,1/2+y,1/2-z
1/2-x,1/2-y,-z
1/2+x,1/2-y,1/2+z
loop_
_atom_site_type_symbol
_atom_site_label
_atom_site_fract_x
_atom_site_fract_y
_atom_site_fract_z
Si Si1 0.945808 0.384594 0.003517
Si Si2 0.937041 0.590758 0.836098
Si Si3 0.675544 0.147670 0.816580
Si Si4 0.773297 0.554852 0.139639
Si Si5 0.268635 0.609807 0.714018
Si Si6 0.339199 0.222336 0.381275
O O1 0.931982 0.477919 0.886848
O O2 0.903792 0.294351 0.925789
O O3 0.937969 0.421071 0.161575
O O4 0.008966 0.352797 0.045761
O O5 0.883520 0.654341 0.823757
O O6 0.720690 0.177827 0.741183
O O7 0.685554 0.031165 0.878372
O O8 0.677569 0.218154 0.962902
O O9 0.731336 0.501284 0.211499
O O10 0.806253 0.640353 0.255835
O O11 0.740082 0.603049 0.970253
O O12 0.324972 0.666883 0.805157
#
# Coordination Sequence:
#
# PCOD8131006 Si02
#       6
#     8   8   8   8   8   8
#     4   9  17  26  40  62  86 114 150 169 212 262
#     4   9  16  26  41  59  86 119 141 173 210 266
#     4   9  17  29  44  60  90 119 147 178 221 260
#     4  10  18  31  42  63  91 122 149 182 225 265
#     4  10  20  29  46  63  90 123 151 187 224 263
#     4  11  18  30  45  65  90 122 154 185 217 271
#
# _framework density 16.169229000000001
#
# number of rings (size 3 to 8) (size 9 to 14) (size 15 to 20)
#    1.000    1.333    3.333    1.000    2.333    0.000 
#    0.000    0.000    0.000    0.000    0.000    0.000 
#    0.000   33.333    0.000    0.000    0.000    0.167 
#
# Total GULP energy -297337.014705 kJ/mol
# GULP energy per Si atom -12389.042279 kJ/mol
# Density = 1.613243 g / cm^3
# Si number density = 16.169229 Si / 1000 Ang^3
#
#
#
# Elastic Constant Matrix: (Units=GPa)
#
#
# Indices 1 2 3 4 5 6 
#
# 1 66.2001 13.6388 29.2645 0.0000 18.4765 0.0000
# 2 13.6388 32.9309 21.0415 0.0000 13.0867 0.0000
# 3 29.2645 21.0415 82.4318 0.0000 19.3677 0.0000
# 4 0.0000 0.0000 0.0000 19.6254 0.0000 6.6623
# 5 18.4765 13.0867 19.3677 0.0000 19.8701 0.0000
# 6 0.0000 0.0000 0.0000 6.6623 0.0000 18.5589
#
#
#
# Elastic Compliance Matrix: (Units=1/GPa)
#
#
# Indices 1 2 3 4 5 6 
#
# 1 0.021265 -0.000002 -0.003766 0.000000 -0.016101 0.000000
# 2 -0.000002 0.043045 -0.005611 0.000000 -0.022878 0.000000
# 3 -0.003766 -0.005611 0.017133 0.000000 -0.009503 0.000000
# 4 0.000000 0.000000 0.000000 0.058026 0.000000 -0.020830
# 5 -0.016101 -0.022878 -0.009503 0.000000 0.089629 0.000000
# 6 0.000000 0.000000 0.000000 -0.020830 0.000000 0.061360
#
#
# Mechanical properties :
#
#
# Convention : Reuss Voigt Hill
#
# Bulk Modulus (GPa) = 15.95304 34.38360 25.16832
# Shear Modulus (GPa) = 15.14640 19.45206 17.29923
#
# Velocity S-wave (km/s) = 3.06394 3.47223 3.27446
# Velocity P-wave (km/s) = 4.73336 6.11443 5.46768
#
# Compressibility (1/GPa) = 0.06268396
#
# Stress axis : x y z
#
# Youngs Moduli (GPa) = 47.02619 23.23157 58.36632
#
# Poissons Ratio (x) = 0.00005 0.21979
# Poissons Ratio (y) = 0.00011 0.32752
# Poissons Ratio (z) = 0.17708 0.13036
#
# Static dielectric constant tensor:
#      x y z
#    x 3.310150 0.000000 0.170640 
#    y 0.000000 2.648560 0.000000 
#    z 0.170640 0.000000 3.098180 
# 
# 
# High freq. dielectric constant tensor:
#      x y z
#    x 1.608180 0.000000 0.005330 
#    y 0.000000 1.568230 0.000000 
#    z 0.005330 0.000000 1.633570 
# 
# From -- ./inp_files/65826.got.cif
#   From: 2010.06.25/outbox.cif.g09.slc.cpg/sg15_33_cif.got.tgz:65826.got - 2010.06.28 07:06:18.
