data_PCOD8131337
_publ_section_title
;
Structure prediction by ZEFSAII (Michael W. Deem and Ramdas Pophale) SiO2 
 PCOD8131337
Probable space group: C 2/C
;
_chemical_formula_sum "Si O2"
_cell_formula_units_Z 48
_cell_length_a 18.359390
_cell_length_b 12.127912
_cell_length_c 19.919963
_cell_angle_alpha 90.000000
_cell_angle_beta 145.209337
_cell_angle_gamma 90.000000
_cell_volume 2530.749514
_symmetry_space_group_name_H-M "C 2/C"
_symmetry_group_IT_number 15
_symmetry_cell_setting 'monoclinic'
loop_
_space_group_symop_operation_xyz
x,y,z
-x,y,1/2-z
-x,-y,-z
x,-y,1/2+z
1/2+x,1/2+y,z
1/2-x,1/2+y,1/2-z
1/2-x,1/2-y,-z
1/2+x,1/2-y,1/2+z
loop_
_atom_site_type_symbol
_atom_site_label
_atom_site_fract_x
_atom_site_fract_y
_atom_site_fract_z
Si Si1 0.774020 0.177828 0.675518
Si Si2 0.107728 0.398762 0.776821
Si Si3 0.103572 0.027857 0.173830
Si Si4 0.727168 0.230427 0.184824
Si Si5 0.174235 0.948248 0.080121
Si Si6 0.004449 0.401893 0.950394
O O1 0.845940 0.271943 0.687984
O O2 0.720180 0.222598 0.705302
O O3 0.647523 0.137120 0.541420
O O4 0.873803 0.078670 0.762519
O O5 0.225411 0.478075 0.885131
O O6 0.000000 0.414246 0.750000
O O7 0.057094 0.439532 0.666261
O O8 0.183810 0.127638 0.267844
O O9 0.151947 0.005596 0.135181
O O10 0.954378 0.056395 0.060998
O O11 0.730289 0.324731 0.130434
O O12 0.578662 0.197715 0.081892
O O13 0.000000 0.500000 0.000000
#
# Coordination Sequence:
#
# PCOD8131337 Si02
#       6
#     8   8   8   8   8   8
#     4  10  20  33  54  85 117 153 198 240 297 355
#     4  11  25  40  56  85 124 167 197 237 304 368
#     4  10  18  34  56  88 114 143 199 257 301 339
#     4  10  18  32  57  91 114 145 190 260 305 340
#     4  10  20  34  56  81 119 154 193 250 301 353
#     4  11  19  36  61  89 116 151 199 250 297 349
#
# _framework density 18.966712999999999
#
# number of rings (size 3 to 8) (size 9 to 14) (size 15 to 20)
#    0.000    1.667    5.000    2.000    7.000    0.667 
#    0.000    0.000    0.000    5.000    0.000    0.000 
#    0.000    0.000    0.000    0.000    0.000    0.000 
#
# Total GULP energy -297640.894881 kJ/mol
# GULP energy per Si atom -12401.703953 kJ/mol
# Density = 1.892354 g / cm^3
# Si number density = 18.966713 Si / 1000 Ang^3
#
#
#
# Elastic Constant Matrix: (Units=GPa)
#
#
# Indices 1 2 3 4 5 6 
#
# 1 76.0075 41.9990 32.0028 0.0000 23.9106 0.0000
# 2 41.9990 131.7361 45.9023 0.0000 15.0355 0.0000
# 3 32.0028 45.9023 104.9201 0.0000 27.7596 0.0000
# 4 0.0000 0.0000 0.0000 30.7951 0.0000 5.6534
# 5 23.9106 15.0355 27.7596 0.0000 22.7558 0.0000
# 6 0.0000 0.0000 0.0000 5.6534 0.0000 19.0289
#
#
#
# Elastic Compliance Matrix: (Units=1/GPa)
#
#
# Indices 1 2 3 4 5 6 
#
# 1 0.022173 -0.005009 0.001058 0.000000 -0.021280 0.000000
# 2 -0.005009 0.010132 -0.003730 0.000000 0.003119 0.000000
# 3 0.001058 -0.003730 0.015478 0.000000 -0.017529 0.000000
# 4 0.000000 0.000000 0.000000 0.034346 0.000000 -0.010204
# 5 -0.021280 0.003119 -0.017529 0.000000 0.085627 0.000000
# 6 0.000000 0.000000 0.000000 -0.010204 0.000000 0.055583
#
#
# Mechanical properties :
#
#
# Convention : Reuss Voigt Hill
#
# Bulk Modulus (GPa) = 30.84399 61.38576 46.11488
# Shear Modulus (GPa) = 20.03950 27.36659 23.70304
#
# Velocity S-wave (km/s) = 3.25401 3.80264 3.53897
# Velocity P-wave (km/s) = 5.51503 7.19134 6.40823
#
# Compressibility (1/GPa) = 0.03242122
#
# Stress axis : x y z
#
# Youngs Moduli (GPa) = 45.09985 98.70163 64.60845
#
# Poissons Ratio (x) = 0.49440 -0.06838
# Poissons Ratio (y) = 0.22591 0.24098
# Poissons Ratio (z) = -0.04773 0.36815
#
# Static dielectric constant tensor:
#      x y z
#    x 2.896010 0.000000 0.234560 
#    y 0.000000 3.698630 0.000000 
#    z 0.234560 0.000000 3.702910 
# 
# 
# High freq. dielectric constant tensor:
#      x y z
#    x 1.672390 0.000000 0.027050 
#    y 0.000000 1.749900 0.000000 
#    z 0.027050 0.000000 1.748790 
# 
# From -- ./inp_files/103727.got.cif
#   From: 2010.06.25/outbox.cif.g09.slc.cpg/sg15_52_cif.got.tgz:103727.got - 2010.06.28 07:06:18.
