data_PCOD8131855
_publ_section_title
;
Structure prediction by ZEFSAII (Michael W. Deem and Ramdas Pophale) SiO2 
 PCOD8131855
Probable space group: C 2/C
;
_chemical_formula_sum "Si O2"
_cell_formula_units_Z 64
_cell_length_a 20.474156
_cell_length_b 9.411027
_cell_length_c 18.293902
_cell_angle_alpha 90.000000
_cell_angle_beta 113.103562
_cell_angle_gamma 90.000000
_cell_volume 3242.212037
_symmetry_space_group_name_H-M "C 2/C"
_symmetry_group_IT_number 15
_symmetry_cell_setting 'monoclinic'
loop_
_space_group_symop_operation_xyz
x,y,z
-x,y,1/2-z
-x,-y,-z
x,-y,1/2+z
1/2+x,1/2+y,z
1/2-x,1/2+y,1/2-z
1/2-x,1/2-y,-z
1/2+x,1/2-y,1/2+z
loop_
_atom_site_type_symbol
_atom_site_label
_atom_site_fract_x
_atom_site_fract_y
_atom_site_fract_z
Si Si1 0.540364 0.821907 0.697571
Si Si2 0.462550 0.382938 0.886377
Si Si3 0.308172 0.264582 0.964581
Si Si4 0.817530 0.279365 0.812305
Si Si5 0.458134 0.351851 0.055654
Si Si6 0.115883 0.489165 0.547227
Si Si7 0.198475 0.052822 0.179309
Si Si8 0.000958 0.584877 0.610317
O O1 0.500000 0.753675 0.750000
O O2 0.623662 0.780809 0.727997
O O3 0.502576 0.780923 0.604701
O O4 0.525095 0.990696 0.690469
O O5 0.512311 0.514117 0.885644
O O6 0.381331 0.413849 0.830125
O O7 0.492400 0.246030 0.857621
O O8 0.472998 0.360619 0.977029
O O9 0.284396 0.375422 0.891327
O O10 0.323570 0.107748 0.939464
O O11 0.250000 0.250000 0.000000
O O12 0.375719 0.330560 0.035959
O O13 0.850825 0.349935 0.899663
O O14 0.751295 0.376982 0.760777
O O15 0.792267 0.118689 0.819048
O O16 0.058335 0.567982 0.571276
O O17 0.078979 0.443028 0.454617
#
# Coordination Sequence:
#
# PCOD8131855 Si02
#       8
#     8   8   8   8   8   8   8   8
#     4  11  23  38  61  88 121 161 198 247 303 359
#     4  10  19  35  65  88 117 145 209 260 287 353
#     4  11  23  39  63  88 128 159 200 247 309 367
#     4  11  24  39  63  87 123 157 208 250 303 364
#     4  10  19  37  60  92 112 152 204 248 300 352
#     4  10  19  36  61  90 113 156 198 247 295 356
#     4  11  23  39  59  92 119 162 202 250 309 364
#     4  10  18  34  62  89 115 146 202 249 291 349
#
# _framework density 19.739609999999999
#
# number of rings (size 3 to 8) (size 9 to 14) (size 15 to 20)
#    0.000    1.500    5.000    2.250    7.000    0.000 
#    0.000    1.250    2.750    0.000    0.000    0.000 
#    0.000    0.000    0.000    0.000    0.000    0.000 
#
# Total GULP energy -396651.080577 kJ/mol
# GULP energy per Si atom -12395.346268 kJ/mol
# Density = 1.969468 g / cm^3
# Si number density = 19.739610 Si / 1000 Ang^3
#
#
#
# Elastic Constant Matrix: (Units=GPa)
#
#
# Indices 1 2 3 4 5 6 
#
# 1 86.5043 37.2224 31.4083 0.0000 2.7765 0.0000
# 2 37.2224 136.2882 30.7455 0.0000 3.4517 0.0000
# 3 31.4083 30.7455 55.5488 0.0000 20.5970 0.0000
# 4 0.0000 0.0000 0.0000 32.5633 0.0000 12.8907
# 5 2.7765 3.4517 20.5970 0.0000 21.7787 0.0000
# 6 0.0000 0.0000 0.0000 12.8907 0.0000 26.2239
#
#
#
# Elastic Compliance Matrix: (Units=1/GPa)
#
#
# Indices 1 2 3 4 5 6 
#
# 1 0.016324 -0.002112 -0.011417 0.000000 0.009051 0.000000
# 2 -0.002112 0.008984 -0.005159 0.000000 0.003725 0.000000
# 3 -0.011417 -0.005159 0.040766 0.000000 -0.036280 0.000000
# 4 0.000000 0.000000 0.000000 0.038129 0.000000 -0.018743
# 5 0.009051 0.003725 -0.036280 0.000000 0.078484 0.000000
# 6 0.000000 0.000000 0.000000 -0.018743 0.000000 0.047346
#
#
# Mechanical properties :
#
#
# Convention : Reuss Voigt Hill
#
# Bulk Modulus (GPa) = 34.84720 53.01041 43.92881
# Shear Modulus (GPa) = 18.05222 28.04418 23.04820
#
# Velocity S-wave (km/s) = 3.02738 3.77331 3.42074
# Velocity P-wave (km/s) = 5.46917 6.77473 6.15666
#
# Compressibility (1/GPa) = 0.02869671
#
# Stress axis : x y z
#
# Youngs Moduli (GPa) = 61.26102 111.31174 24.53054
#
# Poissons Ratio (x) = 0.23508 0.28006
# Poissons Ratio (y) = 0.12938 0.12656
# Poissons Ratio (z) = 0.69940 0.57431
#
# Static dielectric constant tensor:
#      x y z
#    x 3.397920 0.000000 0.353520 
#    y 0.000000 4.036310 0.000000 
#    z 0.353520 0.000000 3.514640 
# 
# 
# High freq. dielectric constant tensor:
#      x y z
#    x 1.739920 0.000000 0.029410 
#    y 0.000000 1.789520 0.000000 
#    z 0.029410 0.000000 1.753820 
# 
# From -- ./inp_files/254873.got.cif
#   From: 2010.06.25/outbox.cif.g09.slc.cpg/sg15_128_cif.got.tgz:254873.got - 2010.06.28 07:06:18.
