data_PCOD8131974
_publ_section_title
;
Structure prediction by ZEFSAII (Michael W. Deem and Ramdas Pophale) SiO2 
 PCOD8131974
Probable space group: C 2/C
;
_chemical_formula_sum "Si O2"
_cell_formula_units_Z 52
_cell_length_a 17.757714
_cell_length_b 28.530477
_cell_length_c 10.986336
_cell_angle_alpha 90.000000
_cell_angle_beta 28.609682
_cell_angle_gamma 90.000000
_cell_volume 2665.260016
_symmetry_space_group_name_H-M "C 2/C"
_symmetry_group_IT_number 15
_symmetry_cell_setting 'monoclinic'
loop_
_space_group_symop_operation_xyz
x,y,z
-x,y,1/2-z
-x,-y,-z
x,-y,1/2+z
1/2+x,1/2+y,z
1/2-x,1/2+y,1/2-z
1/2-x,1/2-y,-z
1/2+x,1/2-y,1/2+z
loop_
_atom_site_type_symbol
_atom_site_label
_atom_site_fract_x
_atom_site_fract_y
_atom_site_fract_z
Si Si1 0.403193 0.696861 0.012315
Si Si2 0.570175 0.408245 0.938459
Si Si3 0.000000 0.654165 0.250000
Si Si4 0.123327 0.726569 0.264244
Si Si5 0.728003 0.079170 0.823836
Si Si6 0.749446 0.048175 0.528881
Si Si7 0.000000 0.973262 0.250000
Si Si8 0.500000 0.996664 0.750000
O O1 0.500000 0.696848 0.750000
O O2 0.415515 0.646544 0.055650
O O3 0.483131 0.735747 0.988937
O O4 0.218137 0.709653 0.250643
O O5 0.401820 0.422855 0.127501
O O6 0.596528 0.439848 0.020748
O O7 0.702003 0.419142 0.652260
O O8 0.050589 0.683026 0.295868
O O9 0.853318 0.624247 0.503550
O O10 0.250000 0.750000 0.000000
O O11 0.737801 0.080910 0.663989
O O12 0.636709 0.032769 0.992384
O O13 0.576689 0.028128 0.746656
O O14 0.872221 0.005658 0.366165
#
# Coordination Sequence:
#
# PCOD8131974 Si02
#       8
#     8   8   4   8   8   8   4   4
#     4  10  20  34  58  91 117 148 197 253 304 353
#     4  12  23  38  65  90 122 162 214 249 299 367
#     4  11  22  33  62  90 122 150 200 255 306 357
#     4  10  18  35  57  90 119 149 189 254 310 357
#     4  11  23  39  59  93 120 161 206 255 301 361
#     4  12  24  42  60  86 126 168 201 252 307 360
#     4  12  22  39  62  85 118 163 216 249 284 352
#     4  11  24  40  60  89 124 159 212 258 304 343
#
# _framework density 19.510292
#
# number of rings (size 3 to 8) (size 9 to 14) (size 15 to 20)
#    0.000    0.923    6.154    3.692    0.000    1.231 
#    0.000    0.000    0.000    0.923    4.000    0.000 
#    0.000    0.000    0.000    0.000    0.000    0.000 
#
# Total GULP energy -322394.792075 kJ/mol
# GULP energy per Si atom -12399.799695 kJ/mol
# Density = 1.946589 g / cm^3
# Si number density = 19.510292 Si / 1000 Ang^3
#
#
#
# Elastic Constant Matrix: (Units=GPa)
#
#
# Indices 1 2 3 4 5 6 
#
# 1 106.7246 44.7046 25.0987 -0.0006 -20.4055 -0.0015
# 2 44.7046 111.0996 23.9837 -0.0011 -4.0779 -0.0001
# 3 25.0987 23.9837 43.1035 0.0019 6.0109 0.0002
# 4 -0.0006 -0.0011 0.0019 5.2532 -0.0002 -5.7871
# 5 -20.4055 -4.0779 6.0109 -0.0002 39.1578 0.0003
# 6 -0.0015 -0.0001 0.0002 -5.7871 0.0003 26.7266
#
#
#
# Elastic Compliance Matrix: (Units=1/GPa)
#
#
# Indices 1 2 3 4 5 6 
#
# 1 0.014261 -0.003866 -0.007290 0.000006 0.008148 0.000002
# 2 -0.003866 0.011430 -0.004081 0.000004 -0.000198 0.000001
# 3 -0.007290 -0.004081 0.030968 -0.000018 -0.008977 -0.000005
# 4 0.000006 0.000004 -0.000018 0.249995 0.000007 0.054132
# 5 0.008148 -0.000198 -0.008977 0.000007 0.031141 0.000002
# 6 0.000002 0.000001 -0.000005 0.054132 0.000002 0.049137
#
#
# Mechanical properties :
#
#
# Convention : Reuss Voigt Hill
#
# Bulk Modulus (GPa) = 38.18891 49.83351 44.01121
# Shear Modulus (GPa) = 11.73337 25.37021 18.55179
#
# Velocity S-wave (km/s) = 2.45499 3.60995 3.08697
# Velocity P-wave (km/s) = 5.25854 6.55540 5.94245
#
# Compressibility (1/GPa) = 0.02618561
#
# Stress axis : x y z
#
# Youngs Moduli (GPa) = 70.11912 87.48656 32.29187
#
# Poissons Ratio (x) = 0.33821 0.23539
# Poissons Ratio (y) = 0.27107 0.13180
# Poissons Ratio (z) = 0.51113 0.35707
#
# Static dielectric constant tensor:
#      x y z
#    x 3.972920 0.000000 -0.293680 
#    y 0.000000 3.682700 0.000000 
#    z -0.293680 0.000000 3.424300 
# 
# 
# High freq. dielectric constant tensor:
#      x y z
#    x 1.771410 0.000000 -0.021590 
#    y 0.000000 1.765660 0.000000 
#    z -0.021590 0.000000 1.731820 
# 
# From -- ./inp_files/33529.got.cif
#   From: 2010.06.25/outbox.cif.g09.slc.cpg/sg15_17_cif.got.tgz:33529.got - 2010.06.28 07:06:18.
