data_PCOD8131289
_publ_section_title
;
Structure prediction by ZEFSAII (Michael W. Deem and Ramdas Pophale) SiO2 
 PCOD8131289
Probable space group: C 2/C
;
_chemical_formula_sum "Si O2"
_cell_formula_units_Z 48
_cell_length_a 10.938972
_cell_length_b 17.264609
_cell_length_c 18.622646
_cell_angle_alpha 90.000000
_cell_angle_beta 128.937904
_cell_angle_gamma 90.000000
_cell_volume 2735.633836
_symmetry_space_group_name_H-M "C 2/C"
_symmetry_group_IT_number 15
_symmetry_cell_setting 'monoclinic'
loop_
_space_group_symop_operation_xyz
x,y,z
-x,y,1/2-z
-x,-y,-z
x,-y,1/2+z
1/2+x,1/2+y,z
1/2-x,1/2+y,1/2-z
1/2-x,1/2-y,-z
1/2+x,1/2-y,1/2+z
loop_
_atom_site_type_symbol
_atom_site_label
_atom_site_fract_x
_atom_site_fract_y
_atom_site_fract_z
Si Si1 0.336079 0.954183 0.361465
Si Si2 0.930982 0.324783 0.803358
Si Si3 0.379757 0.587513 0.262270
Si Si4 0.458749 0.516254 0.565397
Si Si5 0.594387 0.354625 0.211978
Si Si6 0.111076 0.441749 0.956064
O O1 0.276047 0.879879 0.293933
O O2 0.389925 0.927235 0.459536
O O3 0.193751 0.016401 0.310559
O O4 0.485616 0.995055 0.380433
O O5 0.757186 0.358662 0.755322
O O6 0.916844 0.234212 0.813751
O O7 0.000000 0.342314 0.750000
O O8 0.063440 0.359224 0.904980
O O9 0.500000 0.629851 0.250000
O O10 0.481652 0.556114 0.366200
O O11 0.500000 0.500000 0.500000
O O12 0.527412 0.596921 0.620570
O O13 0.273325 0.523086 0.492386
O O14 0.500000 0.372989 0.250000
#
# Coordination Sequence:
#
# PCOD8131289 Si02
#       6
#     8   8   8   8   8   8
#     4   9  17  33  58  76  99 137 188 218 257 320
#     4  10  22  35  52  81 115 143 176 223 275 321
#     4  10  18  36  57  76 107 150 183 214 270 330
#     4  11  20  33  56  83 109 135 183 235 266 305
#     4  10  19  38  54  76 111 150 176 210 276 334
#     4  10  18  32  55  83 100 133 183 230 257 309
#
# _framework density 17.546208
#
# number of rings (size 3 to 8) (size 9 to 14) (size 15 to 20)
#    0.000    2.000    3.333    2.000    0.000    0.667 
#    3.000    1.667    0.000    2.000    0.000    0.000 
#    0.000    0.000    0.000    0.000    0.000    0.000 
#
# Total GULP energy -297427.479485 kJ/mol
# GULP energy per Si atom -12392.811645 kJ/mol
# Density = 1.750627 g / cm^3
# Si number density = 17.546208 Si / 1000 Ang^3
#
#
#
# Elastic Constant Matrix: (Units=GPa)
#
#
# Indices 1 2 3 4 5 6 
#
# 1 107.3922 46.3382 54.2700 0.0000 5.5975 0.0000
# 2 46.3382 95.6971 53.5808 0.0000 -3.2855 0.0000
# 3 54.2700 53.5808 112.3457 0.0000 5.3862 0.0000
# 4 0.0000 0.0000 0.0000 25.2552 0.0000 -2.9735
# 5 5.5975 -3.2855 5.3862 0.0000 35.4676 0.0000
# 6 0.0000 0.0000 0.0000 -2.9735 0.0000 22.3651
#
#
#
# Elastic Compliance Matrix: (Units=1/GPa)
#
#
# Indices 1 2 3 4 5 6 
#
# 1 0.013409 -0.004062 -0.004453 0.000000 -0.001816 0.000000
# 2 -0.004062 0.015688 -0.005661 0.000000 0.002954 0.000000
# 3 -0.004453 -0.005661 0.013845 0.000000 -0.001924 0.000000
# 4 0.000000 0.000000 0.000000 0.040225 0.000000 0.005348
# 5 -0.001816 0.002954 -0.001924 0.000000 0.029047 0.000000
# 6 0.000000 0.000000 0.000000 0.005348 0.000000 0.045423
#
#
# Mechanical properties :
#
#
# Convention : Reuss Voigt Hill
#
# Bulk Modulus (GPa) = 68.54685 69.31254 68.92969
# Shear Modulus (GPa) = 26.19802 27.36732 26.78267
#
# Velocity S-wave (km/s) = 3.86824 3.95362 3.91117
# Velocity P-wave (km/s) = 7.68780 7.77368 7.73086
#
# Compressibility (1/GPa) = 0.01458856
#
# Stress axis : x y z
#
# Youngs Moduli (GPa) = 74.57415 63.74391 72.23062
#
# Poissons Ratio (x) = 0.25894 0.32166
# Poissons Ratio (y) = 0.30293 0.40892
# Poissons Ratio (z) = 0.33209 0.36087
#
# Static dielectric constant tensor:
#      x y z
#    x 3.212860 0.000000 0.146530 
#    y 0.000000 3.112910 0.000000 
#    z 0.146530 0.000000 3.436950 
# 
# 
# High freq. dielectric constant tensor:
#      x y z
#    x 1.675520 0.000000 0.011630 
#    y 0.000000 1.656890 0.000000 
#    z 0.011630 0.000000 1.691960 
# 
# From -- ./inp_files/143660.got.cif
#   From: 2010.06.25/outbox.cif.g09.slc.cpg/sg15_72_cif.got.tgz:143660.got - 2010.06.28 07:06:18.
