data_PCOD8131997
_publ_section_title
;
Structure prediction by ZEFSAII (Michael W. Deem and Ramdas Pophale) SiO2 
 PCOD8131997
Probable space group: C 2/C
;
_chemical_formula_sum "Si O2"
_cell_formula_units_Z 40
_cell_length_a 19.399226
_cell_length_b 12.144302
_cell_length_c 8.864900
_cell_angle_alpha 90.000000
_cell_angle_beta 53.363925
_cell_angle_gamma 90.000000
_cell_volume 1675.885751
_symmetry_space_group_name_H-M "C 2/C"
_symmetry_group_IT_number 15
_symmetry_cell_setting 'monoclinic'
loop_
_space_group_symop_operation_xyz
x,y,z
-x,y,1/2-z
-x,-y,-z
x,-y,1/2+z
1/2+x,1/2+y,z
1/2-x,1/2+y,1/2-z
1/2-x,1/2-y,-z
1/2+x,1/2-y,1/2+z
loop_
_atom_site_type_symbol
_atom_site_label
_atom_site_fract_x
_atom_site_fract_y
_atom_site_fract_z
Si Si1 0.564160 0.202485 0.935466
Si Si2 0.879875 0.364060 0.689438
Si Si3 0.500000 0.370301 0.250000
Si Si4 0.879200 0.894247 0.157542
Si Si5 0.500000 0.663819 0.250000
Si Si6 0.189705 0.544587 0.909957
O O1 0.558836 0.258053 0.778319
O O2 0.650482 0.131439 0.840419
O O3 0.482449 0.121745 0.067799
O O4 0.562872 0.295798 0.065584
O O5 0.858178 0.234828 0.708374
O O6 0.845386 0.423200 0.583210
O O7 0.834776 0.421735 0.889784
O O8 0.436457 0.439957 0.223465
O O9 0.792241 0.962003 0.258149
O O10 0.935797 0.912142 0.932333
#
# Coordination Sequence:
#
# PCOD8131997 Si02
#       6
#     8   8   4   8   4   8
#     4  10  18  35  58  86 130 159 182 246 304 370
#     4  10  23  37  55  95 125 157 197 244 308 364
#     4   8  16  36  59  83 112 162 202 226 297 349
#     4  10  21  41  63  89 120 164 200 255 295 365
#     4   8  20  36  57  91 116 158 208 238 309 341
#     4  12  22  37  62  90 125 160 206 245 302 359
#
# _framework density 23.867974
#
# number of rings (size 3 to 8) (size 9 to 14) (size 15 to 20)
#    0.000    2.400    4.000    1.200    5.600    0.800 
#    0.000    0.000    0.000    3.600    5.200    0.000 
#    0.000    0.000    0.000    0.000    0.000    0.000 
#
# Total GULP energy -247960.975604 kJ/mol
# GULP energy per Si atom -12398.048780 kJ/mol
# Density = 2.381365 g / cm^3
# Si number density = 23.867974 Si / 1000 Ang^3
#
#
#
# Elastic Constant Matrix: (Units=GPa)
#
#
# Indices 1 2 3 4 5 6 
#
# 1 141.7319 15.6509 57.1158 0.0000 -18.1433 0.0000
# 2 15.6509 27.7290 6.4354 0.0000 2.7275 0.0000
# 3 57.1158 6.4354 132.4046 0.0000 3.1462 0.0000
# 4 0.0000 0.0000 0.0000 14.2556 0.0000 7.5752
# 5 -18.1433 2.7275 3.1462 0.0000 42.7117 0.0000
# 6 0.0000 0.0000 0.0000 7.5752 0.0000 23.9982
#
#
#
# Elastic Compliance Matrix: (Units=1/GPa)
#
#
# Indices 1 2 3 4 5 6 
#
# 1 0.009908 -0.005107 -0.004141 0.000000 0.004840 0.000000
# 2 -0.005107 0.039315 0.000404 0.000000 -0.004710 0.000000
# 3 -0.004141 0.000404 0.009378 0.000000 -0.002476 0.000000
# 4 0.000000 0.000000 0.000000 0.084286 0.000000 -0.026605
# 5 0.004840 -0.004710 -0.002476 0.000000 0.025952 0.000000
# 6 0.000000 0.000000 0.000000 -0.026605 0.000000 0.050068
#
#
# Mechanical properties :
#
#
# Convention : Reuss Voigt Hill
#
# Bulk Modulus (GPa) = 24.44175 51.14108 37.79141
# Shear Modulus (GPa) = 19.98145 31.03732 25.50939
#
# Velocity S-wave (km/s) = 2.89652 3.60998 3.27275
# Velocity P-wave (km/s) = 4.63131 6.23291 5.49082
#
# Compressibility (1/GPa) = 0.04091361
#
# Stress axis : x y z
#
# Youngs Moduli (GPa) = 100.93120 25.43527 106.63280
#
# Poissons Ratio (x) = 0.12990 0.44154
# Poissons Ratio (y) = 0.51548 -0.04309
# Poissons Ratio (z) = 0.41793 -0.01028
#
# Static dielectric constant tensor:
#      x y z
#    x 4.641810 0.000000 0.294820 
#    y 0.000000 3.994250 0.000000 
#    z 0.294820 0.000000 4.272240 
# 
# 
# High freq. dielectric constant tensor:
#      x y z
#    x 1.949470 0.000000 0.019320 
#    y 0.000000 1.934930 0.000000 
#    z 0.019320 0.000000 1.942790 
# 
# From -- ./inp_files/39434.got.cif
#   From: 2010.06.25/outbox.cif.g09.slc.cpg/sg15_20_cif.got.tgz:39434.got - 2010.06.28 07:06:18.
