data_PCOD8131725
_publ_section_title
;
Structure prediction by ZEFSAII (Michael W. Deem and Ramdas Pophale) SiO2 
 PCOD8131725
Probable space group: C 2/C
;
_chemical_formula_sum "Si O2"
_cell_formula_units_Z 60
_cell_length_a 29.578744
_cell_length_b 16.620242
_cell_length_c 8.756966
_cell_angle_alpha 90.000000
_cell_angle_beta 133.435476
_cell_angle_gamma 90.000000
_cell_volume 3126.054477
_symmetry_space_group_name_H-M "C 2/C"
_symmetry_group_IT_number 15
_symmetry_cell_setting 'monoclinic'
loop_
_space_group_symop_operation_xyz
x,y,z
-x,y,1/2-z
-x,-y,-z
x,-y,1/2+z
1/2+x,1/2+y,z
1/2-x,1/2+y,1/2-z
1/2-x,1/2-y,-z
1/2+x,1/2-y,1/2+z
loop_
_atom_site_type_symbol
_atom_site_label
_atom_site_fract_x
_atom_site_fract_y
_atom_site_fract_z
Si Si1 0.283871 0.838064 0.808075
Si Si2 0.189581 0.154130 0.580377
Si Si3 0.000000 0.993379 0.250000
Si Si4 0.720075 0.058906 0.904406
Si Si5 0.912821 0.054002 0.294441
Si Si6 0.043667 0.468254 0.731133
Si Si7 0.618828 0.063903 0.130659
Si Si8 0.314446 0.578033 0.615462
O O1 0.290780 0.746221 0.870961
O O2 0.337919 0.860590 0.812779
O O3 0.216204 0.861485 0.580671
O O4 0.293372 0.885491 0.984505
O O5 0.251427 0.107093 0.672181
O O6 0.133206 0.131051 0.332277
O O7 0.165876 0.129262 0.692177
O O8 0.050376 0.938703 0.459123
O O9 0.036001 0.052740 0.219446
O O10 0.655081 0.021168 0.703221
O O11 0.765122 0.987068 0.060656
O O12 0.874333 0.969671 0.190408
O O13 0.095496 0.419488 0.751918
O O14 0.000000 0.416554 0.750000
O O15 0.000000 0.500000 0.500000
O O16 0.067364 0.546855 0.881097
#
# Coordination Sequence:
#
# PCOD8131725 Si02
#       8
#     8   8   4   8   8   8   8   8
#     4  11  22  34  55  86 119 152 178 226 305 354
#     4  11  22  36  54  86 121 150 177 237 297 350
#     4  10  20  36  64  88 100 156 210 244 276 324
#     4  10  20  34  56  81 112 146 186 226 277 352
#     4  10  20  37  63  85 116 144 204 247 279 338
#     4   9  18  32  56  80 100 133 188 244 268 309
#     4  10  18  34  57  80 109 141 191 230 273 342
#     4  10  20  36  57  86 114 147 187 233 283 352
#
# _framework density 19.193522999999999
#
# number of rings (size 3 to 8) (size 9 to 14) (size 15 to 20)
#    0.000    1.867    2.667    3.200    3.733    0.000 
#    0.000    0.000    4.400    1.600    1.733    0.000 
#    0.000    0.000    0.000    0.000    0.000    0.000 
#
# Total GULP energy -371695.214394 kJ/mol
# GULP energy per Si atom -12389.840480 kJ/mol
# Density = 1.914984 g / cm^3
# Si number density = 19.193523 Si / 1000 Ang^3
#
#
#
# Elastic Constant Matrix: (Units=GPa)
#
#
# Indices 1 2 3 4 5 6 
#
# 1 109.2670 16.6053 24.5683 0.0000 -4.7968 0.0000
# 2 16.6053 94.6203 42.3594 0.0000 4.3206 0.0000
# 3 24.5683 42.3594 115.5068 0.0000 3.1211 0.0000
# 4 0.0000 0.0000 0.0000 21.5230 0.0000 -2.5472
# 5 -4.7968 4.3206 3.1211 0.0000 29.8665 0.0000
# 6 0.0000 0.0000 0.0000 -2.5472 0.0000 11.2318
#
#
#
# Elastic Compliance Matrix: (Units=1/GPa)
#
#
# Indices 1 2 3 4 5 6 
#
# 1 0.009786 -0.001016 -0.001760 0.000000 0.001903 0.000000
# 2 -0.001016 0.012804 -0.004438 0.000000 -0.001552 0.000000
# 3 -0.001760 -0.004438 0.010680 0.000000 -0.000757 0.000000
# 4 0.000000 0.000000 0.000000 0.047743 0.000000 0.010827
# 5 0.001903 -0.001552 -0.000757 0.000000 0.034091 0.000000
# 6 0.000000 0.000000 0.000000 0.010827 0.000000 0.091488
#
#
# Mechanical properties :
#
#
# Convention : Reuss Voigt Hill
#
# Bulk Modulus (GPa) = 53.07361 54.05113 53.56237
# Shear Modulus (GPa) = 21.99725 28.24833 25.12279
#
# Velocity S-wave (km/s) = 3.38905 3.84052 3.62183
# Velocity P-wave (km/s) = 6.55943 6.92014 6.74220
#
# Compressibility (1/GPa) = 0.01884176
#
# Stress axis : x y z
#
# Youngs Moduli (GPa) = 102.19080 78.09827 93.63539
#
# Poissons Ratio (x) = 0.07936 0.16481
# Poissons Ratio (y) = 0.10385 0.41552
# Poissons Ratio (z) = 0.17987 0.34657
#
# Static dielectric constant tensor:
#      x y z
#    x 6.013890 0.000000 -0.141850 
#    y 0.000000 3.162140 0.000000 
#    z -0.141850 0.000000 3.780190 
# 
# 
# High freq. dielectric constant tensor:
#      x y z
#    x 1.765560 0.000000 -0.005130 
#    y 0.000000 1.687920 0.000000 
#    z -0.005130 0.000000 1.760730 
# 
# From -- ./inp_files/70413.got.cif
#   From: 2010.06.25/outbox.cif.g09.slc.cpg/sg15_36_cif.got.tgz:70413.got - 2010.06.28 07:06:18.
