data_PCOD8131135
_publ_section_title
;
Structure prediction by ZEFSAII (Michael W. Deem and Ramdas Pophale) SiO2 
 PCOD8131135
Probable space group: C 2/C
;
_chemical_formula_sum "Si O2"
_cell_formula_units_Z 52
_cell_length_a 31.420680
_cell_length_b 9.870044
_cell_length_c 21.232753
_cell_angle_alpha 90.000000
_cell_angle_beta 25.445044
_cell_angle_gamma 90.000000
_cell_volume 2829.117026
_symmetry_space_group_name_H-M "C 2/C"
_symmetry_group_IT_number 15
_symmetry_cell_setting 'monoclinic'
loop_
_space_group_symop_operation_xyz
x,y,z
-x,y,1/2-z
-x,-y,-z
x,-y,1/2+z
1/2+x,1/2+y,z
1/2-x,1/2+y,1/2-z
1/2-x,1/2-y,-z
1/2+x,1/2-y,1/2+z
loop_
_atom_site_type_symbol
_atom_site_label
_atom_site_fract_x
_atom_site_fract_y
_atom_site_fract_z
Si Si1 0.993776 0.707117 0.469055
Si Si2 0.343033 0.602435 0.239678
Si Si3 0.312960 0.466608 0.159170
Si Si4 0.850938 0.260728 0.520051
Si Si5 0.526879 0.556380 0.839928
Si Si6 0.500000 0.565783 0.250000
Si Si7 0.101542 0.428095 0.935324
O O1 0.901442 0.788803 0.619931
O O2 0.959634 0.566821 0.484391
O O3 0.048600 0.795277 0.340602
O O4 0.067269 0.679009 0.428626
O O5 0.322971 0.470633 0.222084
O O6 0.238254 0.669657 0.400792
O O7 0.408183 0.557881 0.211710
O O8 0.301298 0.317266 0.146142
O O9 0.217344 0.551977 0.266734
O O10 0.410240 0.532229 0.999381
O O11 0.914772 0.164633 0.390285
O O12 0.917441 0.372369 0.467969
O O13 0.550328 0.533785 0.734624
#
# Coordination Sequence:
#
# PCOD8131135 Si02
#       7
#     8   8   8   8   8   4   8
#     4  10  18  32  52  85 109 131 172 222 282 321
#     4  10  18  31  56  81 106 136 176 229 271 311
#     4   9  17  32  52  80 109 134 170 222 279 317
#     4  10  19  34  53  81 107 140 182 212 267 321
#     4  10  20  35  53  75 105 150 183 216 256 316
#     4  10  22  38  56  70 106 154 188 218 244 312
#     4  10  19  30  54  85 110 134 161 231 284 310
#
# _framework density 18.380293000000002
#
# number of rings (size 3 to 8) (size 9 to 14) (size 15 to 20)
#    0.000    2.154    1.538    4.615    0.000    0.615 
#    0.000    0.769    0.000    3.692    0.000    0.000 
#    0.000    0.000    0.000    0.000    0.000    0.000 
#
# Total GULP energy -322128.995145 kJ/mol
# GULP energy per Si atom -12389.576736 kJ/mol
# Density = 1.833846 g / cm^3
# Si number density = 18.380293 Si / 1000 Ang^3
#
#
#
# Elastic Constant Matrix: (Units=GPa)
#
#
# Indices 1 2 3 4 5 6 
#
# 1 109.2266 40.7328 46.8965 0.0005 0.2911 0.0000
# 2 40.7328 79.9115 26.8958 -0.0039 6.4152 0.0007
# 3 46.8965 26.8958 60.5046 -0.0035 -3.4415 0.0003
# 4 0.0005 -0.0039 -0.0035 26.2188 0.0003 5.8055
# 5 0.2911 6.4152 -3.4415 0.0003 27.8850 0.0001
# 6 0.0000 0.0007 0.0003 5.8055 0.0001 30.1214
#
#
#
# Elastic Compliance Matrix: (Units=1/GPa)
#
#
# Indices 1 2 3 4 5 6 
#
# 1 0.014916 -0.004324 -0.009659 -0.000002 -0.000353 0.000001
# 2 -0.004324 0.016480 -0.004217 0.000002 -0.004267 -0.000001
# 3 -0.009659 -0.004217 0.026133 0.000003 0.004296 -0.000001
# 4 -0.000002 0.000002 0.000003 0.039841 -0.000001 -0.007679
# 5 -0.000353 -0.004267 0.004296 -0.000001 0.037377 0.000000
# 6 0.000001 -0.000001 -0.000001 -0.007679 0.000000 0.034679
#
#
# Mechanical properties :
#
#
# Convention : Reuss Voigt Hill
#
# Bulk Modulus (GPa) = 47.32842 53.18812 50.25827
# Shear Modulus (GPa) = 23.48869 25.85288 24.67079
#
# Velocity S-wave (km/s) = 3.57869 3.75447 3.66764
# Velocity P-wave (km/s) = 6.54840 6.91341 6.73337
#
# Compressibility (1/GPa) = 0.02112895
#
# Stress axis : x y z
#
# Youngs Moduli (GPa) = 67.04322 60.68136 38.26515
#
# Poissons Ratio (x) = 0.26236 0.36961
# Poissons Ratio (y) = 0.28987 0.16137
# Poissons Ratio (z) = 0.64759 0.25590
#
# Static dielectric constant tensor:
#      x y z
#    x 3.637950 0.000000 -0.155320 
#    y 0.000000 3.618990 0.000000 
#    z -0.155320 0.000000 3.113800 
# 
# 
# High freq. dielectric constant tensor:
#      x y z
#    x 1.720500 0.000000 -0.027940 
#    y 0.000000 1.716010 0.000000 
#    z -0.027940 0.000000 1.675660 
# 
# From -- ./inp_files/258832.got.cif
#   From: 2010.06.25/outbox.cif.g09.slc.cpg/sg15_130_cif.got.tgz:258832.got - 2010.06.28 07:06:18.
