data_PCOD8131850
_publ_section_title
;
Structure prediction by ZEFSAII (Michael W. Deem and Ramdas Pophale) SiO2 
 PCOD8131850
Probable space group: C 2/C
;
_chemical_formula_sum "Si O2"
_cell_formula_units_Z 60
_cell_length_a 12.274448
_cell_length_b 12.723956
_cell_length_c 22.811958
_cell_angle_alpha 90.000000
_cell_angle_beta 62.255231
_cell_angle_gamma 90.000000
_cell_volume 3153.150899
_symmetry_space_group_name_H-M "C 2/C"
_symmetry_group_IT_number 15
_symmetry_cell_setting 'monoclinic'
loop_
_space_group_symop_operation_xyz
x,y,z
-x,y,1/2-z
-x,-y,-z
x,-y,1/2+z
1/2+x,1/2+y,z
1/2-x,1/2+y,1/2-z
1/2-x,1/2-y,-z
1/2+x,1/2-y,1/2+z
loop_
_atom_site_type_symbol
_atom_site_label
_atom_site_fract_x
_atom_site_fract_y
_atom_site_fract_z
Si Si1 0.620159 0.634218 0.477565
Si Si2 0.626514 0.382012 0.318496
Si Si3 0.390432 0.896187 0.864842
Si Si4 0.377460 0.877792 0.312709
Si Si5 0.041583 0.037202 0.081567
Si Si6 0.274397 0.708110 0.429063
Si Si7 0.500000 0.267571 0.250000
Si Si8 0.469609 0.796278 0.572778
O O1 0.752847 0.629875 0.416685
O O2 0.519035 0.602268 0.455412
O O3 0.619816 0.557204 0.533628
O O4 0.584230 0.753068 0.505369
O O5 0.773401 0.393589 0.288906
O O6 0.561416 0.493918 0.347568
O O7 0.594519 0.342044 0.261575
O O8 0.578426 0.302356 0.378885
O O9 0.420316 0.805302 0.811656
O O10 0.481959 0.889472 0.897758
O O11 0.407947 0.010599 0.833962
O O12 0.500000 0.834435 0.250000
O O13 0.332273 0.799683 0.374673
O O14 0.132446 0.111061 0.095302
O O15 0.250000 0.750000 0.500000
O O16 0.144806 0.663477 0.437083
#
# Coordination Sequence:
#
# PCOD8131850 Si02
#       8
#     8   8   8   8   8   8   4   8
#     4  10  18  34  62  87 111 153 196 238 291 369
#     4   9  20  41  58  80 115 154 199 236 290 361
#     4  11  20  37  62  84 116 157 197 244 302 357
#     4  11  23  41  59  86 122 162 198 242 309 365
#     4  10  19  35  61  86 113 155 194 232 302 350
#     4  11  21  39  63  89 124 158 200 251 299 357
#     4  10  22  40  60  82 112 152 200 248 286 344
#     4   9  20  36  60  87 117 151 191 251 300 345
#
# _framework density 19.028583999999999
#
# number of rings (size 3 to 8) (size 9 to 14) (size 15 to 20)
#    0.000    1.867    3.333    1.200    0.000    1.067 
#    3.600    2.667    0.000    0.000    0.000    0.000 
#    0.000    0.000    0.000    0.000    0.000    0.000 
#
# Total GULP energy -371992.824999 kJ/mol
# GULP energy per Si atom -12399.760833 kJ/mol
# Density = 1.898527 g / cm^3
# Si number density = 19.028584 Si / 1000 Ang^3
#
#
#
# Elastic Constant Matrix: (Units=GPa)
#
#
# Indices 1 2 3 4 5 6 
#
# 1 105.0227 36.2527 40.2541 0.0000 6.2663 0.0000
# 2 36.2527 71.9078 23.4511 0.0000 12.0929 0.0000
# 3 40.2541 23.4511 90.2633 0.0000 -3.1163 0.0000
# 4 0.0000 0.0000 0.0000 22.7792 0.0000 7.1048
# 5 6.2663 12.0929 -3.1163 0.0000 36.9067 0.0000
# 6 0.0000 0.0000 0.0000 7.1048 0.0000 21.2495
#
#
#
# Elastic Compliance Matrix: (Units=1/GPa)
#
#
# Indices 1 2 3 4 5 6 
#
# 1 0.013027 -0.004912 -0.004568 0.000000 -0.000988 0.000000
# 2 -0.004912 0.018168 -0.002714 0.000000 -0.005348 0.000000
# 3 -0.004568 -0.002714 0.013919 0.000000 0.002840 0.000000
# 4 0.000000 0.000000 0.000000 0.049011 0.000000 -0.016387
# 5 -0.000988 -0.005348 0.002840 0.000000 0.029255 0.000000
# 6 0.000000 0.000000 0.000000 -0.016387 0.000000 0.052539
#
#
# Mechanical properties :
#
#
# Convention : Reuss Voigt Hill
#
# Bulk Modulus (GPa) = 48.24800 51.90107 50.07453
# Shear Modulus (GPa) = 24.12963 27.33614 25.73288
#
# Velocity S-wave (km/s) = 3.56486 3.79434 3.68139
# Velocity P-wave (km/s) = 6.50807 6.82133 6.66654
#
# Compressibility (1/GPa) = 0.02072625
#
# Stress axis : x y z
#
# Youngs Moduli (GPa) = 76.76432 55.04310 71.84486
#
# Poissons Ratio (x) = 0.27036 0.32815
# Poissons Ratio (y) = 0.37705 0.19500
# Poissons Ratio (z) = 0.35062 0.14940
#
# Static dielectric constant tensor:
#      x y z
#    x 3.715070 0.000000 0.054520 
#    y 0.000000 3.416400 0.000000 
#    z 0.054520 0.000000 3.482760 
# 
# 
# High freq. dielectric constant tensor:
#      x y z
#    x 1.750660 0.000000 -0.001830 
#    y 0.000000 1.726680 0.000000 
#    z -0.001830 0.000000 1.735430 
# 
# From -- ./inp_files/268799.got.cif
#   From: 2010.06.25/outbox.cif.g09.slc.cpg/sg15_135_cif.got.tgz:268799.got - 2010.06.28 07:06:18.
