data_PCOD8131469
_publ_section_title
;
Structure prediction by ZEFSAII (Michael W. Deem and Ramdas Pophale) SiO2 
 PCOD8131469
Probable space group: C 2/C
;
_chemical_formula_sum "Si O2"
_cell_formula_units_Z 64
_cell_length_a 19.480056
_cell_length_b 8.428457
_cell_length_c 23.967975
_cell_angle_alpha 90.000000
_cell_angle_beta 122.523289
_cell_angle_gamma 90.000000
_cell_volume 3318.075780
_symmetry_space_group_name_H-M "C 2/C"
_symmetry_group_IT_number 15
_symmetry_cell_setting 'monoclinic'
loop_
_space_group_symop_operation_xyz
x,y,z
-x,y,1/2-z
-x,-y,-z
x,-y,1/2+z
1/2+x,1/2+y,z
1/2-x,1/2+y,1/2-z
1/2-x,1/2-y,-z
1/2+x,1/2-y,1/2+z
loop_
_atom_site_type_symbol
_atom_site_label
_atom_site_fract_x
_atom_site_fract_y
_atom_site_fract_z
Si Si1 0.850746 0.280326 0.333145
Si Si2 0.751345 0.005946 0.643702
Si Si3 0.998293 0.471277 0.081107
Si Si4 0.339574 0.794581 0.201683
Si Si5 0.063039 0.537168 0.324105
Si Si6 0.226639 0.720893 0.426392
Si Si7 0.906623 0.686565 0.450230
Si Si8 0.319638 0.508822 0.890449
O O1 0.766123 0.370086 0.313188
O O2 0.925058 0.358811 0.398628
O O3 0.872034 0.305709 0.278335
O O4 0.846398 0.096297 0.348931
O O5 0.767105 0.103466 0.595002
O O6 0.829686 0.893521 0.686194
O O7 0.676164 0.888459 0.607087
O O8 0.018134 0.637138 0.057682
O O9 0.984848 0.500953 0.140243
O O10 0.922289 0.379258 0.019813
O O11 0.403611 0.871751 0.186802
O O12 0.255888 0.888330 0.162147
O O13 0.136240 0.655826 0.372610
O O14 0.000000 0.610414 0.250000
O O15 0.250000 0.750000 0.500000
O O16 0.294944 0.604663 0.430956
O O17 0.893935 0.877376 0.442874
#
# Coordination Sequence:
#
# PCOD8131469 Si02
#       8
#     8   8   8   8   8   8   8   8
#     4  10  18  33  54  80 111 143 181 231 282 333
#     4   9  19  35  56  82 104 138 190 236 275 321
#     4  10  20  35  57  79 114 153 182 233 285 351
#     4  10  19  35  56  79 111 143 185 228 281 342
#     4  11  22  39  57  82 118 155 189 229 297 360
#     4  10  21  38  61  83 113 151 193 240 284 342
#     4   9  19  37  58  84 109 143 196 237 287 330
#     4   9  20  35  57  86 107 143 194 243 279 326
#
# _framework density 19.288287
#
# number of rings (size 3 to 8) (size 9 to 14) (size 15 to 20)
#    0.000    2.250    1.250    1.500    0.000    2.500 
#    4.500    5.625    0.000    0.000    0.000    0.000 
#    0.000    0.000    0.000    0.000    0.000    0.000 
#
# Total GULP energy -396567.765772 kJ/mol
# GULP energy per Si atom -12392.742680 kJ/mol
# Density = 1.924439 g / cm^3
# Si number density = 19.288287 Si / 1000 Ang^3
#
#
#
# Elastic Constant Matrix: (Units=GPa)
#
#
# Indices 1 2 3 4 5 6 
#
# 1 76.4715 31.9899 32.5123 0.0000 -16.4137 0.0000
# 2 31.9899 104.6794 31.1403 0.0000 -5.8180 0.0000
# 3 32.5123 31.1403 101.9513 0.0000 -20.3063 0.0000
# 4 0.0000 0.0000 0.0000 29.6838 0.0000 0.2303
# 5 -16.4137 -5.8180 -20.3063 0.0000 32.3446 0.0000
# 6 0.0000 0.0000 0.0000 0.2303 0.0000 17.6751
#
#
#
# Elastic Compliance Matrix: (Units=1/GPa)
#
#
# Indices 1 2 3 4 5 6 
#
# 1 0.017410 -0.004061 -0.003083 0.000000 0.006169 0.000000
# 2 -0.004061 0.011455 -0.002519 0.000000 -0.001582 0.000000
# 3 -0.003083 -0.002519 0.012754 0.000000 0.005990 0.000000
# 4 0.000000 0.000000 0.000000 0.033692 0.000000 -0.000439
# 5 0.006169 -0.001582 0.005990 0.000000 0.037524 0.000000
# 6 0.000000 0.000000 0.000000 -0.000439 0.000000 0.056582
#
#
# Mechanical properties :
#
#
# Convention : Reuss Voigt Hill
#
# Bulk Modulus (GPa) = 44.85426 52.70970 48.78198
# Shear Modulus (GPa) = 25.48749 28.43801 26.96275
#
# Velocity S-wave (km/s) = 3.63905 3.84391 3.74288
# Velocity P-wave (km/s) = 6.40016 6.86204 6.63512
#
# Compressibility (1/GPa) = 0.02229443
#
# Stress axis : x y z
#
# Youngs Moduli (GPa) = 57.43712 87.29546 78.40529
#
# Poissons Ratio (x) = 0.35447 0.24174
# Poissons Ratio (y) = 0.23322 0.19751
# Poissons Ratio (z) = 0.17709 0.21990
#
# Static dielectric constant tensor:
#      x y z
#    x 3.459700 0.000000 0.071720 
#    y 0.000000 3.751700 0.000000 
#    z 0.071720 0.000000 3.460620 
# 
# 
# High freq. dielectric constant tensor:
#      x y z
#    x 1.739540 0.000000 -0.004010 
#    y 0.000000 1.749850 0.000000 
#    z -0.004010 0.000000 1.750080 
# 
# From -- ./inp_files/279574.got.cif
#   From: 2010.06.25/outbox.cif.g09.slc.cpg/sg15_140_cif.got.tgz:279574.got - 2010.06.28 07:06:18.
