data_PCOD8131926
_publ_section_title
;
Structure prediction by ZEFSAII (Michael W. Deem and Ramdas Pophale) SiO2 
 PCOD8131926
Probable space group: C 2/C
;
_chemical_formula_sum "Si O2"
_cell_formula_units_Z 56
_cell_length_a 9.053723
_cell_length_b 18.286404
_cell_length_c 20.469740
_cell_angle_alpha 90.000000
_cell_angle_beta 61.947792
_cell_angle_gamma 90.000000
_cell_volume 2990.832713
_symmetry_space_group_name_H-M "C 2/C"
_symmetry_group_IT_number 15
_symmetry_cell_setting 'monoclinic'
loop_
_space_group_symop_operation_xyz
x,y,z
-x,y,1/2-z
-x,-y,-z
x,-y,1/2+z
1/2+x,1/2+y,z
1/2-x,1/2+y,1/2-z
1/2-x,1/2-y,-z
1/2+x,1/2-y,1/2+z
loop_
_atom_site_type_symbol
_atom_site_label
_atom_site_fract_x
_atom_site_fract_y
_atom_site_fract_z
Si Si1 0.863972 0.562430 0.541047
Si Si2 0.837784 0.887995 0.822223
Si Si3 0.634195 0.018982 0.815680
Si Si4 0.059146 0.973642 0.573039
Si Si5 0.328494 0.346712 0.035805
Si Si6 0.781252 0.550373 0.841719
Si Si7 0.096407 0.310572 0.965033
O O1 0.835094 0.566869 0.625394
O O2 0.694223 0.539855 0.538767
O O3 0.000000 0.500000 0.500000
O O4 0.929181 0.639432 0.497439
O O5 0.911257 0.937098 0.863917
O O6 0.720761 0.825055 0.877743
O O7 0.000000 0.855366 0.750000
O O8 0.721669 0.939398 0.801056
O O9 0.438193 0.008041 0.841191
O O10 0.709790 0.062557 0.738046
O O11 0.067431 0.915550 0.512466
O O12 0.873930 0.001519 0.606570
O O13 0.239041 0.369383 0.122138
O O14 0.446005 0.275937 0.025295
O O15 0.183704 0.329389 0.014808
#
# Coordination Sequence:
#
# PCOD8131926 Si02
#       7
#     8   8   8   8   8   8   8
#     4  11  17  34  57  80 100 146 182 229 259 325
#     4  10  18  35  55  80 102 140 182 223 268 324
#     4  10  20  31  55  81 108 136 184 224 280 318
#     4  10  20  32  59  79 107 138 187 228 268 325
#     4  10  20  35  51  84 107 144 179 233 277 325
#     4  11  20  34  51  83 112 141 174 236 277 327
#     4  10  20  35  57  75 114 141 190 226 270 336
#
# _framework density 18.723882
#
# number of rings (size 3 to 8) (size 9 to 14) (size 15 to 20)
#    0.000    1.714    7.143    0.429    0.000    0.000 
#    2.571    0.714    0.000    0.000    0.000    0.000 
#    0.000    0.000    0.000    0.000    0.000    0.000 
#
# Total GULP energy -347013.122939 kJ/mol
# GULP energy per Si atom -12393.325819 kJ/mol
# Density = 1.868127 g / cm^3
# Si number density = 18.723882 Si / 1000 Ang^3
#
#
#
# Elastic Constant Matrix: (Units=GPa)
#
#
# Indices 1 2 3 4 5 6 
#
# 1 64.7140 31.6722 45.4506 0.0000 -16.4760 0.0000
# 2 31.6722 83.5869 66.7118 0.0000 -14.6989 0.0000
# 3 45.4506 66.7118 131.0545 0.0000 -3.0338 0.0000
# 4 0.0000 0.0000 0.0000 18.6759 0.0000 -4.3900
# 5 -16.4760 -14.6989 -3.0338 0.0000 31.7368 0.0000
# 6 0.0000 0.0000 0.0000 -4.3900 0.0000 3.3104
#
#
#
# Elastic Compliance Matrix: (Units=1/GPa)
#
#
# Indices 1 2 3 4 5 6 
#
# 1 0.024192 -0.001166 -0.007535 0.000000 0.011299 0.000000
# 2 -0.001166 0.022699 -0.010945 0.000000 0.008862 0.000000
# 3 -0.007535 -0.010945 0.015642 0.000000 -0.007486 0.000000
# 4 0.000000 0.000000 0.000000 0.077795 0.000000 0.103164
# 5 0.011299 0.008862 -0.007486 0.000000 0.040763 0.000000
# 6 0.000000 0.000000 0.000000 0.103164 0.000000 0.438883
#
#
# Mechanical properties :
#
#
# Convention : Reuss Voigt Hill
#
# Bulk Modulus (GPa) = 43.02799 63.00272 53.01536
# Shear Modulus (GPa) = 7.49610 19.77936 13.63773
#
# Velocity S-wave (km/s) = 2.00304 3.25371 2.70174
# Velocity P-wave (km/s) = 5.32726 6.91642 6.17319
#
# Compressibility (1/GPa) = 0.02324068
#
# Stress axis : x y z
#
# Youngs Moduli (GPa) = 41.33622 44.05408 63.93122
#
# Poissons Ratio (x) = 0.05137 0.48171
# Poissons Ratio (y) = 0.04820 0.69975
# Poissons Ratio (z) = 0.31146 0.48219
#
# Static dielectric constant tensor:
#      x y z
#    x 3.477560 0.000000 0.043020 
#    y 0.000000 3.451680 0.000000 
#    z 0.043020 0.000000 3.860880 
# 
# 
# High freq. dielectric constant tensor:
#      x y z
#    x 1.716820 0.000000 0.003470 
#    y 0.000000 1.692500 0.000000 
#    z 0.003470 0.000000 1.743240 
# 
# From -- ./inp_files/233437.got.cif
#   From: 2010.06.25/outbox.cif.g09.slc.cpg/sg15_117_cif.got.tgz:233437.got - 2010.06.28 07:06:18.
