data_PCOD8131179
_publ_section_title
;
Structure prediction by ZEFSAII (Michael W. Deem and Ramdas Pophale) SiO2 
 PCOD8131179
Probable space group: C 2/C
;
_chemical_formula_sum "Si O2"
_cell_formula_units_Z 64
_cell_length_a 19.789265
_cell_length_b 9.258355
_cell_length_c 20.336393
_cell_angle_alpha 90.000000
_cell_angle_beta 110.397759
_cell_angle_gamma 90.000000
_cell_volume 3492.319816
_symmetry_space_group_name_H-M "C 2/C"
_symmetry_group_IT_number 15
_symmetry_cell_setting 'monoclinic'
loop_
_space_group_symop_operation_xyz
x,y,z
-x,y,1/2-z
-x,-y,-z
x,-y,1/2+z
1/2+x,1/2+y,z
1/2-x,1/2+y,1/2-z
1/2-x,1/2-y,-z
1/2+x,1/2-y,1/2+z
loop_
_atom_site_type_symbol
_atom_site_label
_atom_site_fract_x
_atom_site_fract_y
_atom_site_fract_z
Si Si1 0.694225 0.603763 0.831505
Si Si2 0.145095 0.618405 0.665070
Si Si3 0.769672 0.160045 0.943747
Si Si4 0.569252 0.686053 0.038837
Si Si5 0.643440 0.204808 0.205282
Si Si6 0.800132 0.783492 0.700829
Si Si7 0.690248 0.367406 0.480804
Si Si8 0.417823 0.641607 0.928939
O O1 0.779845 0.624876 0.849645
O O2 0.647318 0.733315 0.781694
O O3 0.673699 0.447829 0.795672
O O4 0.672324 0.590934 0.900127
O O5 0.086255 0.683916 0.595043
O O6 0.123269 0.461634 0.685870
O O7 0.143422 0.712269 0.730652
O O8 0.706098 0.194996 0.869798
O O9 0.848458 0.205502 0.943789
O O10 0.750000 0.250000 0.000000
O O11 0.773289 0.992980 0.963703
O O12 0.582054 0.531291 0.077258
O O13 0.618049 0.692798 0.990016
O O14 0.486573 0.703656 0.990294
O O15 0.722577 0.234349 0.206285
O O16 0.584531 0.299057 0.146108
O O17 0.750000 0.250000 0.500000
#
# Coordination Sequence:
#
# PCOD8131179 Si02
#       8
#     8   8   8   8   8   8   8   8
#     4  10  18  32  49  79 109 136 176 216 269 315
#     4  10  19  31  52  78 105 137 178 220 265 311
#     4  10  19  34  55  82 109 134 176 220 268 313
#     4  10  20  36  54  77 107 142 181 215 263 320
#     4   9  19  31  51  76 106 137 176 221 263 311
#     4   9  18  31  51  76 106 138 172 221 263 313
#     4  11  21  31  53  81 113 139 171 220 271 313
#     4   9  20  36  55  77 104 141 182 218 257 317
#
# _framework density 18.325928000000001
#
# number of rings (size 3 to 8) (size 9 to 14) (size 15 to 20)
#    0.000    2.250    2.500    0.750    1.750    3.500 
#    0.000    0.625    0.000    0.750    3.250    0.000 
#    0.000    0.000    0.000    0.000    0.000    0.000 
#
# Total GULP energy -396574.648905 kJ/mol
# GULP energy per Si atom -12392.957778 kJ/mol
# Density = 1.828422 g / cm^3
# Si number density = 18.325928 Si / 1000 Ang^3
#
#
#
# Elastic Constant Matrix: (Units=GPa)
#
#
# Indices 1 2 3 4 5 6 
#
# 1 44.9052 23.1997 25.2341 0.0000 3.0936 0.0000
# 2 23.1997 89.8600 51.5589 0.0000 7.7604 0.0000
# 3 25.2341 51.5589 116.0094 0.0000 -3.4051 0.0000
# 4 0.0000 0.0000 0.0000 42.7732 0.0000 -0.9629
# 5 3.0936 7.7604 -3.4051 0.0000 23.0149 0.0000
# 6 0.0000 0.0000 0.0000 -0.9629 0.0000 18.5472
#
#
#
# Elastic Compliance Matrix: (Units=1/GPa)
#
#
# Indices 1 2 3 4 5 6 
#
# 1 0.026989 -0.004456 -0.003970 0.000000 -0.002713 0.000000
# 2 -0.004456 0.016560 -0.006566 0.000000 -0.005957 0.000000
# 3 -0.003970 -0.006566 0.012537 0.000000 0.004602 0.000000
# 4 0.000000 0.000000 0.000000 0.023406 0.000000 0.001215
# 5 -0.002713 -0.005957 0.004602 0.000000 0.046504 0.000000
# 6 0.000000 0.000000 0.000000 0.001215 0.000000 0.053980
#
#
# Mechanical properties :
#
#
# Convention : Reuss Voigt Hill
#
# Bulk Modulus (GPa) = 38.30947 50.08442 44.19695
# Shear Modulus (GPa) = 22.86656 26.91919 24.89287
#
# Velocity S-wave (km/s) = 3.53621 3.83680 3.68957
# Velocity P-wave (km/s) = 6.13376 6.85691 6.50539
#
# Compressibility (1/GPa) = 0.02610321
#
# Stress axis : x y z
#
# Youngs Moduli (GPa) = 37.05232 60.38503 79.76636
#
# Poissons Ratio (x) = 0.26907 0.31666
# Poissons Ratio (y) = 0.16510 0.52372
# Poissons Ratio (z) = 0.14709 0.39647
#
# Static dielectric constant tensor:
#      x y z
#    x 3.007530 0.000000 0.092970 
#    y 0.000000 3.776880 0.000000 
#    z 0.092970 0.000000 1.215490 
# 
# 
# High freq. dielectric constant tensor:
#      x y z
#    x 1.663390 0.000000 -0.008620 
#    y 0.000000 1.717990 0.000000 
#    z -0.008620 0.000000 1.722820 
# 
# From -- ./inp_files/251903.got.cif
#   From: 2010.06.25/outbox.cif.g09.slc.cpg/sg15_126_cif.got.tgz:251903.got - 2010.06.28 07:06:18.
