data_PCOD8131195
_publ_section_title
;
Structure prediction by ZEFSAII (Michael W. Deem and Ramdas Pophale) SiO2 
 PCOD8131195
Probable space group: C 2/C
;
_chemical_formula_sum "Si O2"
_cell_formula_units_Z 48
_cell_length_a 30.604237
_cell_length_b 14.817876
_cell_length_c 8.878424
_cell_angle_alpha 90.000000
_cell_angle_beta 139.029316
_cell_angle_gamma 90.000000
_cell_volume 2639.918709
_symmetry_space_group_name_H-M "C 2/C"
_symmetry_group_IT_number 15
_symmetry_cell_setting 'monoclinic'
loop_
_space_group_symop_operation_xyz
x,y,z
-x,y,1/2-z
-x,-y,-z
x,-y,1/2+z
1/2+x,1/2+y,z
1/2-x,1/2+y,1/2-z
1/2-x,1/2-y,-z
1/2+x,1/2-y,1/2+z
loop_
_atom_site_type_symbol
_atom_site_label
_atom_site_fract_x
_atom_site_fract_y
_atom_site_fract_z
Si Si1 0.791795 0.559438 0.753571
Si Si2 0.676521 0.247033 0.744640
Si Si3 0.139038 0.092067 0.317468
Si Si4 0.077509 0.931667 0.982108
Si Si5 0.794299 0.387590 0.596708
Si Si6 0.838732 0.201114 0.635364
O O1 0.839414 0.640022 0.812374
O O2 0.716283 0.565997 0.494962
O O3 0.821868 0.462350 0.784893
O O4 0.790311 0.562543 0.927945
O O5 0.628998 0.303702 0.734173
O O6 0.672092 0.294989 0.570933
O O7 0.750000 0.250000 0.000000
O O8 0.118223 0.084925 0.435715
O O9 0.094405 0.028482 0.096435
O O10 0.000000 0.927351 0.750000
O O11 0.094536 0.852989 0.147327
O O12 0.843112 0.301284 0.718891
O O13 0.721070 0.355108 0.448622
#
# Coordination Sequence:
#
# PCOD8131195 Si02
#       6
#     8   8   8   8   8   8
#     4  10  18  32  50  83 105 143 166 217 283 334
#     4   9  21  32  53  79 110 138 179 221 286 334
#     4  11  20  35  50  76 108 144 186 227 260 324
#     4  12  24  37  54  76 108 157 196 223 265 313
#     4  10  20  30  54  76 111 138 176 216 288 328
#     4  10  20  36  49  78 110 146 178 231 267 332
#
# _framework density 18.182376999999999
#
# number of rings (size 3 to 8) (size 9 to 14) (size 15 to 20)
#    0.000    1.667    3.333    1.500    7.000    0.000 
#    0.000    0.000    0.000    0.000    0.000   11.667 
#    0.000    0.000    0.000    0.000    0.000    0.000 
#
# Total GULP energy -297477.253909 kJ/mol
# GULP energy per Si atom -12394.885580 kJ/mol
# Density = 1.814099 g / cm^3
# Si number density = 18.182377 Si / 1000 Ang^3
#
#
#
# Elastic Constant Matrix: (Units=GPa)
#
#
# Indices 1 2 3 4 5 6 
#
# 1 43.4803 40.5791 28.9957 0.0000 -19.8855 0.0000
# 2 40.5791 139.8398 48.8823 0.0000 -15.4599 0.0000
# 3 28.9957 48.8823 89.8154 0.0000 -7.3582 0.0000
# 4 0.0000 0.0000 0.0000 30.7718 0.0000 -11.8810
# 5 -19.8855 -15.4599 -7.3582 0.0000 27.8168 0.0000
# 6 0.0000 0.0000 0.0000 -11.8810 0.0000 27.0562
#
#
#
# Elastic Compliance Matrix: (Units=1/GPa)
#
#
# Indices 1 2 3 4 5 6 
#
# 1 0.049871 -0.008017 -0.009385 0.000000 0.028714 0.000000
# 2 -0.008017 0.010513 -0.003193 0.000000 -0.000733 0.000000
# 3 -0.009385 -0.003193 0.015544 0.000000 -0.004372 0.000000
# 4 0.000000 0.000000 0.000000 0.039132 0.000000 0.017184
# 5 0.028714 -0.000733 -0.004372 0.000000 0.054912 0.000000
# 6 0.000000 0.000000 0.000000 0.017184 0.000000 0.044506
#
#
# Mechanical properties :
#
#
# Convention : Reuss Voigt Hill
#
# Bulk Modulus (GPa) = 28.78740 56.67218 42.72979
# Shear Modulus (GPa) = 18.70933 27.44087 23.07510
#
# Velocity S-wave (km/s) = 3.21125 3.88906 3.56630
# Velocity P-wave (km/s) = 5.44210 7.16957 6.36472
#
# Compressibility (1/GPa) = 0.03473742
#
# Stress axis : x y z
#
# Youngs Moduli (GPa) = 20.05164 95.12346 64.33545
#
# Poissons Ratio (x) = 0.76259 0.60377
# Poissons Ratio (y) = 0.16075 0.20545
# Poissons Ratio (z) = 0.18818 0.30377
#
# Static dielectric constant tensor:
#      x y z
#    x 3.258920 0.000000 -0.316340 
#    y 0.000000 4.003350 0.000000 
#    z -0.316340 0.000000 3.157080 
# 
# 
# High freq. dielectric constant tensor:
#      x y z
#    x 1.681360 0.000000 -0.045790 
#    y 0.000000 1.724530 0.000000 
#    z -0.045790 0.000000 1.675200 
# 
# From -- ./inp_files/55428.got.cif
#   From: 2010.06.25/outbox.cif.g09.slc.cpg/sg15_28_cif.got.tgz:55428.got - 2010.06.28 07:06:18.
