data_PCOD8131968
_publ_section_title
;
Structure prediction by ZEFSAII (Michael W. Deem and Ramdas Pophale) SiO2 
 PCOD8131968
Probable space group: C 2/C
;
_chemical_formula_sum "Si O2"
_cell_formula_units_Z 56
_cell_length_a 22.793960
_cell_length_b 8.208849
_cell_length_c 14.713324
_cell_angle_alpha 90.000000
_cell_angle_beta 89.294525
_cell_angle_gamma 90.000000
_cell_volume 2752.833379
_symmetry_space_group_name_H-M "C 2/C"
_symmetry_group_IT_number 15
_symmetry_cell_setting 'monoclinic'
loop_
_space_group_symop_operation_xyz
x,y,z
-x,y,1/2-z
-x,-y,-z
x,-y,1/2+z
1/2+x,1/2+y,z
1/2-x,1/2+y,1/2-z
1/2-x,1/2-y,-z
1/2+x,1/2-y,1/2+z
loop_
_atom_site_type_symbol
_atom_site_label
_atom_site_fract_x
_atom_site_fract_y
_atom_site_fract_z
Si Si1 0.266968 0.882413 0.572153
Si Si2 0.355633 0.130366 0.491123
Si Si3 0.937432 0.088845 0.780374
Si Si4 0.353824 0.495290 0.432637
Si Si5 0.062067 0.483268 0.366315
Si Si6 0.873779 0.197864 0.613820
Si Si7 0.065934 0.458766 0.665988
O O1 0.250000 0.750000 0.500000
O O2 0.312643 0.793537 0.639774
O O3 0.297577 0.038804 0.525091
O O4 0.205531 0.941564 0.616959
O O5 0.340270 0.309696 0.458774
O O6 0.404305 0.145297 0.570418
O O7 0.381506 0.024316 0.406532
O O8 0.908165 0.985301 0.862292
O O9 0.891754 0.083296 0.697261
O O10 0.949713 0.270689 0.814666
O O11 0.000000 0.009948 0.750000
O O12 0.368773 0.595068 0.522421
O O13 0.076801 0.664982 0.401974
O O14 0.083618 0.458222 0.261374
O O15 0.992199 0.456921 0.374368
#
# Coordination Sequence:
#
# PCOD8131968 Si02
#       7
#     8   8   8   8   8   8   8
#     4   9  19  38  57  77 105 147 192 225 271 337
#     4  10  19  31  54  82 108 141 177 234 279 313
#     4  10  18  35  57  84 113 149 186 227 281 338
#     4  10  21  35  55  84 115 144 182 236 277 320
#     4   9  16  32  54  77 107 145 187 211 269 337
#     4   9  18  36  58  80 106 151 190 221 272 343
#     4   9  16  31  54  77 109 145 183 221 265 332
#
# _framework density 20.342676999999998
#
# number of rings (size 3 to 8) (size 9 to 14) (size 15 to 20)
#    0.000    2.571    2.857    0.857    0.000    0.571 
#    0.000   17.143    3.143    0.000    0.000    0.000 
#    0.000    0.000    0.000    0.000    0.000    0.000 
#
# Total GULP energy -347007.688427 kJ/mol
# GULP energy per Si atom -12393.131730 kJ/mol
# Density = 2.029638 g / cm^3
# Si number density = 20.342677 Si / 1000 Ang^3
#
#
#
# Elastic Constant Matrix: (Units=GPa)
#
#
# Indices 1 2 3 4 5 6 
#
# 1 130.8226 31.6287 57.7351 0.0000 -2.4273 0.0000
# 2 31.6287 41.1716 21.3049 0.0000 2.9767 0.0000
# 3 57.7351 21.3049 93.4920 0.0000 3.3173 0.0000
# 4 0.0000 0.0000 0.0000 19.8611 0.0000 2.6489
# 5 -2.4273 2.9767 3.3173 0.0000 31.6011 0.0000
# 6 0.0000 0.0000 0.0000 2.6489 0.0000 21.9039
#
#
#
# Elastic Compliance Matrix: (Units=1/GPa)
#
#
# Indices 1 2 3 4 5 6 
#
# 1 0.011797 -0.006129 -0.005963 0.000000 0.002109 0.000000
# 2 -0.006129 0.030839 -0.003135 0.000000 -0.003047 0.000000
# 3 -0.005963 -0.003135 0.015155 0.000000 -0.001754 0.000000
# 4 0.000000 0.000000 0.000000 0.051175 0.000000 -0.006189
# 5 0.002109 -0.003047 -0.001754 0.000000 0.032278 0.000000
# 6 0.000000 0.000000 0.000000 -0.006189 0.000000 0.046402
#
#
# Mechanical properties :
#
#
# Convention : Reuss Voigt Hill
#
# Bulk Modulus (GPa) = 36.57968 54.09151 45.33560
# Shear Modulus (GPa) = 22.00588 24.99438 23.50013
#
# Velocity S-wave (km/s) = 3.29258 3.50904 3.40253
# Velocity P-wave (km/s) = 5.69873 6.56244 6.14578
#
# Compressibility (1/GPa) = 0.02733758
#
# Stress axis : x y z
#
# Youngs Moduli (GPa) = 84.77090 32.42600 65.98491
#
# Poissons Ratio (x) = 0.19874 0.39346
# Poissons Ratio (y) = 0.51957 0.20683
# Poissons Ratio (z) = 0.50548 0.10164
#
# Static dielectric constant tensor:
#      x y z
#    x 4.146180 0.000000 0.208380 
#    y 0.000000 3.457080 0.000000 
#    z 0.208380 0.000000 4.101760 
# 
# 
# High freq. dielectric constant tensor:
#      x y z
#    x 1.801470 0.000000 0.011350 
#    y 0.000000 1.769190 0.000000 
#    z 0.011350 0.000000 1.782800 
# 
# From -- ./inp_files/166678.got.cif
#   From: 2010.06.25/outbox.cif.g09.slc.cpg/sg15_84_cif.got.tgz:166678.got - 2010.06.28 07:06:18.
