data_PCOD8131092
_publ_section_title
;
Structure prediction by ZEFSAII (Michael W. Deem and Ramdas Pophale) SiO2 
 PCOD8131092
Probable space group: C 2/C
;
_chemical_formula_sum "Si O2"
_cell_formula_units_Z 56
_cell_length_a 9.249486
_cell_length_b 16.927471
_cell_length_c 31.609003
_cell_angle_alpha 90.000000
_cell_angle_beta 145.002762
_cell_angle_gamma 90.000000
_cell_volume 2838.454103
_symmetry_space_group_name_H-M "C 2/C"
_symmetry_group_IT_number 15
_symmetry_cell_setting 'monoclinic'
loop_
_space_group_symop_operation_xyz
x,y,z
-x,y,1/2-z
-x,-y,-z
x,-y,1/2+z
1/2+x,1/2+y,z
1/2-x,1/2+y,1/2-z
1/2-x,1/2-y,-z
1/2+x,1/2-y,1/2+z
loop_
_atom_site_type_symbol
_atom_site_label
_atom_site_fract_x
_atom_site_fract_y
_atom_site_fract_z
Si Si1 0.378019 0.269742 0.986843
Si Si2 0.790767 0.451910 0.328262
Si Si3 0.029451 0.382778 0.626523
Si Si4 0.626340 0.170777 0.239950
Si Si5 0.647160 0.265308 0.853605
Si Si6 0.118100 0.612533 0.738022
Si Si7 0.352320 0.324323 0.142763
O O1 0.315712 0.203436 0.936862
O O2 0.264429 0.355257 0.945833
O O3 0.250000 0.250000 0.000000
O O4 0.678065 0.269221 0.066476
O O5 0.500000 0.472233 0.250000
O O6 0.930108 0.528730 0.381456
O O7 0.928529 0.431870 0.317236
O O8 0.817821 0.377962 0.366712
O O9 0.115791 0.383856 0.696086
O O10 0.197626 0.320714 0.641075
O O11 0.500000 0.126936 0.250000
O O12 0.467761 0.251439 0.196255
O O13 0.919154 0.187043 0.320723
O O14 0.531908 0.195230 0.798419
O O15 0.414843 0.623560 0.818253
O O16 0.000000 0.565360 0.750000
#
# Coordination Sequence:
#
# PCOD8131092 Si02
#       7
#     8   8   8   8   8   8   8
#     4   9  18  33  55  80 104 137 180 219 255 309
#     4  10  20  34  52  77 106 137 172 215 267 314
#     4  10  20  35  55  79 106 135 173 221 262 304
#     4  10  18  31  53  80 104 131 174 221 259 305
#     4  10  18  33  56  78 101 138 180 213 253 311
#     4  10  18  31  54  78 103 137 177 216 257 310
#     4   9  18  33  52  76 106 139 174 213 260 317
#
# _framework density 19.729049
#
# number of rings (size 3 to 8) (size 9 to 14) (size 15 to 20)
#    0.000    2.286    0.000    6.857    0.000    0.571 
#    0.000   10.000    0.000    1.714    0.000    0.000 
#    0.000    0.000    0.000    0.000    0.000    0.000 
#
# Total GULP energy -347049.966401 kJ/mol
# GULP energy per Si atom -12394.641657 kJ/mol
# Density = 1.968414 g / cm^3
# Si number density = 19.729049 Si / 1000 Ang^3
#
#
#
# Elastic Constant Matrix: (Units=GPa)
#
#
# Indices 1 2 3 4 5 6 
#
# 1 115.0630 24.8032 36.2449 0.0001 -14.0970 0.0003
# 2 24.8032 82.7992 15.1980 0.0002 -10.2320 0.0001
# 3 36.2449 15.1980 110.7127 0.0001 -3.0088 -0.0001
# 4 0.0001 0.0002 0.0001 16.3676 0.0000 -2.9262
# 5 -14.0970 -10.2320 -3.0088 0.0000 20.8366 0.0000
# 6 0.0003 0.0001 -0.0001 -2.9262 0.0000 21.5813
#
#
#
# Elastic Compliance Matrix: (Units=1/GPa)
#
#
# Indices 1 2 3 4 5 6 
#
# 1 0.010814 -0.001937 -0.003114 0.000000 0.005915 0.000000
# 2 -0.001937 0.013493 -0.001078 0.000000 0.005160 0.000000
# 3 -0.003114 -0.001078 0.010168 0.000000 -0.001168 0.000000
# 4 0.000000 0.000000 0.000000 0.062614 0.000000 0.008490
# 5 0.005915 0.005160 -0.001168 0.000000 0.054360 0.000000
# 6 0.000000 0.000000 0.000000 0.008490 0.000000 0.047487
#
#
# Mechanical properties :
#
#
# Convention : Reuss Voigt Hill
#
# Bulk Modulus (GPa) = 45.00823 51.22968 48.11896
# Shear Modulus (GPa) = 22.87292 27.24571 25.05932
#
# Velocity S-wave (km/s) = 3.40862 3.72021 3.56782
# Velocity P-wave (km/s) = 6.19308 6.66905 6.43547
#
# Compressibility (1/GPa) = 0.02221816
#
# Stress axis : x y z
#
# Youngs Moduli (GPa) = 92.47341 74.11190 98.34827
#
# Poissons Ratio (x) = 0.14355 0.30622
# Poissons Ratio (y) = 0.17911 0.10601
# Poissons Ratio (z) = 0.28792 0.07989
#
# Static dielectric constant tensor:
#      x y z
#    x 3.706990 0.000000 0.113050 
#    y 0.000000 3.338720 0.000000 
#    z 0.113050 0.000000 3.357560 
# 
# 
# High freq. dielectric constant tensor:
#      x y z
#    x 1.775430 0.000000 -0.004710 
#    y 0.000000 1.740710 0.000000 
#    z -0.004710 0.000000 1.751010 
# 
# From -- ./inp_files/308661.got.cif
#   From: 2010.06.25/outbox.cif.g09.slc.cpg/sg15_155_cif.got.tgz:308661.got - 2010.06.28 07:06:18.
