data_PCOD8131657
_publ_section_title
;
Structure prediction by ZEFSAII (Michael W. Deem and Ramdas Pophale) SiO2 
 PCOD8131657
Probable space group: C 2/C
;
_chemical_formula_sum "Si O2"
_cell_formula_units_Z 60
_cell_length_a 13.446038
_cell_length_b 14.415405
_cell_length_c 19.267668
_cell_angle_alpha 90.000000
_cell_angle_beta 59.580858
_cell_angle_gamma 90.000000
_cell_volume 3220.558297
_symmetry_space_group_name_H-M "C 2/C"
_symmetry_group_IT_number 15
_symmetry_cell_setting 'monoclinic'
loop_
_space_group_symop_operation_xyz
x,y,z
-x,y,1/2-z
-x,-y,-z
x,-y,1/2+z
1/2+x,1/2+y,z
1/2-x,1/2+y,1/2-z
1/2-x,1/2-y,-z
1/2+x,1/2-y,1/2+z
loop_
_atom_site_type_symbol
_atom_site_label
_atom_site_fract_x
_atom_site_fract_y
_atom_site_fract_z
Si Si1 0.551311 0.911509 0.599393
Si Si2 0.524502 0.120840 0.638325
Si Si3 0.709969 0.535239 0.744154
Si Si4 0.325713 0.763676 0.854252
Si Si5 0.806209 0.663357 0.208208
Si Si6 0.500000 0.620775 0.750000
Si Si7 0.370548 0.868336 0.074357
Si Si8 0.815353 0.669096 0.808277
O O1 0.642411 0.854771 0.613915
O O2 0.431724 0.857703 0.633658
O O3 0.604111 0.925715 0.504248
O O4 0.525935 0.009164 0.644389
O O5 0.492356 0.153317 0.571098
O O6 0.429050 0.165101 0.721442
O O7 0.649175 0.154897 0.622988
O O8 0.727479 0.426366 0.748639
O O9 0.578643 0.554212 0.769252
O O10 0.796226 0.569024 0.653033
O O11 0.731597 0.587792 0.809557
O O12 0.321181 0.782865 0.774471
O O13 0.422767 0.684154 0.829069
O O14 0.199679 0.725073 0.921419
O O15 0.743611 0.730661 0.175886
#
# Coordination Sequence:
#
# PCOD8131657 Si02
#       8
#     8   8   8   8   8   4   8   8
#     4  12  21  33  62  83 108 154 189 225 288 336
#     4  10  20  35  56  78 114 147 182 232 277 324
#     4  10  20  35  54  84 111 142 186 235 282 331
#     4  11  20  36  56  86 109 145 190 241 272 332
#     4  12  20  34  59  83 110 145 195 228 278 335
#     4  10  18  34  54  74 114 136 178 238 270 322
#     4  10  21  38  53  83 122 140 182 240 284 329
#     4  10  19  35  54  83 114 138 185 245 269 313
#
# _framework density 18.630310999999999
#
# number of rings (size 3 to 8) (size 9 to 14) (size 15 to 20)
#    0.000    1.333    8.000    1.600    1.867    1.067 
#    0.000    0.667    0.000    0.000    0.000    7.467 
#    0.000    0.000    0.000    0.000    0.000    0.000 
#
# Total GULP energy -371882.366509 kJ/mol
# GULP energy per Si atom -12396.078884 kJ/mol
# Density = 1.858791 g / cm^3
# Si number density = 18.630311 Si / 1000 Ang^3
#
#
#
# Elastic Constant Matrix: (Units=GPa)
#
#
# Indices 1 2 3 4 5 6 
#
# 1 142.1169 43.9971 7.8036 0.0000 1.0940 0.0000
# 2 43.9971 94.1981 -4.9881 0.0000 -12.3709 0.0000
# 3 7.8036 -4.9881 29.3569 0.0000 0.4783 0.0000
# 4 0.0000 0.0000 0.0000 10.4960 0.0000 -4.4790
# 5 1.0940 -12.3709 0.4783 0.0000 14.4621 0.0000
# 6 0.0000 0.0000 0.0000 -4.4790 0.0000 37.3289
#
#
#
# Elastic Compliance Matrix: (Units=1/GPa)
#
#
# Indices 1 2 3 4 5 6 
#
# 1 0.008749 -0.004870 -0.003076 0.000000 -0.004726 0.000000
# 2 -0.004870 0.014773 0.003595 0.000000 0.012887 0.000000
# 3 -0.003076 0.003595 0.035457 0.000000 0.002135 0.000000
# 4 0.000000 0.000000 0.000000 0.100416 0.000000 0.012049
# 5 -0.004726 0.012887 0.002135 0.000000 0.080457 0.000000
# 6 0.000000 0.000000 0.000000 0.012049 0.000000 0.028235
#
#
# Mechanical properties :
#
#
# Convention : Reuss Voigt Hill
#
# Bulk Modulus (GPa) = 19.88988 39.92191 29.90589
# Shear Modulus (GPa) = 17.03287 27.04802 22.04044
#
# Velocity S-wave (km/s) = 3.02695 3.81442 3.44327
# Velocity P-wave (km/s) = 4.78705 6.39333 5.64759
#
# Compressibility (1/GPa) = 0.05027683
#
# Stress axis : x y z
#
# Youngs Moduli (GPa) = 114.29230 67.68921 28.20297
#
# Poissons Ratio (x) = 0.32966 0.08676
# Poissons Ratio (y) = 0.55663 -0.10138
# Poissons Ratio (z) = 0.35159 -0.24333
#
# Static dielectric constant tensor:
#      x y z
#    x 4.155530 0.000000 0.071270 
#    y 0.000000 3.439970 0.000000 
#    z 0.071270 0.000000 3.057860 
# 
# 
# High freq. dielectric constant tensor:
#      x y z
#    x 1.745780 0.000000 0.006900 
#    y 0.000000 1.716450 0.000000 
#    z 0.006900 0.000000 1.677510 
# 
# From -- ./inp_files/244353.got.cif
#   From: 2010.06.25/outbox.cif.g09.slc.cpg/sg15_123_cif.got.tgz:244353.got - 2010.06.28 07:06:18.
