data_PCOD8131078
_publ_section_title
;
Structure prediction by ZEFSAII (Michael W. Deem and Ramdas Pophale) SiO2 
 PCOD8131078
Probable space group: C 2/C
;
_chemical_formula_sum "Si O2"
_cell_formula_units_Z 40
_cell_length_a 6.205733
_cell_length_b 17.999079
_cell_length_c 21.774513
_cell_angle_alpha 90.000000
_cell_angle_beta 119.186075
_cell_angle_gamma 90.000000
_cell_volume 2123.372900
_symmetry_space_group_name_H-M "C 2/C"
_symmetry_group_IT_number 15
_symmetry_cell_setting 'monoclinic'
loop_
_space_group_symop_operation_xyz
x,y,z
-x,y,1/2-z
-x,-y,-z
x,-y,1/2+z
1/2+x,1/2+y,z
1/2-x,1/2+y,1/2-z
1/2-x,1/2-y,-z
1/2+x,1/2-y,1/2+z
loop_
_atom_site_type_symbol
_atom_site_label
_atom_site_fract_x
_atom_site_fract_y
_atom_site_fract_z
Si Si1 0.458176 0.255594 0.579802
Si Si2 0.393892 0.961882 0.073788
Si Si3 0.659667 0.846209 0.332339
Si Si4 0.392973 0.397411 0.957301
Si Si5 0.701903 0.629370 0.920256
O O1 0.250000 0.250000 0.500000
O O2 0.347381 0.232531 0.630937
O O3 0.579935 0.337999 0.594587
O O4 0.667051 0.197563 0.592805
O O5 0.447038 0.912211 0.140810
O O6 0.643147 0.948509 0.067551
O O7 0.334426 0.045869 0.087756
O O8 0.157240 0.937359 0.000856
O O9 0.500000 0.835620 0.250000
O O10 0.933912 0.872175 0.351399
O O11 0.331006 0.355351 0.012013
#
# Coordination Sequence:
#
# PCOD8131078 Si02
#       5
#     8   8   8   8   8
#     4  11  19  33  54  86 111 141 185 236 279 329
#     4   9  19  32  52  81 109 141 174 227 279 336
#     4  10  22  37  55  77 108 151 193 229 278 342
#     4  10  18  31  52  85 112 132 176 231 281 327
#     4  10  18  32  56  80 108 140 185 227 285 333
#
# _framework density 18.837952999999999
#
# number of rings (size 3 to 8) (size 9 to 14) (size 15 to 20)
#    0.000    2.000    6.000    1.200    0.000    3.200 
#    0.000    0.000    4.400    0.000    0.000    0.000 
#    0.000    0.000    0.000    0.000    0.000    0.000 
#
# Total GULP energy -247803.145317 kJ/mol
# GULP energy per Si atom -12390.157266 kJ/mol
# Density = 1.879508 g / cm^3
# Si number density = 18.837953 Si / 1000 Ang^3
#
#
#
# Elastic Constant Matrix: (Units=GPa)
#
#
# Indices 1 2 3 4 5 6 
#
# 1 109.2455 34.6592 30.9188 0.0000 15.6997 0.0000
# 2 34.6592 114.3477 28.9447 0.0000 4.3310 0.0000
# 3 30.9188 28.9447 98.2582 0.0000 2.2140 0.0000
# 4 0.0000 0.0000 0.0000 14.6528 0.0000 -1.4881
# 5 15.6997 4.3310 2.2140 0.0000 14.8390 0.0000
# 6 0.0000 0.0000 0.0000 -1.4881 0.0000 41.7868
#
#
#
# Elastic Compliance Matrix: (Units=1/GPa)
#
#
# Indices 1 2 3 4 5 6 
#
# 1 0.012538 -0.002608 -0.002905 0.000000 -0.012071 0.000000
# 2 -0.002608 0.010075 -0.002150 0.000000 0.000139 0.000000
# 3 -0.002905 -0.002150 0.011681 0.000000 0.001959 0.000000
# 4 0.000000 0.000000 0.000000 0.068494 0.000000 0.002439
# 5 -0.012071 0.000139 0.001959 0.000000 0.079828 0.000000
# 6 0.000000 0.000000 0.000000 0.002439 0.000000 0.024018
#
#
# Mechanical properties :
#
#
# Convention : Reuss Voigt Hill
#
# Bulk Modulus (GPa) = 52.72334 56.76628 54.74481
# Shear Modulus (GPa) = 21.90271 29.41095 25.65683
#
# Velocity S-wave (km/s) = 3.41352 3.95557 3.69450
# Velocity P-wave (km/s) = 6.60188 7.14573 6.87918
#
# Compressibility (1/GPa) = 0.01896693
#
# Stress axis : x y z
#
# Youngs Moduli (GPa) = 79.75800 99.25842 85.61100
#
# Poissons Ratio (x) = 0.25884 0.24871
# Poissons Ratio (y) = 0.20799 0.18409
# Poissons Ratio (z) = 0.23171 0.21344
#
# Static dielectric constant tensor:
#      x y z
#    x 3.536540 0.000000 -0.051450 
#    y 0.000000 3.593240 0.000000 
#    z -0.051450 0.000000 2.957520 
# 
# 
# High freq. dielectric constant tensor:
#      x y z
#    x 1.753320 0.000000 0.003340 
#    y 0.000000 1.725320 0.000000 
#    z 0.003340 0.000000 1.673550 
# 
# From -- ./inp_files/184219.got.cif
#   From: 2010.06.25/outbox.cif.g09.slc.cpg/sg15_93_cif.got.tgz:184219.got - 2010.06.28 07:06:18.
