data_PCOD8131300
_publ_section_title
;
Structure prediction by ZEFSAII (Michael W. Deem and Ramdas Pophale) SiO2 
 PCOD8131300
Probable space group: C 2/C
;
_chemical_formula_sum "Si O2"
_cell_formula_units_Z 48
_cell_length_a 14.985464
_cell_length_b 28.271333
_cell_length_c 7.789974
_cell_angle_alpha 90.000000
_cell_angle_beta 42.197685
_cell_angle_gamma 90.000000
_cell_volume 2216.775926
_symmetry_space_group_name_H-M "C 2/C"
_symmetry_group_IT_number 15
_symmetry_cell_setting 'monoclinic'
loop_
_space_group_symop_operation_xyz
x,y,z
-x,y,1/2-z
-x,-y,-z
x,-y,1/2+z
1/2+x,1/2+y,z
1/2-x,1/2+y,1/2-z
1/2-x,1/2-y,-z
1/2+x,1/2-y,1/2+z
loop_
_atom_site_type_symbol
_atom_site_label
_atom_site_fract_x
_atom_site_fract_y
_atom_site_fract_z
Si Si1 0.596224 0.104570 0.356392
Si Si2 0.000000 0.197081 0.750000
Si Si3 0.000000 0.330052 0.250000
Si Si4 0.845616 0.477905 0.516319
Si Si5 0.783708 0.846903 0.325754
Si Si6 0.656658 0.231438 0.783684
Si Si7 0.797410 0.427962 0.253394
O O1 0.613651 0.136141 0.506348
O O2 0.664992 0.053591 0.294246
O O3 0.440179 0.097778 0.543553
O O4 0.661265 0.131924 0.107350
O O5 0.091005 0.162265 0.732279
O O6 0.087023 0.227712 0.493610
O O7 0.046070 0.299513 0.346876
O O8 0.763827 0.451214 0.484195
O O9 0.789767 0.530145 0.624150
O O10 0.000000 0.481404 0.250000
O O11 0.744168 0.797924 0.293100
O O12 0.811380 0.887628 0.142133
O O13 0.750000 0.250000 0.500000
#
# Coordination Sequence:
#
# PCOD8131300 Si02
#       7
#     8   4   4   8   8   8   8
#     4  11  19  35  59  97 130 167 207 262 324 398
#     4  12  28  46  64  93 124 169 228 272 328 388
#     4  12  20  36  62  91 128 155 208 258 332 390
#     4  10  18  32  55  96 136 167 209 259 330 388
#     4  12  24  41  64  89 126 168 214 266 326 385
#     4  12  25  45  66  92 126 169 216 273 331 392
#     4  11  20  34  59  94 131 171 210 268 327 394
#
# _framework density 21.653067
#
# number of rings (size 3 to 8) (size 9 to 14) (size 15 to 20)
#    0.000    0.667    4.167    8.000    0.000    0.000 
#    0.000    0.000    0.000    4.000    0.000    0.000 
#    0.000    0.000    0.000    0.000    0.000    0.000 
#
# Total GULP energy -297500.868927 kJ/mol
# GULP energy per Si atom -12395.869539 kJ/mol
# Density = 2.160378 g / cm^3
# Si number density = 21.653067 Si / 1000 Ang^3
#
#
#
# Elastic Constant Matrix: (Units=GPa)
#
#
# Indices 1 2 3 4 5 6 
#
# 1 140.4346 62.8215 17.5992 0.0000 0.1401 0.0000
# 2 62.8215 132.2680 31.3679 0.0000 -2.0252 0.0000
# 3 17.5992 31.3679 66.0150 0.0000 16.3707 0.0000
# 4 0.0000 0.0000 0.0000 24.8897 0.0000 21.4958
# 5 0.1401 -2.0252 16.3707 0.0000 26.3394 0.0000
# 6 0.0000 0.0000 0.0000 21.4958 0.0000 52.0398
#
#
#
# Elastic Compliance Matrix: (Units=1/GPa)
#
#
# Indices 1 2 3 4 5 6 
#
# 1 0.009052 -0.004212 -0.000378 0.000000 -0.000137 0.000000
# 2 -0.004212 0.010805 -0.004993 0.000000 0.003956 0.000000
# 3 -0.000378 -0.004993 0.020944 0.000000 -0.013399 0.000000
# 4 0.000000 0.000000 0.000000 0.062459 0.000000 -0.025800
# 5 -0.000137 0.003956 -0.013399 0.000000 0.046599 0.000000
# 6 0.000000 0.000000 0.000000 -0.025800 0.000000 0.029873
#
#
# Mechanical properties :
#
#
# Convention : Reuss Voigt Hill
#
# Bulk Modulus (GPa) = 46.21758 62.47721 54.34739
# Shear Modulus (GPa) = 24.25892 35.78239 30.02065
#
# Velocity S-wave (km/s) = 3.35079 4.06954 3.72753
# Velocity P-wave (km/s) = 6.03003 7.14129 6.60906
#
# Compressibility (1/GPa) = 0.02163679
#
# Stress axis : x y z
#
# Youngs Moduli (GPa) = 110.46773 92.54552 47.74669
#
# Poissons Ratio (x) = 0.38980 0.01805
# Poissons Ratio (y) = 0.46529 0.23838
# Poissons Ratio (z) = 0.04175 0.46204
#
# Static dielectric constant tensor:
#      x y z
#    x 4.186280 0.000000 0.526780 
#    y 0.000000 4.438140 0.000000 
#    z 0.526780 0.000000 3.343730 
# 
# 
# High freq. dielectric constant tensor:
#      x y z
#    x 1.856180 0.000000 0.051550 
#    y 0.000000 1.877860 0.000000 
#    z 0.051550 0.000000 1.795100 
# 
# From -- ./inp_files/43852.got.cif
#   From: 2010.06.25/outbox.cif.g09.slc.cpg/sg15_22_cif.got.tgz:43852.got - 2010.06.28 07:06:18.
