data_PCOD8131609
_publ_section_title
;
Structure prediction by ZEFSAII (Michael W. Deem and Ramdas Pophale) SiO2 
 PCOD8131609
Probable space group: C 2/C
;
_chemical_formula_sum "Si O2"
_cell_formula_units_Z 60
_cell_length_a 8.730517
_cell_length_b 16.557058
_cell_length_c 19.129057
_cell_angle_alpha 90.000000
_cell_angle_beta 65.451304
_cell_angle_gamma 90.000000
_cell_volume 2515.192330
_symmetry_space_group_name_H-M "C 2/C"
_symmetry_group_IT_number 15
_symmetry_cell_setting 'monoclinic'
loop_
_space_group_symop_operation_xyz
x,y,z
-x,y,1/2-z
-x,-y,-z
x,-y,1/2+z
1/2+x,1/2+y,z
1/2-x,1/2+y,1/2-z
1/2-x,1/2-y,-z
1/2+x,1/2-y,1/2+z
loop_
_atom_site_type_symbol
_atom_site_label
_atom_site_fract_x
_atom_site_fract_y
_atom_site_fract_z
Si Si1 0.327754 0.989281 0.573296
Si Si2 0.865883 0.135328 0.464078
Si Si3 0.469595 0.116462 0.375771
Si Si4 0.834262 0.163167 0.988086
Si Si5 0.365205 0.212468 0.881653
Si Si6 0.072634 0.796985 0.329310
Si Si7 0.000000 0.497363 0.750000
Si Si8 0.696302 0.114815 0.806222
O O1 0.172352 0.957147 0.554062
O O2 0.358701 0.917336 0.623846
O O3 0.500000 0.000000 0.500000
O O4 0.278487 0.071589 0.623238
O O5 0.706073 0.162091 0.539736
O O6 0.874839 0.192564 0.394927
O O7 0.038565 0.148650 0.472353
O O8 0.325525 0.106576 0.464411
O O9 0.499459 0.206132 0.339147
O O10 0.408816 0.058817 0.324581
O O11 0.750000 0.250000 0.000000
O O12 0.933447 0.148292 0.896489
O O13 0.249103 0.200012 0.836714
O O14 0.552114 0.181473 0.834717
O O15 0.127711 0.837433 0.244400
O O16 0.850424 0.549944 0.744675
#
# Coordination Sequence:
#
# PCOD8131609 Si02
#       8
#     8   8   8   8   8   8   4   8
#     4  11  22  39  65  98 132 177 227 286 360 421
#     4  10  20  36  64  99 130 171 232 287 337 416
#     4  10  22  41  63  90 131 174 225 275 340 426
#     4   9  21  38  65  95 128 171 227 283 341 406
#     4  10  18  33  62  97 127 167 223 284 333 408
#     4  10  19  38  63  96 126 169 230 282 336 408
#     4  10  22  38  60  90 132 176 218 256 354 414
#     4  11  21  36  65  96 133 174 228 285 347 418
#
# _framework density 23.855034
#
# number of rings (size 3 to 8) (size 9 to 14) (size 15 to 20)
#    0.000    1.867    4.000    0.000    1.867    1.067 
#    0.000    4.000    0.000    8.000    0.000    0.000 
#    0.000    0.000    0.000    0.000    0.000    0.000 
#
# Total GULP energy -371728.139980 kJ/mol
# GULP energy per Si atom -12390.937999 kJ/mol
# Density = 2.380074 g / cm^3
# Si number density = 23.855034 Si / 1000 Ang^3
#
#
#
# Elastic Constant Matrix: (Units=GPa)
#
#
# Indices 1 2 3 4 5 6 
#
# 1 101.4303 38.9176 20.4444 0.0000 -20.5242 0.0000
# 2 38.9176 87.1265 38.9937 0.0000 -11.3452 0.0000
# 3 20.4444 38.9937 125.2453 0.0000 -26.9907 0.0000
# 4 0.0000 0.0000 0.0000 35.4714 0.0000 10.9680
# 5 -20.5242 -11.3452 -26.9907 0.0000 26.2754 0.0000
# 6 0.0000 0.0000 0.0000 10.9680 0.0000 39.4976
#
#
#
# Elastic Compliance Matrix: (Units=1/GPa)
#
#
# Indices 1 2 3 4 5 6 
#
# 1 0.013673 -0.005544 0.001644 0.000000 0.009975 0.000000
# 2 -0.005544 0.015660 -0.004426 0.000000 -0.002116 0.000000
# 3 0.001644 -0.004426 0.011506 0.000000 0.011192 0.000000
# 4 0.000000 0.000000 0.000000 0.030840 0.000000 -0.008564
# 5 0.009975 -0.002116 0.011192 0.000000 0.056433 0.000000
# 6 0.000000 0.000000 0.000000 -0.008564 0.000000 0.027696
#
#
# Mechanical properties :
#
#
# Convention : Reuss Voigt Hill
#
# Bulk Modulus (GPa) = 41.34772 56.72371 49.03571
# Shear Modulus (GPa) = 27.69714 34.61196 31.15455
#
# Velocity S-wave (km/s) = 3.41113 3.81324 3.61778
# Velocity P-wave (km/s) = 5.73454 6.57403 6.16858
#
# Compressibility (1/GPa) = 0.02418513
#
# Stress axis : x y z
#
# Youngs Moduli (GPa) = 73.13445 63.85832 86.91086
#
# Poissons Ratio (x) = 0.35406 -0.14287
# Poissons Ratio (y) = 0.40549 0.38471
# Poissons Ratio (z) = -0.12023 0.28267
#
# Static dielectric constant tensor:
#      x y z
#    x 4.372100 0.000000 -0.035640 
#    y 0.000000 4.304460 0.000000 
#    z -0.035640 0.000000 4.617750 
# 
# 
# High freq. dielectric constant tensor:
#      x y z
#    x 1.950590 0.000000 0.011060 
#    y 0.000000 1.946190 0.000000 
#    z 0.011060 0.000000 1.945850 
# 
# From -- ./inp_files/233064.got.cif
#   From: 2010.06.25/outbox.cif.g09.slc.cpg/sg15_117_cif.got.tgz:233064.got - 2010.06.28 07:06:18.
