data_PCOD8131656
_publ_section_title
;
Structure prediction by ZEFSAII (Michael W. Deem and Ramdas Pophale) SiO2 
 PCOD8131656
Probable space group: C 2/C
;
_chemical_formula_sum "Si O2"
_cell_formula_units_Z 60
_cell_length_a 29.746428
_cell_length_b 25.908053
_cell_length_c 9.637288
_cell_angle_alpha 90.000000
_cell_angle_beta 154.441317
_cell_angle_gamma 90.000000
_cell_volume 3204.351296
_symmetry_space_group_name_H-M "C 2/C"
_symmetry_group_IT_number 15
_symmetry_cell_setting 'monoclinic'
loop_
_space_group_symop_operation_xyz
x,y,z
-x,y,1/2-z
-x,-y,-z
x,-y,1/2+z
1/2+x,1/2+y,z
1/2-x,1/2+y,1/2-z
1/2-x,1/2-y,-z
1/2+x,1/2-y,1/2+z
loop_
_atom_site_type_symbol
_atom_site_label
_atom_site_fract_x
_atom_site_fract_y
_atom_site_fract_z
Si Si1 0.071338 0.106797 0.244074
Si Si2 0.000000 0.186843 0.250000
Si Si3 0.208972 0.825388 0.676939
Si Si4 0.066482 0.270262 0.796069
Si Si5 0.133198 0.061995 0.911762
Si Si6 0.614231 0.239395 0.897213
Si Si7 0.730398 0.320826 0.053709
Si Si8 0.119624 0.978194 0.080837
O O1 0.165235 0.128352 0.413278
O O2 0.131340 0.075269 0.529917
O O3 0.993998 0.150230 0.097410
O O4 0.993380 0.070444 0.938310
O O5 0.901237 0.224705 0.007716
O O6 0.108557 0.788220 0.390102
O O7 0.187904 0.883096 0.570755
O O8 0.302256 0.805163 0.836112
O O9 0.253455 0.824271 0.956264
O O10 0.000000 0.273102 0.750000
O O11 0.996225 0.283073 0.464915
O O12 0.159423 0.312740 0.060060
O O13 0.166194 0.031339 0.863446
O O14 0.173095 0.026593 0.150651
O O15 0.658884 0.271866 0.890876
O O16 0.000000 0.993413 0.750000
#
# Coordination Sequence:
#
# PCOD8131656 Si02
#       8
#     8   4   8   8   8   8   8   8
#     4  10  19  35  52  78 113 142 184 211 275 341
#     4  10  18  34  54  72 116 152 170 222 268 316
#     4  11  21  32  53  81 110 146 187 221 273 324
#     4  11  18  33  51  75 111 144 184 225 258 307
#     4  11  23  35  56  77 113 145 178 230 278 329
#     4  10  20  35  49  77 113 147 189 221 258 330
#     4  10  20  31  51  80 106 147 182 224 263 326
#     4  10  21  37  52  79 109 143 181 224 275 339
#
# _framework density 18.724539
#
# number of rings (size 3 to 8) (size 9 to 14) (size 15 to 20)
#    0.000    1.600    4.667    4.000    3.733    0.000 
#    2.400    2.667    0.000    0.000    0.000    0.933 
#    2.000    0.000    0.000    0.000    0.000    0.000 
#
# Total GULP energy -371696.194018 kJ/mol
# GULP energy per Si atom -12389.873134 kJ/mol
# Density = 1.868192 g / cm^3
# Si number density = 18.724539 Si / 1000 Ang^3
#
#
#
# Elastic Constant Matrix: (Units=GPa)
#
#
# Indices 1 2 3 4 5 6 
#
# 1 65.4745 47.3246 13.6031 0.0000 8.9919 0.0000
# 2 47.3246 104.1869 23.0494 0.0000 5.5075 0.0000
# 3 13.6031 23.0494 55.6691 0.0000 10.9229 0.0000
# 4 0.0000 0.0000 0.0000 23.0030 0.0000 -0.3069
# 5 8.9919 5.5075 10.9229 0.0000 16.8716 0.0000
# 6 0.0000 0.0000 0.0000 -0.3069 0.0000 29.3843
#
#
#
# Elastic Compliance Matrix: (Units=1/GPa)
#
#
# Indices 1 2 3 4 5 6 
#
# 1 0.024138 -0.010533 0.000358 0.000000 -0.009658 0.000000
# 2 -0.010533 0.015169 -0.004395 0.000000 0.003507 0.000000
# 3 0.000358 -0.004395 0.022282 0.000000 -0.013182 0.000000
# 4 0.000000 0.000000 0.000000 0.043479 0.000000 0.000454
# 5 -0.009658 0.003507 -0.013182 0.000000 0.071808 0.000000
# 6 0.000000 0.000000 0.000000 0.000454 0.000000 0.034037
#
#
# Mechanical properties :
#
#
# Convention : Reuss Voigt Hill
#
# Bulk Modulus (GPa) = 30.81745 43.69828 37.25787
# Shear Modulus (GPa) = 19.93066 23.27533 21.60300
#
# Velocity S-wave (km/s) = 3.26608 3.52950 3.40034
# Velocity P-wave (km/s) = 5.54230 6.32439 5.94622
#
# Compressibility (1/GPa) = 0.03244914
#
# Stress axis : x y z
#
# Youngs Moduli (GPa) = 41.42794 65.92215 44.87912
#
# Poissons Ratio (x) = 0.69435 -0.01606
# Poissons Ratio (y) = 0.43636 0.19725
# Poissons Ratio (z) = -0.01482 0.28974
#
# Static dielectric constant tensor:
#      x y z
#    x 3.612060 0.000000 0.021270 
#    y 0.000000 3.488480 0.000000 
#    z 0.021270 0.000000 3.265360 
# 
# 
# High freq. dielectric constant tensor:
#      x y z
#    x 1.727930 0.000000 -0.013920 
#    y 0.000000 1.717300 0.000000 
#    z -0.013920 0.000000 1.684740 
# 
# From -- ./inp_files/67794.got.cif
#   From: 2010.06.25/outbox.cif.g09.slc.cpg/sg15_34_cif.got.tgz:67794.got - 2010.06.28 07:06:18.
