data_PCOD8131338
_publ_section_title
;
Structure prediction by ZEFSAII (Michael W. Deem and Ramdas Pophale) SiO2 
 PCOD8131338
Probable space group: C 2/C
;
_chemical_formula_sum "Si O2"
_cell_formula_units_Z 64
_cell_length_a 13.172101
_cell_length_b 18.036262
_cell_length_c 15.211078
_cell_angle_alpha 90.000000
_cell_angle_beta 121.019551
_cell_angle_gamma 90.000000
_cell_volume 3096.977838
_symmetry_space_group_name_H-M "C 2/C"
_symmetry_group_IT_number 15
_symmetry_cell_setting 'monoclinic'
loop_
_space_group_symop_operation_xyz
x,y,z
-x,y,1/2-z
-x,-y,-z
x,-y,1/2+z
1/2+x,1/2+y,z
1/2-x,1/2+y,1/2-z
1/2-x,1/2-y,-z
1/2+x,1/2-y,1/2+z
loop_
_atom_site_type_symbol
_atom_site_label
_atom_site_fract_x
_atom_site_fract_y
_atom_site_fract_z
Si Si1 0.196792 0.414770 0.992210
Si Si2 0.983301 0.756996 0.510616
Si Si3 0.062684 0.394657 0.582483
Si Si4 0.864493 0.651143 0.211401
Si Si5 0.274815 0.335681 0.359665
Si Si6 0.738861 0.923111 0.512050
Si Si7 0.881781 0.790079 0.642326
Si Si8 0.265943 0.203864 0.845162
O O1 0.212982 0.384206 0.900853
O O2 0.274690 0.490126 0.030793
O O3 0.060898 0.437789 0.955798
O O4 0.247778 0.351853 0.079592
O O5 0.975987 0.690801 0.438839
O O6 0.919158 0.829011 0.436582
O O7 0.908327 0.742902 0.566329
O O8 0.121612 0.760742 0.598423
O O9 0.154881 0.396030 0.706253
O O10 0.118443 0.418297 0.515051
O O11 0.842157 0.739195 0.209552
O O12 0.000000 0.640403 0.250000
O O13 0.219815 0.396936 0.401552
O O14 0.222377 0.253231 0.355009
O O15 0.235463 0.350513 0.241517
O O16 0.840496 0.873489 0.601673
O O17 0.000000 0.797834 0.750000
#
# Coordination Sequence:
#
# PCOD8131338 Si02
#       8
#     8   8   8   8   8   8   8   8
#     4  10  24  37  54  85 120 161 199 233 298 359
#     4  10  18  32  57  92 113 142 190 249 299 345
#     4  10  18  36  60  84 115 153 195 241 300 345
#     4  10  21  40  62  84 112 153 204 258 298 342
#     4  11  20  36  61  92 119 151 196 252 301 348
#     4  11  21  37  57  84 130 154 183 242 300 370
#     4  11  19  33  59  88 120 155 191 237 304 350
#     4  11  21  37  63  89 113 151 208 252 298 355
#
# _framework density 20.665306999999999
#
# number of rings (size 3 to 8) (size 9 to 14) (size 15 to 20)
#    0.000    1.500    5.000    1.500    0.000    1.000 
#    0.000    6.250    0.000    1.500    0.000    0.000 
#    0.000    0.000    0.000    0.000    0.000    0.000 
#
# Total GULP energy -396446.203049 kJ/mol
# GULP energy per Si atom -12388.943845 kJ/mol
# Density = 2.061827 g / cm^3
# Si number density = 20.665307 Si / 1000 Ang^3
#
#
#
# Elastic Constant Matrix: (Units=GPa)
#
#
# Indices 1 2 3 4 5 6 
#
# 1 30.4478 17.0868 16.8686 0.0000 -6.0809 0.0000
# 2 17.0868 93.1156 24.0435 0.0000 -3.7091 0.0000
# 3 16.8686 24.0435 110.8503 0.0000 -7.3385 0.0000
# 4 0.0000 0.0000 0.0000 13.8527 0.0000 3.4461
# 5 -6.0809 -3.7091 -7.3385 0.0000 26.5785 0.0000
# 6 0.0000 0.0000 0.0000 3.4461 0.0000 19.6222
#
#
#
# Elastic Compliance Matrix: (Units=1/GPa)
#
#
# Indices 1 2 3 4 5 6 
#
# 1 0.039996 -0.005938 -0.004327 0.000000 0.007127 0.000000
# 2 -0.005938 0.012280 -0.001769 0.000000 -0.000133 0.000000
# 3 -0.004327 -0.001769 0.010167 0.000000 0.001571 0.000000
# 4 0.000000 0.000000 0.000000 0.075486 0.000000 -0.013257
# 5 0.007127 -0.000133 0.001571 0.000000 0.039670 0.000000
# 6 0.000000 0.000000 0.000000 -0.013257 0.000000 0.053291
#
#
# Mechanical properties :
#
#
# Convention : Reuss Voigt Hill
#
# Bulk Modulus (GPa) = 26.05765 38.93461 32.49613
# Shear Modulus (GPa) = 18.67414 23.77167 21.22290
#
# Velocity S-wave (km/s) = 3.00933 3.39531 3.20813
# Velocity P-wave (km/s) = 4.97107 5.85255 5.42973
#
# Compressibility (1/GPa) = 0.03837644
#
# Stress axis : x y z
#
# Youngs Moduli (GPa) = 25.00256 81.43041 98.35566
#
# Poissons Ratio (x) = 0.48355 0.42554
# Poissons Ratio (y) = 0.14847 0.17397
# Poissons Ratio (z) = 0.10817 0.14403
#
# Static dielectric constant tensor:
#      x y z
#    x 3.672040 0.000000 -0.178940 
#    y 0.000000 3.372000 0.000000 
#    z -0.178940 0.000000 4.179630 
# 
# 
# High freq. dielectric constant tensor:
#      x y z
#    x 1.788730 0.000000 -0.015700 
#    y 0.000000 1.771430 0.000000 
#    z -0.015700 0.000000 1.825460 
# 
# From -- ./inp_files/155206.got.cif
#   From: 2010.06.25/outbox.cif.g09.slc.cpg/sg15_78_cif.got.tgz:155206.got - 2010.06.28 07:06:18.
