data_PCOD8131254
_publ_section_title
;
Structure prediction by ZEFSAII (Michael W. Deem and Ramdas Pophale) SiO2 
 PCOD8131254
Probable space group: C 2/C
;
_chemical_formula_sum "Si O2"
_cell_formula_units_Z 40
_cell_length_a 19.147514
_cell_length_b 10.178218
_cell_length_c 13.528675
_cell_angle_alpha 90.000000
_cell_angle_beta 129.999648
_cell_angle_gamma 90.000000
_cell_volume 2019.740683
_symmetry_space_group_name_H-M "C 2/C"
_symmetry_group_IT_number 15
_symmetry_cell_setting 'monoclinic'
loop_
_space_group_symop_operation_xyz
x,y,z
-x,y,1/2-z
-x,-y,-z
x,-y,1/2+z
1/2+x,1/2+y,z
1/2-x,1/2+y,1/2-z
1/2-x,1/2-y,-z
1/2+x,1/2-y,1/2+z
loop_
_atom_site_type_symbol
_atom_site_label
_atom_site_fract_x
_atom_site_fract_y
_atom_site_fract_z
Si Si1 0.622243 0.635888 0.118099
Si Si2 0.191799 0.611626 0.122455
Si Si3 0.408112 0.833525 0.783883
Si Si4 0.115002 0.362101 0.957760
Si Si5 0.420180 0.649640 0.960504
O O1 0.700439 0.638577 0.272440
O O2 0.618940 0.495462 0.058878
O O3 0.645481 0.744959 0.057306
O O4 0.526681 0.659892 0.088259
O O5 0.153697 0.577257 0.198687
O O6 0.139915 0.742711 0.033979
O O7 0.174100 0.490698 0.034276
O O8 0.508538 0.897537 0.872016
O O9 0.363412 0.821368 0.635467
O O10 0.415122 0.686914 0.838074
#
# Coordination Sequence:
#
# PCOD8131254 Si02
#       5
#     8   8   8   8   8
#     4  10  18  32  54  77 108 141 178 213 270 319
#     4  10  19  33  56  82 103 145 177 221 266 312
#     4   8  19  34  54  82 103 138 185 218 262 314
#     4  10  18  34  59  77 106 142 182 224 257 316
#     4   8  19  35  51  78 110 141 172 222 267 313
#
# _framework density 19.804523
#
# number of rings (size 3 to 8) (size 9 to 14) (size 15 to 20)
#    1.200    1.600    0.000    1.800    0.000    0.800 
#    0.000    0.000    4.400    4.800    0.000    0.000 
#    0.000    0.000    0.000    0.000    0.000    0.000 
#
# Total GULP energy -247826.834140 kJ/mol
# GULP energy per Si atom -12391.341707 kJ/mol
# Density = 1.975945 g / cm^3
# Si number density = 19.804523 Si / 1000 Ang^3
#
#
#
# Elastic Constant Matrix: (Units=GPa)
#
#
# Indices 1 2 3 4 5 6 
#
# 1 31.8164 11.8129 22.0567 0.0000 15.5516 0.0000
# 2 11.8129 124.9272 49.9291 0.0000 17.9072 0.0000
# 3 22.0567 49.9291 100.1920 0.0000 25.7947 0.0000
# 4 0.0000 0.0000 0.0000 31.0794 0.0000 4.1986
# 5 15.5516 17.9072 25.7947 0.0000 27.4461 0.0000
# 6 0.0000 0.0000 0.0000 4.1986 0.0000 11.7226
#
#
#
# Elastic Compliance Matrix: (Units=1/GPa)
#
#
# Indices 1 2 3 4 5 6 
#
# 1 0.044943 0.000717 -0.004716 0.000000 -0.021502 0.000000
# 2 0.000717 0.010131 -0.004485 0.000000 -0.002801 0.000000
# 3 -0.004716 -0.004485 0.015583 0.000000 -0.009047 0.000000
# 4 0.000000 0.000000 0.000000 0.033812 0.000000 -0.012110
# 5 -0.021502 -0.002801 -0.009047 0.000000 0.058948 0.000000
# 6 0.000000 0.000000 0.000000 -0.012110 0.000000 0.089643
#
#
# Mechanical properties :
#
#
# Convention : Reuss Voigt Hill
#
# Bulk Modulus (GPa) = 18.62566 47.17032 32.89799
# Shear Modulus (GPa) = 17.36563 25.59209 21.47886
#
# Velocity S-wave (km/s) = 2.96438 3.59867 3.29681
# Velocity P-wave (km/s) = 4.59803 6.41380 5.58027
#
# Compressibility (1/GPa) = 0.05368939
#
# Stress axis : x y z
#
# Youngs Moduli (GPa) = 22.25040 98.70714 64.17066
#
# Poissons Ratio (x) = -0.07077 0.30260
# Poissons Ratio (y) = -0.01595 0.28783
# Poissons Ratio (z) = 0.10492 0.44274
#
# Static dielectric constant tensor:
#      x y z
#    x 3.317850 0.000000 0.265140 
#    y 0.000000 3.402230 0.000000 
#    z 0.265140 0.000000 3.462870 
# 
# 
# High freq. dielectric constant tensor:
#      x y z
#    x 1.742670 0.000000 0.033780 
#    y 0.000000 1.762660 0.000000 
#    z 0.033780 0.000000 1.759690 
# 
# From -- ./inp_files/166849.got.cif
#   From: 2010.06.25/outbox.cif.g09.slc.cpg/sg15_84_cif.got.tgz:166849.got - 2010.06.28 07:06:18.
