data_PCOD8131454
_publ_section_title
;
Structure prediction by ZEFSAII (Michael W. Deem and Ramdas Pophale) SiO2 
 PCOD8131454
Probable space group: C 2/C
;
_chemical_formula_sum "Si O2"
_cell_formula_units_Z 60
_cell_length_a 20.724389
_cell_length_b 23.550667
_cell_length_c 12.191185
_cell_angle_alpha 90.000000
_cell_angle_beta 33.000318
_cell_angle_gamma 90.000000
_cell_volume 3240.733698
_symmetry_space_group_name_H-M "C 2/C"
_symmetry_group_IT_number 15
_symmetry_cell_setting 'monoclinic'
loop_
_space_group_symop_operation_xyz
x,y,z
-x,y,1/2-z
-x,-y,-z
x,-y,1/2+z
1/2+x,1/2+y,z
1/2-x,1/2+y,1/2-z
1/2-x,1/2-y,-z
1/2+x,1/2-y,1/2+z
loop_
_atom_site_type_symbol
_atom_site_label
_atom_site_fract_x
_atom_site_fract_y
_atom_site_fract_z
Si Si1 0.216335 0.442220 0.837799
Si Si2 0.733319 0.795321 0.172792
Si Si3 0.000000 0.486864 0.250000
Si Si4 0.275420 0.435716 0.304882
Si Si5 0.201260 0.830329 0.655722
Si Si6 0.156242 0.431528 0.682649
Si Si7 0.055152 0.364884 0.553313
Si Si8 0.547933 0.640196 0.064993
O O1 0.287578 0.495974 0.784948
O O2 0.264520 0.383607 0.818041
O O3 0.224309 0.449332 0.695056
O O4 0.079154 0.445443 0.064617
O O5 0.736937 0.727770 0.163083
O O6 0.615771 0.811438 0.408373
O O7 0.733667 0.828933 0.055748
O O8 0.852560 0.811497 0.066870
O O9 0.918704 0.522430 0.281335
O O10 0.262114 0.412692 0.449042
O O11 0.154202 0.415380 0.415807
O O12 0.395602 0.412365 0.080790
O O13 0.059681 0.831668 0.846757
O O14 0.059580 0.383788 0.853790
O O15 0.000000 0.348501 0.750000
O O16 0.500000 0.617334 0.250000
#
# Coordination Sequence:
#
# PCOD8131454 Si02
#       8
#     8   8   4   8   8   8   8   8
#     4  11  22  32  54  84 119 142 188 236 277 337
#     4   9  20  38  60  75 111 150 185 238 280 330
#     4  10  20  34  52  84 118 152 176 228 282 350
#     4   9  19  35  54  80 111 151 180 223 282 342
#     4  10  22  38  52  87 110 142 196 235 278 327
#     4  10  18  33  53  85 116 143 181 230 281 334
#     4   9  16  32  56  81 103 141 187 220 279 343
#     4   9  19  38  61  76 105 150 192 229 274 339
#
# _framework density 18.514327000000002
#
# number of rings (size 3 to 8) (size 9 to 14) (size 15 to 20)
#    0.000    2.400    3.333    0.400    1.867    6.933 
#    3.600    2.000    0.000    4.800    0.000    0.000 
#    0.000    0.000    0.000    0.000    0.000    0.000 
#
# Total GULP energy -371693.996801 kJ/mol
# GULP energy per Si atom -12389.799893 kJ/mol
# Density = 1.847219 g / cm^3
# Si number density = 18.514327 Si / 1000 Ang^3
#
#
#
# Elastic Constant Matrix: (Units=GPa)
#
#
# Indices 1 2 3 4 5 6 
#
# 1 77.4038 40.8720 31.8318 0.0000 6.3441 0.0000
# 2 40.8720 109.9000 47.5976 -0.0003 4.5352 0.0002
# 3 31.8318 47.5976 130.2237 0.0045 4.2358 -0.0014
# 4 0.0000 -0.0003 0.0045 24.5680 -0.0012 2.9261
# 5 6.3441 4.5352 4.2358 -0.0012 15.9810 0.0004
# 6 0.0000 0.0002 -0.0014 2.9261 0.0004 18.2854
#
#
#
# Elastic Compliance Matrix: (Units=1/GPa)
#
#
# Indices 1 2 3 4 5 6 
#
# 1 0.016900 -0.005190 -0.002082 0.000000 -0.004684 0.000000
# 2 -0.005190 0.012471 -0.003270 0.000001 -0.000612 -0.000001
# 3 -0.002082 -0.003270 0.009407 -0.000002 -0.000739 0.000001
# 4 0.000000 0.000001 -0.000002 0.041494 0.000003 -0.006640
# 5 -0.004684 -0.000612 -0.000739 0.000003 0.064803 -0.000002
# 6 0.000000 -0.000001 0.000001 -0.006640 -0.000002 0.055751
#
#
# Mechanical properties :
#
#
# Convention : Reuss Voigt Hill
#
# Bulk Modulus (GPa) = 56.51348 62.01448 59.26398
# Shear Modulus (GPa) = 21.94841 24.91530 23.43185
#
# Velocity S-wave (km/s) = 3.44682 3.67240 3.56140
# Velocity P-wave (km/s) = 6.81404 7.17984 6.99933
#
# Compressibility (1/GPa) = 0.01769489
#
# Stress axis : x y z
#
# Youngs Moduli (GPa) = 59.17209 80.18776 106.30400
#
# Poissons Ratio (x) = 0.41620 0.22128
# Poissons Ratio (y) = 0.30712 0.34756
# Poissons Ratio (z) = 0.12317 0.26218
#
# Static dielectric constant tensor:
#      x y z
#    x 3.216110 0.000000 0.116720 
#    y 0.000000 3.171400 0.000000 
#    z 0.116720 0.000000 3.747120 
# 
# 
# High freq. dielectric constant tensor:
#      x y z
#    x 1.697490 0.000000 0.008270 
#    y 0.000000 1.695450 0.000000 
#    z 0.008270 0.000000 1.730400 
# 
# From -- ./inp_files/114816.got.cif
#   From: 2010.06.25/outbox.cif.g09.slc.cpg/sg15_58_cif.got.tgz:114816.got - 2010.06.28 07:06:18.
