data_PCOD8131907
_publ_section_title
;
Structure prediction by ZEFSAII (Michael W. Deem and Ramdas Pophale) SiO2 
 PCOD8131907
Probable space group: C 2/C
;
_chemical_formula_sum "Si O2"
_cell_formula_units_Z 56
_cell_length_a 33.164508
_cell_length_b 12.772442
_cell_length_c 9.545043
_cell_angle_alpha 90.000000
_cell_angle_beta 48.555827
_cell_angle_gamma 90.000000
_cell_volume 3030.787894
_symmetry_space_group_name_H-M "C 2/C"
_symmetry_group_IT_number 15
_symmetry_cell_setting 'monoclinic'
loop_
_space_group_symop_operation_xyz
x,y,z
-x,y,1/2-z
-x,-y,-z
x,-y,1/2+z
1/2+x,1/2+y,z
1/2-x,1/2+y,1/2-z
1/2-x,1/2-y,-z
1/2+x,1/2-y,1/2+z
loop_
_atom_site_type_symbol
_atom_site_label
_atom_site_fract_x
_atom_site_fract_y
_atom_site_fract_z
Si Si1 0.038800 0.995770 0.782317
Si Si2 0.332400 0.877347 0.996041
Si Si3 0.382398 0.322596 0.472569
Si Si4 0.287231 0.709914 0.714061
Si Si5 0.807098 0.561312 0.252897
Si Si6 0.132302 0.880324 0.691950
Si Si7 0.310112 0.578188 0.923868
O O1 0.065119 0.110370 0.692268
O O2 0.000000 0.958110 0.750000
O O3 0.081756 0.902327 0.707150
O O4 0.000000 0.000000 0.000000
O O5 0.275544 0.818315 0.150802
O O6 0.337574 0.975716 0.089332
O O7 0.381262 0.796295 0.915120
O O8 0.339941 0.918744 0.820416
O O9 0.380520 0.307943 0.645392
O O10 0.329726 0.380125 0.530076
O O11 0.297952 0.833278 0.684325
O O12 0.318411 0.662214 0.511485
O O13 0.309718 0.671176 0.812048
O O14 0.747436 0.521680 0.429317
O O15 0.148389 0.991056 0.726388
#
# Coordination Sequence:
#
# PCOD8131907 Si02
#       7
#     8   8   8   8   8   8   8
#     4  11  23  42  63  93 120 148 193 253 315 369
#     4  11  23  37  55  81 122 165 209 251 284 359
#     4  11  22  37  56  85 121 156 192 249 308 354
#     4  11  21  36  53  83 122 168 203 243 296 352
#     4  11  22  35  53  79 117 167 210 239 289 343
#     4  11  23  33  60  88 121 154 197 240 306 369
#     4  10  18  35  51  79 119 162 201 238 289 347
#
# _framework density 18.477042999999998
#
# number of rings (size 3 to 8) (size 9 to 14) (size 15 to 20)
#    0.000    1.143    5.714    2.571    6.000    0.571 
#    0.000    0.000    0.000    0.000    0.000    5.000 
#    0.000    0.000    0.000    0.000    0.000    0.000 
#
# Total GULP energy -347068.732875 kJ/mol
# GULP energy per Si atom -12395.311888 kJ/mol
# Density = 1.843499 g / cm^3
# Si number density = 18.477043 Si / 1000 Ang^3
#
#
#
# Elastic Constant Matrix: (Units=GPa)
#
#
# Indices 1 2 3 4 5 6 
#
# 1 87.5377 32.9356 25.5026 0.0000 18.3327 0.0000
# 2 32.9356 85.0554 18.8826 0.0000 13.1775 0.0000
# 3 25.5026 18.8826 81.7090 0.0000 15.9795 0.0000
# 4 0.0000 0.0000 0.0000 26.9884 0.0000 2.3795
# 5 18.3327 13.1775 15.9795 0.0000 26.3543 0.0000
# 6 0.0000 0.0000 0.0000 2.3795 0.0000 27.1044
#
#
#
# Elastic Compliance Matrix: (Units=1/GPa)
#
#
# Indices 1 2 3 4 5 6 
#
# 1 0.015188 -0.004269 -0.002388 0.000000 -0.006982 0.000000
# 2 -0.004269 0.014218 -0.001298 0.000000 -0.003353 0.000000
# 3 -0.002388 -0.001298 0.014558 0.000000 -0.006517 0.000000
# 4 0.000000 0.000000 0.000000 0.037342 0.000000 -0.003278
# 5 -0.006982 -0.003353 -0.006517 0.000000 0.048430 0.000000
# 6 0.000000 0.000000 0.000000 -0.003278 0.000000 0.037182
#
#
# Mechanical properties :
#
#
# Convention : Reuss Voigt Hill
#
# Bulk Modulus (GPa) = 35.64556 45.43820 40.54188
# Shear Modulus (GPa) = 26.01741 27.88816 26.95279
#
# Velocity S-wave (km/s) = 3.75653 3.88924 3.82346
# Velocity P-wave (km/s) = 6.17649 6.69428 6.44059
#
# Compressibility (1/GPa) = 0.02805398
#
# Stress axis : x y z
#
# Youngs Moduli (GPa) = 65.84148 70.33518 68.68903
#
# Poissons Ratio (x) = 0.30027 0.16405
# Poissons Ratio (y) = 0.28109 0.08913
# Poissons Ratio (z) = 0.15725 0.09126
#
# Static dielectric constant tensor:
#      x y z
#    x 3.494410 0.000000 0.158840 
#    y 0.000000 3.491850 0.000000 
#    z 0.158840 0.000000 3.263680 
# 
# 
# High freq. dielectric constant tensor:
#      x y z
#    x 1.705140 0.000000 0.028640 
#    y 0.000000 1.706340 0.000000 
#    z 0.028640 0.000000 1.702560 
# 
# From -- ./inp_files/69312.got.cif
#   From: 2010.06.25/outbox.cif.g09.slc.cpg/sg15_35_cif.got.tgz:69312.got - 2010.06.28 07:06:18.
