data_PCOD8131377
_publ_section_title
;
Structure prediction by ZEFSAII (Michael W. Deem and Ramdas Pophale) SiO2 
 PCOD8131377
Probable space group: C 2/C
;
_chemical_formula_sum "Si O2"
_cell_formula_units_Z 52
_cell_length_a 10.079600
_cell_length_b 26.315870
_cell_length_c 11.620135
_cell_angle_alpha 90.000000
_cell_angle_beta 114.114134
_cell_angle_gamma 90.000000
_cell_volume 2813.300716
_symmetry_space_group_name_H-M "C 2/C"
_symmetry_group_IT_number 15
_symmetry_cell_setting 'monoclinic'
loop_
_space_group_symop_operation_xyz
x,y,z
-x,y,1/2-z
-x,-y,-z
x,-y,1/2+z
1/2+x,1/2+y,z
1/2-x,1/2+y,1/2-z
1/2-x,1/2-y,-z
1/2+x,1/2-y,1/2+z
loop_
_atom_site_type_symbol
_atom_site_label
_atom_site_fract_x
_atom_site_fract_y
_atom_site_fract_z
Si Si1 0.496120 0.589408 0.112709
Si Si2 0.910300 0.695308 0.500251
Si Si3 0.433006 0.701220 0.104343
Si Si4 0.500000 0.138174 0.750000
Si Si5 0.685797 0.060768 0.914289
Si Si6 0.028856 0.596993 0.084107
Si Si7 0.795049 0.553226 0.143158
O O1 0.500000 0.578548 0.250000
O O2 0.511677 0.649618 0.092907
O O3 0.622928 0.561197 0.088004
O O4 0.349815 0.566355 0.011760
O O5 0.737289 0.688979 0.446127
O O6 0.953975 0.755102 0.513241
O O7 0.959840 0.659160 0.412255
O O8 0.998161 0.674160 0.639926
O O9 0.500000 0.719566 0.250000
O O10 0.643927 0.101786 0.800926
O O11 0.662757 0.005461 0.853676
O O12 0.573577 0.072273 0.978674
O O13 0.137872 0.575354 0.217124
O O14 0.863331 0.582353 0.057187
#
# Coordination Sequence:
#
# PCOD8131377 Si02
#       7
#     8   8   8   4   8   8   8
#     4  11  20  38  56  84 116 146 191 233 279 338
#     4  10  19  34  56  87 114 142 188 241 276 332
#     4  10  18  32  60  86 112 147 187 233 284 331
#     4  10  18  34  54  88 108 142 192 234 280 322
#     4  11  21  37  58  80 115 149 190 236 274 338
#     4  10  20  38  55  83 113 146 187 237 273 337
#     4  11  22  35  59  83 112 153 189 228 291 328
#
# _framework density 18.483626000000001
#
# number of rings (size 3 to 8) (size 9 to 14) (size 15 to 20)
#    0.000    1.538    5.385    2.769    0.000    1.231 
#    0.000    0.769    0.000    0.000    0.000    0.000 
#    0.000    0.000    0.000    0.000    0.000    0.000 
#
# Total GULP energy -322184.299765 kJ/mol
# GULP energy per Si atom -12391.703837 kJ/mol
# Density = 1.844156 g / cm^3
# Si number density = 18.483626 Si / 1000 Ang^3
#
#
#
# Elastic Constant Matrix: (Units=GPa)
#
#
# Indices 1 2 3 4 5 6 
#
# 1 101.1578 18.1859 28.2724 0.0000 2.7293 0.0000
# 2 18.1859 92.2382 20.2785 0.0000 -12.1370 0.0000
# 3 28.2724 20.2785 83.1629 0.0000 13.5562 0.0000
# 4 0.0000 0.0000 0.0000 29.8454 0.0000 2.9169
# 5 2.7293 -12.1370 13.5562 0.0000 21.2209 0.0000
# 6 0.0000 0.0000 0.0000 2.9169 0.0000 5.2451
#
#
#
# Elastic Compliance Matrix: (Units=1/GPa)
#
#
# Indices 1 2 3 4 5 6 
#
# 1 0.011101 -0.001450 -0.003407 0.000000 -0.000081 0.000000
# 2 -0.001450 0.013567 -0.004588 0.000000 0.010877 0.000000
# 3 -0.003407 -0.004588 0.016362 0.000000 -0.012638 0.000000
# 4 0.000000 0.000000 0.000000 0.035432 0.000000 -0.019704
# 5 -0.000081 0.010877 -0.012638 0.000000 0.061428 0.000000
# 6 0.000000 0.000000 0.000000 -0.019704 0.000000 0.201611
#
#
# Mechanical properties :
#
#
# Convention : Reuss Voigt Hill
#
# Bulk Modulus (GPa) = 45.16981 45.55914 45.36447
# Shear Modulus (GPa) = 13.66973 25.25045 19.46009
#
# Velocity S-wave (km/s) = 2.72243 3.70009 3.24825
# Velocity P-wave (km/s) = 5.86285 6.55409 6.21808
#
# Compressibility (1/GPa) = 0.02213868
#
# Stress axis : x y z
#
# Youngs Moduli (GPa) = 90.08469 73.70585 61.11785
#
# Poissons Ratio (x) = 0.10689 0.20823
# Poissons Ratio (y) = 0.13064 0.28043
# Poissons Ratio (z) = 0.30692 0.33819
#
# Static dielectric constant tensor:
#      x y z
#    x 3.375460 0.000000 0.125410 
#    y 0.000000 3.756940 0.000000 
#    z 0.125410 0.000000 3.536970 
# 
# 
# High freq. dielectric constant tensor:
#      x y z
#    x 1.685980 0.000000 0.028460 
#    y 0.000000 1.735890 0.000000 
#    z 0.028460 0.000000 1.714830 
# 
# From -- ./inp_files/80869.got.cif
#   From: 2010.06.25/outbox.cif.g09.slc.cpg/sg15_41_cif.got.tgz:80869.got - 2010.06.28 07:06:18.
