data_PCOD8131114
_publ_section_title
;
Structure prediction by ZEFSAII (Michael W. Deem and Ramdas Pophale) SiO2 
 PCOD8131114
Probable space group: C 2/C
;
_chemical_formula_sum "Si O2"
_cell_formula_units_Z 56
_cell_length_a 18.580241
_cell_length_b 12.924632
_cell_length_c 12.812734
_cell_angle_alpha 90.000000
_cell_angle_beta 90.000025
_cell_angle_gamma 90.000000
_cell_volume 3076.885529
_symmetry_space_group_name_H-M "C 2/C"
_symmetry_group_IT_number 15
_symmetry_cell_setting 'monoclinic'
loop_
_space_group_symop_operation_xyz
x,y,z
-x,y,1/2-z
-x,-y,-z
x,-y,1/2+z
1/2+x,1/2+y,z
1/2-x,1/2+y,1/2-z
1/2-x,1/2-y,-z
1/2+x,1/2-y,1/2+z
loop_
_atom_site_type_symbol
_atom_site_label
_atom_site_fract_x
_atom_site_fract_y
_atom_site_fract_z
Si Si1 0.080031 0.651200 0.708328
Si Si2 0.580030 0.848801 0.791673
Si Si3 0.719623 0.500000 0.250000
Si Si4 0.822505 0.184270 0.380459
Si Si5 0.350822 0.048059 0.618640
Si Si6 0.350821 0.951942 0.881360
Si Si7 0.177495 0.815729 0.380459
O O1 0.106744 0.745559 0.636928
O O2 0.128275 0.647711 0.813082
O O3 0.093008 0.545210 0.643230
O O4 0.000000 0.665948 0.750000
O O5 0.500000 0.834053 0.750000
O O6 0.606744 0.754442 0.863072
O O7 0.593008 0.954791 0.856770
O O8 0.628275 0.852290 0.686918
O O9 0.671261 0.594529 0.207744
O O10 0.769313 0.480154 0.148420
O O11 0.769313 0.519846 0.351580
O O12 0.671261 0.405471 0.292256
O O13 0.824463 0.142515 0.500000
O O14 0.750000 0.250000 0.362101
O O15 0.355635 0.080384 0.500000
#
# Coordination Sequence:
#
# PCOD8131114 Si02
#       7
#     8   8   8   8   8   8   8
#     4  10  21  34  52  82 114 146 187 228 271 337
#     4  10  21  34  52  82 114 146 187 228 271 337
#     4  10  20  34  54  86 110 136 188 240 266 326
#     4  11  20  37  62  81 107 149 188 225 276 332
#     4  10  18  31  54  82 115 144 174 229 292 335
#     4  10  18  31  54  82 115 144 174 229 292 335
#     4  11  20  37  62  81 107 149 188 225 276 332
#
# _framework density 18.200222
#
# number of rings (size 3 to 8) (size 9 to 14) (size 15 to 20)
#    0.000    2.000    5.714    3.429    0.000    3.429 
#    0.000    5.000    0.000    1.714    0.000    0.000 
#    0.000    0.000    0.000    0.000    0.000    0.000 
#
# Total GULP energy -346934.627175 kJ/mol
# GULP energy per Si atom -12390.522399 kJ/mol
# Density = 1.815880 g / cm^3
# Si number density = 18.200222 Si / 1000 Ang^3
#
#
#
# Elastic Constant Matrix: (Units=GPa)
#
#
# Indices 1 2 3 4 5 6 
#
# 1 49.9630 13.2689 2.7162 0.0000 3.5651 0.0000
# 2 13.2689 70.2676 25.7422 0.0000 -2.5081 0.0000
# 3 2.7162 25.7422 114.8529 0.0000 -16.6128 0.0000
# 4 0.0000 0.0000 0.0000 20.6831 0.0000 -0.2494
# 5 3.5651 -2.5081 -16.6128 0.0000 18.8148 0.0000
# 6 0.0000 0.0000 0.0000 -0.2494 0.0000 19.4421
#
#
#
# Elastic Compliance Matrix: (Units=1/GPa)
#
#
# Indices 1 2 3 4 5 6 
#
# 1 0.021473 -0.004123 -0.000289 0.000000 -0.004873 0.000000
# 2 -0.004123 0.016318 -0.003591 0.000000 -0.000214 0.000000
# 3 -0.000289 -0.003591 0.010842 0.000000 0.009149 0.000000
# 4 0.000000 0.000000 0.000000 0.048356 0.000000 0.000620
# 5 -0.004873 -0.000214 0.009149 0.000000 0.062123 0.000000
# 6 0.000000 0.000000 0.000000 0.000620 0.000000 0.051443
#
#
# Mechanical properties :
#
#
# Convention : Reuss Voigt Hill
#
# Bulk Modulus (GPa) = 30.64873 35.39309 33.02091
# Shear Modulus (GPa) = 21.05840 24.67841 22.86840
#
# Velocity S-wave (km/s) = 3.40522 3.68630 3.54855
# Velocity P-wave (km/s) = 5.68656 6.13247 5.91372
#
# Compressibility (1/GPa) = 0.03262778
#
# Stress axis : x y z
#
# Youngs Moduli (GPa) = 46.56958 61.28310 92.23606
#
# Poissons Ratio (x) = 0.25268 0.02662
# Poissons Ratio (y) = 0.19201 0.33120
# Poissons Ratio (z) = 0.01344 0.22005
#
# Static dielectric constant tensor:
#      x y z
#    x 3.140050 0.000000 -0.054570 
#    y 0.000000 3.177280 0.000000 
#    z -0.054570 0.000000 3.411440 
# 
# 
# High freq. dielectric constant tensor:
#      x y z
#    x 1.678400 0.000000 -0.006940 
#    y 0.000000 1.672520 0.000000 
#    z -0.006940 0.000000 1.712940 
# 
# From -- ./inp_files/161733.got.cif
#   From: 2010.06.25/outbox.cif.g09.slc.cpg/sg15_81_cif.got.tgz:161733.got - 2010.06.28 07:06:18.
