data_PCOD8131690
_publ_section_title
;
Structure prediction by ZEFSAII (Michael W. Deem and Ramdas Pophale) SiO2 
 PCOD8131690
Probable space group: C 2/C
;
_chemical_formula_sum "Si O2"
_cell_formula_units_Z 60
_cell_length_a 25.684051
_cell_length_b 12.326134
_cell_length_c 12.380329
_cell_angle_alpha 90.000000
_cell_angle_beta 129.292187
_cell_angle_gamma 90.000000
_cell_volume 3033.348802
_symmetry_space_group_name_H-M "C 2/C"
_symmetry_group_IT_number 15
_symmetry_cell_setting 'monoclinic'
loop_
_space_group_symop_operation_xyz
x,y,z
-x,y,1/2-z
-x,-y,-z
x,-y,1/2+z
1/2+x,1/2+y,z
1/2-x,1/2+y,1/2-z
1/2-x,1/2-y,-z
1/2+x,1/2-y,1/2+z
loop_
_atom_site_type_symbol
_atom_site_label
_atom_site_fract_x
_atom_site_fract_y
_atom_site_fract_z
Si Si1 0.872737 0.240922 0.986089
Si Si2 0.000000 0.877492 0.750000
Si Si3 0.793058 0.945407 0.464892
Si Si4 0.199031 0.567409 0.026033
Si Si5 0.403309 0.518155 0.277452
Si Si6 0.678955 0.373407 0.662720
Si Si7 0.809658 0.326410 0.461770
Si Si8 0.846712 0.213712 0.718522
O O1 0.809876 0.154561 0.907307
O O2 0.861019 0.346455 0.044510
O O3 0.871750 0.276703 0.858767
O O4 0.942995 0.194797 0.119822
O O5 0.974632 0.951873 0.817012
O O6 0.720154 0.940966 0.427032
O O7 0.847608 0.929865 0.628748
O O8 0.801144 0.061251 0.419040
O O9 0.259848 0.616470 0.175054
O O10 0.173724 0.452267 0.040500
O O11 0.389975 0.576859 0.376416
O O12 0.396193 0.389372 0.275542
O O13 0.669430 0.248581 0.612843
O O14 0.853693 0.290801 0.623779
O O15 0.730129 0.325963 0.379339
#
# Coordination Sequence:
#
# PCOD8131690 Si02
#       8
#     8   4   8   8   8   8   8   8
#     4  11  22  39  58  83 115 165 205 246 291 351
#     4  10  26  44  58  80 118 164 216 260 284 326
#     4  10  18  34  55  89 122 145 187 244 301 365
#     4  11  22  33  56  90 124 164 187 230 311 370
#     4  10  20  38  58  87 116 160 197 253 295 349
#     4  11  19  34  60  91 128 148 188 238 310 368
#     4  11  20  35  58  97 130 150 179 244 310 378
#     4  11  19  35  61  90 125 152 193 242 307 363
#
# _framework density 19.780118000000002
#
# number of rings (size 3 to 8) (size 9 to 14) (size 15 to 20)
#    0.000    1.333    6.667    1.200    0.000    0.533 
#    0.000    0.000    0.000    4.000    0.000    0.000 
#    0.000    0.000    0.000    0.000    0.000    0.000 
#
# Total GULP energy -371857.314105 kJ/mol
# GULP energy per Si atom -12395.243804 kJ/mol
# Density = 1.973510 g / cm^3
# Si number density = 19.780118 Si / 1000 Ang^3
#
#
#
# Elastic Constant Matrix: (Units=GPa)
#
#
# Indices 1 2 3 4 5 6 
#
# 1 107.5436 47.0732 30.8003 0.0000 -13.3755 0.0000
# 2 47.0732 82.3988 9.8800 0.0000 1.1915 0.0000
# 3 30.8003 9.8800 66.4962 0.0000 -11.2096 0.0000
# 4 0.0000 0.0000 0.0000 22.9118 0.0000 -2.6725
# 5 -13.3755 1.1915 -11.2096 0.0000 23.3425 0.0000
# 6 0.0000 0.0000 0.0000 -2.6725 0.0000 27.6268
#
#
#
# Elastic Compliance Matrix: (Units=1/GPa)
#
#
# Indices 1 2 3 4 5 6 
#
# 1 0.015022 -0.008128 -0.004602 0.000000 0.006813 0.000000
# 2 -0.008128 0.016813 0.000367 0.000000 -0.005340 0.000000
# 3 -0.004602 0.000367 0.018136 0.000000 0.006054 0.000000
# 4 0.000000 0.000000 0.000000 0.044144 0.000000 0.004270
# 5 0.006813 -0.005340 0.006054 0.000000 0.049924 0.000000
# 6 0.000000 0.000000 0.000000 0.004270 0.000000 0.036610
#
#
# Mechanical properties :
#
#
# Convention : Reuss Voigt Hill
#
# Bulk Modulus (GPa) = 39.61354 47.99394 43.80374
# Shear Modulus (GPa) = 23.38753 26.02191 24.70472
#
# Velocity S-wave (km/s) = 3.44230 3.63100 3.53791
# Velocity P-wave (km/s) = 5.98913 6.47266 6.23558
#
# Compressibility (1/GPa) = 0.02524389
#
# Stress axis : x y z
#
# Youngs Moduli (GPa) = 66.57045 59.47790 55.13919
#
# Poissons Ratio (x) = 0.48346 0.25373
# Poissons Ratio (y) = 0.54111 -0.02022
# Poissons Ratio (z) = 0.30634 -0.02181
#
# Static dielectric constant tensor:
#      x y z
#    x 3.840470 0.000000 -0.515980 
#    y 0.000000 3.593850 0.000000 
#    z -0.515980 0.000000 3.608270 
# 
# 
# High freq. dielectric constant tensor:
#      x y z
#    x 1.738500 0.000000 -0.036570 
#    y 0.000000 1.767050 0.000000 
#    z -0.036570 0.000000 1.763950 
# 
# From -- ./inp_files/122686.got.cif
#   From: 2010.06.25/outbox.cif.g09.slc.cpg/sg15_62_cif.got.tgz:122686.got - 2010.06.28 07:06:18.
