data_PCOD8131493
_publ_section_title
;
Structure prediction by ZEFSAII (Michael W. Deem and Ramdas Pophale) SiO2 
 PCOD8131493
Probable space group: C 2/C
;
_chemical_formula_sum "Si O2"
_cell_formula_units_Z 48
_cell_length_a 10.069322
_cell_length_b 29.137178
_cell_length_c 17.665340
_cell_angle_alpha 90.000000
_cell_angle_beta 150.491116
_cell_angle_gamma 90.000000
_cell_volume 2552.863190
_symmetry_space_group_name_H-M "C 2/C"
_symmetry_group_IT_number 15
_symmetry_cell_setting 'monoclinic'
loop_
_space_group_symop_operation_xyz
x,y,z
-x,y,1/2-z
-x,-y,-z
x,-y,1/2+z
1/2+x,1/2+y,z
1/2-x,1/2+y,1/2-z
1/2-x,1/2-y,-z
1/2+x,1/2-y,1/2+z
loop_
_atom_site_type_symbol
_atom_site_label
_atom_site_fract_x
_atom_site_fract_y
_atom_site_fract_z
Si Si1 0.747997 0.782118 0.072651
Si Si2 0.774945 0.461464 0.573877
Si Si3 0.714371 0.737437 0.568176
Si Si4 0.360685 0.869330 0.566418
Si Si5 0.592354 0.356437 0.594515
Si Si6 0.273451 0.559543 0.922582
O O1 0.000000 0.768462 0.250000
O O2 0.750000 0.750000 0.000000
O O3 0.474255 0.774458 0.983466
O O4 0.774616 0.835911 0.062612
O O5 0.840468 0.424500 0.538156
O O6 0.791218 0.515057 0.555755
O O7 0.472256 0.455432 0.453855
O O8 0.000000 0.452171 0.750000
O O9 0.750000 0.750000 0.500000
O O10 0.579084 0.688392 0.502196
O O11 0.000000 0.735754 0.750000
O O12 0.206155 0.868139 0.568965
O O13 0.665733 0.850436 0.725775
O O14 0.404743 0.397904 0.533065
O O15 0.000000 0.578133 0.750000
#
# Coordination Sequence:
#
# PCOD8131493 Si02
#       6
#     8   8   8   8   8   8
#     4  12  24  41  64  86 112 159 204 239 286 362
#     4   9  15  28  47  77 115 145 185 240 289 334
#     4  12  25  39  56  85 119 148 187 245 298 342
#     4  10  18  33  57  80 110 149 196 233 281 340
#     4  10  18  33  55  82 114 152 186 241 291 343
#     4   9  16  25  45  79 117 144 182 234 302 333
#
# _framework density 18.802416999999998
#
# number of rings (size 3 to 8) (size 9 to 14) (size 15 to 20)
#    0.000    1.667    5.000    3.500    0.000    0.000 
#    0.000    0.000    0.000    0.000    0.000    5.833 
#    0.000    0.000    0.000    0.000    0.000    0.000 
#
# Total GULP energy -297362.545725 kJ/mol
# GULP energy per Si atom -12390.106072 kJ/mol
# Density = 1.875962 g / cm^3
# Si number density = 18.802417 Si / 1000 Ang^3
#
#
#
# Elastic Constant Matrix: (Units=GPa)
#
#
# Indices 1 2 3 4 5 6 
#
# 1 55.7148 21.4928 28.1045 0.0002 -0.1259 0.0001
# 2 21.4928 131.3550 30.8864 0.0000 -3.0189 0.0000
# 3 28.1045 30.8864 125.0236 0.0011 9.0657 0.0002
# 4 0.0002 0.0000 0.0011 30.4250 0.0003 5.2760
# 5 -0.1259 -3.0189 9.0657 0.0003 25.7151 0.0002
# 6 0.0001 0.0000 0.0002 5.2760 0.0002 20.1435
#
#
#
# Elastic Compliance Matrix: (Units=1/GPa)
#
#
# Indices 1 2 3 4 5 6 
#
# 1 0.021013 -0.002415 -0.004222 0.000000 0.001308 0.000000
# 2 -0.002415 0.008433 -0.001654 0.000000 0.001561 0.000000
# 3 -0.004222 -0.001654 0.009617 0.000000 -0.003605 0.000000
# 4 0.000000 0.000000 0.000000 0.034432 0.000000 -0.009018
# 5 0.001308 0.001561 -0.003605 0.000000 0.040348 0.000000
# 6 0.000000 0.000000 0.000000 -0.009018 0.000000 0.052006
#
#
# Mechanical properties :
#
#
# Convention : Reuss Voigt Hill
#
# Bulk Modulus (GPa) = 44.48029 52.56231 48.52130
# Shear Modulus (GPa) = 26.32629 30.69737 28.51183
#
# Velocity S-wave (km/s) = 3.74592 4.04496 3.89831
# Velocity P-wave (km/s) = 6.51286 7.05914 6.79149
#
# Compressibility (1/GPa) = 0.02248187
#
# Stress axis : x y z
#
# Youngs Moduli (GPa) = 47.58989 118.58367 103.97800
#
# Poissons Ratio (x) = 0.28644 0.43896
# Poissons Ratio (y) = 0.11495 0.17193
# Poissons Ratio (z) = 0.20091 0.19608
#
# Static dielectric constant tensor:
#      x y z
#    x 3.040120 0.000000 0.253740 
#    y 0.000000 3.840870 0.000000 
#    z 0.253740 0.000000 3.587700 
# 
# 
# High freq. dielectric constant tensor:
#      x y z
#    x 1.662980 0.000000 0.030970 
#    y 0.000000 1.756880 0.000000 
#    z 0.030970 0.000000 1.742090 
# 
# From -- ./inp_files/194300.got.cif
#   From: 2010.06.25/outbox.cif.g09.slc.cpg/sg15_98_cif.got.tgz:194300.got - 2010.06.28 07:06:18.
