data_PCOD8131714
_publ_section_title
;
Structure prediction by ZEFSAII (Michael W. Deem and Ramdas Pophale) SiO2 
 PCOD8131714
Probable space group: C 2/C
;
_chemical_formula_sum "Si O2"
_cell_formula_units_Z 52
_cell_length_a 22.701750
_cell_length_b 9.875557
_cell_length_c 12.291512
_cell_angle_alpha 90.000000
_cell_angle_beta 122.031226
_cell_angle_gamma 90.000000
_cell_volume 2336.139326
_symmetry_space_group_name_H-M "C 2/C"
_symmetry_group_IT_number 15
_symmetry_cell_setting 'monoclinic'
loop_
_space_group_symop_operation_xyz
x,y,z
-x,y,1/2-z
-x,-y,-z
x,-y,1/2+z
1/2+x,1/2+y,z
1/2-x,1/2+y,1/2-z
1/2-x,1/2-y,-z
1/2+x,1/2-y,1/2+z
loop_
_atom_site_type_symbol
_atom_site_label
_atom_site_fract_x
_atom_site_fract_y
_atom_site_fract_z
Si Si1 0.670391 0.828326 0.347823
Si Si2 0.050007 0.642069 0.887791
Si Si3 0.952155 0.919176 0.532762
Si Si4 0.731613 0.548902 0.390995
Si Si5 0.644981 0.958412 0.653408
Si Si6 0.627037 0.323619 0.233952
Si Si7 0.000000 0.107327 0.750000
O O1 0.619180 0.800910 0.397807
O O2 0.690951 0.684670 0.315646
O O3 0.735333 0.916510 0.458252
O O4 0.632460 0.912516 0.216758
O O5 0.012230 0.775885 0.898294
O O6 0.000000 0.567839 0.750000
O O7 0.074972 0.545845 0.010448
O O8 0.881815 0.888753 0.396036
O O9 0.000000 0.000000 0.500000
O O10 0.944292 0.013306 0.630761
O O11 0.788200 0.515776 0.355129
O O12 0.681669 0.417445 0.352444
O O13 0.655249 0.827497 0.741402
O O14 0.552122 0.307984 0.223060
#
# Coordination Sequence:
#
# PCOD8131714 Si02
#       7
#     8   8   8   8   8   8   4
#     4  10  22  39  61  88 120 163 209 244 310 377
#     4  10  20  37  62  85 122 167 202 249 312 375
#     4   9  18  32  57  88 117 151 206 254 297 356
#     4  10  21  39  64  86 115 165 207 256 305 363
#     4  10  22  40  58  90 122 157 207 256 300 373
#     4  10  21  36  60  89 122 156 200 261 308 358
#     4  10  18  34  56  86 122 156 198 254 312 362
#
# _framework density 22.258945000000001
#
# number of rings (size 3 to 8) (size 9 to 14) (size 15 to 20)
#    0.000    2.154    0.769    1.846    2.154    4.923 
#    1.385    3.077    0.000    0.000    0.000    0.000 
#    0.000    0.000    0.000    0.000    0.000    0.000 
#
# Total GULP energy -322193.201481 kJ/mol
# GULP energy per Si atom -12392.046211 kJ/mol
# Density = 2.220828 g / cm^3
# Si number density = 22.258945 Si / 1000 Ang^3
#
#
#
# Elastic Constant Matrix: (Units=GPa)
#
#
# Indices 1 2 3 4 5 6 
#
# 1 67.2299 19.3390 12.7218 0.0000 -3.4247 0.0000
# 2 19.3390 82.0533 39.9598 0.0000 2.0345 0.0000
# 3 12.7218 39.9598 102.3888 0.0000 3.8084 0.0000
# 4 0.0000 0.0000 0.0000 36.3179 0.0000 0.0844
# 5 -3.4247 2.0345 3.8084 0.0000 29.4388 0.0000
# 6 0.0000 0.0000 0.0000 0.0844 0.0000 21.4068
#
#
#
# Elastic Compliance Matrix: (Units=1/GPa)
#
#
# Indices 1 2 3 4 5 6 
#
# 1 0.016132 -0.003507 -0.000718 0.000000 0.002212 0.000000
# 2 -0.003507 0.015812 -0.005707 0.000000 -0.000763 0.000000
# 3 -0.000718 -0.005707 0.012130 0.000000 -0.001258 0.000000
# 4 0.000000 0.000000 0.000000 0.027535 0.000000 -0.000109
# 5 0.002212 -0.000763 -0.001258 0.000000 0.034442 0.000000
# 6 0.000000 0.000000 0.000000 -0.000109 0.000000 0.046715
#
#
# Mechanical properties :
#
#
# Convention : Reuss Voigt Hill
#
# Bulk Modulus (GPa) = 41.30590 43.96813 42.63702
# Shear Modulus (GPa) = 27.67038 29.40945 28.53992
#
# Velocity S-wave (km/s) = 3.52961 3.63883 3.58464
# Velocity P-wave (km/s) = 5.93364 6.11970 6.02739
#
# Compressibility (1/GPa) = 0.02420962
#
# Stress axis : x y z
#
# Youngs Moduli (GPa) = 61.98959 63.24315 82.44063
#
# Poissons Ratio (x) = 0.22181 0.05918
# Poissons Ratio (y) = 0.21742 0.47048
# Poissons Ratio (z) = 0.04450 0.36092
#
# Static dielectric constant tensor:
#      x y z
#    x 3.879510 0.000000 0.539270 
#    y 0.000000 3.977760 0.000000 
#    z 0.539270 0.000000 8.382680 
# 
# 
# High freq. dielectric constant tensor:
#      x y z
#    x 1.863890 0.000000 -0.008290 
#    y 0.000000 1.857080 0.000000 
#    z -0.008290 0.000000 1.883600 
# 
# From -- ./inp_files/122072.got.cif
#   From: 2010.06.25/outbox.cif.g09.slc.cpg/sg15_62_cif.got.tgz:122072.got - 2010.06.28 07:06:18.
