data_PCOD8131235
_publ_section_title
;
Structure prediction by ZEFSAII (Michael W. Deem and Ramdas Pophale) SiO2 
 PCOD8131235
Probable space group: C 2/C
;
_chemical_formula_sum "Si O2"
_cell_formula_units_Z 48
_cell_length_a 20.868600
_cell_length_b 13.449731
_cell_length_c 11.890918
_cell_angle_alpha 90.000000
_cell_angle_beta 124.450813
_cell_angle_gamma 90.000000
_cell_volume 2752.149468
_symmetry_space_group_name_H-M "C 2/C"
_symmetry_group_IT_number 15
_symmetry_cell_setting 'monoclinic'
loop_
_space_group_symop_operation_xyz
x,y,z
-x,y,1/2-z
-x,-y,-z
x,-y,1/2+z
1/2+x,1/2+y,z
1/2-x,1/2+y,1/2-z
1/2-x,1/2-y,-z
1/2+x,1/2-y,1/2+z
loop_
_atom_site_type_symbol
_atom_site_label
_atom_site_fract_x
_atom_site_fract_y
_atom_site_fract_z
Si Si1 0.537786 0.641690 0.043123
Si Si2 0.562124 0.994750 0.904111
Si Si3 0.834676 0.854786 0.020481
Si Si4 0.963382 0.651359 0.449378
Si Si5 0.563627 0.471357 0.219883
Si Si6 0.161473 0.645329 0.364192
O O1 0.566696 0.587813 0.187159
O O2 0.610182 0.631677 0.031116
O O3 0.509198 0.752663 0.041255
O O4 0.460940 0.588541 0.916491
O O5 0.500000 0.025062 0.750000
O O6 0.530534 0.914046 0.960273
O O7 0.636368 0.950231 0.913136
O O8 0.580286 0.095134 0.991536
O O9 0.857161 0.927249 0.147998
O O10 0.837847 0.739669 0.054680
O O11 0.746147 0.880744 0.898402
O O12 0.898062 0.675049 0.292872
O O13 0.500000 0.451630 0.250000
#
# Coordination Sequence:
#
# PCOD8131235 Si02
#       6
#     8   8   8   8   8   8
#     4  10  18  32  53  75 101 135 172 218 259 312
#     4   9  19  32  51  77  98 132 175 215 260 307
#     4  10  19  32  52  76 104 139 175 216 263 312
#     4  10  18  32  53  75 101 135 172 218 259 312
#     4   9  19  32  51  77  98 132 175 215 260 307
#     4  10  19  32  52  76 104 139 175 216 263 312
#
# _framework density 17.440912999999998
#
# number of rings (size 3 to 8) (size 9 to 14) (size 15 to 20)
#    0.000    2.333    3.333    0.000    0.000    2.000 
#    0.000    0.000    0.000    0.000    0.000    9.333 
#    0.000    0.000    0.000    0.000    0.000    0.000 
#
# Total GULP energy -297444.440616 kJ/mol
# GULP energy per Si atom -12393.518359 kJ/mol
# Density = 1.740122 g / cm^3
# Si number density = 17.440913 Si / 1000 Ang^3
#
#
#
# Elastic Constant Matrix: (Units=GPa)
#
#
# Indices 1 2 3 4 5 6 
#
# 1 54.4500 23.9562 15.7142 0.0000 18.2022 0.0000
# 2 23.9562 70.4770 23.7597 0.0000 3.0158 0.0000
# 3 15.7142 23.7597 29.2430 0.0000 3.1167 0.0000
# 4 0.0000 0.0000 0.0000 33.4161 0.0000 -5.5581
# 5 18.2022 3.0158 3.1167 0.0000 21.1777 0.0000
# 6 0.0000 0.0000 0.0000 -5.5581 0.0000 20.3973
#
#
#
# Elastic Compliance Matrix: (Units=1/GPa)
#
#
# Indices 1 2 3 4 5 6 
#
# 1 0.032658 -0.006897 -0.009203 0.000000 -0.025733 0.000000
# 2 -0.006897 0.021003 -0.013889 0.000000 0.004981 0.000000
# 3 -0.009203 -0.013889 0.050159 0.000000 0.002506 0.000000
# 4 0.000000 0.000000 0.000000 0.031346 0.000000 0.008542
# 5 -0.025733 0.004981 0.002506 0.000000 0.068259 0.000000
# 6 0.000000 0.000000 0.000000 0.008542 0.000000 0.051354
#
#
# Mechanical properties :
#
#
# Convention : Reuss Voigt Hill
#
# Bulk Modulus (GPa) = 22.80927 31.22560 27.01743
# Shear Modulus (GPa) = 15.18041 21.04756 18.11398
#
# Velocity S-wave (km/s) = 2.95344 3.47766 3.22621
# Velocity P-wave (km/s) = 4.97361 5.83678 5.42240
#
# Compressibility (1/GPa) = 0.04384182
#
# Stress axis : x y z
#
# Youngs Moduli (GPa) = 30.61999 47.61272 19.93651
#
# Poissons Ratio (x) = 0.32840 0.18347
# Poissons Ratio (y) = 0.21120 0.27690
# Poissons Ratio (z) = 0.28179 0.66130
#
# Static dielectric constant tensor:
#      x y z
#    x 3.203940 0.000000 0.012670 
#    y 0.000000 3.283730 0.000000 
#    z 0.012670 0.000000 3.268500 
# 
# 
# High freq. dielectric constant tensor:
#      x y z
#    x 1.657420 0.000000 -0.002170 
#    y 0.000000 1.672310 0.000000 
#    z -0.002170 0.000000 1.661890 
# 
# From -- ./inp_files/104161.got.cif
#   From: 2010.06.25/outbox.cif.g09.slc.cpg/sg15_53_cif.got.tgz:104161.got - 2010.06.28 07:06:18.
