data_PCOD8131566
_publ_section_title
;
Structure prediction by ZEFSAII (Michael W. Deem and Ramdas Pophale) SiO2 
 PCOD8131566
Probable space group: C 2/C
;
_chemical_formula_sum "Si O2"
_cell_formula_units_Z 60
_cell_length_a 16.123040
_cell_length_b 11.007616
_cell_length_c 25.591926
_cell_angle_alpha 90.000000
_cell_angle_beta 47.294664
_cell_angle_gamma 90.000000
_cell_volume 3337.664810
_symmetry_space_group_name_H-M "C 2/C"
_symmetry_group_IT_number 15
_symmetry_cell_setting 'monoclinic'
loop_
_space_group_symop_operation_xyz
x,y,z
-x,y,1/2-z
-x,-y,-z
x,-y,1/2+z
1/2+x,1/2+y,z
1/2-x,1/2+y,1/2-z
1/2-x,1/2-y,-z
1/2+x,1/2-y,1/2+z
loop_
_atom_site_type_symbol
_atom_site_label
_atom_site_fract_x
_atom_site_fract_y
_atom_site_fract_z
Si Si1 0.472458 0.323113 0.874962
Si Si2 0.883488 0.033566 0.114782
Si Si3 0.738902 0.838452 0.147445
Si Si4 0.960722 0.418843 0.437790
Si Si5 0.419661 0.360660 0.497361
Si Si6 0.230559 0.942307 0.481204
Si Si7 0.069622 0.648909 0.430382
Si Si8 0.000000 0.241600 0.250000
O O1 0.569339 0.417369 0.850993
O O2 0.506804 0.189441 0.881178
O O3 0.468431 0.337299 0.814283
O O4 0.349394 0.356204 0.949660
O O5 0.873256 0.143167 0.077072
O O6 0.768610 0.956928 0.170428
O O7 0.964216 0.935054 0.052887
O O8 0.753420 0.871820 0.080190
O O9 0.813763 0.720315 0.132203
O O10 0.608815 0.820997 0.217379
O O11 0.847640 0.469754 0.459273
O O12 0.928610 0.373297 0.508707
O O13 0.056194 0.524915 0.402391
O O14 0.326945 0.424907 0.500325
O O15 0.455625 0.225541 0.464706
#
# Coordination Sequence:
#
# PCOD8131566 Si02
#       8
#     8   8   8   8   8   8   8   4
#     4  11  19  35  52  79 101 141 170 213 255 307
#     4   8  15  30  55  72 100 130 171 207 251 297
#     4  10  19  37  54  79  97 137 173 217 249 315
#     4  11  19  29  50  80 109 136 159 217 259 302
#     4   8  14  28  52  81  97 131 167 205 249 315
#     4  10  18  33  59  73 105 134 172 214 260 291
#     4  10  19  31  51  79 110 130 169 207 266 308
#     4  12  24  32  54  78 104 128 186 212 256 298
#
# _framework density 17.97664
#
# number of rings (size 3 to 8) (size 9 to 14) (size 15 to 20)
#    0.000    2.133    4.000    2.800    0.000    0.533 
#    2.400    0.000    0.000    0.000    0.000    9.333 
#    0.000    0.000    0.000    0.000    0.000    0.000 
#
# Total GULP energy -371696.175172 kJ/mol
# GULP energy per Si atom -12389.872506 kJ/mol
# Density = 1.793572 g / cm^3
# Si number density = 17.976640 Si / 1000 Ang^3
#
#
#
# Elastic Constant Matrix: (Units=GPa)
#
#
# Indices 1 2 3 4 5 6 
#
# 1 97.9823 36.8723 31.2411 0.0000 -8.7233 0.0000
# 2 36.8723 54.1643 4.9156 0.0000 -6.6220 0.0000
# 3 31.2411 4.9156 43.5065 0.0000 -3.4697 0.0000
# 4 0.0000 0.0000 0.0000 7.2653 0.0000 -3.1183
# 5 -8.7233 -6.6220 -3.4697 0.0000 32.4045 0.0000
# 6 0.0000 0.0000 0.0000 -3.1183 0.0000 25.2298
#
#
#
# Elastic Compliance Matrix: (Units=1/GPa)
#
#
# Indices 1 2 3 4 5 6 
#
# 1 0.018304 -0.011224 -0.011766 0.000000 0.001374 0.000000
# 2 -0.011224 0.025967 0.005354 0.000000 0.002858 0.000000
# 3 -0.011766 0.005354 0.030928 0.000000 0.001238 0.000000
# 4 0.000000 0.000000 0.000000 0.145352 0.000000 0.017965
# 5 0.001374 0.002858 0.001238 0.000000 0.031946 0.000000
# 6 0.000000 0.000000 0.000000 0.017965 0.000000 0.041856
#
#
# Mechanical properties :
#
#
# Convention : Reuss Voigt Hill
#
# Bulk Modulus (GPa) = 25.04630 37.96789 31.50710
# Shear Modulus (GPa) = 14.58010 21.15487 17.86749
#
# Velocity S-wave (km/s) = 2.85100 3.43417 3.15608
# Velocity P-wave (km/s) = 4.98001 6.07382 5.55391
#
# Compressibility (1/GPa) = 0.03992605
#
# Stress axis : x y z
#
# Youngs Moduli (GPa) = 54.63418 38.51066 32.33360
#
# Poissons Ratio (x) = 0.43226 0.38043
# Poissons Ratio (y) = 0.61324 -0.17312
# Poissons Ratio (z) = 0.64281 -0.20619
#
# Static dielectric constant tensor:
#      x y z
#    x 3.466780 0.000000 -0.062060 
#    y 0.000000 3.385930 0.000000 
#    z -0.062060 0.000000 2.986330 
# 
# 
# High freq. dielectric constant tensor:
#      x y z
#    x 1.704300 0.000000 0.000170 
#    y 0.000000 1.684820 0.000000 
#    z 0.000170 0.000000 1.652820 
# 
# From -- ./inp_files/273845.got.cif
#   From: 2010.06.25/outbox.cif.g09.slc.cpg/sg15_137_cif.got.tgz:273845.got - 2010.06.28 07:06:18.
