data_PCOD8131735
_publ_section_title
;
Structure prediction by ZEFSAII (Michael W. Deem and Ramdas Pophale) SiO2 
 PCOD8131735
Probable space group: C 2/C
;
_chemical_formula_sum "Si O2"
_cell_formula_units_Z 44
_cell_length_a 18.349126
_cell_length_b 21.020003
_cell_length_c 8.727645
_cell_angle_alpha 90.000000
_cell_angle_beta 137.756020
_cell_angle_gamma 90.000000
_cell_volume 2263.087022
_symmetry_space_group_name_H-M "C 2/C"
_symmetry_group_IT_number 15
_symmetry_cell_setting 'monoclinic'
loop_
_space_group_symop_operation_xyz
x,y,z
-x,y,1/2-z
-x,-y,-z
x,-y,1/2+z
1/2+x,1/2+y,z
1/2-x,1/2+y,1/2-z
1/2-x,1/2-y,-z
1/2+x,1/2-y,1/2+z
loop_
_atom_site_type_symbol
_atom_site_label
_atom_site_fract_x
_atom_site_fract_y
_atom_site_fract_z
Si Si1 0.875478 0.046165 0.519407
Si Si2 0.957431 0.854128 0.927046
Si Si3 0.615092 0.240256 0.871558
Si Si4 0.201069 0.303601 0.199386
Si Si5 0.000000 0.760853 0.250000
Si Si6 0.829405 0.078932 0.783589
O O1 0.872195 0.103202 0.389914
O O2 0.814034 0.067308 0.578039
O O3 0.000000 0.029143 0.750000
O O4 0.813200 0.986070 0.352019
O O5 0.893175 0.813370 0.702236
O O6 0.021200 0.805102 0.136466
O O7 0.049221 0.896831 0.990428
O O8 0.500000 0.214117 0.750000
O O9 0.654615 0.192213 0.801177
O O10 0.702701 0.249651 0.145205
O O11 0.239308 0.372068 0.201636
O O12 0.107329 0.281521 0.937844
#
# Coordination Sequence:
#
# PCOD8131735 Si02
#       6
#     8   8   8   8   4   8
#     4  10  21  33  56  92 118 157 192 246 321 349
#     4  10  18  34  57  87 124 147 190 247 306 362
#     4  10  20  37  58  90 121 157 191 251 307 356
#     4  10  23  36  58  87 122 160 203 237 303 358
#     4  10  20  40  54  84 124 154 202 234 288 366
#     4  11  21  35  56  88 121 153 195 245 302 363
#
# _framework density 19.44247
#
# number of rings (size 3 to 8) (size 9 to 14) (size 15 to 20)
#    0.000    1.818    4.545    2.182    5.091    0.727 
#    0.000    0.000    0.000    1.091    0.000    0.000 
#    0.000    0.000    0.000    0.000    0.000    0.000 
#
# Total GULP energy -272725.731099 kJ/mol
# GULP energy per Si atom -12396.624141 kJ/mol
# Density = 1.939822 g / cm^3
# Si number density = 19.442470 Si / 1000 Ang^3
#
#
#
# Elastic Constant Matrix: (Units=GPa)
#
#
# Indices 1 2 3 4 5 6 
#
# 1 117.7125 56.2501 28.8695 0.0000 5.1757 0.0000
# 2 56.2501 109.5531 28.2948 0.0000 -6.3902 0.0000
# 3 28.8695 28.2948 80.1561 0.0000 9.6660 0.0000
# 4 0.0000 0.0000 0.0000 21.3113 0.0000 0.0899
# 5 5.1757 -6.3902 9.6660 0.0000 20.6050 0.0000
# 6 0.0000 0.0000 0.0000 0.0899 0.0000 38.6387
#
#
#
# Elastic Compliance Matrix: (Units=1/GPa)
#
#
# Indices 1 2 3 4 5 6 
#
# 1 0.011918 -0.005909 -0.001722 0.000000 -0.004018 0.000000
# 2 -0.005909 0.013498 -0.003519 0.000000 0.007321 0.000000
# 3 -0.001722 -0.003519 0.015282 0.000000 -0.007828 0.000000
# 4 0.000000 0.000000 0.000000 0.046924 0.000000 -0.000109
# 5 -0.004018 0.007321 -0.007828 0.000000 0.055484 0.000000
# 6 0.000000 0.000000 0.000000 -0.000109 0.000000 0.025881
#
#
# Mechanical properties :
#
#
# Convention : Reuss Voigt Hill
#
# Bulk Modulus (GPa) = 54.35568 59.36117 56.85843
# Shear Modulus (GPa) = 25.32671 29.04482 27.18576
#
# Velocity S-wave (km/s) = 3.61314 3.86927 3.74340
# Velocity P-wave (km/s) = 6.73975 7.11053 6.92762
#
# Compressibility (1/GPa) = 0.01839734
#
# Stress axis : x y z
#
# Youngs Moduli (GPa) = 83.90733 74.08539 65.43566
#
# Poissons Ratio (x) = 0.43776 0.11268
# Poissons Ratio (y) = 0.49580 0.23029
# Poissons Ratio (z) = 0.14449 0.26074
#
# Static dielectric constant tensor:
#      x y z
#    x 3.574750 0.000000 -0.212380 
#    y 0.000000 3.477860 0.000000 
#    z -0.212380 0.000000 3.588400 
# 
# 
# High freq. dielectric constant tensor:
#      x y z
#    x 1.746740 0.000000 -0.024840 
#    y 0.000000 1.738660 0.000000 
#    z -0.024840 0.000000 1.743840 
# 
# From -- ./inp_files/49912.got.cif
#   From: 2010.06.25/outbox.cif.g09.slc.cpg/sg15_25_cif.got.tgz:49912.got - 2010.06.28 07:06:18.
