data_PCOD8131282
_publ_section_title
;
Structure prediction by ZEFSAII (Michael W. Deem and Ramdas Pophale) SiO2 
 PCOD8131282
Probable space group: C 2/C
;
_chemical_formula_sum "Si O2"
_cell_formula_units_Z 64
_cell_length_a 8.418965
_cell_length_b 16.428899
_cell_length_c 24.864366
_cell_angle_alpha 90.000000
_cell_angle_beta 97.673019
_cell_angle_gamma 90.000000
_cell_volume 3408.304969
_symmetry_space_group_name_H-M "C 2/C"
_symmetry_group_IT_number 15
_symmetry_cell_setting 'monoclinic'
loop_
_space_group_symop_operation_xyz
x,y,z
-x,y,1/2-z
-x,-y,-z
x,-y,1/2+z
1/2+x,1/2+y,z
1/2-x,1/2+y,1/2-z
1/2-x,1/2-y,-z
1/2+x,1/2-y,1/2+z
loop_
_atom_site_type_symbol
_atom_site_label
_atom_site_fract_x
_atom_site_fract_y
_atom_site_fract_z
Si Si1 0.461108 0.950497 0.882236
Si Si2 0.958804 0.270354 0.606193
Si Si3 0.798580 0.457057 0.028648
Si Si4 0.132620 0.891015 0.120986
Si Si5 0.461233 0.908781 0.186863
Si Si6 0.314199 0.530837 0.579056
Si Si7 0.918830 0.705787 0.503556
Si Si8 0.861031 0.310105 0.393481
O O1 0.488376 0.857020 0.868065
O O2 0.587210 0.982920 0.932571
O O3 0.475926 0.003029 0.828525
O O4 0.278284 0.958698 0.894352
O O5 0.780359 0.255127 0.621261
O O6 0.073534 0.199147 0.633122
O O7 0.972661 0.267290 0.542082
O O8 0.701819 0.397349 0.063962
O O9 0.679840 0.508079 0.984343
O O10 0.902381 0.392913 0.998145
O O11 0.268830 0.910108 0.170736
O O12 0.987158 0.956734 0.114740
O O13 0.500000 0.892542 0.250000
O O14 0.549835 0.837287 0.157137
O O15 0.211046 0.612513 0.578934
O O16 0.750000 0.750000 0.500000
O O17 0.009677 0.731676 0.561942
#
# Coordination Sequence:
#
# PCOD8131282 Si02
#       8
#     8   8   8   8   8   8   8   8
#     4  10  20  36  56  81 113 150 190 233 283 347
#     4  11  21  34  57  87 119 152 179 239 285 343
#     4  11  18  33  51  79 120 163 193 215 274 345
#     4  10  21  36  53  85 114 147 203 231 277 354
#     4  10  21  44  65  75 104 151 193 249 301 341
#     4  10  18  32  55  77 114 153 185 232 270 336
#     4  12  19  32  52  83 125 163 187 222 279 349
#     4  10  21  37  53  83 115 149 200 226 284 353
#
# _framework density 18.777663
#
# number of rings (size 3 to 8) (size 9 to 14) (size 15 to 20)
#    0.000    1.500    6.250    1.875    0.000    1.000 
#    4.500    6.875    0.000    0.000    0.000    0.000 
#    0.000    0.000    0.000    0.000    0.000    0.000 
#
# Total GULP energy -396649.353471 kJ/mol
# GULP energy per Si atom -12395.292296 kJ/mol
# Density = 1.873492 g / cm^3
# Si number density = 18.777663 Si / 1000 Ang^3
#
#
#
# Elastic Constant Matrix: (Units=GPa)
#
#
# Indices 1 2 3 4 5 6 
#
# 1 129.7163 34.5454 45.8290 0.0000 7.5248 0.0000
# 2 34.5454 71.0104 12.6481 0.0000 -1.2208 0.0000
# 3 45.8290 12.6481 97.6536 0.0000 8.7592 0.0000
# 4 0.0000 0.0000 0.0000 13.8866 0.0000 -2.1523
# 5 7.5248 -1.2208 8.7592 0.0000 18.1656 0.0000
# 6 0.0000 0.0000 0.0000 -2.1523 0.0000 29.4926
#
#
#
# Elastic Compliance Matrix: (Units=1/GPa)
#
#
# Indices 1 2 3 4 5 6 
#
# 1 0.010493 -0.004418 -0.004114 0.000000 -0.002660 0.000000
# 2 -0.004418 0.016342 -0.000320 0.000000 0.003082 0.000000
# 3 -0.004114 -0.000320 0.012607 0.000000 -0.004396 0.000000
# 4 0.000000 0.000000 0.000000 0.072836 0.000000 0.005315
# 5 -0.002660 0.003082 -0.004396 0.000000 0.058478 0.000000
# 6 0.000000 0.000000 0.000000 0.005315 0.000000 0.034295
#
#
# Mechanical properties :
#
#
# Convention : Reuss Voigt Hill
#
# Bulk Modulus (GPa) = 46.00059 53.82505 49.91282
# Shear Modulus (GPa) = 21.73923 25.99948 23.86935
#
# Velocity S-wave (km/s) = 3.40622 3.72505 3.56920
# Velocity P-wave (km/s) = 6.32617 6.87226 6.60486
#
# Compressibility (1/GPa) = 0.02173885
#
# Stress axis : x y z
#
# Youngs Moduli (GPa) = 95.29816 61.19353 79.32348
#
# Poissons Ratio (x) = 0.27034 0.32632
# Poissons Ratio (y) = 0.42101 0.02536
# Poissons Ratio (z) = 0.39203 0.01957
#
# Static dielectric constant tensor:
#      x y z
#    x 3.785490 0.000000 -0.104330 
#    y 0.000000 3.483530 0.000000 
#    z -0.104330 0.000000 3.023270 
# 
# 
# High freq. dielectric constant tensor:
#      x y z
#    x 1.740450 0.000000 -0.006920 
#    y 0.000000 1.724740 0.000000 
#    z -0.006920 0.000000 1.682900 
# 
# From -- ./inp_files/264701.got.cif
#   From: 2010.06.25/outbox.cif.g09.slc.cpg/sg15_133_cif.got.tgz:264701.got - 2010.06.28 07:06:18.
