data_PCOD8131753
_publ_section_title
;
Structure prediction by ZEFSAII (Michael W. Deem and Ramdas Pophale) SiO2 
 PCOD8131753
Probable space group: C 2/C
;
_chemical_formula_sum "Si O2"
_cell_formula_units_Z 64
_cell_length_a 29.507970
_cell_length_b 17.495922
_cell_length_c 18.224371
_cell_angle_alpha 90.000000
_cell_angle_beta 158.134672
_cell_angle_gamma 90.000000
_cell_volume 3504.039482
_symmetry_space_group_name_H-M "C 2/C"
_symmetry_group_IT_number 15
_symmetry_cell_setting 'monoclinic'
loop_
_space_group_symop_operation_xyz
x,y,z
-x,y,1/2-z
-x,-y,-z
x,-y,1/2+z
1/2+x,1/2+y,z
1/2-x,1/2+y,1/2-z
1/2-x,1/2-y,-z
1/2+x,1/2-y,1/2+z
loop_
_atom_site_type_symbol
_atom_site_label
_atom_site_fract_x
_atom_site_fract_y
_atom_site_fract_z
Si Si1 0.892366 0.799252 0.914335
Si Si2 0.581327 0.751028 0.208166
Si Si3 0.681982 0.716692 0.681929
Si Si4 0.128302 0.913302 0.985014
Si Si5 0.331421 0.521455 0.682361
Si Si6 0.612475 0.476240 0.581145
Si Si7 0.827525 0.190912 0.662693
Si Si8 0.764786 0.877016 0.499479
O O1 0.871659 0.762838 0.803767
O O2 0.803796 0.758122 0.838501
O O3 0.857554 0.887891 0.862132
O O4 0.033063 0.789941 0.147926
O O5 0.647817 0.824961 0.341293
O O6 0.614762 0.673597 0.302635
O O7 0.438413 0.770124 0.000226
O O8 0.645405 0.645912 0.576588
O O9 0.703122 0.694444 0.797657
O O10 0.233399 0.901164 0.083036
O O11 0.000000 0.909000 0.750000
O O12 0.150534 0.995757 0.057008
O O13 0.314894 0.521779 0.745802
O O14 0.295223 0.603241 0.592581
O O15 0.251946 0.453641 0.528084
O O16 0.470914 0.502874 0.874346
O O17 0.750000 0.250000 0.500000
#
# Coordination Sequence:
#
# PCOD8131753 Si02
#       8
#     8   8   8   8   8   8   8   8
#     4  10  21  37  61  83 116 151 191 240 293 340
#     4  10  20  34  56  88 119 152 181 232 292 357
#     4  11  21  38  58  83 120 152 190 242 286 349
#     4  12  20  32  56  90 115 147 186 239 294 344
#     4  10  18  34  58  80 114 149 186 244 285 335
#     4  10  19  33  54  85 111 144 192 237 291 331
#     4  10  23  40  61  83 112 157 204 237 288 340
#     4  11  20  32  56  88 119 144 188 232 292 346
#
# _framework density 18.264634000000001
#
# number of rings (size 3 to 8) (size 9 to 14) (size 15 to 20)
#    0.000    1.500    6.250    0.000    0.000    1.500 
#    0.000    0.000    2.750    2.250    0.000    0.000 
#    0.000    0.000    0.000    0.000    0.000    0.000 
#
# Total GULP energy -396634.744914 kJ/mol
# GULP energy per Si atom -12394.835779 kJ/mol
# Density = 1.822306 g / cm^3
# Si number density = 18.264634 Si / 1000 Ang^3
#
#
#
# Elastic Constant Matrix: (Units=GPa)
#
#
# Indices 1 2 3 4 5 6 
#
# 1 102.0740 40.4602 40.0987 0.0000 -4.7113 0.0000
# 2 40.4602 126.8711 63.8595 0.0000 -8.7635 0.0000
# 3 40.0987 63.8595 74.3597 0.0000 -8.7990 0.0000
# 4 0.0000 0.0000 0.0000 29.8776 0.0000 -10.3085
# 5 -4.7113 -8.7635 -8.7990 0.0000 29.9922 0.0000
# 6 0.0000 0.0000 0.0000 -10.3085 0.0000 26.5878
#
#
#
# Elastic Compliance Matrix: (Units=1/GPa)
#
#
# Indices 1 2 3 4 5 6 
#
# 1 0.012508 -0.001047 -0.005853 0.000000 -0.000058 0.000000
# 2 -0.001047 0.013981 -0.011373 0.000000 0.000584 0.000000
# 3 -0.005853 -0.011373 0.026799 0.000000 0.003620 0.000000
# 4 0.000000 0.000000 0.000000 0.038639 0.000000 0.014981
# 5 -0.000058 0.000584 0.003620 0.000000 0.034566 0.000000
# 6 0.000000 0.000000 0.000000 0.014981 0.000000 0.043420
#
#
# Mechanical properties :
#
#
# Convention : Reuss Voigt Hill
#
# Bulk Modulus (GPa) = 59.72567 65.79350 62.75958
# Shear Modulus (GPa) = 23.58061 27.88394 25.73228
#
# Velocity S-wave (km/s) = 3.59702 3.91149 3.75755
# Velocity P-wave (km/s) = 7.07266 7.51666 7.29804
#
# Compressibility (1/GPa) = 0.01674322
#
# Stress axis : x y z
#
# Youngs Moduli (GPa) = 79.94627 71.52753 37.31418
#
# Poissons Ratio (x) = 0.07489 0.21840
# Poissons Ratio (y) = 0.08371 0.42436
# Poissons Ratio (z) = 0.46792 0.81346
#
# Static dielectric constant tensor:
#      x y z
#    x 3.432860 0.000000 -0.158770 
#    y 0.000000 3.354950 0.000000 
#    z -0.158770 0.000000 3.166600 
# 
# 
# High freq. dielectric constant tensor:
#      x y z
#    x 1.707480 0.000000 -0.018430 
#    y 0.000000 1.707590 0.000000 
#    z -0.018430 0.000000 1.680450 
# 
# From -- ./inp_files/174268.got.cif
#   From: 2010.06.25/outbox.cif.g09.slc.cpg/sg15_88_cif.got.tgz:174268.got - 2010.06.28 07:06:18.
