data_PCOD8131274
_publ_section_title
;
Structure prediction by ZEFSAII (Michael W. Deem and Ramdas Pophale) SiO2 
 PCOD8131274
Probable space group: C 2/C
;
_chemical_formula_sum "Si O2"
_cell_formula_units_Z 64
_cell_length_a 12.554939
_cell_length_b 18.632048
_cell_length_c 20.012738
_cell_angle_alpha 90.000000
_cell_angle_beta 44.528955
_cell_angle_gamma 90.000000
_cell_volume 3282.968669
_symmetry_space_group_name_H-M "C 2/C"
_symmetry_group_IT_number 15
_symmetry_cell_setting 'monoclinic'
loop_
_space_group_symop_operation_xyz
x,y,z
-x,y,1/2-z
-x,-y,-z
x,-y,1/2+z
1/2+x,1/2+y,z
1/2-x,1/2+y,1/2-z
1/2-x,1/2-y,-z
1/2+x,1/2-y,1/2+z
loop_
_atom_site_type_symbol
_atom_site_label
_atom_site_fract_x
_atom_site_fract_y
_atom_site_fract_z
Si Si1 0.288614 0.863747 0.980424
Si Si2 0.676682 0.407930 0.672606
Si Si3 0.496797 0.320373 0.177878
Si Si4 0.871593 0.688746 0.168387
Si Si5 0.191102 0.023031 0.027779
Si Si6 0.871798 0.030096 0.702195
Si Si7 0.830872 0.371965 0.819291
Si Si8 0.670310 0.040790 0.671805
O O1 0.462781 0.845312 0.916240
O O2 0.239350 0.845846 0.925543
O O3 0.172460 0.818149 0.076458
O O4 0.277787 0.948273 0.998941
O O5 0.500000 0.388193 0.750000
O O6 0.770430 0.335761 0.650418
O O7 0.732083 0.428714 0.573652
O O8 0.706577 0.475501 0.709830
O O9 0.500000 0.285035 0.250000
O O10 0.393086 0.273807 0.172627
O O11 0.435940 0.401166 0.212845
O O12 0.771334 0.657028 0.275229
O O13 0.009777 0.010875 0.103235
O O14 0.247864 0.062497 0.934515
O O15 0.761273 0.065971 0.696672
O O16 0.832156 0.456547 0.817931
O O17 0.000000 0.341086 0.750000
O O18 0.500000 0.073199 0.750000
#
# Coordination Sequence:
#
# PCOD8131274 Si02
#       8
#     8   8   8   8   8   8   8   8
#     4   9  18  33  55  85 114 140 180 233 279 338
#     4  10  21  38  57  84 113 146 191 235 272 334
#     4  11  22  37  55  84 118 149 181 228 286 342
#     4  11  20  34  57  82 111 150 184 228 281 332
#     4   9  19  33  54  83 113 145 181 236 285 326
#     4  10  19  36  57  80 116 151 181 228 291 334
#     4   8  15  29  51  81 107 133 178 227 271 318
#     4  10  18  32  54  83 111 141 190 234 271 329
#
# _framework density 19.49455
#
# number of rings (size 3 to 8) (size 9 to 14) (size 15 to 20)
#    0.000    2.250    1.250    4.500    0.000    0.500 
#    2.250    0.625    0.000    0.750    0.000    0.000 
#    0.000    0.000    0.000    0.000    0.000    0.000 
#
# Total GULP energy -396498.236389 kJ/mol
# GULP energy per Si atom -12390.569887 kJ/mol
# Density = 1.945018 g / cm^3
# Si number density = 19.494550 Si / 1000 Ang^3
#
#
#
# Elastic Constant Matrix: (Units=GPa)
#
#
# Indices 1 2 3 4 5 6 
#
# 1 100.8918 25.9610 35.8028 0.0003 10.3586 0.0005
# 2 25.9610 48.2643 20.0588 0.0013 0.9171 -0.0003
# 3 35.8028 20.0588 100.9693 0.0035 12.1111 -0.0014
# 4 0.0003 0.0013 0.0035 12.6108 -0.0016 0.2785
# 5 10.3586 0.9171 12.1111 -0.0016 23.9515 0.0003
# 6 0.0005 -0.0003 -0.0014 0.2785 0.0003 28.5358
#
#
#
# Elastic Compliance Matrix: (Units=1/GPa)
#
#
# Indices 1 2 3 4 5 6 
#
# 1 0.012792 -0.005573 -0.002971 0.000001 -0.003817 0.000000
# 2 -0.005573 0.025063 -0.003382 -0.000001 0.003161 0.000000
# 3 -0.002971 -0.003382 0.012200 -0.000004 -0.004754 0.000001
# 4 0.000001 -0.000001 -0.000004 0.079314 0.000007 -0.000774
# 5 -0.003817 0.003161 -0.004754 0.000007 0.045685 -0.000001
# 6 0.000000 0.000000 0.000001 -0.000774 -0.000001 0.035051
#
#
# Mechanical properties :
#
#
# Convention : Reuss Voigt Hill
#
# Bulk Modulus (GPa) = 38.16534 45.97451 42.06992
# Shear Modulus (GPa) = 20.60240 24.23980 22.42110
#
# Velocity S-wave (km/s) = 3.25442 3.53003 3.39502
# Velocity P-wave (km/s) = 5.80875 6.34423 6.08239
#
# Compressibility (1/GPa) = 0.02620178
#
# Stress axis : x y z
#
# Youngs Moduli (GPa) = 78.17493 39.90012 81.97018
#
# Poissons Ratio (x) = 0.22238 0.24352
# Poissons Ratio (y) = 0.43570 0.27721
# Poissons Ratio (z) = 0.23225 0.13494
#
# Static dielectric constant tensor:
#      x y z
#    x 3.553490 0.000000 0.158420 
#    y 0.000000 3.238900 0.000000 
#    z 0.158420 0.000000 3.847190 
# 
# 
# High freq. dielectric constant tensor:
#      x y z
#    x 1.737060 0.000000 0.010910 
#    y 0.000000 1.729460 0.000000 
#    z 0.010910 0.000000 1.767610 
# 
# From -- ./inp_files/200349.got.cif
#   From: 2010.06.25/outbox.cif.g09.slc.cpg/sg15_101_cif.got.tgz:200349.got - 2010.06.28 07:06:18.
