data_PCOD8131180
_publ_section_title
;
Structure prediction by ZEFSAII (Michael W. Deem and Ramdas Pophale) SiO2 
 PCOD8131180
Probable space group: C 2/C
;
_chemical_formula_sum "Si O2"
_cell_formula_units_Z 52
_cell_length_a 16.839435
_cell_length_b 14.947254
_cell_length_c 12.818722
_cell_angle_alpha 90.000000
_cell_angle_beta 47.489477
_cell_angle_gamma 90.000000
_cell_volume 2378.435843
_symmetry_space_group_name_H-M "C 2/C"
_symmetry_group_IT_number 15
_symmetry_cell_setting 'monoclinic'
loop_
_space_group_symop_operation_xyz
x,y,z
-x,y,1/2-z
-x,-y,-z
x,-y,1/2+z
1/2+x,1/2+y,z
1/2-x,1/2+y,1/2-z
1/2-x,1/2-y,-z
1/2+x,1/2-y,1/2+z
loop_
_atom_site_type_symbol
_atom_site_label
_atom_site_fract_x
_atom_site_fract_y
_atom_site_fract_z
Si Si1 0.035073 0.821988 0.438736
Si Si2 0.500000 0.753832 0.750000
Si Si3 0.299563 0.335159 0.666041
Si Si4 0.820368 0.394623 0.931278
Si Si5 0.931637 0.483573 0.189952
Si Si6 0.909267 0.371771 0.547169
Si Si7 0.259434 0.875143 0.211139
O O1 0.922867 0.865590 0.577958
O O2 0.034129 0.807450 0.315733
O O3 0.050725 0.729288 0.486187
O O4 0.138486 0.885469 0.366498
O O5 0.397592 0.810190 0.877810
O O6 0.265059 0.373207 0.583928
O O7 0.221287 0.376223 0.825794
O O8 0.292003 0.228513 0.675930
O O9 0.892093 0.482870 0.838475
O O10 0.762643 0.416185 0.091615
O O11 0.960554 0.574952 0.100883
O O12 0.836708 0.428915 0.218508
O O13 0.039225 0.420591 0.100170
#
# Coordination Sequence:
#
# PCOD8131180 Si02
#       7
#     8   4   8   8   8   8   8
#     4  11  19  30  53  78 111 142 173 227 283 327
#     4  12  16  28  48  82 112 126 172 220 278 326
#     4  10  18  32  49  79 111 138 176 225 279 333
#     4  11  21  31  49  81 114 144 174 221 281 325
#     4  10  19  34  49  74 116 147 173 222 273 331
#     4   9  18  31  45  73 105 142 177 207 267 322
#     4  11  20  32  51  81 111 143 180 221 276 329
#
# _framework density 21.863108
#
# number of rings (size 3 to 8) (size 9 to 14) (size 15 to 20)
#    0.000    1.538    7.692    1.385    2.154    0.000 
#    0.000    3.077    0.000    0.000    0.000    9.692 
#    0.000    0.000    0.000    0.000    0.000    2.308 
#
# Total GULP energy -322206.290473 kJ/mol
# GULP energy per Si atom -12392.549634 kJ/mol
# Density = 2.181335 g / cm^3
# Si number density = 21.863108 Si / 1000 Ang^3
#
#
#
# Elastic Constant Matrix: (Units=GPa)
#
#
# Indices 1 2 3 4 5 6 
#
# 1 41.2108 9.5386 32.9889 0.0000 -19.2928 0.0000
# 2 9.5386 50.1725 37.6701 0.0000 4.0899 0.0000
# 3 32.9889 37.6701 140.6511 0.0000 -44.6594 0.0000
# 4 0.0000 0.0000 0.0000 35.3170 0.0000 -3.7094
# 5 -19.2928 4.0899 -44.6594 0.0000 35.1781 0.0000
# 6 0.0000 0.0000 0.0000 -3.7094 0.0000 27.5530
#
#
#
# Elastic Compliance Matrix: (Units=1/GPa)
#
#
# Indices 1 2 3 4 5 6 
#
# 1 0.036000 -0.009635 0.001276 0.000000 0.022483 0.000000
# 2 -0.009635 0.038531 -0.018697 0.000000 -0.033500 0.000000
# 3 0.001276 -0.018697 0.021327 0.000000 0.029949 0.000000
# 4 0.000000 0.000000 0.000000 0.028721 0.000000 0.003867
# 5 0.022483 -0.033500 0.029949 0.000000 0.082673 0.000000
# 6 0.000000 0.000000 0.000000 0.003867 0.000000 0.036814
#
#
# Mechanical properties :
#
#
# Convention : Reuss Voigt Hill
#
# Bulk Modulus (GPa) = 23.95372 43.60329 33.77850
# Shear Modulus (GPa) = 16.02082 29.73207 22.87644
#
# Velocity S-wave (km/s) = 2.70992 3.69171 3.23824
# Velocity P-wave (km/s) = 4.55759 6.17727 5.42818
#
# Compressibility (1/GPa) = 0.04174717
#
# Stress axis : x y z
#
# Youngs Moduli (GPa) = 27.77794 25.95285 46.88803
#
# Poissons Ratio (x) = 0.25005 -0.05981
# Poissons Ratio (y) = 0.26763 0.87665
# Poissons Ratio (z) = -0.03544 0.48523
#
# Static dielectric constant tensor:
#      x y z
#    x 3.727390 0.000000 -0.438350 
#    y 0.000000 3.927970 0.000000 
#    z -0.438350 0.000000 4.513080 
# 
# 
# High freq. dielectric constant tensor:
#      x y z
#    x 1.827360 0.000000 -0.027180 
#    y 0.000000 1.836410 0.000000 
#    z -0.027180 0.000000 1.868180 
# 
# From -- ./inp_files/215321.got.cif
#   From: 2010.06.25/outbox.cif.g09.slc.cpg/sg15_108_cif.got.tgz:215321.got - 2010.06.28 07:06:18.
