data_PCOD8131868
_publ_section_title
;
Structure prediction by ZEFSAII (Michael W. Deem and Ramdas Pophale) SiO2 
 PCOD8131868
Probable space group: C 2/C
;
_chemical_formula_sum "Si O2"
_cell_formula_units_Z 52
_cell_length_a 8.723340
_cell_length_b 32.447403
_cell_length_c 13.555666
_cell_angle_alpha 90.000000
_cell_angle_beta 48.201640
_cell_angle_gamma 90.000000
_cell_volume 2860.410625
_symmetry_space_group_name_H-M "C 2/C"
_symmetry_group_IT_number 15
_symmetry_cell_setting 'monoclinic'
loop_
_space_group_symop_operation_xyz
x,y,z
-x,y,1/2-z
-x,-y,-z
x,-y,1/2+z
1/2+x,1/2+y,z
1/2-x,1/2+y,1/2-z
1/2-x,1/2-y,-z
1/2+x,1/2-y,1/2+z
loop_
_atom_site_type_symbol
_atom_site_label
_atom_site_fract_x
_atom_site_fract_y
_atom_site_fract_z
Si Si1 0.000000 0.949277 0.750000
Si Si2 0.500000 0.063545 0.750000
Si Si3 0.685118 0.505681 0.346725
Si Si4 0.785063 0.386029 0.511349
Si Si5 0.516971 0.858390 0.890893
Si Si6 0.947658 0.180141 0.161881
Si Si7 0.000000 0.572187 0.250000
Si Si8 0.201675 0.717271 0.104309
O O1 0.885140 0.981601 0.730752
O O2 0.163001 0.920537 0.624721
O O3 0.609367 0.093519 0.626622
O O4 0.673813 0.034951 0.725018
O O5 0.500000 0.500000 0.500000
O O6 0.800945 0.544402 0.341364
O O7 0.629942 0.349473 0.545862
O O8 0.968079 0.365586 0.498138
O O9 0.740359 0.845811 0.755820
O O10 0.470609 0.901577 0.860892
O O11 0.343881 0.825572 0.933534
O O12 0.896341 0.213865 0.097874
O O13 0.000000 0.198492 0.250000
O O14 0.000000 0.731995 0.250000
O O15 0.250000 0.750000 0.000000
#
# Coordination Sequence:
#
# PCOD8131868 Si02
#       8
#     4   4   8   8   8   8   4   8
#     4  12  20  36  64  76 113 157 203 237 294 354
#     4  11  26  38  54  84 127 150 188 263 312 328
#     4  11  24  36  54  85 118 152 194 250 305 341
#     4  11  20  38  59  86 111 153 207 244 281 350
#     4  10  18  34  63  86 106 156 202 226 276 364
#     4   9  17  34  63  89 108 155 203 228 274 358
#     4  11  18  34  60  86 102 157 207 234 274 364
#     4  10  21  39  62  90 125 150 189 240 295 354
#
# _framework density 18.179207999999999
#
# number of rings (size 3 to 8) (size 9 to 14) (size 15 to 20)
#    0.000    1.538    7.692    0.000    0.000    1.846 
#    2.769    6.923    0.000    0.000    0.000    0.000 
#    0.000    0.000    0.000    0.000    0.000    0.000 
#
# Total GULP energy -322220.829928 kJ/mol
# GULP energy per Si atom -12393.108843 kJ/mol
# Density = 1.813783 g / cm^3
# Si number density = 18.179208 Si / 1000 Ang^3
#
#
#
# Elastic Constant Matrix: (Units=GPa)
#
#
# Indices 1 2 3 4 5 6 
#
# 1 147.8249 61.1809 47.7577 0.0000 9.4006 0.0000
# 2 61.1809 89.1116 53.7310 0.0000 10.0887 0.0000
# 3 47.7577 53.7310 102.4719 0.0000 12.4217 0.0000
# 4 0.0000 0.0000 0.0000 35.5334 0.0000 8.4540
# 5 9.4006 10.0887 12.4217 0.0000 23.2742 0.0000
# 6 0.0000 0.0000 0.0000 8.4540 0.0000 38.9003
#
#
#
# Elastic Compliance Matrix: (Units=1/GPa)
#
#
# Indices 1 2 3 4 5 6 
#
# 1 0.009612 -0.005662 -0.001431 0.000000 -0.000665 0.000000
# 2 -0.005662 0.019905 -0.007516 0.000000 -0.002330 0.000000
# 3 -0.001431 -0.007516 0.014863 0.000000 -0.004097 0.000000
# 4 0.000000 0.000000 0.000000 0.029677 0.000000 -0.006450
# 5 -0.000665 -0.002330 -0.004097 0.000000 0.046431 0.000000
# 6 0.000000 0.000000 0.000000 -0.006450 0.000000 0.027108
#
#
# Mechanical properties :
#
#
# Convention : Reuss Voigt Hill
#
# Bulk Modulus (GPa) = 65.94676 73.86085 69.90381
# Shear Modulus (GPa) = 27.49257 31.32418 29.40837
#
# Velocity S-wave (km/s) = 3.89306 4.15550 4.02642
# Velocity P-wave (km/s) = 7.52081 7.98384 7.75578
#
# Compressibility (1/GPa) = 0.01516375
#
# Stress axis : x y z
#
# Youngs Moduli (GPa) = 104.03162 50.23978 67.28076
#
# Poissons Ratio (x) = 0.28444 0.09626
# Poissons Ratio (y) = 0.58899 0.50567
# Poissons Ratio (z) = 0.14883 0.37759
#
# Static dielectric constant tensor:
#      x y z
#    x 4.236640 0.000000 0.150370 
#    y 0.000000 3.421290 0.000000 
#    z 0.150370 0.000000 3.185580 
# 
# 
# High freq. dielectric constant tensor:
#      x y z
#    x 1.727050 0.000000 0.000160 
#    y 0.000000 1.693810 0.000000 
#    z 0.000160 0.000000 1.678580 
# 
# From -- ./inp_files/139762.got.cif
#   From: 2010.06.25/outbox.cif.g09.slc.cpg/sg15_70_cif.got.tgz:139762.got - 2010.06.28 07:06:18.
