data_PCOD8131109
_publ_section_title
;
Structure prediction by ZEFSAII (Michael W. Deem and Ramdas Pophale) SiO2 
 PCOD8131109
Probable space group: C 2/C
;
_chemical_formula_sum "Si O2"
_cell_formula_units_Z 64
_cell_length_a 15.046090
_cell_length_b 11.493762
_cell_length_c 27.351387
_cell_angle_alpha 90.000000
_cell_angle_beta 45.712277
_cell_angle_gamma 90.000000
_cell_volume 3385.966132
_symmetry_space_group_name_H-M "C 2/C"
_symmetry_group_IT_number 15
_symmetry_cell_setting 'monoclinic'
loop_
_space_group_symop_operation_xyz
x,y,z
-x,y,1/2-z
-x,-y,-z
x,-y,1/2+z
1/2+x,1/2+y,z
1/2-x,1/2+y,1/2-z
1/2-x,1/2-y,-z
1/2+x,1/2-y,1/2+z
loop_
_atom_site_type_symbol
_atom_site_label
_atom_site_fract_x
_atom_site_fract_y
_atom_site_fract_z
Si Si1 0.819153 0.564572 0.464308
Si Si2 0.774958 0.908639 0.914915
Si Si3 0.442651 0.745561 0.481858
Si Si4 0.069063 0.988307 0.024292
Si Si5 0.042346 0.600981 0.862020
Si Si6 0.002121 0.754994 0.426880
Si Si7 0.779940 0.412588 0.674782
Si Si8 0.529760 0.696188 0.294373
O O1 0.755459 0.516652 0.538450
O O2 0.709459 0.565061 0.465820
O O3 0.880107 0.690341 0.452054
O O4 0.923143 0.480442 0.402990
O O5 0.740135 0.947870 0.873689
O O6 0.696355 0.795916 0.961254
O O7 0.919493 0.874903 0.862543
O O8 0.428527 0.621916 0.458329
O O9 0.533007 0.824299 0.414944
O O10 0.504544 0.745365 0.511484
O O11 0.998936 0.893558 0.086330
O O12 0.000000 0.000000 0.000000
O O13 0.165496 0.523118 0.817935
O O14 0.052565 0.680229 0.810645
O O15 0.126342 0.697091 0.358457
O O16 0.653664 0.380549 0.750777
O O17 0.500000 0.725479 0.250000
#
# Coordination Sequence:
#
# PCOD8131109 Si02
#       8
#     8   8   8   8   8   8   8   8
#     4  10  18  31  54  79 100 131 168 214 264 307
#     4   9  17  32  56  80 100 124 168 221 261 297
#     4   9  17  31  53  82 103 124 166 216 264 299
#     4  10  19  29  44  74 112 137 161 201 251 313
#     4  10  19  34  56  76 101 130 171 218 258 303
#     4   9  18  32  50  75 110 137 161 201 264 317
#     4   9  19  35  52  75 103 135 169 210 254 307
#     4  10  20  34  51  75 104 140 179 215 255 305
#
# _framework density 18.901547999999998
#
# number of rings (size 3 to 8) (size 9 to 14) (size 15 to 20)
#    0.000    2.500    0.000    2.625    0.000    6.000 
#    4.500    0.000    0.000    0.000    0.000    0.000 
#    0.000    0.000    0.000    0.000    0.000    0.000 
#
# Total GULP energy -396584.627140 kJ/mol
# GULP energy per Si atom -12393.269598 kJ/mol
# Density = 1.885853 g / cm^3
# Si number density = 18.901548 Si / 1000 Ang^3
#
#
#
# Elastic Constant Matrix: (Units=GPa)
#
#
# Indices 1 2 3 4 5 6 
#
# 1 93.7430 34.7263 40.1501 0.0000 -28.1277 0.0000
# 2 34.7263 93.3924 38.8741 0.0000 -19.7884 0.0000
# 3 40.1501 38.8741 89.8601 0.0000 -18.8947 0.0000
# 4 0.0000 0.0000 0.0000 17.8067 0.0000 2.4366
# 5 -28.1277 -19.7884 -18.8947 0.0000 27.7207 0.0000
# 6 0.0000 0.0000 0.0000 2.4366 0.0000 31.1842
#
#
#
# Elastic Compliance Matrix: (Units=1/GPa)
#
#
# Indices 1 2 3 4 5 6 
#
# 1 0.017052 -0.001859 -0.004034 0.000000 0.013226 0.000000
# 2 -0.001859 0.014308 -0.004212 0.000000 0.005457 0.000000
# 3 -0.004034 -0.004212 0.015478 0.000000 0.003451 0.000000
# 4 0.000000 0.000000 0.000000 0.056766 0.000000 -0.004435
# 5 0.013226 0.005457 0.003451 0.000000 0.055741 0.000000
# 6 0.000000 0.000000 0.000000 -0.004435 0.000000 0.032414
#
#
# Mechanical properties :
#
#
# Convention : Reuss Voigt Hill
#
# Bulk Modulus (GPa) = 37.55259 56.05519 46.80389
# Shear Modulus (GPa) = 22.64023 26.22531 24.43277
#
# Velocity S-wave (km/s) = 3.46468 3.72892 3.59922
# Velocity P-wave (km/s) = 5.99299 6.94698 6.48754
#
# Compressibility (1/GPa) = 0.02662932
#
# Stress axis : x y z
#
# Youngs Moduli (GPa) = 58.64297 69.89052 64.60647
#
# Poissons Ratio (x) = 0.12994 0.26061
# Poissons Ratio (y) = 0.10903 0.27211
# Poissons Ratio (z) = 0.23655 0.29436
#
# Static dielectric constant tensor:
#      x y z
#    x 3.600610 0.000000 -0.211370 
#    y 0.000000 3.818940 0.000000 
#    z -0.211370 0.000000 3.269230 
# 
# 
# High freq. dielectric constant tensor:
#      x y z
#    x 1.742520 0.000000 -0.017450 
#    y 0.000000 1.739530 0.000000 
#    z -0.017450 0.000000 1.705200 
# 
# From -- ./inp_files/313571.got.cif
#   From: 2010.06.25/outbox.cif.g09.slc.cpg/sg15_157_cif.got.tgz:313571.got - 2010.06.28 07:06:18.
