data_PCOD8131259
_publ_section_title
;
Structure prediction by ZEFSAII (Michael W. Deem and Ramdas Pophale) SiO2 
 PCOD8131259
Probable space group: C 2/C
;
_chemical_formula_sum "Si O2"
_cell_formula_units_Z 44
_cell_length_a 21.882998
_cell_length_b 9.083616
_cell_length_c 13.116304
_cell_angle_alpha 90.000000
_cell_angle_beta 80.201886
_cell_angle_gamma 90.000000
_cell_volume 2569.186133
_symmetry_space_group_name_H-M "C 2/C"
_symmetry_group_IT_number 15
_symmetry_cell_setting 'monoclinic'
loop_
_space_group_symop_operation_xyz
x,y,z
-x,y,1/2-z
-x,-y,-z
x,-y,1/2+z
1/2+x,1/2+y,z
1/2-x,1/2+y,1/2-z
1/2-x,1/2-y,-z
1/2+x,1/2-y,1/2+z
loop_
_atom_site_type_symbol
_atom_site_label
_atom_site_fract_x
_atom_site_fract_y
_atom_site_fract_z
Si Si1 0.673057 0.004717 0.513356
Si Si2 0.280944 0.491841 0.321978
Si Si3 0.603241 0.973185 0.839598
Si Si4 0.500000 0.847137 0.750000
Si Si5 0.629160 0.241761 0.168349
Si Si6 0.310739 0.174831 0.790064
O O1 0.735937 0.995877 0.431626
O O2 0.658753 0.845719 0.565303
O O3 0.615068 0.047002 0.456315
O O4 0.679131 0.132626 0.594957
O O5 0.342895 0.404110 0.336152
O O6 0.301812 0.652108 0.280943
O O7 0.249342 0.409828 0.235937
O O8 0.531099 0.951201 0.828910
O O9 0.644866 0.850695 0.767000
O O10 0.628525 0.131710 0.793800
O O11 0.446433 0.748390 0.818836
#
# Coordination Sequence:
#
# PCOD8131259 Si02
#       6
#     8   8   8   4   8   8
#     4  10  18  32  54  79 107 133 175 214 265 308
#     4  11  20  33  53  79 111 136 170 216 268 309
#     4   8  18  35  54  78  99 141 176 212 254 304
#     4   8  18  38  56  70 106 140 182 206 258 302
#     4   9  19  34  52  75 103 141 176 209 257 305
#     4  10  20  33  51  82 108 136 168 217 261 315
#
# _framework density 17.126047
#
# number of rings (size 3 to 8) (size 9 to 14) (size 15 to 20)
#    1.091    1.455    0.000    4.364    0.000    2.182 
#    0.000    0.909    0.000    1.091    0.000    0.000 
#    0.000    0.000    0.000    0.000    0.000    0.000 
#
# Total GULP energy -272610.092417 kJ/mol
# GULP energy per Si atom -12391.367837 kJ/mol
# Density = 1.708707 g / cm^3
# Si number density = 17.126047 Si / 1000 Ang^3
#
#
#
# Elastic Constant Matrix: (Units=GPa)
#
#
# Indices 1 2 3 4 5 6 
#
# 1 115.0633 52.3924 24.0129 0.0000 13.6866 0.0000
# 2 52.3924 115.0148 26.1178 0.0000 11.9975 0.0000
# 3 24.0129 26.1178 75.5298 0.0000 23.5796 0.0000
# 4 0.0000 0.0000 0.0000 14.7971 0.0000 1.4696
# 5 13.6866 11.9975 23.5796 0.0000 28.8581 0.0000
# 6 0.0000 0.0000 0.0000 1.4696 0.0000 26.9911
#
#
#
# Elastic Compliance Matrix: (Units=1/GPa)
#
#
# Indices 1 2 3 4 5 6 
#
# 1 0.011351 -0.004633 -0.001245 0.000000 -0.002440 0.000000
# 2 -0.004633 0.011388 -0.002246 0.000000 -0.000702 0.000000
# 3 -0.001245 -0.002246 0.018709 0.000000 -0.013763 0.000000
# 4 0.000000 0.000000 0.000000 0.067948 0.000000 -0.003700
# 5 -0.002440 -0.000702 -0.013763 0.000000 0.047347 0.000000
# 6 0.000000 0.000000 0.000000 -0.003700 0.000000 0.037251
#
#
# Mechanical properties :
#
#
# Convention : Reuss Voigt Hill
#
# Bulk Modulus (GPa) = 39.68266 56.73933 48.21100
# Shear Modulus (GPa) = 22.86852 27.66823 25.26838
#
# Velocity S-wave (km/s) = 3.65815 4.02377 3.84531
# Velocity P-wave (km/s) = 6.40812 7.40203 6.92293
#
# Compressibility (1/GPa) = 0.02519992
#
# Stress axis : x y z
#
# Youngs Moduli (GPa) = 88.10120 87.80896 53.45116
#
# Poissons Ratio (x) = 0.40685 0.06653
# Poissons Ratio (y) = 0.40820 0.12004
# Poissons Ratio (z) = 0.10966 0.19720
#
# Static dielectric constant tensor:
#      x y z
#    x 3.131230 0.000000 0.116650 
#    y 0.000000 2.966310 0.000000 
#    z 0.116650 0.000000 3.141220 
# 
# 
# High freq. dielectric constant tensor:
#      x y z
#    x 1.653080 0.000000 0.009480 
#    y 0.000000 1.639380 0.000000 
#    z 0.009480 0.000000 1.660010 
# 
# From -- ./inp_files/171072.got.cif
#   From: 2010.06.25/outbox.cif.g09.slc.cpg/sg15_86_cif.got.tgz:171072.got - 2010.06.28 07:06:18.
