data_PCOD8131117
_publ_section_title
;
Structure prediction by ZEFSAII (Michael W. Deem and Ramdas Pophale) SiO2 
 PCOD8131117
Probable space group: C 2/C
;
_chemical_formula_sum "Si O2"
_cell_formula_units_Z 64
_cell_length_a 24.915458
_cell_length_b 17.969359
_cell_length_c 21.551109
_cell_angle_alpha 90.000000
_cell_angle_beta 158.662574
_cell_angle_gamma 90.000000
_cell_volume 3510.791907
_symmetry_space_group_name_H-M "C 2/C"
_symmetry_group_IT_number 15
_symmetry_cell_setting 'monoclinic'
loop_
_space_group_symop_operation_xyz
x,y,z
-x,y,1/2-z
-x,-y,-z
x,-y,1/2+z
1/2+x,1/2+y,z
1/2-x,1/2+y,1/2-z
1/2-x,1/2-y,-z
1/2+x,1/2-y,1/2+z
loop_
_atom_site_type_symbol
_atom_site_label
_atom_site_fract_x
_atom_site_fract_y
_atom_site_fract_z
Si Si1 0.298435 0.589867 0.402565
Si Si2 0.740594 0.656329 0.274437
Si Si3 0.945456 0.706975 0.917540
Si Si4 0.666914 0.945311 0.217198
Si Si5 0.042256 0.695068 0.161946
Si Si6 0.067911 0.155861 0.757975
Si Si7 0.124543 0.595052 0.432853
Si Si8 0.150057 0.510248 0.073916
O O1 0.301382 0.627988 0.338848
O O2 0.269536 0.500393 0.368765
O O3 0.170785 0.632968 0.302926
O O4 0.455277 0.599264 0.603914
O O5 0.617463 0.712197 0.167777
O O6 0.749416 0.583795 0.327843
O O7 0.895419 0.700113 0.442287
O O8 0.828755 0.643990 0.767058
O O9 0.963674 0.699984 0.011177
O O10 0.715115 0.955572 0.196790
O O11 0.500686 0.966329 0.055301
O O12 0.101334 0.774447 0.249014
O O13 0.918294 0.669880 0.077055
O O14 0.000000 0.183025 0.750000
O O15 0.219667 0.111050 0.932908
O O16 0.137366 0.526763 0.493943
O O17 0.000000 0.571623 0.250000
#
# Coordination Sequence:
#
# PCOD8131117 Si02
#       8
#     8   8   8   8   8   8   8   8
#     4  10  19  35  53  77 111 145 181 227 271 310
#     4   9  19  32  54  81 113 139 173 222 274 331
#     4  10  18  31  54  84 111 145 176 216 278 326
#     4   9  16  33  59  78 105 144 179 226 270 330
#     4  11  20  35  56  74 111 148 191 219 254 323
#     4  12  26  37  49  79 113 151 187 225 267 307
#     4  12  24  38  57  75 103 152 193 226 258 324
#     4   9  17  35  55  81 104 139 190 223 266 321
#
# _framework density 18.229505
#
# number of rings (size 3 to 8) (size 9 to 14) (size 15 to 20)
#    0.000    1.750    3.750    3.375    1.750    1.500 
#    2.250    1.250    0.000    0.000    0.000    4.375 
#    0.000    0.000    0.000    0.000    0.000    0.000 
#
# Total GULP energy -396552.809858 kJ/mol
# GULP energy per Si atom -12392.275308 kJ/mol
# Density = 1.818801 g / cm^3
# Si number density = 18.229505 Si / 1000 Ang^3
#
#
#
# Elastic Constant Matrix: (Units=GPa)
#
#
# Indices 1 2 3 4 5 6 
#
# 1 46.4380 18.0776 17.8799 -0.0052 -3.2523 -0.0035
# 2 18.0776 73.0885 38.7972 -0.0043 -6.4562 -0.0109
# 3 17.8799 38.7972 90.6066 0.0128 -2.4602 0.0028
# 4 -0.0052 -0.0043 0.0128 28.3132 -0.0043 1.5234
# 5 -3.2523 -6.4562 -2.4602 -0.0043 16.7304 -0.0052
# 6 -0.0035 -0.0109 0.0028 1.5234 -0.0052 18.4508
#
#
#
# Elastic Compliance Matrix: (Units=1/GPa)
#
#
# Indices 1 2 3 4 5 6 
#
# 1 0.024514 -0.004267 -0.002938 0.000005 0.002687 0.000003
# 2 -0.004267 0.019016 -0.007152 0.000005 0.005457 0.000013
# 3 -0.002938 -0.007152 0.014647 -0.000008 -0.001177 -0.000007
# 4 0.000005 0.000005 -0.000008 0.035477 0.000010 -0.002929
# 5 0.002687 0.005457 -0.001177 0.000010 0.062227 0.000021
# 6 0.000003 0.000013 -0.000007 -0.002929 0.000021 0.054440
#
#
# Mechanical properties :
#
#
# Convention : Reuss Voigt Hill
#
# Bulk Modulus (GPa) = 33.93965 39.96028 36.94996
# Shear Modulus (GPa) = 20.09195 21.72409 20.90802
#
# Velocity S-wave (km/s) = 3.32349 3.45584 3.39031
# Velocity P-wave (km/s) = 5.77805 6.15565 5.96984
#
# Compressibility (1/GPa) = 0.02946406
#
# Stress axis : x y z
#
# Youngs Moduli (GPa) = 40.79255 52.58702 68.27295
#
# Poissons Ratio (x) = 0.22437 0.20056
# Poissons Ratio (y) = 0.17405 0.48832
# Poissons Ratio (z) = 0.11983 0.37613
#
# Static dielectric constant tensor:
#      x y z
#    x 3.078360 -0.000020 0.041140 
#    y -0.000020 3.568010 -0.000030 
#    z 0.041140 -0.000030 3.319700 
# 
# 
# High freq. dielectric constant tensor:
#      x y z
#    x 1.673000 0.000000 0.012050 
#    y 0.000000 1.703900 0.000000 
#    z 0.012050 0.000000 1.692570 
# 
# From -- ./inp_files/256026.got.cif
#   From: 2010.06.25/outbox.cif.g09.slc.cpg/sg15_129_cif.got.tgz:256026.got - 2010.06.28 07:06:18.
