data_PCOD8131447
_publ_section_title
;
Structure prediction by ZEFSAII (Michael W. Deem and Ramdas Pophale) SiO2 
 PCOD8131447
Probable space group: C 2/C
;
_chemical_formula_sum "Si O2"
_cell_formula_units_Z 40
_cell_length_a 15.958036
_cell_length_b 15.661113
_cell_length_c 16.074977
_cell_angle_alpha 90.000000
_cell_angle_beta 151.814741
_cell_angle_gamma 90.000000
_cell_volume 1897.546579
_symmetry_space_group_name_H-M "C 2/C"
_symmetry_group_IT_number 15
_symmetry_cell_setting 'monoclinic'
loop_
_space_group_symop_operation_xyz
x,y,z
-x,y,1/2-z
-x,-y,-z
x,-y,1/2+z
1/2+x,1/2+y,z
1/2-x,1/2+y,1/2-z
1/2-x,1/2-y,-z
1/2+x,1/2-y,1/2+z
loop_
_atom_site_type_symbol
_atom_site_label
_atom_site_fract_x
_atom_site_fract_y
_atom_site_fract_z
Si Si1 0.829057 0.660537 0.045471
Si Si2 0.290098 0.020711 0.553042
Si Si3 0.063876 0.916820 0.009393
Si Si4 0.348264 0.113786 0.877980
Si Si5 0.290651 0.918159 0.876438
O O1 0.714525 0.575558 0.967767
O O2 0.000000 0.649001 0.250000
O O3 0.750000 0.750000 0.000000
O O4 0.860757 0.665340 0.974523
O O5 0.500000 0.017732 0.750000
O O6 0.192592 0.058145 0.546762
O O7 0.251817 0.081281 0.440793
O O8 0.881981 0.872917 0.817247
O O9 0.179279 0.856974 0.173035
O O10 0.000000 0.000000 0.000000
O O11 0.322401 0.013633 0.871287
O O12 0.531609 0.134212 0.989861
#
# Coordination Sequence:
#
# PCOD8131447 Si02
#       5
#     8   8   8   8   8
#     4  10  23  37  53  72 111 161 193 222 273 335
#     4  10  18  33  53  78 119 150 180 234 289 333
#     4  10  19  28  51  82 105 144 179 228 290 339
#     4   9  18  34  49  75 106 141 183 238 274 322
#     4   9  17  29  51  76 106 140 179 222 292 331
#
# _framework density 21.079851000000001
#
# number of rings (size 3 to 8) (size 9 to 14) (size 15 to 20)
#    0.000    2.400    2.000    0.600    8.400    4.800 
#    0.000    0.000    0.000    0.000    0.000    0.000 
#    0.000   14.400    0.000    0.000    0.000    0.000 
#
# Total GULP energy -247764.527356 kJ/mol
# GULP energy per Si atom -12388.226368 kJ/mol
# Density = 2.103187 g / cm^3
# Si number density = 21.079851 Si / 1000 Ang^3
#
#
#
# Elastic Constant Matrix: (Units=GPa)
#
#
# Indices 1 2 3 4 5 6 
#
# 1 145.7056 20.4710 73.7934 -0.0055 -16.0814 0.0025
# 2 20.4710 27.6325 24.9984 0.0042 -6.3671 0.0006
# 3 73.7934 24.9984 188.4328 0.0020 -12.9115 0.0072
# 4 -0.0055 0.0042 0.0020 -19.8458 -0.0011 14.5753
# 5 -16.0814 -6.3671 -12.9115 -0.0011 41.5829 0.0024
# 6 0.0025 0.0006 0.0072 14.5753 0.0024 9.7054
#
#
#
# Elastic Compliance Matrix: (Units=1/GPa)
#
#
# Indices 1 2 3 4 5 6 
#
# 1 0.009084 -0.003598 -0.002940 -0.000002 0.002049 0.000002
# 2 -0.003598 0.043470 -0.004084 0.000005 0.003997 -0.000007
# 3 -0.002940 -0.004084 0.007029 -0.000001 0.000420 -0.000002
# 4 -0.000002 0.000005 -0.000001 -0.023961 -0.000003 0.035984
# 5 0.002049 0.003997 0.000420 -0.000003 0.025583 -0.000003
# 6 0.000002 -0.000007 -0.000002 0.035984 -0.000003 0.048996
#
#
# Mechanical properties :
#
#
# Convention : Reuss Voigt Hill
#
# Bulk Modulus (GPa) = 26.08270 66.69961 46.39115
# Shear Modulus (GPa) = 34.66832 22.45571 28.56202
#
# Velocity S-wave (km/s) = 4.05979 3.26739 3.68495
# Velocity P-wave (km/s) = 5.86311 6.77824 6.33721
#
# Compressibility (1/GPa) = 0.03833959
#
# Stress axis : x y z
#
# Youngs Moduli (GPa) = 110.08892 23.00413 142.27312
#
# Poissons Ratio (x) = 0.08277 0.41822
# Poissons Ratio (y) = 0.39608 0.58107
# Poissons Ratio (z) = 0.32361 0.09395
#
# Static dielectric constant tensor:
#      x y z
#    x 3.943400 0.000060 -0.127260 
#    y 0.000060 2.325710 -0.000070 
#    z -0.127260 -0.000070 4.745810 
# 
# 
# High freq. dielectric constant tensor:
#      x y z
#    x 1.834830 0.000000 -0.010960 
#    y 0.000000 1.750700 0.000000 
#    z -0.010960 0.000000 1.852370 
# 
# From -- ./inp_files/155618.got.cif
#   From: 2010.06.25/outbox.cif.g09.slc.cpg/sg15_78_cif.got.tgz:155618.got - 2010.06.28 07:06:18.
