data_PCOD8131185
_publ_section_title
;
Structure prediction by ZEFSAII (Michael W. Deem and Ramdas Pophale) SiO2 
 PCOD8131185
Probable space group: C 2/C
;
_chemical_formula_sum "Si O2"
_cell_formula_units_Z 56
_cell_length_a 12.389356
_cell_length_b 27.109423
_cell_length_c 15.327359
_cell_angle_alpha 90.000000
_cell_angle_beta 35.853711
_cell_angle_gamma 90.000000
_cell_volume 3015.259618
_symmetry_space_group_name_H-M "C 2/C"
_symmetry_group_IT_number 15
_symmetry_cell_setting 'monoclinic'
loop_
_space_group_symop_operation_xyz
x,y,z
-x,y,1/2-z
-x,-y,-z
x,-y,1/2+z
1/2+x,1/2+y,z
1/2-x,1/2+y,1/2-z
1/2-x,1/2-y,-z
1/2+x,1/2-y,1/2+z
loop_
_atom_site_type_symbol
_atom_site_label
_atom_site_fract_x
_atom_site_fract_y
_atom_site_fract_z
Si Si1 0.843745 0.159964 0.926553
Si Si2 0.691615 0.447543 0.573440
Si Si3 0.453109 0.090400 0.572864
Si Si4 0.294572 0.555649 0.917652
Si Si5 0.797931 0.621495 0.849832
Si Si6 0.090888 0.302256 0.456306
Si Si7 0.604763 0.293968 0.385245
O O1 0.770454 0.104123 0.994588
O O2 0.677693 0.193330 0.996916
O O3 0.000000 0.155420 0.750000
O O4 0.917046 0.182987 0.968065
O O5 0.500000 0.442172 0.750000
O O6 0.735424 0.503690 0.512813
O O7 0.692860 0.412800 0.487902
O O8 0.851202 0.433715 0.536590
O O9 0.347367 0.058873 0.569884
O O10 0.319212 0.091908 0.745210
O O11 0.497296 0.145850 0.512606
O O12 0.500000 0.554129 0.750000
O O13 0.677862 0.671013 0.914871
O O14 0.000000 0.637489 0.750000
O O15 0.248022 0.287146 0.286366
O O16 0.935479 0.260452 0.552323
#
# Coordination Sequence:
#
# PCOD8131185 Si02
#       7
#     8   8   8   8   8   8   8
#     4   8  15  29  49  73 100 127 157 194 242 303
#     4  10  20  33  51  76 101 128 166 211 248 281
#     4   9  18  35  53  71  99 135 166 199 244 300
#     4   9  16  30  53  77  98 128 167 202 242 299
#     4   9  19  35  51  69  99 135 168 200 241 299
#     4   9  18  30  51  74  96 126 164 198 243 295
#     4  10  18  32  50  72  97 129 161 200 246 291
#
# _framework density 18.572198
#
# number of rings (size 3 to 8) (size 9 to 14) (size 15 to 20)
#    0.000    2.857    0.000    3.429    0.000    1.143 
#    0.000   13.571    0.000   10.286    0.000    0.000 
#    0.000    0.000    0.000    0.000    0.000    0.000 
#
# Total GULP energy -347048.507740 kJ/mol
# GULP energy per Si atom -12394.589562 kJ/mol
# Density = 1.852993 g / cm^3
# Si number density = 18.572198 Si / 1000 Ang^3
#
#
#
# Elastic Constant Matrix: (Units=GPa)
#
#
# Indices 1 2 3 4 5 6 
#
# 1 58.2582 38.2730 15.4495 -0.0023 -0.6841 -0.0014
# 2 38.2730 137.7746 41.1588 0.0001 -2.0158 -0.0005
# 3 15.4495 41.1588 42.1519 -0.0020 -5.5583 -0.0004
# 4 -0.0023 0.0001 -0.0020 35.8581 0.0019 -8.6236
# 5 -0.6841 -2.0158 -5.5583 0.0019 21.3907 0.0003
# 6 -0.0014 -0.0005 -0.0004 -8.6236 0.0003 28.6271
#
#
#
# Elastic Compliance Matrix: (Units=1/GPa)
#
#
# Indices 1 2 3 4 5 6 
#
# 1 0.021244 -0.005028 -0.002951 0.000002 -0.000561 0.000001
# 2 -0.005028 0.011497 -0.009590 -0.000001 -0.001569 0.000000
# 3 -0.002951 -0.009590 0.035245 0.000002 0.008160 0.000001
# 4 0.000002 -0.000001 0.000002 0.030066 -0.000002 0.009057
# 5 -0.000561 -0.001569 0.008160 -0.000002 0.048704 -0.000001
# 6 0.000001 0.000000 0.000001 0.009057 -0.000001 0.037660
#
#
# Mechanical properties :
#
#
# Convention : Reuss Voigt Hill
#
# Bulk Modulus (GPa) = 30.44265 47.54969 38.99617
# Shear Modulus (GPa) = 21.69155 26.72873 24.21014
#
# Velocity S-wave (km/s) = 3.42125 3.79777 3.61441
# Velocity P-wave (km/s) = 5.65983 6.69992 6.20172
#
# Compressibility (1/GPa) = 0.03284865
#
# Stress axis : x y z
#
# Youngs Moduli (GPa) = 47.07169 86.97866 28.37245
#
# Poissons Ratio (x) = 0.43735 0.08372
# Poissons Ratio (y) = 0.23669 0.27210
# Poissons Ratio (z) = 0.13889 0.83414
#
# Static dielectric constant tensor:
#      x y z
#    x 3.532880 0.000000 -0.128660 
#    y 0.000000 3.764430 0.000000 
#    z -0.128660 0.000000 2.988330 
# 
# 
# High freq. dielectric constant tensor:
#      x y z
#    x 1.722870 0.000000 -0.015730 
#    y 0.000000 1.733050 0.000000 
#    z -0.015730 0.000000 1.679500 
# 
# From -- ./inp_files/148519.got.cif
#   From: 2010.06.25/outbox.cif.g09.slc.cpg/sg15_75_cif.got.tgz:148519.got - 2010.06.28 07:06:18.
