data_PCOD8131082
_publ_section_title
;
Structure prediction by ZEFSAII (Michael W. Deem and Ramdas Pophale) SiO2 
 PCOD8131082
Probable space group: C 2/C
;
_chemical_formula_sum "Si O2"
_cell_formula_units_Z 48
_cell_length_a 16.551938
_cell_length_b 8.393163
_cell_length_c 24.089624
_cell_angle_alpha 90.000000
_cell_angle_beta 129.372474
_cell_angle_gamma 90.000000
_cell_volume 2587.054687
_symmetry_space_group_name_H-M "C 2/C"
_symmetry_group_IT_number 15
_symmetry_cell_setting 'monoclinic'
loop_
_space_group_symop_operation_xyz
x,y,z
-x,y,1/2-z
-x,-y,-z
x,-y,1/2+z
1/2+x,1/2+y,z
1/2-x,1/2+y,1/2-z
1/2-x,1/2-y,-z
1/2+x,1/2-y,1/2+z
loop_
_atom_site_type_symbol
_atom_site_label
_atom_site_fract_x
_atom_site_fract_y
_atom_site_fract_z
Si Si1 0.307403 0.928580 0.817723
Si Si2 0.374953 0.339455 0.425445
Si Si3 0.737933 0.249234 0.312145
Si Si4 0.034687 0.631310 0.679317
Si Si5 0.957567 0.860721 0.910420
Si Si6 0.651764 0.968771 0.333500
O O1 0.344812 0.827764 0.886084
O O2 0.255657 0.820244 0.747776
O O3 0.220516 0.060078 0.800102
O O4 0.410989 0.015711 0.841003
O O5 0.445677 0.307585 0.509623
O O6 0.436737 0.448722 0.406922
O O7 0.268812 0.422621 0.400428
O O8 0.852909 0.223283 0.388324
O O9 0.651590 0.153663 0.310937
O O10 0.017878 0.803623 0.642251
O O11 0.108631 0.647477 0.765796
O O12 0.923652 0.550501 0.646715
#
# Coordination Sequence:
#
# PCOD8131082 Si02
#       6
#     8   8   8   8   8   8
#     4  10  18  31  53  74  94 126 166 208 246 293
#     4  10  19  31  51  74  98 129 168 206 242 294
#     4   9  17  30  50  71  95 125 165 206 248 297
#     4   9  18  32  51  70  98 131 161 203 254 297
#     4   9  18  32  50  72  99 131 166 202 244 298
#     4   9  18  33  49  71  98 129 162 202 254 298
#
# _framework density 18.553917999999999
#
# number of rings (size 3 to 8) (size 9 to 14) (size 15 to 20)
#    0.000    2.667    0.000    4.000    0.000    3.333 
#    0.000    1.667    0.000   20.000    0.000    0.000 
#    0.000    0.000    0.000    0.000    0.000    0.000 
#
# Total GULP energy -297383.522772 kJ/mol
# GULP energy per Si atom -12390.980116 kJ/mol
# Density = 1.851169 g / cm^3
# Si number density = 18.553918 Si / 1000 Ang^3
#
#
#
# Elastic Constant Matrix: (Units=GPa)
#
#
# Indices 1 2 3 4 5 6 
#
# 1 80.5168 20.4384 21.8522 0.0000 1.0059 0.0000
# 2 20.4384 104.2636 40.6240 0.0000 -9.5446 0.0000
# 3 21.8522 40.6240 94.1775 0.0000 17.4461 0.0000
# 4 0.0000 0.0000 0.0000 27.5001 0.0000 -0.9363
# 5 1.0059 -9.5446 17.4461 0.0000 21.8736 0.0000
# 6 0.0000 0.0000 0.0000 -0.9363 0.0000 24.1068
#
#
#
# Elastic Compliance Matrix: (Units=1/GPa)
#
#
# Indices 1 2 3 4 5 6 
#
# 1 0.013514 -0.001563 -0.002605 0.000000 0.000774 0.000000
# 2 -0.001563 0.014244 -0.008150 0.000000 0.012788 0.000000
# 3 -0.002605 -0.008150 0.018040 0.000000 -0.017825 0.000000
# 4 0.000000 0.000000 0.000000 0.036412 0.000000 0.001414
# 5 0.000774 0.012788 -0.017825 0.000000 0.065479 0.000000
# 6 0.000000 0.000000 0.000000 0.001414 0.000000 0.041537
#
#
# Mechanical properties :
#
#
# Convention : Reuss Voigt Hill
#
# Bulk Modulus (GPa) = 47.25578 49.42078 48.33828
# Shear Modulus (GPa) = 22.63309 27.76567 25.19938
#
# Velocity S-wave (km/s) = 3.49643 3.87264 3.68933
# Velocity P-wave (km/s) = 6.46721 6.83305 6.65264
#
# Compressibility (1/GPa) = 0.02116143
#
# Stress axis : x y z
#
# Youngs Moduli (GPa) = 73.99820 70.20646 55.43137
#
# Poissons Ratio (x) = 0.10976 0.14438
# Poissons Ratio (y) = 0.11569 0.45178
# Poissons Ratio (z) = 0.19273 0.57220
#
# Static dielectric constant tensor:
#      x y z
#    x 3.278360 0.000000 0.125410 
#    y 0.000000 3.572920 0.000000 
#    z 0.125410 0.000000 3.382900 
# 
# 
# High freq. dielectric constant tensor:
#      x y z
#    x 1.691210 0.000000 0.017820 
#    y 0.000000 1.714150 0.000000 
#    z 0.017820 0.000000 1.713130 
# 
# From -- ./inp_files/208627.got.cif
#   From: 2010.06.25/outbox.cif.g09.slc.cpg/sg15_105_cif.got.tgz:208627.got - 2010.06.28 07:06:18.
