data_PCOD8131365
_publ_section_title
;
Structure prediction by ZEFSAII (Michael W. Deem and Ramdas Pophale) SiO2 
 PCOD8131365
Probable space group: C 2/C
;
_chemical_formula_sum "Si O2"
_cell_formula_units_Z 52
_cell_length_a 29.797139
_cell_length_b 8.840055
_cell_length_c 15.091186
_cell_angle_alpha 90.000000
_cell_angle_beta 41.457670
_cell_angle_gamma 90.000000
_cell_volume 2631.810080
_symmetry_space_group_name_H-M "C 2/C"
_symmetry_group_IT_number 15
_symmetry_cell_setting 'monoclinic'
loop_
_space_group_symop_operation_xyz
x,y,z
-x,y,1/2-z
-x,-y,-z
x,-y,1/2+z
1/2+x,1/2+y,z
1/2-x,1/2+y,1/2-z
1/2-x,1/2-y,-z
1/2+x,1/2-y,1/2+z
loop_
_atom_site_type_symbol
_atom_site_label
_atom_site_fract_x
_atom_site_fract_y
_atom_site_fract_z
Si Si1 0.882639 0.902943 0.362852
Si Si2 0.500000 0.398042 0.750000
Si Si3 0.297931 0.437197 0.128988
Si Si4 0.835596 0.563667 0.234472
Si Si5 0.394995 0.176925 0.975988
Si Si6 0.710647 0.605525 0.660602
Si Si7 0.864743 0.438985 0.880839
O O1 0.839930 0.936497 0.514531
O O2 0.840664 0.955017 0.338345
O O3 0.899404 0.725176 0.337736
O O4 0.952193 0.997357 0.259973
O O5 0.457191 0.294028 0.880995
O O6 0.218357 0.442327 0.222714
O O7 0.308266 0.471299 0.217939
O O8 0.324597 0.268914 0.065636
O O9 0.794531 0.713444 0.324661
O O10 0.872258 0.500809 0.268466
O O11 0.892398 0.596802 0.075862
O O12 0.404781 0.054126 0.884410
O O13 0.786328 0.563946 0.522651
#
# Coordination Sequence:
#
# PCOD8131365 Si02
#       7
#     8   4   8   8   8   8   8
#     4  10  20  39  60  82 114 162 195 235 280 357
#     4  10  24  46  56  76 120 166 200 228 284 342
#     4  10  18  33  56  89 123 149 178 237 304 341
#     4  10  18  34  56  90 122 145 186 238 301 347
#     4  10  23  37  57  85 123 154 191 243 278 347
#     4  10  18  32  58  91 119 141 190 243 297 343
#     4  11  19  34  61  90 115 146 192 245 300 338
#
# _framework density 19.758264
#
# number of rings (size 3 to 8) (size 9 to 14) (size 15 to 20)
#    0.000    1.846    4.615    0.923    0.000    1.231 
#    0.000   13.077    0.000    0.000    0.000    0.000 
#    0.000    0.000    0.000    0.000    0.000    0.000 
#
# Total GULP energy -322418.422183 kJ/mol
# GULP energy per Si atom -12400.708545 kJ/mol
# Density = 1.971329 g / cm^3
# Si number density = 19.758264 Si / 1000 Ang^3
#
#
#
# Elastic Constant Matrix: (Units=GPa)
#
#
# Indices 1 2 3 4 5 6 
#
# 1 106.0994 51.1748 61.2103 0.0000 22.9955 0.0000
# 2 51.1748 69.6518 43.2350 -0.0001 5.8886 -0.0001
# 3 61.2103 43.2350 98.7032 0.0000 16.1917 -0.0001
# 4 0.0000 -0.0001 0.0000 27.4905 0.0000 -1.0503
# 5 22.9955 5.8886 16.1917 0.0000 36.8488 0.0000
# 6 0.0000 -0.0001 -0.0001 -1.0503 0.0000 32.4101
#
#
#
# Elastic Compliance Matrix: (Units=1/GPa)
#
#
# Indices 1 2 3 4 5 6 
#
# 1 0.019579 -0.009590 -0.006669 0.000000 -0.007755 0.000000
# 2 -0.009590 0.024432 -0.005492 0.000000 0.004493 0.000000
# 3 -0.006669 -0.005492 0.017077 0.000000 -0.002464 0.000000
# 4 0.000000 0.000000 0.000000 0.036421 0.000000 0.001180
# 5 -0.007755 0.004493 -0.002464 0.000000 0.032342 0.000000
# 6 0.000000 0.000000 0.000000 0.001180 0.000000 0.030893
#
#
# Mechanical properties :
#
#
# Convention : Reuss Voigt Hill
#
# Bulk Modulus (GPa) = 56.86172 65.07718 60.96945
# Shear Modulus (GPa) = 23.79728 27.27217 25.53472
#
# Velocity S-wave (km/s) = 3.47424 3.71926 3.59884
# Velocity P-wave (km/s) = 6.70336 7.17301 6.94215
#
# Compressibility (1/GPa) = 0.01758652
#
# Stress axis : x y z
#
# Youngs Moduli (GPa) = 51.07590 40.92960 58.55819
#
# Poissons Ratio (x) = 0.39250 0.39051
# Poissons Ratio (y) = 0.48980 0.32161
# Poissons Ratio (z) = 0.34062 0.22479
#
# Static dielectric constant tensor:
#      x y z
#    x 3.675710 0.000000 0.315090 
#    y 0.000000 3.523830 0.000000 
#    z 0.315090 0.000000 3.646370 
# 
# 
# High freq. dielectric constant tensor:
#      x y z
#    x 1.756910 0.000000 0.020980 
#    y 0.000000 1.757080 0.000000 
#    z 0.020980 0.000000 1.766520 
# 
# From -- ./inp_files/166353.got.cif
#   From: 2010.06.25/outbox.cif.g09.slc.cpg/sg15_84_cif.got.tgz:166353.got - 2010.06.28 07:06:18.
