data_PCOD8131642
_publ_section_title
;
Structure prediction by ZEFSAII (Michael W. Deem and Ramdas Pophale) SiO2 
 PCOD8131642
Probable space group: C 2/C
;
_chemical_formula_sum "Si O2"
_cell_formula_units_Z 60
_cell_length_a 20.869146
_cell_length_b 15.895846
_cell_length_c 12.297216
_cell_angle_alpha 90.000000
_cell_angle_beta 42.765803
_cell_angle_gamma 90.000000
_cell_volume 2769.918447
_symmetry_space_group_name_H-M "C 2/C"
_symmetry_group_IT_number 15
_symmetry_cell_setting 'monoclinic'
loop_
_space_group_symop_operation_xyz
x,y,z
-x,y,1/2-z
-x,-y,-z
x,-y,1/2+z
1/2+x,1/2+y,z
1/2-x,1/2+y,1/2-z
1/2-x,1/2-y,-z
1/2+x,1/2-y,1/2+z
loop_
_atom_site_type_symbol
_atom_site_label
_atom_site_fract_x
_atom_site_fract_y
_atom_site_fract_z
Si Si1 0.846882 0.492263 0.591923
Si Si2 0.000000 0.556596 0.750000
Si Si3 0.728476 0.406088 0.391423
Si Si4 0.642275 0.805154 0.125769
Si Si5 0.673453 0.501248 0.654710
Si Si6 0.614465 0.338999 0.341163
Si Si7 0.095152 0.837563 0.843735
Si Si8 0.707472 0.184255 0.304848
O O1 0.949233 0.501130 0.406168
O O2 0.820632 0.569515 0.703415
O O3 0.773680 0.483677 0.584613
O O4 0.836722 0.405653 0.673443
O O5 0.073107 0.615278 0.723608
O O6 0.759609 0.330840 0.434643
O O7 0.688432 0.485801 0.507802
O O8 0.642780 0.380885 0.420593
O O9 0.597030 0.723493 0.237007
O O10 0.661734 0.786526 0.975933
O O11 0.639625 0.596943 0.712325
O O12 0.599727 0.434001 0.796751
O O13 0.503313 0.321858 0.472867
O O14 0.674709 0.252406 0.255036
O O15 0.178841 0.816936 0.825264
#
# Coordination Sequence:
#
# PCOD8131642 Si02
#       8
#     8   4   8   8   8   8   8   8
#     4   9  20  34  56  82 114 154 187 242 297 349
#     4  10  18  34  52  84 118 142 192 246 290 352
#     4  11  20  37  57  84 117 156 189 238 312 341
#     4  11  19  33  56  85 115 142 187 257 296 346
#     4  10  21  38  52  81 125 148 193 244 287 364
#     4  11  23  35  59  87 114 159 193 241 306 351
#     4  11  19  34  57  85 116 148 196 246 296 348
#     4  10  19  37  53  81 120 145 187 253 299 338
#
# _framework density 21.661287000000002
#
# number of rings (size 3 to 8) (size 9 to 14) (size 15 to 20)
#    0.000    1.600    5.333    3.200    0.000    2.133 
#    0.000    0.667    0.000    0.000    0.000    0.000 
#    0.000    0.000    0.000    0.000    0.000    0.000 
#
# Total GULP energy -371919.047191 kJ/mol
# GULP energy per Si atom -12397.301573 kJ/mol
# Density = 2.161198 g / cm^3
# Si number density = 21.661287 Si / 1000 Ang^3
#
#
#
# Elastic Constant Matrix: (Units=GPa)
#
#
# Indices 1 2 3 4 5 6 
#
# 1 31.9035 -3.0516 16.7852 0.0000 -13.6533 0.0000
# 2 -3.0516 71.2569 23.4399 0.0000 -5.8670 0.0000
# 3 16.7852 23.4399 73.8907 0.0000 -27.1944 0.0000
# 4 0.0000 0.0000 0.0000 31.1307 0.0000 1.3199
# 5 -13.6533 -5.8670 -27.1944 0.0000 30.8334 0.0000
# 6 0.0000 0.0000 0.0000 1.3199 0.0000 28.9922
#
#
#
# Elastic Compliance Matrix: (Units=1/GPa)
#
#
# Indices 1 2 3 4 5 6 
#
# 1 0.040738 0.004741 -0.005607 0.000000 0.013996 0.000000
# 2 0.004741 0.016311 -0.006420 0.000000 -0.000459 0.000000
# 3 -0.005607 -0.006420 0.022920 0.000000 0.016511 0.000000
# 4 0.000000 0.000000 0.000000 0.032185 0.000000 -0.001465
# 5 0.013996 -0.000459 0.016511 0.000000 0.053104 0.000000
# 6 0.000000 0.000000 0.000000 -0.001465 0.000000 0.034559
#
#
# Mechanical properties :
#
#
# Convention : Reuss Voigt Hill
#
# Bulk Modulus (GPa) = 15.29128 27.93314 21.61221
# Shear Modulus (GPa) = 21.16953 27.51642 24.34297
#
# Velocity S-wave (km/s) = 3.12957 3.56800 3.35595
# Velocity P-wave (km/s) = 4.48704 5.46787 5.00155
#
# Compressibility (1/GPa) = 0.06539673
#
# Stress axis : x y z
#
# Youngs Moduli (GPa) = 24.54728 61.30851 43.62908
#
# Poissons Ratio (x) = -0.29069 0.24464
# Poissons Ratio (y) = -0.11639 0.28012
# Poissons Ratio (z) = 0.13764 0.39363
#
# Static dielectric constant tensor:
#      x y z
#    x 3.717780 0.000000 -0.222670 
#    y 0.000000 4.035880 0.000000 
#    z -0.222670 0.000000 3.724310 
# 
# 
# High freq. dielectric constant tensor:
#      x y z
#    x 1.825250 0.000000 -0.021770 
#    y 0.000000 1.851060 0.000000 
#    z -0.021770 0.000000 1.829840 
# 
# From -- ./inp_files/113805.got.cif
#   From: 2010.06.25/outbox.cif.g09.slc.cpg/sg15_57_cif.got.tgz:113805.got - 2010.06.28 07:06:18.
