data_PCOD8131088
_publ_section_title
;
Structure prediction by ZEFSAII (Michael W. Deem and Ramdas Pophale) SiO2 
 PCOD8131088
Probable space group: C 2/C
;
_chemical_formula_sum "Si O2"
_cell_formula_units_Z 64
_cell_length_a 15.035466
_cell_length_b 33.388823
_cell_length_c 9.082549
_cell_angle_alpha 90.000000
_cell_angle_beta 125.598697
_cell_angle_gamma 90.000000
_cell_volume 3707.466117
_symmetry_space_group_name_H-M "C 2/C"
_symmetry_group_IT_number 15
_symmetry_cell_setting 'monoclinic'
loop_
_space_group_symop_operation_xyz
x,y,z
-x,y,1/2-z
-x,-y,-z
x,-y,1/2+z
1/2+x,1/2+y,z
1/2-x,1/2+y,1/2-z
1/2-x,1/2-y,-z
1/2+x,1/2-y,1/2+z
loop_
_atom_site_type_symbol
_atom_site_label
_atom_site_fract_x
_atom_site_fract_y
_atom_site_fract_z
Si Si1 0.211682 0.029410 0.844807
Si Si2 0.510107 0.193067 0.594879
Si Si3 0.425936 0.024222 0.537911
Si Si4 0.400498 0.753883 0.751733
Si Si5 0.426176 0.517570 0.058155
Si Si6 0.283275 0.805737 0.397945
Si Si7 0.545891 0.891738 0.564710
Si Si8 0.826971 0.608647 0.020420
O O1 0.169908 0.037652 0.634259
O O2 0.121143 0.015766 0.875732
O O3 0.246817 0.071459 0.945272
O O4 0.308170 0.996583 0.940189
O O5 0.500000 0.208646 0.750000
O O6 0.437535 0.222760 0.430361
O O7 0.635252 0.196627 0.662130
O O8 0.463034 0.147863 0.543288
O O9 0.500000 0.023184 0.750000
O O10 0.405495 0.070474 0.475759
O O11 0.500000 0.000000 0.500000
O O12 0.500000 0.736506 0.750000
O O13 0.334876 0.785794 0.591847
O O14 0.329948 0.716645 0.743771
O O15 0.500000 0.543941 0.250000
O O16 0.500000 0.500000 0.000000
O O17 0.259940 0.852386 0.404909
O O18 0.627361 0.881641 0.775036
O O19 0.425767 0.902798 0.507154
#
# Coordination Sequence:
#
# PCOD8131088 Si02
#       8
#     8   8   8   8   8   8   8   8
#     4  11  20  33  55  78 102 139 181 218 271 315
#     4  10  19  32  51  79 108 144 174 208 262 322
#     4  12  22  32  47  79 116 147 169 210 262 325
#     4   9  17  34  56  78 101 133 181 220 264 308
#     4   9  20  38  55  70  91 130 187 236 262 297
#     4   9  18  33  55  77 103 136 175 219 258 315
#     4  10  19  32  47  74 116 146 171 206 251 324
#     4  10  18  31  53  77 106 138 176 214 258 318
#
# _framework density 17.262463
#
# number of rings (size 3 to 8) (size 9 to 14) (size 15 to 20)
#    0.000    2.000    2.500    2.625    0.000    0.500 
#    0.000    1.875    0.000    0.750    0.000    0.000 
#    0.000    0.000    0.000    0.000    0.000    0.000 
#
# Total GULP energy -396465.894057 kJ/mol
# GULP energy per Si atom -12389.559189 kJ/mol
# Density = 1.722317 g / cm^3
# Si number density = 17.262463 Si / 1000 Ang^3
#
#
#
# Elastic Constant Matrix: (Units=GPa)
#
#
# Indices 1 2 3 4 5 6 
#
# 1 87.1856 55.9866 36.0828 0.0000 -4.2908 0.0000
# 2 55.9866 106.9176 27.7821 0.0000 3.8835 0.0000
# 3 36.0828 27.7821 71.9071 0.0000 -9.3454 0.0000
# 4 0.0000 0.0000 0.0000 9.2735 0.0000 -2.0024
# 5 -4.2908 3.8835 -9.3454 0.0000 28.6985 0.0000
# 6 0.0000 0.0000 0.0000 -2.0024 0.0000 17.4602
#
#
#
# Elastic Compliance Matrix: (Units=1/GPa)
#
#
# Indices 1 2 3 4 5 6 
#
# 1 0.019844 -0.008840 -0.006267 0.000000 0.002123 0.000000
# 2 -0.008840 0.014560 -0.001689 0.000000 -0.003842 0.000000
# 3 -0.006267 -0.001689 0.018390 0.000000 0.005280 0.000000
# 4 0.000000 0.000000 0.000000 0.110572 0.000000 0.012681
# 5 0.002123 -0.003842 0.005280 0.000000 0.037402 0.000000
# 6 0.000000 0.000000 0.000000 0.012681 0.000000 0.058728
#
#
# Mechanical properties :
#
#
# Convention : Reuss Voigt Hill
#
# Bulk Modulus (GPa) = 52.07312 56.19038 54.13175
# Shear Modulus (GPa) = 16.69511 20.83036 18.76274
#
# Velocity S-wave (km/s) = 3.11325 3.47751 3.30041
# Velocity P-wave (km/s) = 6.56918 6.98179 6.77862
#
# Compressibility (1/GPa) = 0.01920377
#
# Stress axis : x y z
#
# Youngs Moduli (GPa) = 50.39186 68.67898 54.37690
#
# Poissons Ratio (x) = 0.60713 0.34076
# Poissons Ratio (y) = 0.44547 0.09184
# Poissons Ratio (z) = 0.31578 0.11600
#
# Static dielectric constant tensor:
#      x y z
#    x 3.294020 0.000000 0.069190 
#    y 0.000000 3.166100 0.000000 
#    z 0.069190 0.000000 3.625190 
# 
# 
# High freq. dielectric constant tensor:
#      x y z
#    x 1.661490 0.000000 -0.003100 
#    y 0.000000 1.649760 0.000000 
#    z -0.003100 0.000000 1.674520 
# 
# From -- ./inp_files/44577.got.cif
#   From: 2010.06.25/outbox.cif.g09.slc.cpg/sg15_23_cif.got.tgz:44577.got - 2010.06.28 07:06:18.
