data_PCOD8131554
_publ_section_title
;
Structure prediction by ZEFSAII (Michael W. Deem and Ramdas Pophale) SiO2 
 PCOD8131554
Probable space group: C 2/C
;
_chemical_formula_sum "Si O2"
_cell_formula_units_Z 36
_cell_length_a 11.596472
_cell_length_b 17.307549
_cell_length_c 14.376194
_cell_angle_alpha 90.000000
_cell_angle_beta 137.890710
_cell_angle_gamma 90.000000
_cell_volume 1934.793176
_symmetry_space_group_name_H-M "C 2/C"
_symmetry_group_IT_number 15
_symmetry_cell_setting 'monoclinic'
loop_
_space_group_symop_operation_xyz
x,y,z
-x,y,1/2-z
-x,-y,-z
x,-y,1/2+z
1/2+x,1/2+y,z
1/2-x,1/2+y,1/2-z
1/2-x,1/2-y,-z
1/2+x,1/2-y,1/2+z
loop_
_atom_site_type_symbol
_atom_site_label
_atom_site_fract_x
_atom_site_fract_y
_atom_site_fract_z
Si Si1 0.942848 0.819078 0.357505
Si Si2 0.000000 0.966186 0.750000
Si Si3 0.056794 0.080142 0.082188
Si Si4 0.767513 0.106455 0.592751
Si Si5 0.927246 0.352303 0.805754
O O1 0.786757 0.858103 0.207463
O O2 0.900289 0.728814 0.342376
O O3 0.952345 0.852230 0.467735
O O4 0.123653 0.839829 0.413993
O O5 0.015945 0.914459 0.667278
O O6 0.166308 0.019111 0.865930
O O7 0.260735 0.094246 0.194566
O O8 0.000000 0.000000 0.000000
O O9 0.568845 0.099963 0.447649
O O10 0.000000 0.328850 0.750000
#
# Coordination Sequence:
#
# PCOD8131554 Si02
#       5
#     8   4   8   8   8
#     4  10  19  34  58  87 121 144 178 245 305 338
#     4  10  22  40  52  80 118 162 190 230 278 346
#     4  12  22  39  60  81 120 160 187 237 293 339
#     4  10  18  33  58  85 122 138 186 243 299 342
#     4  12  20  32  60  95 114 143 193 244 296 346
#
# _framework density 18.606639999999999
#
# number of rings (size 3 to 8) (size 9 to 14) (size 15 to 20)
#    0.000    1.333    8.889    2.000    0.000    0.889 
#    0.000    1.111    0.000    0.000    0.000    0.000 
#    0.000    0.000    0.000    0.000    0.000    0.000 
#
# Total GULP energy -223129.120768 kJ/mol
# GULP energy per Si atom -12396.062265 kJ/mol
# Density = 1.856429 g / cm^3
# Si number density = 18.606640 Si / 1000 Ang^3
#
#
#
# Elastic Constant Matrix: (Units=GPa)
#
#
# Indices 1 2 3 4 5 6 
#
# 1 66.1158 43.2361 42.9915 -0.0002 -26.8474 -0.0001
# 2 43.2361 91.6251 58.4736 -0.0001 1.4916 0.0000
# 3 42.9915 58.4736 148.3559 -0.0004 -1.1913 -0.0001
# 4 -0.0002 -0.0001 -0.0004 8.2330 -0.0003 1.0758
# 5 -26.8474 1.4916 -1.1913 -0.0003 31.4215 -0.0001
# 6 -0.0001 0.0000 -0.0001 1.0758 -0.0001 13.5566
#
#
#
# Elastic Compliance Matrix: (Units=1/GPa)
#
#
# Indices 1 2 3 4 5 6 
#
# 1 0.050279 -0.020525 -0.006129 0.000002 0.043701 0.000000
# 2 -0.020525 0.022987 -0.003263 -0.000001 -0.018752 0.000000
# 3 -0.006129 -0.003263 0.009765 0.000000 -0.004712 0.000000
# 4 0.000002 -0.000001 0.000000 0.122735 0.000003 -0.009740
# 5 0.043701 -0.018752 -0.004712 0.000003 0.069877 0.000000
# 6 0.000000 0.000000 0.000000 -0.009740 0.000000 0.074538
#
#
# Mechanical properties :
#
#
# Convention : Reuss Voigt Hill
#
# Bulk Modulus (GPa) = 43.11119 66.16657 54.63888
# Shear Modulus (GPa) = 11.96898 21.40194 16.68546
#
# Velocity S-wave (km/s) = 2.53902 3.39519 2.99782
# Velocity P-wave (km/s) = 5.64053 7.14196 6.43518
#
# Compressibility (1/GPa) = 0.02319583
#
# Stress axis : x y z
#
# Youngs Moduli (GPa) = 19.88918 43.50260 102.40770
#
# Poissons Ratio (x) = 0.89291 0.62767
# Poissons Ratio (y) = 0.40823 0.33414
# Poissons Ratio (z) = 0.12190 0.14194
#
# Static dielectric constant tensor:
#      x y z
#    x 3.114420 0.000000 -0.205610 
#    y 0.000000 3.250490 0.000000 
#    z -0.205610 0.000000 3.801920 
# 
# 
# High freq. dielectric constant tensor:
#      x y z
#    x 1.668250 0.000000 -0.017000 
#    y 0.000000 1.707570 0.000000 
#    z -0.017000 0.000000 1.749900 
# 
# From -- ./inp_files/134672.got.cif
#   From: 2010.06.25/outbox.cif.g09.slc.cpg/sg15_68_cif.got.tgz:134672.got - 2010.06.28 07:06:18.
