data_PCOD8131230
_publ_section_title
;
Structure prediction by ZEFSAII (Michael W. Deem and Ramdas Pophale) SiO2 
 PCOD8131230
Probable space group: C 2/C
;
_chemical_formula_sum "Si O2"
_cell_formula_units_Z 64
_cell_length_a 24.981375
_cell_length_b 12.721780
_cell_length_c 19.791521
_cell_angle_alpha 90.000000
_cell_angle_beta 32.837354
_cell_angle_gamma 90.000000
_cell_volume 3410.733914
_symmetry_space_group_name_H-M "C 2/C"
_symmetry_group_IT_number 15
_symmetry_cell_setting 'monoclinic'
loop_
_space_group_symop_operation_xyz
x,y,z
-x,y,1/2-z
-x,-y,-z
x,-y,1/2+z
1/2+x,1/2+y,z
1/2-x,1/2+y,1/2-z
1/2-x,1/2-y,-z
1/2+x,1/2-y,1/2+z
loop_
_atom_site_type_symbol
_atom_site_label
_atom_site_fract_x
_atom_site_fract_y
_atom_site_fract_z
Si Si1 0.444385 0.465057 0.374690
Si Si2 0.199246 0.639295 0.904082
Si Si3 0.846055 0.727768 0.694768
Si Si4 0.564265 0.227465 0.445500
Si Si5 0.358239 0.742026 0.914090
Si Si6 0.580397 0.307058 0.289317
Si Si7 0.320501 0.411363 0.105315
Si Si8 0.766749 0.429668 0.699751
O O1 0.500000 0.511469 0.250000
O O2 0.368300 0.373863 0.434819
O O3 0.522997 0.418313 0.345354
O O4 0.383391 0.559662 0.472888
O O5 0.173055 0.701267 0.863695
O O6 0.306352 0.674886 0.814179
O O7 0.199205 0.513915 0.892623
O O8 0.124535 0.671828 0.044400
O O9 0.779794 0.648910 0.810520
O O10 0.810897 0.846340 0.748237
O O11 0.960096 0.712488 0.594617
O O12 0.535443 0.236469 0.396796
O O13 0.616291 0.334709 0.413663
O O14 0.632907 0.126765 0.382988
O O15 0.433291 0.751466 0.769768
O O16 0.250000 0.750000 0.000000
O O17 0.289750 0.515529 0.178356
#
# Coordination Sequence:
#
# PCOD8131230 Si02
#       8
#     8   8   8   8   8   8   8   8
#     4  10  21  35  56  83 106 143 186 227 274 329
#     4  10  18  33  49  80 112 149 178 218 282 325
#     4  10  21  35  51  82 117 143 187 230 274 326
#     4  11  21  34  55  85 111 152 179 229 282 321
#     4   9  19  32  52  78 115 141 168 222 278 326
#     4  10  18  32  52  83 112 137 177 225 277 322
#     4  10  21  35  55  82 110 142 186 230 272 329
#     4  10  19  33  54  79 117 144 183 231 268 335
#
# _framework density 18.764289000000002
#
# number of rings (size 3 to 8) (size 9 to 14) (size 15 to 20)
#    0.000    2.000    3.750    2.250    3.500    3.000 
#    0.000    0.000    2.750    0.750    0.000    0.000 
#    0.000    0.000    0.000    0.000    0.000    0.000 
#
# Total GULP energy -396610.263512 kJ/mol
# GULP energy per Si atom -12394.070735 kJ/mol
# Density = 1.872158 g / cm^3
# Si number density = 18.764289 Si / 1000 Ang^3
#
#
#
# Elastic Constant Matrix: (Units=GPa)
#
#
# Indices 1 2 3 4 5 6 
#
# 1 53.2490 20.4268 28.9267 0.0000 4.7517 0.0000
# 2 20.4268 92.2998 56.0355 0.0000 13.1791 0.0000
# 3 28.9267 56.0355 124.2019 0.0000 7.7164 0.0000
# 4 0.0000 0.0000 0.0000 39.1362 0.0000 5.0325
# 5 4.7517 13.1791 7.7164 0.0000 33.7372 0.0000
# 6 0.0000 0.0000 0.0000 5.0325 0.0000 14.0506
#
#
#
# Elastic Compliance Matrix: (Units=1/GPa)
#
#
# Indices 1 2 3 4 5 6 
#
# 1 0.021935 -0.002226 -0.004024 0.000000 -0.001300 0.000000
# 2 -0.002226 0.015804 -0.006338 0.000000 -0.004411 0.000000
# 3 -0.004024 -0.006338 0.011827 0.000000 0.000337 0.000000
# 4 0.000000 0.000000 0.000000 0.026785 0.000000 -0.009594
# 5 -0.001300 -0.004411 0.000337 0.000000 0.031470 0.000000
# 6 0.000000 0.000000 0.000000 -0.009594 0.000000 0.074608
#
#
# Mechanical properties :
#
#
# Convention : Reuss Voigt Hill
#
# Bulk Modulus (GPa) = 40.99805 53.39209 47.19507
# Shear Modulus (GPa) = 23.17649 28.34223 25.75936
#
# Velocity S-wave (km/s) = 3.51827 3.89065 3.70913
# Velocity P-wave (km/s) = 6.19683 6.97845 6.59922
#
# Compressibility (1/GPa) = 0.02439140
#
# Stress axis : x y z
#
# Youngs Moduli (GPa) = 45.58828 63.27312 84.55223
#
# Poissons Ratio (x) = 0.14086 0.34021
# Poissons Ratio (y) = 0.10149 0.53589
# Poissons Ratio (z) = 0.18343 0.40102
#
# Static dielectric constant tensor:
#      x y z
#    x 3.470930 0.000000 0.037490 
#    y 0.000000 3.344240 0.000000 
#    z 0.037490 0.000000 3.902840 
# 
# 
# High freq. dielectric constant tensor:
#      x y z
#    x 1.713510 0.000000 -0.016350 
#    y 0.000000 1.706790 0.000000 
#    z -0.016350 0.000000 1.741250 
# 
# From -- ./inp_files/257513.got.cif
#   From: 2010.06.25/outbox.cif.g09.slc.cpg/sg15_129_cif.got.tgz:257513.got - 2010.06.28 07:06:18.
