data_PCOD8131701
_publ_section_title
;
Structure prediction by ZEFSAII (Michael W. Deem and Ramdas Pophale) SiO2 
 PCOD8131701
Probable space group: C 2/C
;
_chemical_formula_sum "Si O2"
_cell_formula_units_Z 40
_cell_length_a 16.139258
_cell_length_b 9.415729
_cell_length_c 13.536297
_cell_angle_alpha 90.000000
_cell_angle_beta 76.178249
_cell_angle_gamma 90.000000
_cell_volume 1997.451047
_symmetry_space_group_name_H-M "C 2/C"
_symmetry_group_IT_number 15
_symmetry_cell_setting 'monoclinic'
loop_
_space_group_symop_operation_xyz
x,y,z
-x,y,1/2-z
-x,-y,-z
x,-y,1/2+z
1/2+x,1/2+y,z
1/2-x,1/2+y,1/2-z
1/2-x,1/2-y,-z
1/2+x,1/2-y,1/2+z
loop_
_atom_site_type_symbol
_atom_site_label
_atom_site_fract_x
_atom_site_fract_y
_atom_site_fract_z
Si Si1 0.262139 0.682077 0.791754
Si Si2 0.156181 0.780160 0.981802
Si Si3 0.824518 0.648759 0.883138
Si Si4 0.088385 0.371773 0.674303
Si Si5 0.309508 0.547681 0.430902
O O1 0.248345 0.657207 0.680341
O O2 0.335370 0.800361 0.785156
O O3 0.291234 0.534404 0.833741
O O4 0.169945 0.737833 0.863378
O O5 0.087403 0.685615 0.060977
O O6 0.136739 0.947122 0.008601
O O7 0.250000 0.750000 0.000000
O O8 0.899805 0.542314 0.829762
O O9 0.861647 0.807261 0.892981
O O10 0.781076 0.588488 0.994568
O O11 0.000000 0.331654 0.750000
#
# Coordination Sequence:
#
# PCOD8131701 Si02
#       5
#     8   8   8   8   8
#     4  10  18  34  56  79 105 148 191 209 259 342
#     4   8  15  34  50  72 103 148 178 209 260 332
#     4  11  18  30  55  85 105 138 188 227 258 317
#     4  10  19  35  55  80 112 143 173 229 285 309
#     4   9  18  30  52  77 106 135 187 226 255 305
#
# _framework density 20.025521999999999
#
# number of rings (size 3 to 8) (size 9 to 14) (size 15 to 20)
#    0.000    2.800    6.000    1.200    0.000    0.000 
#    0.000    5.000    0.000    4.800    0.000    0.000 
#    0.000    0.000    0.000    0.000    0.000    0.000 
#
# Total GULP energy -247778.295113 kJ/mol
# GULP energy per Si atom -12388.914756 kJ/mol
# Density = 1.997994 g / cm^3
# Si number density = 20.025522 Si / 1000 Ang^3
#
#
#
# Elastic Constant Matrix: (Units=GPa)
#
#
# Indices 1 2 3 4 5 6 
#
# 1 25.0229 19.3363 28.2829 0.0000 -14.7589 0.0000
# 2 19.3363 166.2852 34.1510 0.0000 -11.6726 0.0000
# 3 28.2829 34.1510 80.5589 0.0000 -21.1047 0.0000
# 4 0.0000 0.0000 0.0000 23.2244 0.0000 -3.0631
# 5 -14.7589 -11.6726 -21.1047 0.0000 28.6147 0.0000
# 6 0.0000 0.0000 0.0000 -3.0631 0.0000 14.3069
#
#
#
# Elastic Compliance Matrix: (Units=1/GPa)
#
#
# Indices 1 2 3 4 5 6 
#
# 1 0.080150 -0.003428 -0.020108 0.000000 0.025111 0.000000
# 2 -0.003428 0.006748 -0.001734 0.000000 -0.000295 0.000000
# 3 -0.020108 -0.001734 0.021450 0.000000 0.004742 0.000000
# 4 0.000000 0.000000 0.000000 0.044309 0.000000 0.009487
# 5 0.025111 -0.000295 0.004742 0.000000 0.051276 0.000000
# 6 0.000000 0.000000 0.000000 0.009487 0.000000 0.071927
#
#
# Mechanical properties :
#
#
# Convention : Reuss Voigt Hill
#
# Bulk Modulus (GPa) = 17.29836 48.37859 32.83848
# Shear Modulus (GPa) = 14.46462 25.90232 20.18347
#
# Velocity S-wave (km/s) = 2.69050 3.60038 3.17817
# Velocity P-wave (km/s) = 4.27886 6.44163 5.46823
#
# Compressibility (1/GPa) = 0.05780893
#
# Stress axis : x y z
#
# Youngs Moduli (GPa) = 12.47654 148.19473 46.61942
#
# Poissons Ratio (x) = 0.50799 0.93741
# Poissons Ratio (y) = 0.04277 0.08085
# Poissons Ratio (z) = 0.25087 0.25702
#
# Static dielectric constant tensor:
#      x y z
#    x 2.775350 0.000000 0.082130 
#    y 0.000000 4.223500 0.000000 
#    z 0.082130 0.000000 4.164440 
# 
# 
# High freq. dielectric constant tensor:
#      x y z
#    x 1.682560 0.000000 0.004420 
#    y 0.000000 1.808750 0.000000 
#    z 0.004420 0.000000 1.792360 
# 
# From -- ./inp_files/159126.got.cif
#   From: 2010.06.25/outbox.cif.g09.slc.cpg/sg15_80_cif.got.tgz:159126.got - 2010.06.28 07:06:18.
