data_PCOD8131929
_publ_section_title
;
Structure prediction by ZEFSAII (Michael W. Deem and Ramdas Pophale) SiO2 
 PCOD8131929
Probable space group: C 2/C
;
_chemical_formula_sum "Si O2"
_cell_formula_units_Z 64
_cell_length_a 20.135841
_cell_length_b 9.921113
_cell_length_c 23.077050
_cell_angle_alpha 90.000000
_cell_angle_beta 49.396473
_cell_angle_gamma 90.000000
_cell_volume 3500.132888
_symmetry_space_group_name_H-M "C 2/C"
_symmetry_group_IT_number 15
_symmetry_cell_setting 'monoclinic'
loop_
_space_group_symop_operation_xyz
x,y,z
-x,y,1/2-z
-x,-y,-z
x,-y,1/2+z
1/2+x,1/2+y,z
1/2-x,1/2+y,1/2-z
1/2-x,1/2-y,-z
1/2+x,1/2-y,1/2+z
loop_
_atom_site_type_symbol
_atom_site_label
_atom_site_fract_x
_atom_site_fract_y
_atom_site_fract_z
Si Si1 0.555702 0.123596 0.040510
Si Si2 0.774547 0.551951 0.289234
Si Si3 0.958108 0.776027 0.714895
Si Si4 0.981180 0.873580 0.936782
Si Si5 0.899443 0.366894 0.545375
Si Si6 0.621365 0.602041 0.454107
Si Si7 0.262954 0.740763 0.297025
Si Si8 0.475398 0.964659 0.699786
O O1 0.458660 0.112792 0.068620
O O2 0.541943 0.107037 0.117119
O O3 0.603891 0.262527 0.999571
O O4 0.617185 0.008506 0.977346
O O5 0.722278 0.590619 0.377665
O O6 0.742494 0.648857 0.256416
O O7 0.754274 0.397111 0.283144
O O8 0.876059 0.577343 0.243388
O O9 0.853730 0.782360 0.778548
O O10 0.989550 0.624099 0.685253
O O11 0.000000 0.832102 0.750000
O O12 0.991106 0.874201 0.645605
O O13 0.064680 0.912915 0.927891
O O14 0.950006 0.725302 0.971133
O O15 0.903050 0.979819 0.989388
O O16 0.809531 0.298655 0.614992
O O17 0.500000 0.914770 0.750000
#
# Coordination Sequence:
#
# PCOD8131929 Si02
#       8
#     8   8   8   8   8   8   8   8
#     4  10  20  33  57  83 111 149 188 229 279 335
#     4  11  22  36  58  88 115 145 190 239 284 333
#     4  10  21  38  59  84 116 153 190 231 284 343
#     4  10  18  35  55  80 116 143 183 232 286 332
#     4  10  19  33  55  84 111 140 192 235 274 323
#     4  10  21  33  55  86 113 146 181 240 286 325
#     4  11  22  35  58  88 116 145 192 239 283 329
#     4  10  21  39  59  82 115 155 190 228 282 347
#
# _framework density 18.285018999999998
#
# number of rings (size 3 to 8) (size 9 to 14) (size 15 to 20)
#    0.000    1.750    5.000    0.000    1.750    0.000 
#    0.000    3.125    0.000    0.000    0.000    0.000 
#    0.000    0.000    0.000    0.000    0.000    0.000 
#
# Total GULP energy -396874.121625 kJ/mol
# GULP energy per Si atom -12402.316301 kJ/mol
# Density = 1.824340 g / cm^3
# Si number density = 18.285019 Si / 1000 Ang^3
#
#
#
# Elastic Constant Matrix: (Units=GPa)
#
#
# Indices 1 2 3 4 5 6 
#
# 1 63.9887 32.2952 36.1259 0.0000 9.2068 0.0001
# 2 32.2952 85.6436 33.6183 0.0000 8.7372 0.0003
# 3 36.1259 33.6183 110.9658 0.0000 7.7585 0.0000
# 4 0.0000 0.0000 0.0000 33.1577 0.0000 -2.0393
# 5 9.2068 8.7372 7.7585 0.0000 26.8805 0.0000
# 6 0.0001 0.0003 0.0000 -2.0393 0.0000 15.3579
#
#
#
# Elastic Compliance Matrix: (Units=1/GPa)
#
#
# Indices 1 2 3 4 5 6 
#
# 1 0.022092 -0.005897 -0.005114 0.000000 -0.004174 0.000000
# 2 -0.005897 0.015104 -0.002505 0.000000 -0.002167 0.000000
# 3 -0.005114 -0.002505 0.011488 0.000000 -0.000750 0.000000
# 4 0.000000 0.000000 0.000000 0.030407 0.000000 0.004038
# 5 -0.004174 -0.002167 -0.000750 0.000000 0.039552 0.000000
# 6 0.000000 0.000000 0.000000 0.004038 0.000000 0.065649
#
#
# Mechanical properties :
#
#
# Convention : Reuss Voigt Hill
#
# Bulk Modulus (GPa) = 46.18387 51.63075 48.90731
# Shear Modulus (GPa) = 22.87899 25.64980 24.26439
#
# Velocity S-wave (km/s) = 3.54113 3.74943 3.64677
# Velocity P-wave (km/s) = 6.48321 6.85873 6.67362
#
# Compressibility (1/GPa) = 0.02165258
#
# Stress axis : x y z
#
# Youngs Moduli (GPa) = 45.26579 66.20623 87.04879
#
# Poissons Ratio (x) = 0.39045 0.44514
# Poissons Ratio (y) = 0.26695 0.21802
# Poissons Ratio (z) = 0.23147 0.16582
#
# Static dielectric constant tensor:
#      x y z
#    x 3.139660 0.000000 -0.053780 
#    y 0.000000 3.367570 0.000000 
#    z -0.053780 0.000000 3.402620 
# 
# 
# High freq. dielectric constant tensor:
#      x y z
#    x 1.673200 0.000000 -0.007520 
#    y 0.000000 1.709570 0.000000 
#    z -0.007520 0.000000 1.723030 
# 
# From -- ./inp_files/252385.got.cif
#   From: 2010.06.25/outbox.cif.g09.slc.cpg/sg15_127_cif.got.tgz:252385.got - 2010.06.28 07:06:18.
