data_PCOD8131077
_publ_section_title
;
Structure prediction by ZEFSAII (Michael W. Deem and Ramdas Pophale) SiO2 
 PCOD8131077
Probable space group: C 2/C
;
_chemical_formula_sum "Si O2"
_cell_formula_units_Z 56
_cell_length_a 13.515671
_cell_length_b 14.318610
_cell_length_c 17.431199
_cell_angle_alpha 90.000000
_cell_angle_beta 125.249042
_cell_angle_gamma 90.000000
_cell_volume 2754.877805
_symmetry_space_group_name_H-M "C 2/C"
_symmetry_group_IT_number 15
_symmetry_cell_setting 'monoclinic'
loop_
_space_group_symop_operation_xyz
x,y,z
-x,y,1/2-z
-x,-y,-z
x,-y,1/2+z
1/2+x,1/2+y,z
1/2-x,1/2+y,1/2-z
1/2-x,1/2-y,-z
1/2+x,1/2-y,1/2+z
loop_
_atom_site_type_symbol
_atom_site_label
_atom_site_fract_x
_atom_site_fract_y
_atom_site_fract_z
Si Si1 0.775529 0.427822 0.436490
Si Si2 0.996928 0.663649 0.084997
Si Si3 0.033058 0.123341 0.566728
Si Si4 0.625909 0.257088 0.338185
Si Si5 0.801777 0.007077 0.441516
Si Si6 0.280144 0.886770 0.727896
Si Si7 0.394983 0.495190 0.761781
O O1 0.696415 0.334861 0.417520
O O2 0.757047 0.498337 0.500209
O O3 0.726190 0.471246 0.336088
O O4 0.916769 0.397803 0.489580
O O5 0.035927 0.764748 0.070536
O O6 0.114244 0.603962 0.161181
O O7 0.908608 0.673758 0.119350
O O8 0.059596 0.077130 0.661821
O O9 0.901992 0.089478 0.480312
O O10 0.134888 0.091755 0.550352
O O11 0.500000 0.301246 0.250000
O O12 0.707729 0.215961 0.305353
O O13 0.704402 0.034181 0.331789
O O14 0.149515 0.903885 0.710456
O O15 0.500000 0.465241 0.750000
#
# Coordination Sequence:
#
# PCOD8131077 Si02
#       7
#     8   8   8   8   8   8   8
#     4  12  20  32  57  85 115 143 185 230 288 339
#     4  11  20  33  55  83 115 144 180 236 278 341
#     4  10  20  34  54  84 117 140 182 229 295 330
#     4  10  18  31  52  84 114 137 172 236 289 331
#     4  10  19  33  53  85 112 149 179 225 286 349
#     4  10  22  34  51  80 113 149 185 228 290 333
#     4  11  21  37  53  78 110 152 188 235 277 347
#
# _framework density 20.327580999999999
#
# number of rings (size 3 to 8) (size 9 to 14) (size 15 to 20)
#    0.000    1.429    4.286    3.429    0.000    0.571 
#    0.000    0.000    0.000    0.857   11.143    0.000 
#    0.000    0.000    0.000    0.000    0.000    0.000 
#
# Total GULP energy -347001.073311 kJ/mol
# GULP energy per Si atom -12392.895475 kJ/mol
# Density = 2.028131 g / cm^3
# Si number density = 20.327581 Si / 1000 Ang^3
#
#
#
# Elastic Constant Matrix: (Units=GPa)
#
#
# Indices 1 2 3 4 5 6 
#
# 1 72.8530 48.3904 24.6470 0.0000 -6.3842 0.0000
# 2 48.3904 63.7905 29.5419 0.0000 2.6133 0.0000
# 3 24.6470 29.5419 98.8150 0.0000 15.8719 0.0000
# 4 0.0000 0.0000 0.0000 23.5084 0.0000 5.8272
# 5 -6.3842 2.6133 15.8719 0.0000 29.5148 0.0000
# 6 0.0000 0.0000 0.0000 5.8272 0.0000 23.7595
#
#
#
# Elastic Compliance Matrix: (Units=1/GPa)
#
#
# Indices 1 2 3 4 5 6 
#
# 1 0.030087 -0.022077 -0.002477 0.000000 0.009795 0.000000
# 2 -0.022077 0.034452 -0.003870 0.000000 -0.005745 0.000000
# 3 -0.002477 -0.003870 0.013053 0.000000 -0.007213 0.000000
# 4 0.000000 0.000000 0.000000 0.045291 0.000000 -0.011108
# 5 0.009795 -0.005745 -0.007213 0.000000 0.040387 0.000000
# 6 0.000000 0.000000 0.000000 -0.011108 0.000000 0.044813
#
#
# Mechanical properties :
#
#
# Convention : Reuss Voigt Hill
#
# Bulk Modulus (GPa) = 48.21216 48.95745 48.58480
# Shear Modulus (GPa) = 18.39262 24.21516 21.30389
#
# Velocity S-wave (km/s) = 3.01127 3.45519 3.24084
# Velocity P-wave (km/s) = 5.98827 6.32885 6.16091
#
# Compressibility (1/GPa) = 0.02074166
#
# Stress axis : x y z
#
# Youngs Moduli (GPa) = 33.23684 29.02620 76.60787
#
# Poissons Ratio (x) = 0.64083 0.18980
# Poissons Ratio (y) = 0.73379 0.29650
# Poissons Ratio (z) = 0.08234 0.11234
#
# Static dielectric constant tensor:
#      x y z
#    x 3.525740 0.000000 0.140390 
#    y 0.000000 3.328390 0.000000 
#    z 0.140390 0.000000 4.112530 
# 
# 
# High freq. dielectric constant tensor:
#      x y z
#    x 1.764910 0.000000 0.007480 
#    y 0.000000 1.750110 0.000000 
#    z 0.007480 0.000000 1.820710 
# 
# From -- ./inp_files/205158.got.cif
#   From: 2010.06.25/outbox.cif.g09.slc.cpg/sg15_103_cif.got.tgz:205158.got - 2010.06.28 07:06:18.
