data_PCOD8131569
_publ_section_title
;
Structure prediction by ZEFSAII (Michael W. Deem and Ramdas Pophale) SiO2 
 PCOD8131569
Probable space group: C 2/C
;
_chemical_formula_sum "Si O2"
_cell_formula_units_Z 64
_cell_length_a 16.519940
_cell_length_b 11.765126
_cell_length_c 23.501130
_cell_angle_alpha 90.000000
_cell_angle_beta 131.252580
_cell_angle_gamma 90.000000
_cell_volume 3434.013188
_symmetry_space_group_name_H-M "C 2/C"
_symmetry_group_IT_number 15
_symmetry_cell_setting 'monoclinic'
loop_
_space_group_symop_operation_xyz
x,y,z
-x,y,1/2-z
-x,-y,-z
x,-y,1/2+z
1/2+x,1/2+y,z
1/2-x,1/2+y,1/2-z
1/2-x,1/2-y,-z
1/2+x,1/2-y,1/2+z
loop_
_atom_site_type_symbol
_atom_site_label
_atom_site_fract_x
_atom_site_fract_y
_atom_site_fract_z
Si Si1 0.672079 0.119164 0.349300
Si Si2 0.172844 0.223682 0.247834
Si Si3 0.331127 0.210327 0.881679
Si Si4 0.246692 0.369521 0.377552
Si Si5 0.836464 0.445757 0.867813
Si Si6 0.974034 0.565299 0.321748
Si Si7 0.574932 0.783979 0.499204
Si Si8 0.547354 0.183906 0.855771
O O1 0.749470 0.229205 0.387979
O O2 0.591322 0.124016 0.366273
O O3 0.607639 0.121569 0.260293
O O4 0.742517 0.004074 0.384085
O O5 0.191767 0.233828 0.189753
O O6 0.234482 0.330504 0.306259
O O7 0.224114 0.106728 0.294000
O O8 0.043597 0.221071 0.199519
O O9 0.312577 0.076337 0.869057
O O10 0.451334 0.236134 0.958873
O O11 0.360790 0.330704 0.456130
O O12 0.151485 0.299848 0.365295
O O13 0.931386 0.422253 0.866035
O O14 0.875268 0.390293 0.944235
O O15 0.986438 0.433001 0.312256
O O16 0.586051 0.815331 0.438503
#
# Coordination Sequence:
#
# PCOD8131569 Si02
#       8
#     8   8   8   8   8   8   8   8
#     4  10  20  34  57  83 109 137 186 237 281 325
#     4  10  19  31  56  84 101 137 187 235 274 320
#     4  11  21  35  55  83 113 148 182 231 281 333
#     4  10  19  34  56  82 111 139 182 235 277 330
#     4  11  20  36  57  80 109 145 190 227 270 341
#     4  10  18  33  59  82 101 144 185 230 271 333
#     4  10  22  33  55  82 110 149 183 224 275 336
#     4  10  18  34  57  84 106 140 184 234 281 322
#
# _framework density 18.637087000000001
#
# number of rings (size 3 to 8) (size 9 to 14) (size 15 to 20)
#    0.000    1.750    5.000    1.125    0.000    0.500 
#    0.000    0.625   11.000    0.000    0.000    0.000 
#    0.000    0.000    0.000    0.000    0.000    0.000 
#
# Total GULP energy -396740.091478 kJ/mol
# GULP energy per Si atom -12398.127859 kJ/mol
# Density = 1.859467 g / cm^3
# Si number density = 18.637087 Si / 1000 Ang^3
#
#
#
# Elastic Constant Matrix: (Units=GPa)
#
#
# Indices 1 2 3 4 5 6 
#
# 1 90.1506 63.0046 33.9642 0.0000 18.7206 0.0000
# 2 63.0046 102.3068 45.5554 0.0000 17.5944 0.0000
# 3 33.9642 45.5554 91.7625 0.0000 18.8550 0.0000
# 4 0.0000 0.0000 0.0000 18.1317 0.0000 6.2179
# 5 18.7206 17.5944 18.8550 0.0000 24.3830 0.0000
# 6 0.0000 0.0000 0.0000 6.2179 0.0000 29.6713
#
#
#
# Elastic Compliance Matrix: (Units=1/GPa)
#
#
# Indices 1 2 3 4 5 6 
#
# 1 0.020667 -0.011209 -0.000578 0.000000 -0.007332 0.000000
# 2 -0.011209 0.019171 -0.005106 0.000000 -0.001279 0.000000
# 3 -0.000578 -0.005106 0.015216 0.000000 -0.007638 0.000000
# 4 0.000000 0.000000 0.000000 0.059422 0.000000 -0.012453
# 5 -0.007332 -0.001279 -0.007638 0.000000 0.053471 0.000000
# 6 0.000000 0.000000 0.000000 -0.012453 0.000000 0.036312
#
#
# Mechanical properties :
#
#
# Convention : Reuss Voigt Hill
#
# Bulk Modulus (GPa) = 47.01947 63.25204 55.13576
# Shear Modulus (GPa) = 20.39699 23.88357 22.14028
#
# Velocity S-wave (km/s) = 3.31181 3.58370 3.45043
# Velocity P-wave (km/s) = 6.31726 7.15097 6.74701
#
# Compressibility (1/GPa) = 0.02126779
#
# Stress axis : x y z
#
# Youngs Moduli (GPa) = 48.38708 52.16217 65.72087
#
# Poissons Ratio (x) = 0.58469 0.03800
# Poissons Ratio (y) = 0.54237 0.33555
# Poissons Ratio (z) = 0.02797 0.26633
#
# Static dielectric constant tensor:
#      x y z
#    x 3.595040 0.000000 0.066950 
#    y 0.000000 3.195130 0.000000 
#    z 0.066950 0.000000 3.451460 
# 
# 
# High freq. dielectric constant tensor:
#      x y z
#    x 1.722000 0.000000 0.002870 
#    y 0.000000 1.696730 0.000000 
#    z 0.002870 0.000000 1.727520 
# 
# From -- ./inp_files/277112.got.cif
#   From: 2010.06.25/outbox.cif.g09.slc.cpg/sg15_139_cif.got.tgz:277112.got - 2010.06.28 07:06:18.
