data_PCOD8131739
_publ_section_title
;
Structure prediction by ZEFSAII (Michael W. Deem and Ramdas Pophale) SiO2 
 PCOD8131739
Probable space group: C 2/C
;
_chemical_formula_sum "Si O2"
_cell_formula_units_Z 60
_cell_length_a 18.413074
_cell_length_b 22.268870
_cell_length_c 12.224864
_cell_angle_alpha 90.000000
_cell_angle_beta 139.211675
_cell_angle_gamma 90.000000
_cell_volume 3274.604061
_symmetry_space_group_name_H-M "C 2/C"
_symmetry_group_IT_number 15
_symmetry_cell_setting 'monoclinic'
loop_
_space_group_symop_operation_xyz
x,y,z
-x,y,1/2-z
-x,-y,-z
x,-y,1/2+z
1/2+x,1/2+y,z
1/2-x,1/2+y,1/2-z
1/2-x,1/2-y,-z
1/2+x,1/2-y,1/2+z
loop_
_atom_site_type_symbol
_atom_site_label
_atom_site_fract_x
_atom_site_fract_y
_atom_site_fract_z
Si Si1 0.417574 0.586763 0.378558
Si Si2 0.500000 0.839617 0.750000
Si Si3 0.758051 0.668435 0.214292
Si Si4 0.997122 0.300257 0.980660
Si Si5 0.241286 0.629645 0.524991
Si Si6 0.460954 0.689975 0.090019
Si Si7 0.575553 0.535492 0.733114
Si Si8 0.735909 0.195417 0.740925
O O1 0.303810 0.615829 0.291638
O O2 0.473554 0.628150 0.350468
O O3 0.504103 0.580022 0.576288
O O4 0.387765 0.523391 0.290856
O O5 0.496937 0.794053 0.848842
O O6 0.391727 0.883022 0.622870
O O7 0.890204 0.659704 0.392191
O O8 0.718821 0.733130 0.211357
O O9 0.731066 0.665478 0.054472
O O10 0.987799 0.234504 0.021400
O O11 0.116601 0.330291 0.148034
O O12 0.310011 0.567747 0.601831
O O13 0.274936 0.669023 0.668770
O O14 0.500000 0.718144 0.250000
O O15 0.327863 0.678577 0.936787
O O16 0.500000 0.517369 0.750000
#
# Coordination Sequence:
#
# PCOD8131739 Si02
#       8
#     8   4   8   8   8   8   8   8
#     4  11  22  38  55  81 116 151 197 242 282 335
#     4   8  18  34  60  86 120 142 180 240 300 350
#     4  10  19  34  57  86 120 147 182 240 297 346
#     4   9  19  35  54  85 114 149 182 232 294 349
#     4  10  18  34  57  90 114 148 182 243 296 350
#     4  11  22  36  53  78 117 161 194 230 279 343
#     4  11  22  37  60  82 111 152 199 245 290 330
#     4  10  19  34  56  86 118 150 190 231 290 356
#
# _framework density 18.322825999999999
#
# number of rings (size 3 to 8) (size 9 to 14) (size 15 to 20)
#    0.000    1.867    4.000    0.800    0.000    1.600 
#    1.200    0.000    0.000   10.400    0.000    0.000 
#    0.000    0.000    0.000    0.000    0.000    0.000 
#
# Total GULP energy -371859.454391 kJ/mol
# GULP energy per Si atom -12395.315146 kJ/mol
# Density = 1.828112 g / cm^3
# Si number density = 18.322826 Si / 1000 Ang^3
#
#
#
# Elastic Constant Matrix: (Units=GPa)
#
#
# Indices 1 2 3 4 5 6 
#
# 1 91.4592 40.5093 56.9168 0.0000 19.7102 0.0000
# 2 40.5093 69.5941 35.4286 0.0000 11.2042 0.0000
# 3 56.9168 35.4286 130.4892 0.0000 18.6351 0.0000
# 4 0.0000 0.0000 0.0000 20.2797 0.0000 0.9925
# 5 19.7102 11.2042 18.6351 0.0000 28.1341 0.0000
# 6 0.0000 0.0000 0.0000 0.9925 0.0000 29.4744
#
#
#
# Elastic Compliance Matrix: (Units=1/GPa)
#
#
# Indices 1 2 3 4 5 6 
#
# 1 0.018906 -0.007195 -0.005313 0.000000 -0.006860 0.000000
# 2 -0.007195 0.019835 -0.002031 0.000000 -0.001513 0.000000
# 3 -0.005313 -0.002031 0.010918 0.000000 -0.002701 0.000000
# 4 0.000000 0.000000 0.000000 0.049392 0.000000 -0.001663
# 5 -0.006860 -0.001513 -0.002701 0.000000 0.042742 0.000000
# 6 0.000000 0.000000 0.000000 -0.001663 0.000000 0.033984
#
#
# Mechanical properties :
#
#
# Convention : Reuss Voigt Hill
#
# Bulk Modulus (GPa) = 48.59049 61.91688 55.25368
# Shear Modulus (GPa) = 23.61681 26.15683 24.88682
#
# Velocity S-wave (km/s) = 3.59406 3.78240 3.68943
# Velocity P-wave (km/s) = 6.61813 7.27605 6.95488
#
# Compressibility (1/GPa) = 0.02058016
#
# Stress axis : x y z
#
# Youngs Moduli (GPa) = 52.89429 50.41668 91.59263
#
# Poissons Ratio (x) = 0.36277 0.48663
# Poissons Ratio (y) = 0.38060 0.18599
# Poissons Ratio (z) = 0.28102 0.10238
#
# Static dielectric constant tensor:
#      x y z
#    x 3.478930 0.000000 0.241340 
#    y 0.000000 2.982980 0.000000 
#    z 0.241340 0.000000 3.631170 
# 
# 
# High freq. dielectric constant tensor:
#      x y z
#    x 1.717170 0.000000 0.012470 
#    y 0.000000 1.670770 0.000000 
#    z 0.012470 0.000000 1.717150 
# 
# From -- ./inp_files/107629.got.cif
#   From: 2010.06.25/outbox.cif.g09.slc.cpg/sg15_54_cif.got.tgz:107629.got - 2010.06.28 07:06:18.
