data_PCOD8131301
_publ_section_title
;
Structure prediction by ZEFSAII (Michael W. Deem and Ramdas Pophale) SiO2 
 PCOD8131301
Probable space group: C 2/C
;
_chemical_formula_sum "Si O2"
_cell_formula_units_Z 60
_cell_length_a 14.352503
_cell_length_b 16.765964
_cell_length_c 13.657053
_cell_angle_alpha 90.000000
_cell_angle_beta 97.616436
_cell_angle_gamma 90.000000
_cell_volume 3257.351545
_symmetry_space_group_name_H-M "C 2/C"
_symmetry_group_IT_number 15
_symmetry_cell_setting 'monoclinic'
loop_
_space_group_symop_operation_xyz
x,y,z
-x,y,1/2-z
-x,-y,-z
x,-y,1/2+z
1/2+x,1/2+y,z
1/2-x,1/2+y,1/2-z
1/2-x,1/2-y,-z
1/2+x,1/2-y,1/2+z
loop_
_atom_site_type_symbol
_atom_site_label
_atom_site_fract_x
_atom_site_fract_y
_atom_site_fract_z
Si Si1 0.393366 0.711880 0.128044
Si Si2 0.733661 0.577503 0.445951
Si Si3 0.634438 0.869639 0.068217
Si Si4 0.500000 0.005433 0.750000
Si Si5 0.187429 0.493582 0.719068
Si Si6 0.076818 0.611637 0.926523
Si Si7 0.389615 0.697754 0.352833
Si Si8 0.232254 0.939054 0.572774
O O1 0.324898 0.658599 0.049416
O O2 0.383132 0.802057 0.093931
O O3 0.360654 0.704246 0.235594
O O4 0.499262 0.683426 0.125192
O O5 0.740199 0.560778 0.331063
O O6 0.842808 0.573792 0.494990
O O7 0.682482 0.503810 0.494107
O O8 0.677287 0.919527 0.165844
O O9 0.524051 0.887838 0.033394
O O10 0.645306 0.776741 0.095925
O O11 0.686916 0.890240 0.974271
O O12 0.580332 0.954877 0.704966
O O13 0.564805 0.062721 0.825434
O O14 0.226441 0.493826 0.834488
O O15 0.343797 0.622360 0.398669
#
# Coordination Sequence:
#
# PCOD8131301 Si02
#       8
#     8   8   8   4   8   8   8   8
#     4  10  20  36  56  78 105 143 189 226 259 312
#     4  11  22  33  53  84 111 137 178 227 277 313
#     4   9  21  35  57  80 108 147 181 212 266 333
#     4  10  18  32  56  74 110 146 170 208 272 326
#     4  10  20  33  50  83 112 139 172 220 272 321
#     4  10  19  34  54  82 109 140 178 218 266 323
#     4  10  20  38  59  75 104 148 191 220 258 320
#     4  11  21  35  55  82 112 140 178 226 273 317
#
# _framework density 18.419872999999999
#
# number of rings (size 3 to 8) (size 9 to 14) (size 15 to 20)
#    0.000    1.867    2.667    3.200    1.867    2.133 
#    0.000    0.000    0.000    0.000    0.000    0.000 
#    0.000    0.000    0.000    0.000    0.000    0.000 
#
# Total GULP energy -371722.531683 kJ/mol
# GULP energy per Si atom -12390.751056 kJ/mol
# Density = 1.837795 g / cm^3
# Si number density = 18.419873 Si / 1000 Ang^3
#
#
#
# Elastic Constant Matrix: (Units=GPa)
#
#
# Indices 1 2 3 4 5 6 
#
# 1 44.5775 23.1563 23.3936 0.0000 -8.7695 0.0000
# 2 23.1563 68.9945 21.1936 0.0000 -5.8236 0.0000
# 3 23.3936 21.1936 81.5954 0.0000 -12.8420 0.0000
# 4 0.0000 0.0000 0.0000 16.9998 0.0000 1.8454
# 5 -8.7695 -5.8236 -12.8420 0.0000 29.7253 0.0000
# 6 0.0000 0.0000 0.0000 1.8454 0.0000 33.8339
#
#
#
# Elastic Compliance Matrix: (Units=1/GPa)
#
#
# Indices 1 2 3 4 5 6 
#
# 1 0.030705 -0.008068 -0.005934 0.000000 0.004914 0.000000
# 2 -0.008068 0.017926 -0.002323 0.000000 0.000128 0.000000
# 3 -0.005934 -0.002323 0.015250 0.000000 0.004383 0.000000
# 4 0.000000 0.000000 0.000000 0.059175 0.000000 -0.003228
# 5 0.004914 0.000128 0.004383 0.000000 0.037010 0.000000
# 6 0.000000 0.000000 0.000000 -0.003228 0.000000 0.029732
#
#
# Mechanical properties :
#
#
# Convention : Reuss Voigt Hill
#
# Bulk Modulus (GPa) = 32.01922 36.73939 34.37930
# Shear Modulus (GPa) = 21.47243 24.60673 23.03958
#
# Velocity S-wave (km/s) = 3.41797 3.65893 3.54050
# Velocity P-wave (km/s) = 5.74434 6.15136 5.95133
#
# Compressibility (1/GPa) = 0.03123124
#
# Stress axis : x y z
#
# Youngs Moduli (GPa) = 32.56841 55.78498 65.57366
#
# Poissons Ratio (x) = 0.45005 0.38912
# Poissons Ratio (y) = 0.26275 0.15232
# Poissons Ratio (z) = 0.19327 0.12958
#
# Static dielectric constant tensor:
#      x y z
#    x 3.360250 0.000000 -0.159380 
#    y 0.000000 3.324060 0.000000 
#    z -0.159380 0.000000 3.381630 
# 
# 
# High freq. dielectric constant tensor:
#      x y z
#    x 1.707560 0.000000 -0.014380 
#    y 0.000000 1.708120 0.000000 
#    z -0.014380 0.000000 1.715350 
# 
# From -- ./inp_files/98356.got.cif
#   From: 2010.06.25/outbox.cif.g09.slc.cpg/sg15_50_cif.got.tgz:98356.got - 2010.06.28 07:06:18.
