data_PCOD8131121
_publ_section_title
;
Structure prediction by ZEFSAII (Michael W. Deem and Ramdas Pophale) SiO2 
 PCOD8131121
Probable space group: C 2/C
;
_chemical_formula_sum "Si O2"
_cell_formula_units_Z 60
_cell_length_a 19.405492
_cell_length_b 23.038365
_cell_length_c 15.952498
_cell_angle_alpha 90.000000
_cell_angle_beta 152.129156
_cell_angle_gamma 90.000000
_cell_volume 3334.019058
_symmetry_space_group_name_H-M "C 2/C"
_symmetry_group_IT_number 15
_symmetry_cell_setting 'monoclinic'
loop_
_space_group_symop_operation_xyz
x,y,z
-x,y,1/2-z
-x,-y,-z
x,-y,1/2+z
1/2+x,1/2+y,z
1/2-x,1/2+y,1/2-z
1/2-x,1/2-y,-z
1/2+x,1/2-y,1/2+z
loop_
_atom_site_type_symbol
_atom_site_label
_atom_site_fract_x
_atom_site_fract_y
_atom_site_fract_z
Si Si1 0.091602 0.405198 0.583812
Si Si2 0.000000 0.637976 0.750000
Si Si3 0.826693 0.702627 0.428581
Si Si4 0.492192 0.307650 0.842966
Si Si5 0.514649 0.063560 0.355640
Si Si6 0.554754 0.437231 0.959928
Si Si7 0.790964 0.005918 0.724768
Si Si8 0.649234 0.052954 0.803752
O O1 0.168308 0.343471 0.643006
O O2 0.203470 0.458840 0.688207
O O3 0.050331 0.399094 0.637333
O O4 0.940733 0.420005 0.372009
O O5 0.136105 0.597724 0.866864
O O6 0.946640 0.678617 0.620552
O O7 0.668911 0.710684 0.300167
O O8 0.889759 0.767081 0.480492
O O9 0.500000 0.304824 0.750000
O O10 0.525805 0.370189 0.915472
O O11 0.500000 0.097336 0.250000
O O12 0.682613 0.044777 0.552861
O O13 0.415975 0.007119 0.237193
O O14 0.402139 0.472104 0.781779
O O15 0.614281 0.449883 0.117198
O O16 0.679033 0.457094 0.028344
#
# Coordination Sequence:
#
# PCOD8131121 Si02
#       8
#     8   4   8   8   8   8   8   8
#     4  10  19  38  55  77 112 153 198 232 285 350
#     4  10  20  34  54  74 110 158 188 234 260 332
#     4  11  24  38  54  78 118 157 195 231 273 338
#     4  12  25  37  55  86 120 153 198 231 277 337
#     4  11  20  34  57  84 111 144 195 242 290 352
#     4  11  21  34  57  79 117 154 191 240 276 340
#     4  10  20  37  55  83 114 153 192 232 295 347
#     4  10  18  31  55  77 108 152 189 222 286 339
#
# _framework density 17.996297999999999
#
# number of rings (size 3 to 8) (size 9 to 14) (size 15 to 20)
#    0.000    1.333    5.333    2.000    3.733    1.067 
#    0.000    0.000    0.000    0.000    0.000    3.733 
#    0.000    0.000    0.000    0.000    0.000    0.000 
#
# Total GULP energy -371827.982279 kJ/mol
# GULP energy per Si atom -12394.266076 kJ/mol
# Density = 1.795534 g / cm^3
# Si number density = 17.996298 Si / 1000 Ang^3
#
#
#
# Elastic Constant Matrix: (Units=GPa)
#
#
# Indices 1 2 3 4 5 6 
#
# 1 113.4748 25.9944 40.5072 0.0000 10.6159 0.0000
# 2 25.9944 70.1441 29.1288 0.0000 -0.1413 0.0000
# 3 40.5072 29.1288 63.5284 0.0000 19.8928 0.0000
# 4 0.0000 0.0000 0.0000 21.1110 0.0000 2.2392
# 5 10.6159 -0.1413 19.8928 0.0000 37.2281 0.0000
# 6 0.0000 0.0000 0.0000 2.2392 0.0000 24.1877
#
#
#
# Elastic Compliance Matrix: (Units=1/GPa)
#
#
# Indices 1 2 3 4 5 6 
#
# 1 0.011540 -0.001453 -0.006797 0.000000 0.000336 0.000000
# 2 -0.001453 0.018695 -0.009364 0.000000 0.005489 0.000000
# 3 -0.006797 -0.009364 0.028550 0.000000 -0.013353 0.000000
# 4 0.000000 0.000000 0.000000 0.047839 0.000000 -0.004429
# 5 0.000336 0.005489 -0.013353 0.000000 0.033922 0.000000
# 6 0.000000 0.000000 0.000000 -0.004429 0.000000 0.041753
#
#
# Mechanical properties :
#
#
# Convention : Reuss Voigt Hill
#
# Bulk Modulus (GPa) = 42.45217 48.71203 45.58210
# Shear Modulus (GPa) = 22.18488 26.60647 24.39567
#
# Velocity S-wave (km/s) = 3.51486 3.84922 3.68583
# Velocity P-wave (km/s) = 6.33348 6.84704 6.59526
#
# Compressibility (1/GPa) = 0.02355592
#
# Stress axis : x y z
#
# Youngs Moduli (GPa) = 86.65166 53.49153 35.02672
#
# Poissons Ratio (x) = 0.07774 0.23808
# Poissons Ratio (y) = 0.12594 0.32798
# Poissons Ratio (z) = 0.58899 0.50088
#
# Static dielectric constant tensor:
#      x y z
#    x 3.913020 0.000000 0.318640 
#    y 0.000000 3.376910 0.000000 
#    z 0.318640 0.000000 3.490070 
# 
# 
# High freq. dielectric constant tensor:
#      x y z
#    x 1.695100 0.000000 0.022950 
#    y 0.000000 1.674590 0.000000 
#    z 0.022950 0.000000 1.691910 
# 
# From -- ./inp_files/51203.got.cif
#   From: 2010.06.25/outbox.cif.g09.slc.cpg/sg15_26_cif.got.tgz:51203.got - 2010.06.28 07:06:18.
