data_PCOD8131336
_publ_section_title
;
Structure prediction by ZEFSAII (Michael W. Deem and Ramdas Pophale) SiO2 
 PCOD8131336
Probable space group: C 2/C
;
_chemical_formula_sum "Si O2"
_cell_formula_units_Z 48
_cell_length_a 20.475822
_cell_length_b 16.744441
_cell_length_c 9.443284
_cell_angle_alpha 90.000000
_cell_angle_beta 137.798668
_cell_angle_gamma 90.000000
_cell_volume 2174.877723
_symmetry_space_group_name_H-M "C 2/C"
_symmetry_group_IT_number 15
_symmetry_cell_setting 'monoclinic'
loop_
_space_group_symop_operation_xyz
x,y,z
-x,y,1/2-z
-x,-y,-z
x,-y,1/2+z
1/2+x,1/2+y,z
1/2-x,1/2+y,1/2-z
1/2-x,1/2-y,-z
1/2+x,1/2-y,1/2+z
loop_
_atom_site_type_symbol
_atom_site_label
_atom_site_fract_x
_atom_site_fract_y
_atom_site_fract_z
Si Si1 0.654113 0.673580 0.366302
Si Si2 0.705099 0.027689 0.893050
Si Si3 0.389722 0.918072 0.529565
Si Si4 0.777304 0.734704 0.785222
Si Si5 0.504630 0.407939 0.475624
Si Si6 0.337541 0.387565 0.015034
O O1 0.731298 0.602799 0.453630
O O2 0.671885 0.705204 0.555937
O O3 0.665118 0.744019 0.267959
O O4 0.544101 0.639168 0.177540
O O5 0.656018 0.987358 0.948700
O O6 0.773260 0.966288 0.917767
O O7 0.619858 0.055656 0.649360
O O8 0.500000 0.902331 0.750000
O O9 0.330881 0.835621 0.457260
O O10 0.769584 0.810028 0.878742
O O11 0.500000 0.500000 0.500000
O O12 0.584895 0.394610 0.484444
O O13 0.398414 0.376014 0.259004
#
# Coordination Sequence:
#
# PCOD8131336 Si02
#       6
#     8   8   8   8   8   8
#     4   9  18  36  59  86 115 162 193 236 300 357
#     4  11  22  41  63  87 118 156 205 247 295 354
#     4  11  24  39  63  87 114 156 204 253 299 347
#     4   9  20  36  58  84 119 156 198 238 301 357
#     4  10  18  32  57  90 120 147 194 243 289 355
#     4  10  21  34  60  88 120 155 193 242 294 353
#
# _framework density 22.070205000000001
#
# number of rings (size 3 to 8) (size 9 to 14) (size 15 to 20)
#    0.000    2.000    1.667    2.500    4.667    0.667 
#    0.000    0.000    0.000    0.000    4.333    0.000 
#    0.000    0.000    0.000    0.000    0.000    0.000 
#
# Total GULP energy -297481.154407 kJ/mol
# GULP energy per Si atom -12395.048100 kJ/mol
# Density = 2.201997 g / cm^3
# Si number density = 22.070205 Si / 1000 Ang^3
#
#
#
# Elastic Constant Matrix: (Units=GPa)
#
#
# Indices 1 2 3 4 5 6 
#
# 1 13.5029 0.9786 -2.2441 0.0000 -8.3136 0.0000
# 2 0.9786 111.1380 52.7960 0.0000 -13.8591 0.0000
# 3 -2.2441 52.7960 189.0578 0.0000 -8.1416 0.0000
# 4 0.0000 0.0000 0.0000 45.4607 0.0000 -10.7773
# 5 -8.3136 -13.8591 -8.1416 0.0000 18.2629 0.0000
# 6 0.0000 0.0000 0.0000 -10.7773 0.0000 27.8078
#
#
#
# Elastic Compliance Matrix: (Units=1/GPa)
#
#
# Indices 1 2 3 4 5 6 
#
# 1 0.106815 0.004607 0.002269 0.000000 0.053132 0.000000
# 2 0.004607 0.011447 -0.002730 0.000000 0.009567 0.000000
# 3 0.002269 -0.002730 0.006152 0.000000 0.001704 0.000000
# 4 0.000000 0.000000 0.000000 0.024223 0.000000 0.009388
# 5 0.053132 0.009567 0.001704 0.000000 0.086963 0.000000
# 6 0.000000 0.000000 0.000000 0.009388 0.000000 0.039600
#
#
# Mechanical properties :
#
#
# Convention : Reuss Voigt Hill
#
# Bulk Modulus (GPa) = 7.53539 46.30663 26.92101
# Shear Modulus (GPa) = 16.06985 35.78415 25.92700
#
# Velocity S-wave (km/s) = 2.70130 4.03100 3.43118
# Velocity P-wave (km/s) = 3.62644 6.53394 5.28410
#
# Compressibility (1/GPa) = 0.13270719
#
# Stress axis : x y z
#
# Youngs Moduli (GPa) = 9.36198 87.35775 162.54633
#
# Poissons Ratio (x) = -0.40246 -0.36889
# Poissons Ratio (y) = -0.04313 0.44376
# Poissons Ratio (z) = -0.02125 0.23849
#
# Static dielectric constant tensor:
#      x y z
#    x 3.494560 0.000000 0.127140 
#    y 0.000000 4.635990 0.000000 
#    z 0.127140 0.000000 5.913140 
# 
# 
# High freq. dielectric constant tensor:
#      x y z
#    x 1.814650 0.000000 -0.023300 
#    y 0.000000 1.878980 0.000000 
#    z -0.023300 0.000000 1.896500 
# 
# From -- ./inp_files/123827.got.cif
#   From: 2010.06.25/outbox.cif.g09.slc.cpg/sg15_62_cif.got.tgz:123827.got - 2010.06.28 07:06:18.
