data_PCOD8131594
_publ_section_title
;
Structure prediction by ZEFSAII (Michael W. Deem and Ramdas Pophale) SiO2 
 PCOD8131594
Probable space group: C 2/C
;
_chemical_formula_sum "Si O2"
_cell_formula_units_Z 44
_cell_length_a 9.230088
_cell_length_b 27.975540
_cell_length_c 7.811842
_cell_angle_alpha 90.000000
_cell_angle_beta 111.412261
_cell_angle_gamma 90.000000
_cell_volume 1877.919861
_symmetry_space_group_name_H-M "C 2/C"
_symmetry_group_IT_number 15
_symmetry_cell_setting 'monoclinic'
loop_
_space_group_symop_operation_xyz
x,y,z
-x,y,1/2-z
-x,-y,-z
x,-y,1/2+z
1/2+x,1/2+y,z
1/2-x,1/2+y,1/2-z
1/2-x,1/2-y,-z
1/2+x,1/2-y,1/2+z
loop_
_atom_site_type_symbol
_atom_site_label
_atom_site_fract_x
_atom_site_fract_y
_atom_site_fract_z
Si Si1 0.817111 0.345744 0.197978
Si Si2 0.459217 0.711655 0.039049
Si Si3 0.676023 0.949925 0.284531
Si Si4 0.323967 0.049125 0.111608
Si Si5 0.269126 0.349943 0.941407
Si Si6 0.000000 0.717041 0.250000
O O1 0.774754 0.399430 0.106865
O O2 0.771019 0.344302 0.376394
O O3 0.000000 0.335457 0.250000
O O4 0.721858 0.304644 0.054844
O O5 0.500000 0.728259 0.250000
O O6 0.555713 0.665007 0.024637
O O7 0.509334 0.752634 0.928373
O O8 0.500000 0.961602 0.250000
O O9 0.764155 0.998946 0.380304
O O10 0.693116 0.943324 0.094029
O O11 0.500000 0.049667 0.250000
O O12 0.242599 0.097008 0.147232
O O13 0.151787 0.315342 0.790250
#
# Coordination Sequence:
#
# PCOD8131594 Si02
#       6
#     8   8   8   8   8   4
#     4  10  23  45  70 103 139 183 229 280 345 416
#     4  12  28  46  73 102 139 181 232 291 351 406
#     4   9  18  31  59  93 135 175 220 274 329 408
#     4  10  18  33  60  95 133 177 223 273 338 402
#     4  11  24  45  70  97 139 185 227 293 343 407
#     4  12  26  50  70  98 142 182 236 286 350 406
#
# _framework density 23.430181000000001
#
# number of rings (size 3 to 8) (size 9 to 14) (size 15 to 20)
#    0.000    1.455    2.727    2.727    2.545    4.364 
#    0.000    0.909    0.000    0.000    0.000    0.000 
#    0.000    0.000    0.000    0.000    0.000    0.000 
#
# Total GULP energy -272589.707131 kJ/mol
# GULP energy per Si atom -12390.441233 kJ/mol
# Density = 2.337685 g / cm^3
# Si number density = 23.430181 Si / 1000 Ang^3
#
#
#
# Elastic Constant Matrix: (Units=GPa)
#
#
# Indices 1 2 3 4 5 6 
#
# 1 78.1605 15.3263 16.0245 0.0000 1.0657 0.0000
# 2 15.3263 135.7980 23.9815 0.0000 3.4746 0.0000
# 3 16.0245 23.9815 87.9775 0.0000 -9.3423 0.0000
# 4 0.0000 0.0000 0.0000 42.0440 0.0000 8.8878
# 5 1.0657 3.4746 -9.3423 0.0000 32.2425 0.0000
# 6 0.0000 0.0000 0.0000 8.8878 0.0000 23.3056
#
#
#
# Elastic Compliance Matrix: (Units=1/GPa)
#
#
# Indices 1 2 3 4 5 6 
#
# 1 0.013486 -0.001098 -0.002262 0.000000 -0.000983 0.000000
# 2 -0.001098 0.007896 -0.002104 0.000000 -0.001424 0.000000
# 3 -0.002262 -0.002104 0.012777 0.000000 0.004004 0.000000
# 4 0.000000 0.000000 0.000000 0.025870 0.000000 -0.009866
# 5 -0.000983 -0.001424 0.004004 0.000000 0.032361 0.000000
# 6 0.000000 0.000000 0.000000 -0.009866 0.000000 0.046670
#
#
# Mechanical properties :
#
#
# Convention : Reuss Voigt Hill
#
# Bulk Modulus (GPa) = 43.04103 45.84450 44.44277
# Shear Modulus (GPa) = 31.69955 35.95867 33.82911
#
# Velocity S-wave (km/s) = 3.68222 3.92179 3.80389
# Velocity P-wave (km/s) = 6.04054 6.33374 6.18887
#
# Compressibility (1/GPa) = 0.02323364
#
# Stress axis : x y z
#
# Youngs Moduli (GPa) = 74.14831 126.65164 78.26540
#
# Poissons Ratio (x) = 0.13901 0.17701
# Poissons Ratio (y) = 0.08138 0.16464
# Poissons Ratio (z) = 0.16770 0.26642
#
# Static dielectric constant tensor:
#      x y z
#    x 3.978920 0.000000 -0.078030 
#    y 0.000000 5.497000 0.000000 
#    z -0.078030 0.000000 4.067210 
# 
# 
# High freq. dielectric constant tensor:
#      x y z
#    x 1.894950 0.000000 -0.015590 
#    y 0.000000 1.963360 0.000000 
#    z -0.015590 0.000000 1.914240 
# 
# From -- ./inp_files/25709.got.cif
#   From: 2010.06.25/outbox.cif.g09.slc.cpg/sg15_13_cif.got.tgz:25709.got - 2010.06.28 07:06:18.
