data_PCOD8131604
_publ_section_title
;
Structure prediction by ZEFSAII (Michael W. Deem and Ramdas Pophale) SiO2 
 PCOD8131604
Probable space group: C 2/C
;
_chemical_formula_sum "Si O2"
_cell_formula_units_Z 64
_cell_length_a 14.031560
_cell_length_b 15.858540
_cell_length_c 27.144592
_cell_angle_alpha 90.000000
_cell_angle_beta 35.180825
_cell_angle_gamma 90.000000
_cell_volume 3480.123747
_symmetry_space_group_name_H-M "C 2/C"
_symmetry_group_IT_number 15
_symmetry_cell_setting 'monoclinic'
loop_
_space_group_symop_operation_xyz
x,y,z
-x,y,1/2-z
-x,-y,-z
x,-y,1/2+z
1/2+x,1/2+y,z
1/2-x,1/2+y,1/2-z
1/2-x,1/2-y,-z
1/2+x,1/2-y,1/2+z
loop_
_atom_site_type_symbol
_atom_site_label
_atom_site_fract_x
_atom_site_fract_y
_atom_site_fract_z
Si Si1 0.809155 0.037080 0.904084
Si Si2 0.525902 0.050116 0.097468
Si Si3 0.542802 0.941534 0.286362
Si Si4 0.510591 0.750431 0.188042
Si Si5 0.646363 0.901853 0.379741
Si Si6 0.858070 0.886453 0.199162
Si Si7 0.309587 0.148603 0.064898
Si Si8 0.345920 0.211559 0.160618
O O1 0.760644 0.099110 0.879861
O O2 0.997010 0.053905 0.841272
O O3 0.776427 0.943268 0.897579
O O4 0.700484 0.060579 0.997200
O O5 0.451192 0.140634 0.143663
O O6 0.555945 0.002906 0.135904
O O7 0.400357 0.998421 0.115027
O O8 0.500000 0.971853 0.250000
O O9 0.472513 0.849354 0.327784
O O10 0.741466 0.942061 0.211971
O O11 0.500000 0.729470 0.250000
O O12 0.673051 0.707588 0.096020
O O13 0.340151 0.712510 0.238543
O O14 0.744619 0.857571 0.293723
O O15 0.476024 0.851602 0.462114
O O16 0.922327 0.804106 0.141843
O O17 0.353915 0.188371 0.099303
#
# Coordination Sequence:
#
# PCOD8131604 Si02
#       8
#     8   8   8   8   8   8   8   8
#     4  11  20  35  56  92 112 149 187 236 295 338
#     4  10  19  34  60  78 114 149 193 228 285 344
#     4   9  19  39  55  75 111 158 186 234 288 332
#     4   8  17  29  55  81 102 139 189 224 273 328
#     4  10  19  36  54  87 121 150 172 241 298 337
#     4  10  23  34  58  83 118 147 193 233 289 344
#     4  10  18  33  62  85 112 144 189 234 284 338
#     4  10  18  35  52  85 111 148 185 226 277 344
#
# _framework density 18.390149999999998
#
# number of rings (size 3 to 8) (size 9 to 14) (size 15 to 20)
#    0.000    2.250    2.500    1.875    3.500    1.500 
#    0.000   11.875    0.000    0.000    0.000    0.000 
#    0.000    0.000    0.000    0.000    0.000    0.000 
#
# Total GULP energy -396570.832858 kJ/mol
# GULP energy per Si atom -12392.838527 kJ/mol
# Density = 1.834829 g / cm^3
# Si number density = 18.390150 Si / 1000 Ang^3
#
#
#
# Elastic Constant Matrix: (Units=GPa)
#
#
# Indices 1 2 3 4 5 6 
#
# 1 108.1779 22.1964 50.8572 -0.0002 1.7163 0.0006
# 2 22.1964 44.5059 31.6439 0.0008 9.5560 0.0008
# 3 50.8572 31.6439 85.1669 0.0028 3.7472 0.0026
# 4 -0.0002 0.0008 0.0028 25.9015 0.0000 1.5155
# 5 1.7163 9.5560 3.7472 0.0000 26.0612 -0.0004
# 6 0.0006 0.0008 0.0026 1.5155 -0.0004 28.5588
#
#
#
# Elastic Compliance Matrix: (Units=1/GPa)
#
#
# Indices 1 2 3 4 5 6 
#
# 1 0.012920 -0.001483 -0.007196 0.000001 0.000728 0.000000
# 2 -0.001483 0.033310 -0.011027 0.000000 -0.010531 0.000000
# 3 -0.007196 -0.011027 0.020064 -0.000002 0.001632 -0.000001
# 4 0.000001 0.000000 -0.000002 0.038728 0.000000 -0.002055
# 5 0.000728 -0.010531 0.001632 0.000000 0.041950 0.000001
# 6 0.000000 0.000000 -0.000001 -0.002055 0.000001 0.035124
#
#
# Mechanical properties :
#
#
# Convention : Reuss Voigt Hill
#
# Bulk Modulus (GPa) = 37.20115 49.69398 43.44757
# Shear Modulus (GPa) = 21.69475 24.98118 23.33796
#
# Velocity S-wave (km/s) = 3.43839 3.68965 3.56623
# Velocity P-wave (km/s) = 6.00301 6.72548 6.37449
#
# Compressibility (1/GPa) = 0.02688089
#
# Stress axis : x y z
#
# Youngs Moduli (GPa) = 77.40034 30.02069 49.84040
#
# Poissons Ratio (x) = 0.04453 0.35865
# Poissons Ratio (y) = 0.11482 0.54961
# Poissons Ratio (z) = 0.55696 0.33105
#
# Static dielectric constant tensor:
#      x y z
#    x 3.446810 0.000000 -0.108770 
#    y 0.000000 3.270630 0.000000 
#    z -0.108770 0.000000 3.383240 
# 
# 
# High freq. dielectric constant tensor:
#      x y z
#    x 1.706380 0.000000 -0.006220 
#    y 0.000000 1.693940 0.000000 
#    z -0.006220 0.000000 1.703190 
# 
# From -- ./inp_files/314265.got.cif
#   From: 2010.06.25/outbox.cif.g09.slc.cpg/sg15_158_cif.got.tgz:314265.got - 2010.06.28 07:06:18.
