data_PCOD8131165
_publ_section_title
;
Structure prediction by ZEFSAII (Michael W. Deem and Ramdas Pophale) SiO2 
 PCOD8131165
Probable space group: C 2/C
;
_chemical_formula_sum "Si O2"
_cell_formula_units_Z 48
_cell_length_a 8.653231
_cell_length_b 25.844199
_cell_length_c 10.729743
_cell_angle_alpha 90.000000
_cell_angle_beta 61.009429
_cell_angle_gamma 90.000000
_cell_volume 2098.889435
_symmetry_space_group_name_H-M "C 2/C"
_symmetry_group_IT_number 15
_symmetry_cell_setting 'monoclinic'
loop_
_space_group_symop_operation_xyz
x,y,z
-x,y,1/2-z
-x,-y,-z
x,-y,1/2+z
1/2+x,1/2+y,z
1/2-x,1/2+y,1/2-z
1/2-x,1/2-y,-z
1/2+x,1/2-y,1/2+z
loop_
_atom_site_type_symbol
_atom_site_label
_atom_site_fract_x
_atom_site_fract_y
_atom_site_fract_z
Si Si1 0.682818 0.522042 0.291119
Si Si2 0.192687 0.966758 0.057365
Si Si3 0.564009 0.302563 0.529506
Si Si4 0.500000 0.811065 0.750000
Si Si5 0.781685 0.730983 0.733410
Si Si6 0.000000 0.884045 0.750000
Si Si7 0.773773 0.848016 0.461140
O O1 0.793943 0.495990 0.132973
O O2 0.504736 0.488840 0.372700
O O3 0.783009 0.522145 0.385940
O O4 0.640099 0.581560 0.272091
O O5 0.181229 0.906490 0.091131
O O6 0.747096 0.285872 0.390964
O O7 0.476865 0.254473 0.638166
O O8 0.606276 0.348545 0.610108
O O9 0.432436 0.320719 0.471895
O O10 0.643563 0.776327 0.761715
O O11 0.594159 0.847288 0.611555
O O12 0.753636 0.681951 0.656460
#
# Coordination Sequence:
#
# PCOD8131165 Si02
#       7
#     8   8   8   4   8   4   8
#     4   9  19  32  49  82 110 125 177 231 270 319
#     4   9  18  30  51  75 106 134 164 223 280 314
#     4  11  21  33  53  75 113 142 180 212 272 311
#     4  10  18  32  47  78 106 129 180 218 266 306
#     4  11  20  34  52  80 108 139 179 229 253 319
#     4  10  20  34  51  76 108 149 172 220 272 322
#     4  11  19  31  55  79 100 143 172 223 271 318
#
# _framework density 22.869236999999998
#
# number of rings (size 3 to 8) (size 9 to 14) (size 15 to 20)
#    0.000    2.000    5.000    1.000    4.667    0.667 
#    0.000    0.000    0.000    1.000    0.000    0.000 
#    0.000    0.000    0.000    0.000    0.000    0.000 
#
# Total GULP energy -297439.241231 kJ/mol
# GULP energy per Si atom -12393.301718 kJ/mol
# Density = 2.281719 g / cm^3
# Si number density = 22.869237 Si / 1000 Ang^3
#
#
#
# Elastic Constant Matrix: (Units=GPa)
#
#
# Indices 1 2 3 4 5 6 
#
# 1 28.8416 21.0738 34.9571 0.0000 12.6791 0.0000
# 2 21.0738 152.1656 81.2069 0.0000 13.2932 0.0000
# 3 34.9571 81.2069 198.6397 0.0000 30.2018 0.0000
# 4 0.0000 0.0000 0.0000 29.7819 0.0000 28.3041
# 5 12.6791 13.2932 30.2018 0.0000 38.5995 0.0000
# 6 0.0000 0.0000 0.0000 28.3041 0.0000 -16.4217
#
#
#
# Elastic Compliance Matrix: (Units=1/GPa)
#
#
# Indices 1 2 3 4 5 6 
#
# 1 0.048236 -0.002668 -0.005821 0.000000 -0.010371 0.000000
# 2 -0.002668 0.008555 -0.003080 0.000000 0.000340 0.000000
# 3 -0.005821 -0.003080 0.007793 0.000000 -0.003125 0.000000
# 4 0.000000 0.000000 0.000000 0.012728 0.000000 0.021938
# 5 -0.010371 0.000340 -0.003125 0.000000 0.031642 0.000000
# 6 0.000000 0.000000 0.000000 0.021938 0.000000 -0.023083
#
#
# Mechanical properties :
#
#
# Convention : Reuss Voigt Hill
#
# Bulk Modulus (GPa) = 24.12726 72.68029 48.40378
# Shear Modulus (GPa) = 40.70892 26.55255 33.63074
#
# Velocity S-wave (km/s) = 4.22367 3.41113 3.83896
# Velocity P-wave (km/s) = 5.86164 6.88217 6.39230
#
# Compressibility (1/GPa) = 0.04144689
#
# Stress axis : x y z
#
# Youngs Moduli (GPa) = 20.73132 116.88957 128.32411
#
# Poissons Ratio (x) = 0.31182 0.74702
# Poissons Ratio (y) = 0.05530 0.39519
# Poissons Ratio (z) = 0.12068 0.35998
#
# Static dielectric constant tensor:
#      x y z
#    x 3.815310 0.000000 0.586220 
#    y 0.000000 4.121220 0.000000 
#    z 0.586220 0.000000 5.497060 
# 
# 
# High freq. dielectric constant tensor:
#      x y z
#    x 1.854830 0.000000 0.032060 
#    y 0.000000 1.904440 0.000000 
#    z 0.032060 0.000000 1.926490 
# 
# From -- ./inp_files/91705.got.cif
#   From: 2010.06.25/outbox.cif.g09.slc.cpg/sg15_46_cif.got.tgz:91705.got - 2010.06.28 07:06:18.
