data_PCOD8131255
_publ_section_title
;
Structure prediction by ZEFSAII (Michael W. Deem and Ramdas Pophale) SiO2 
 PCOD8131255
Probable space group: C 2/C
;
_chemical_formula_sum "Si O2"
_cell_formula_units_Z 40
_cell_length_a 23.346518
_cell_length_b 19.187374
_cell_length_c 5.131737
_cell_angle_alpha 90.000000
_cell_angle_beta 74.255564
_cell_angle_gamma 90.000000
_cell_volume 2212.557066
_symmetry_space_group_name_H-M "C 2/C"
_symmetry_group_IT_number 15
_symmetry_cell_setting 'monoclinic'
loop_
_space_group_symop_operation_xyz
x,y,z
-x,y,1/2-z
-x,-y,-z
x,-y,1/2+z
1/2+x,1/2+y,z
1/2-x,1/2+y,1/2-z
1/2-x,1/2-y,-z
1/2+x,1/2-y,1/2+z
loop_
_atom_site_type_symbol
_atom_site_label
_atom_site_fract_x
_atom_site_fract_y
_atom_site_fract_z
Si Si1 0.835899 0.798548 0.806619
Si Si2 0.765678 0.686844 0.669697
Si Si3 0.365631 0.421598 0.453428
Si Si4 0.238497 0.461427 0.529175
Si Si5 0.069811 0.110657 0.136039
O O1 0.822804 0.717392 0.762582
O O2 0.834301 0.845308 0.542030
O O3 0.900662 0.812129 0.859828
O O4 0.786513 0.831154 0.062663
O O5 0.750000 0.750000 0.500000
O O6 0.784140 0.617146 0.494751
O O7 0.310605 0.470959 0.445290
O O8 0.401815 0.441309 0.676802
O O9 0.414070 0.419676 0.164411
O O10 0.212984 0.512244 0.335968
O O11 0.000000 0.117408 0.250000
#
# Coordination Sequence:
#
# PCOD8131255 Si02
#       5
#     8   8   8   8   8
#     4   9  19  29  56  77 100 135 172 217 267 306
#     4  11  18  34  54  77 104 134 182 210 270 325
#     4  10  19  36  48  76  96 145 169 213 266 300
#     4  12  23  35  52  77 108 141 177 220 266 311
#     4  10  18  32  54  78 101 132 179 226 264 290
#
# _framework density 18.07863
#
# number of rings (size 3 to 8) (size 9 to 14) (size 15 to 20)
#    1.200    0.400    4.000    3.000    2.800    0.000 
#    0.000    0.000    0.000   12.000    0.000    0.000 
#    0.000    1.600    0.000    0.200    0.000    0.000 
#
# Total GULP energy -247761.438000 kJ/mol
# GULP energy per Si atom -12388.071900 kJ/mol
# Density = 1.803748 g / cm^3
# Si number density = 18.078630 Si / 1000 Ang^3
#
#
#
# Elastic Constant Matrix: (Units=GPa)
#
#
# Indices 1 2 3 4 5 6 
#
# 1 31.1688 15.2590 4.9550 0.0000 4.3213 0.0000
# 2 15.2590 80.9965 12.7593 0.0000 10.8402 0.0000
# 3 4.9550 12.7593 110.8586 0.0000 15.9268 0.0000
# 4 0.0000 0.0000 0.0000 13.8955 0.0000 8.4825
# 5 4.3213 10.8402 15.9268 0.0000 25.7758 0.0000
# 6 0.0000 0.0000 0.0000 8.4825 0.0000 27.9324
#
#
#
# Elastic Compliance Matrix: (Units=1/GPa)
#
#
# Indices 1 2 3 4 5 6 
#
# 1 0.035630 -0.006231 -0.000432 0.000000 -0.003086 0.000000
# 2 -0.006231 0.014235 -0.000713 0.000000 -0.004501 0.000000
# 3 -0.000432 -0.000713 0.009952 0.000000 -0.005777 0.000000
# 4 0.000000 0.000000 0.000000 0.088342 0.000000 -0.026828
# 5 -0.003086 -0.004501 -0.005777 0.000000 0.044776 0.000000
# 6 0.000000 0.000000 0.000000 -0.026828 0.000000 0.043948
#
#
# Mechanical properties :
#
#
# Convention : Reuss Voigt Hill
#
# Bulk Modulus (GPa) = 22.19065 32.10783 27.14924
# Shear Modulus (GPa) = 18.75064 26.19080 22.47072
#
# Velocity S-wave (km/s) = 3.22401 3.81033 3.52937
# Velocity P-wave (km/s) = 5.11470 6.09564 5.62659
#
# Compressibility (1/GPa) = 0.04506403
#
# Stress axis : x y z
#
# Youngs Moduli (GPa) = 28.06586 70.24978 100.48394
#
# Poissons Ratio (x) = 0.43776 0.04341
# Poissons Ratio (y) = 0.17489 0.07166
# Poissons Ratio (z) = 0.01212 0.05010
#
# Static dielectric constant tensor:
#      x y z
#    x 3.138640 0.000000 0.357570 
#    y 0.000000 3.305370 0.000000 
#    z 0.357570 0.000000 3.498110 
# 
# 
# High freq. dielectric constant tensor:
#      x y z
#    x 1.651170 0.000000 0.034380 
#    y 0.000000 1.683900 0.000000 
#    z 0.034380 0.000000 1.718590 
# 
# From -- ./inp_files/15201.got.cif
#   From: 2010.06.25/outbox.cif.g09.slc.cpg/sg15_8_cif.got.tgz:15201.got - 2010.06.28 07:06:18.
