data_PCOD8131284
_publ_section_title
;
Structure prediction by ZEFSAII (Michael W. Deem and Ramdas Pophale) SiO2 
 PCOD8131284
Probable space group: C 2/C
;
_chemical_formula_sum "Si O2"
_cell_formula_units_Z 56
_cell_length_a 15.674707
_cell_length_b 24.143816
_cell_length_c 8.957223
_cell_angle_alpha 90.000000
_cell_angle_beta 68.265204
_cell_angle_gamma 90.000000
_cell_volume 3148.845588
_symmetry_space_group_name_H-M "C 2/C"
_symmetry_group_IT_number 15
_symmetry_cell_setting 'monoclinic'
loop_
_space_group_symop_operation_xyz
x,y,z
-x,y,1/2-z
-x,-y,-z
x,-y,1/2+z
1/2+x,1/2+y,z
1/2-x,1/2+y,1/2-z
1/2-x,1/2-y,-z
1/2+x,1/2-y,1/2+z
loop_
_atom_site_type_symbol
_atom_site_label
_atom_site_fract_x
_atom_site_fract_y
_atom_site_fract_z
Si Si1 0.902219 0.543166 0.389923
Si Si2 0.331437 0.245492 0.199469
Si Si3 0.596416 0.067113 0.760817
Si Si4 0.719830 0.144352 0.076893
Si Si5 0.666627 0.820761 0.293210
Si Si6 0.087104 0.826719 0.113180
Si Si7 0.506256 0.740867 0.404144
O O1 0.914458 0.547293 0.560099
O O2 0.863601 0.482917 0.365834
O O3 0.830622 0.586452 0.365111
O O4 0.000000 0.553757 0.250000
O O5 0.292555 0.185648 0.274575
O O6 0.250046 0.282656 0.180028
O O7 0.378180 0.275626 0.309551
O O8 0.407580 0.237031 0.023377
O O9 0.500000 0.084990 0.750000
O O10 0.666769 0.119131 0.712037
O O11 0.675675 0.174638 0.964796
O O12 0.828188 0.132026 0.974476
O O13 0.567630 0.794593 0.332303
O O14 0.000000 0.857002 0.250000
O O15 0.053443 0.802894 0.979820
O O16 0.500000 0.709327 0.250000
#
# Coordination Sequence:
#
# PCOD8131284 Si02
#       7
#     8   8   8   8   8   8   8
#     4  10  21  33  53  76 104 137 174 215 254 303
#     4  10  19  33  54  72 100 136 179 213 251 311
#     4  10  20  36  51  73 105 139 178 209 255 306
#     4  10  18  32  55  78  96 130 186 212 253 305
#     4  10  19  34  52  74 103 136 174 218 252 308
#     4   9  17  33  53  70 101 133 166 213 253 305
#     4  11  21  31  44  74 108 137 163 203 264 306
#
# _framework density 17.784296000000001
#
# number of rings (size 3 to 8) (size 9 to 14) (size 15 to 20)
#    0.000    2.000    2.857    3.000    4.000    0.571 
#    2.571    0.000    0.000    0.000    0.000   17.000 
#    0.000    0.000    0.000    0.000    0.000    0.000 
#
# Total GULP energy -347040.779295 kJ/mol
# GULP energy per Si atom -12394.313546 kJ/mol
# Density = 1.774382 g / cm^3
# Si number density = 17.784296 Si / 1000 Ang^3
#
#
#
# Elastic Constant Matrix: (Units=GPa)
#
#
# Indices 1 2 3 4 5 6 
#
# 1 106.2303 63.3671 55.9907 0.0000 -18.0351 0.0000
# 2 63.3671 91.0866 33.1414 0.0000 -5.7951 0.0000
# 3 55.9907 33.1414 85.1946 0.0000 1.0925 0.0000
# 4 0.0000 0.0000 0.0000 13.5639 0.0000 2.4974
# 5 -18.0351 -5.7951 1.0925 0.0000 28.6876 0.0000
# 6 0.0000 0.0000 0.0000 2.4974 0.0000 32.1304
#
#
#
# Elastic Compliance Matrix: (Units=1/GPa)
#
#
# Indices 1 2 3 4 5 6 
#
# 1 0.025740 -0.012567 -0.012209 0.000000 0.014108 0.000000
# 2 -0.012567 0.019149 0.000862 0.000000 -0.004065 0.000000
# 3 -0.012209 0.000862 0.019532 0.000000 -0.008245 0.000000
# 4 0.000000 0.000000 0.000000 0.074796 0.000000 -0.005814
# 5 0.014108 -0.004065 -0.008245 0.000000 0.043220 0.000000
# 6 0.000000 0.000000 0.000000 -0.005814 0.000000 0.031575
#
#
# Mechanical properties :
#
#
# Convention : Reuss Voigt Hill
#
# Bulk Modulus (GPa) = 60.26450 65.27888 62.77169
# Shear Modulus (GPa) = 18.70069 23.54388 21.12229
#
# Velocity S-wave (km/s) = 3.24625 3.64243 3.45003
# Velocity P-wave (km/s) = 6.92898 7.38074 7.15842
#
# Compressibility (1/GPa) = 0.01659352
#
# Stress axis : x y z
#
# Youngs Moduli (GPa) = 38.85019 52.22251 51.19839
#
# Poissons Ratio (x) = 0.65628 0.62507
# Poissons Ratio (y) = 0.48823 -0.04415
# Poissons Ratio (z) = 0.47431 -0.04503
#
# Static dielectric constant tensor:
#      x y z
#    x 3.513220 0.000000 -0.042270 
#    y 0.000000 3.145840 0.000000 
#    z -0.042270 0.000000 3.356380 
# 
# 
# High freq. dielectric constant tensor:
#      x y z
#    x 1.692560 0.000000 0.006890 
#    y 0.000000 1.653000 0.000000 
#    z 0.006890 0.000000 1.686240 
# 
# From -- ./inp_files/42110.got.cif
#   From: 2010.06.25/outbox.cif.g09.slc.cpg/sg15_22_cif.got.tgz:42110.got - 2010.06.28 07:06:18.
