data_PCOD8131819
_publ_section_title
;
Structure prediction by ZEFSAII (Michael W. Deem and Ramdas Pophale) SiO2 
 PCOD8131819
Probable space group: C 2/C
;
_chemical_formula_sum "Si O2"
_cell_formula_units_Z 44
_cell_length_a 10.569382
_cell_length_b 20.057254
_cell_length_c 13.121605
_cell_angle_alpha 90.000000
_cell_angle_beta 125.323841
_cell_angle_gamma 90.000000
_cell_volume 2269.569062
_symmetry_space_group_name_H-M "C 2/C"
_symmetry_group_IT_number 15
_symmetry_cell_setting 'monoclinic'
loop_
_space_group_symop_operation_xyz
x,y,z
-x,y,1/2-z
-x,-y,-z
x,-y,1/2+z
1/2+x,1/2+y,z
1/2-x,1/2+y,1/2-z
1/2-x,1/2-y,-z
1/2+x,1/2-y,1/2+z
loop_
_atom_site_type_symbol
_atom_site_label
_atom_site_fract_x
_atom_site_fract_y
_atom_site_fract_z
Si Si1 0.944642 0.428414 0.008863
Si Si2 0.705248 0.175531 0.573545
Si Si3 0.215812 0.799636 0.173793
Si Si4 0.324779 0.345467 0.710522
Si Si5 0.000000 0.388581 0.250000
Si Si6 0.390027 0.677716 0.469840
O O1 0.779117 0.405578 0.883719
O O2 0.933316 0.432809 0.126466
O O3 0.000000 0.500000 0.000000
O O4 0.075088 0.377397 0.036919
O O5 0.817520 0.195081 0.720366
O O6 0.617936 0.243917 0.506508
O O7 0.802032 0.143742 0.524143
O O8 0.247539 0.725313 0.144954
O O9 0.368021 0.841062 0.228109
O O10 0.074063 0.835819 0.050742
O O11 0.500000 0.351204 0.750000
O O12 0.320569 0.348929 0.831791
#
# Coordination Sequence:
#
# PCOD8131819 Si02
#       6
#     8   8   8   8   4   8
#     4  11  24  42  59  84 121 161 205 233 286 363
#     4   9  20  34  54  86 117 158 192 236 300 348
#     4  10  18  34  60  88 121 147 190 252 305 347
#     4  11  22  35  59  91 118 152 198 248 297 349
#     4  10  22  38  62  86 114 158 192 248 302 334
#     4  10  19  33  57  88 121 146 189 252 301 345
#
# _framework density 19.386939999999999
#
# number of rings (size 3 to 8) (size 9 to 14) (size 15 to 20)
#    0.000    1.818    2.727    1.636    0.000    3.636 
#    0.000    3.636    0.000    7.636    0.000    0.000 
#    0.000    0.000    0.000    0.000    0.000    0.000 
#
# Total GULP energy -272641.813379 kJ/mol
# GULP energy per Si atom -12392.809699 kJ/mol
# Density = 1.934281 g / cm^3
# Si number density = 19.386940 Si / 1000 Ang^3
#
#
#
# Elastic Constant Matrix: (Units=GPa)
#
#
# Indices 1 2 3 4 5 6 
#
# 1 101.0436 30.3434 57.6397 0.0000 -3.1054 0.0000
# 2 30.3434 63.3974 38.8863 0.0000 -4.3174 0.0000
# 3 57.6397 38.8863 129.4991 0.0000 -2.9059 0.0000
# 4 0.0000 0.0000 0.0000 12.4308 0.0000 -0.7080
# 5 -3.1054 -4.3174 -2.9059 0.0000 37.9383 0.0000
# 6 0.0000 0.0000 0.0000 -0.7080 0.0000 18.0294
#
#
#
# Elastic Compliance Matrix: (Units=1/GPa)
#
#
# Indices 1 2 3 4 5 6 
#
# 1 0.013874 -0.003473 -0.005124 0.000000 0.000348 0.000000
# 2 -0.003473 0.020322 -0.004519 0.000000 0.001682 0.000000
# 3 -0.005124 -0.004519 0.011358 0.000000 -0.000064 0.000000
# 4 0.000000 0.000000 0.000000 0.080626 0.000000 0.003166
# 5 0.000348 0.001682 -0.000064 0.000000 0.026574 0.000000
# 6 0.000000 0.000000 0.000000 0.003166 0.000000 0.055589
#
#
# Mechanical properties :
#
#
# Convention : Reuss Voigt Hill
#
# Bulk Modulus (GPa) = 51.75615 60.85321 56.30468
# Shear Modulus (GPa) = 20.74551 24.81774 22.78162
#
# Velocity S-wave (km/s) = 3.27475 3.58177 3.43169
# Velocity P-wave (km/s) = 6.40726 6.96867 6.69385
#
# Compressibility (1/GPa) = 0.01932138
#
# Stress axis : x y z
#
# Youngs Moduli (GPa) = 72.07943 49.20742 88.04140
#
# Poissons Ratio (x) = 0.17092 0.45115
# Poissons Ratio (y) = 0.25036 0.39783
# Poissons Ratio (z) = 0.36935 0.22235
#
# Static dielectric constant tensor:
#      x y z
#    x 3.668670 0.000000 -0.229520 
#    y 0.000000 3.372270 0.000000 
#    z -0.229520 0.000000 3.982420 
# 
# 
# High freq. dielectric constant tensor:
#      x y z
#    x 1.767750 0.000000 -0.005290 
#    y 0.000000 1.706970 0.000000 
#    z -0.005290 0.000000 1.769740 
# 
# From -- ./inp_files/89226.got.cif
#   From: 2010.06.25/outbox.cif.g09.slc.cpg/sg15_45_cif.got.tgz:89226.got - 2010.06.28 07:06:18.
