data_PCOD8131408
_publ_section_title
;
Structure prediction by ZEFSAII (Michael W. Deem and Ramdas Pophale) SiO2 
 PCOD8131408
Probable space group: C 2/C
;
_chemical_formula_sum "Si O2"
_cell_formula_units_Z 52
_cell_length_a 24.860384
_cell_length_b 27.413850
_cell_length_c 5.157395
_cell_angle_alpha 90.000000
_cell_angle_beta 75.485561
_cell_angle_gamma 90.000000
_cell_volume 3402.683315
_symmetry_space_group_name_H-M "C 2/C"
_symmetry_group_IT_number 15
_symmetry_cell_setting 'monoclinic'
loop_
_space_group_symop_operation_xyz
x,y,z
-x,y,1/2-z
-x,-y,-z
x,-y,1/2+z
1/2+x,1/2+y,z
1/2-x,1/2+y,1/2-z
1/2-x,1/2-y,-z
1/2+x,1/2-y,1/2+z
loop_
_atom_site_type_symbol
_atom_site_label
_atom_site_fract_x
_atom_site_fract_y
_atom_site_fract_z
Si Si1 0.789357 0.371289 0.941812
Si Si2 0.028535 0.435345 0.961626
Si Si3 0.385343 0.208055 0.346466
Si Si4 0.244350 0.170938 0.999100
Si Si5 0.846597 0.531533 0.224305
Si Si6 0.500000 0.841482 0.750000
Si Si7 0.840247 0.750021 0.898086
O O1 0.845146 0.338895 0.885902
O O2 0.745753 0.354811 0.775858
O O3 0.803496 0.426768 0.854918
O O4 0.757729 0.367719 0.255106
O O5 0.093308 0.444061 0.855218
O O6 0.014142 0.377209 0.975914
O O7 0.000000 0.461853 0.750000
O O8 0.000000 0.458076 0.250000
O O9 0.446742 0.192205 0.356440
O O10 0.368840 0.247396 0.583839
O O11 0.383477 0.235938 0.073372
O O12 0.290098 0.212515 0.952878
O O13 0.184040 0.195586 0.026953
O O14 0.837976 0.488909 0.445283
#
# Coordination Sequence:
#
# PCOD8131408 Si02
#       7
#     8   8   8   8   8   4   8
#     4  10  18  33  47  64  80 117 135 188 224 286
#     4  10  22  35  47  58  79 109 162 188 236 269
#     4  10  19  29  47  60  92 107 151 176 227 257
#     4   9  17  29  50  63  88 100 139 166 240 271
#     4  12  24  35  47  64  86 110 151 201 240 271
#     4  10  22  32  48  64  84 126 154 190 218 292
#     4   9  18  29  43  72  82 108 127 189 217 271
#
# _framework density 15.282056000000001
#
# number of rings (size 3 to 8) (size 9 to 14) (size 15 to 20)
#    0.462    1.538    1.538    2.769    2.154    6.769 
#    0.000    0.000    0.000    0.000    0.000    0.000 
#    0.000    0.000    0.000    0.000    0.000    0.000 
#
# Total GULP energy -322205.539042 kJ/mol
# GULP energy per Si atom -12392.520732 kJ/mol
# Density = 1.524727 g / cm^3
# Si number density = 15.282056 Si / 1000 Ang^3
#
#
#
# Elastic Constant Matrix: (Units=GPa)
#
#
# Indices 1 2 3 4 5 6 
#
# 1 43.3577 35.0920 16.6430 0.0000 -0.5761 0.0000
# 2 35.0920 56.6586 23.7714 0.0000 -7.6030 0.0000
# 3 16.6430 23.7714 96.1850 0.0000 13.4693 0.0000
# 4 0.0000 0.0000 0.0000 12.3773 0.0000 -1.3390
# 5 -0.5761 -7.6030 13.4693 0.0000 15.1825 0.0000
# 6 0.0000 0.0000 0.0000 -1.3390 0.0000 28.8513
#
#
#
# Elastic Compliance Matrix: (Units=1/GPa)
#
#
# Indices 1 2 3 4 5 6 
#
# 1 0.049292 -0.033717 0.002177 0.000000 -0.016945 0.000000
# 2 -0.033717 0.046989 -0.010157 0.000000 0.031262 0.000000
# 3 0.002177 -0.010157 0.015108 0.000000 -0.018406 0.000000
# 4 0.000000 0.000000 0.000000 0.081201 0.000000 0.003768
# 5 -0.016945 0.031262 -0.018406 0.000000 0.097207 0.000000
# 6 0.000000 0.000000 0.000000 0.003768 0.000000 0.034835
#
#
# Mechanical properties :
#
#
# Convention : Reuss Voigt Hill
#
# Bulk Modulus (GPa) = 35.72037 38.57935 37.14986
# Shear Modulus (GPa) = 11.98017 19.32854 15.65436
#
# Velocity S-wave (km/s) = 2.80293 3.56024 3.20404
# Velocity P-wave (km/s) = 5.82237 6.49616 6.16847
#
# Compressibility (1/GPa) = 0.02799523
#
# Stress axis : x y z
#
# Youngs Moduli (GPa) = 20.28716 21.28180 66.19154
#
# Poissons Ratio (x) = 0.71755 -0.14407
# Poissons Ratio (y) = 0.68402 0.67228
# Poissons Ratio (z) = -0.04416 0.21615
#
# Static dielectric constant tensor:
#      x y z
#    x 2.747690 0.000000 0.219540 
#    y 0.000000 2.785770 0.000000 
#    z 0.219540 0.000000 3.290940 
# 
# 
# High freq. dielectric constant tensor:
#      x y z
#    x 1.547550 0.000000 0.020590 
#    y 0.000000 1.558390 0.000000 
#    z 0.020590 0.000000 1.599800 
# 
# From -- ./inp_files/16015.got.cif
#   From: 2010.06.25/outbox.cif.g09.slc.cpg/sg15_9_cif.got.tgz:16015.got - 2010.06.28 07:06:18.
