data_PCOD8131131
_publ_section_title
;
Structure prediction by ZEFSAII (Michael W. Deem and Ramdas Pophale) SiO2 
 PCOD8131131
Probable space group: C 2/C
;
_chemical_formula_sum "Si O2"
_cell_formula_units_Z 60
_cell_length_a 16.955169
_cell_length_b 9.669151
_cell_length_c 24.844297
_cell_angle_alpha 90.000000
_cell_angle_beta 133.035933
_cell_angle_gamma 90.000000
_cell_volume 2977.079932
_symmetry_space_group_name_H-M "C 2/C"
_symmetry_group_IT_number 15
_symmetry_cell_setting 'monoclinic'
loop_
_space_group_symop_operation_xyz
x,y,z
-x,y,1/2-z
-x,-y,-z
x,-y,1/2+z
1/2+x,1/2+y,z
1/2-x,1/2+y,1/2-z
1/2-x,1/2-y,-z
1/2+x,1/2-y,1/2+z
loop_
_atom_site_type_symbol
_atom_site_label
_atom_site_fract_x
_atom_site_fract_y
_atom_site_fract_z
Si Si1 0.575272 0.105014 0.094566
Si Si2 0.000000 0.500000 0.250000
Si Si3 0.540315 0.382031 0.939988
Si Si4 0.016220 0.611151 0.871556
Si Si5 0.160338 0.617969 0.560012
Si Si6 0.745026 0.000000 0.495026
Si Si7 0.273108 0.888849 0.628444
Si Si8 0.386140 0.394986 0.405434
O O1 0.635855 0.250000 0.135855
O O2 0.550638 0.018971 0.136705
O O3 0.656666 0.017945 0.095316
O O4 0.462703 0.148775 0.013850
O O5 0.997830 0.394110 0.299174
O O6 0.100518 0.605890 0.299174
O O7 0.478149 0.253077 0.882690
O O8 0.466035 0.517945 0.904684
O O9 0.646646 0.409589 0.953988
O O10 0.564996 0.351225 0.013850
O O11 0.142385 0.600921 0.944766
O O12 0.238671 0.590412 0.546012
O O13 0.212768 0.746923 0.617310
O O14 0.747146 0.100921 0.444765
O O15 0.222771 0.018971 0.636705
#
# Coordination Sequence:
#
# PCOD8131131 Si02
#       8
#     8   4   8   8   8   8   8   8
#     4  10  19  32  54  86 116 140 175 231 292 343
#     4  10  24  40  56  74 108 152 200 232 264 326
#     4  10  18  31  55  86 116 143 178 229 291 343
#     4  10  20  36  55  77 110 153 189 227 274 331
#     4  10  18  31  55  86 116 143 178 229 291 343
#     4   9  18  29  54  87 112 135 174 232 294 337
#     4  10  20  36  55  77 110 153 189 227 274 331
#     4  10  19  32  54  86 116 140 175 231 292 343
#
# _framework density 20.153976
#
# number of rings (size 3 to 8) (size 9 to 14) (size 15 to 20)
#    0.000    2.133    0.000    6.400    0.000    4.267 
#    0.000    2.667    0.000    5.600    0.000    0.000 
#    0.000    0.000    0.000    0.000    0.000    0.000 
#
# Total GULP energy -371916.843169 kJ/mol
# GULP energy per Si atom -12397.228106 kJ/mol
# Density = 2.010810 g / cm^3
# Si number density = 20.153976 Si / 1000 Ang^3
#
#
#
# Elastic Constant Matrix: (Units=GPa)
#
#
# Indices 1 2 3 4 5 6 
#
# 1 123.6784 70.1576 26.0951 0.0000 -1.1007 0.0000
# 2 70.1576 167.5746 40.0634 0.0000 -0.4855 0.0000
# 3 26.0951 40.0634 59.8462 0.0000 0.0707 0.0000
# 4 0.0000 0.0000 0.0000 16.3793 0.0000 -0.2231
# 5 -1.1007 -0.4855 0.0707 0.0000 14.7045 0.0000
# 6 0.0000 0.0000 0.0000 -0.2231 0.0000 30.2061
#
#
#
# Elastic Compliance Matrix: (Units=1/GPa)
#
#
# Indices 1 2 3 4 5 6 
#
# 1 0.010809 -0.004043 -0.002007 0.000000 0.000685 0.000000
# 2 -0.004043 0.008618 -0.004006 0.000000 0.000001 0.000000
# 3 -0.002007 -0.004006 0.020267 0.000000 -0.000380 0.000000
# 4 0.000000 0.000000 0.000000 0.061059 0.000000 0.000451
# 5 0.000685 0.000001 -0.000380 0.000000 0.068060 0.000000
# 6 0.000000 0.000000 0.000000 0.000451 0.000000 0.033109
#
#
# Mechanical properties :
#
#
# Convention : Reuss Voigt Hill
#
# Bulk Modulus (GPa) = 51.07103 69.30350 60.18727
# Shear Modulus (GPa) = 21.87596 26.57685 24.22640
#
# Velocity S-wave (km/s) = 3.29818 3.63532 3.47084
# Velocity P-wave (km/s) = 6.31660 7.21681 6.78166
#
# Compressibility (1/GPa) = 0.01958057
#
# Stress axis : x y z
#
# Youngs Moduli (GPa) = 92.51805 116.03437 49.34127
#
# Poissons Ratio (x) = 0.46918 0.09903
# Poissons Ratio (y) = 0.37409 0.19767
# Poissons Ratio (z) = 0.18568 0.46486
#
# Static dielectric constant tensor:
#      x y z
#    x 3.871240 0.000000 -0.012700 
#    y 0.000000 3.685710 0.000000 
#    z -0.012700 0.000000 3.084370 
# 
# 
# High freq. dielectric constant tensor:
#      x y z
#    x 1.807230 0.000000 -0.001430 
#    y 0.000000 1.790960 0.000000 
#    z -0.001430 0.000000 1.718550 
# 
# From -- ./inp_files/298399.got.cif
#   From: 2010.06.25/outbox.cif.g09.slc.cpg/sg15_150_cif.got.tgz:298399.got - 2010.06.28 07:06:18.
