data_PCOD8131053
_publ_section_title
;
Structure prediction by ZEFSAII (Michael W. Deem and Ramdas Pophale) SiO2 
 PCOD8131053
Probable space group: C 2/C
;
_chemical_formula_sum "Si O2"
_cell_formula_units_Z 40
_cell_length_a 20.692941
_cell_length_b 9.430287
_cell_length_c 19.430596
_cell_angle_alpha 90.000000
_cell_angle_beta 36.716753
_cell_angle_gamma 90.000000
_cell_volume 2266.900339
_symmetry_space_group_name_H-M "C 2/C"
_symmetry_group_IT_number 15
_symmetry_cell_setting 'monoclinic'
loop_
_space_group_symop_operation_xyz
x,y,z
-x,y,1/2-z
-x,-y,-z
x,-y,1/2+z
1/2+x,1/2+y,z
1/2-x,1/2+y,1/2-z
1/2-x,1/2-y,-z
1/2+x,1/2-y,1/2+z
loop_
_atom_site_type_symbol
_atom_site_label
_atom_site_fract_x
_atom_site_fract_y
_atom_site_fract_z
Si Si1 0.099079 0.391467 0.986778
Si Si2 0.409653 0.196294 0.552549
Si Si3 0.491593 0.286739 0.677492
Si Si4 0.273704 0.202927 0.798087
Si Si5 0.077589 0.000753 0.498890
O O1 0.083381 0.328358 0.076994
O O2 0.015263 0.300588 0.011109
O O3 0.080891 0.558663 0.003806
O O4 0.216440 0.355648 0.856438
O O5 0.305523 0.184707 0.691111
O O6 0.399339 0.330959 0.510427
O O7 0.500000 0.322232 0.750000
O O8 0.377940 0.210303 0.758088
O O9 0.512779 0.434658 0.618771
O O10 0.192478 0.077173 0.889440
O O11 0.000000 0.000000 0.500000
#
# Coordination Sequence:
#
# PCOD8131053 Si02
#       5
#     8   8   8   8   8
#     4   9  19  31  51  79 109 140 175 225 267 333
#     4  10  18  31  51  84 111 132 176 229 281 313
#     4  10  22  38  54  77 111 155 189 220 271 335
#     4  10  18  32  57  77 106 148 178 224 281 314
#     4  11  19  35  54  86 113 135 187 235 266 330
#
# _framework density 17.645240000000001
#
# number of rings (size 3 to 8) (size 9 to 14) (size 15 to 20)
#    0.000    2.000    6.000    1.200    0.000    3.200 
#    0.000    1.000    0.000    2.400    0.000    0.000 
#    0.000    0.000    0.000    0.000    0.000    0.000 
#
# Total GULP energy -247843.146075 kJ/mol
# GULP energy per Si atom -12392.157304 kJ/mol
# Density = 1.760508 g / cm^3
# Si number density = 17.645240 Si / 1000 Ang^3
#
#
#
# Elastic Constant Matrix: (Units=GPa)
#
#
# Indices 1 2 3 4 5 6 
#
# 1 68.3253 47.5546 42.9708 0.0000 21.4941 0.0000
# 2 47.5546 131.6256 44.4036 0.0001 12.8845 0.0000
# 3 42.9708 44.4036 100.0871 0.0000 4.6892 0.0000
# 4 0.0000 0.0001 0.0000 21.9579 0.0000 -0.6911
# 5 21.4941 12.8845 4.6892 0.0000 30.8036 0.0000
# 6 0.0000 0.0000 0.0000 -0.6911 0.0000 18.2604
#
#
#
# Elastic Compliance Matrix: (Units=1/GPa)
#
#
# Indices 1 2 3 4 5 6 
#
# 1 0.030167 -0.006030 -0.009476 0.000000 -0.017085 0.000000
# 2 -0.006030 0.010455 -0.002057 0.000000 0.000147 0.000000
# 3 -0.009476 -0.002057 0.014727 0.000000 0.005231 0.000000
# 4 0.000000 0.000000 0.000000 0.045596 0.000000 0.001726
# 5 -0.017085 0.000147 0.005231 0.000000 0.043528 0.000000
# 6 0.000000 0.000000 0.000000 0.001726 0.000000 0.054829
#
#
# Mechanical properties :
#
#
# Convention : Reuss Voigt Hill
#
# Bulk Modulus (GPa) = 49.44545 63.32179 56.38362
# Shear Modulus (GPa) = 20.73243 25.21163 22.97203
#
# Velocity S-wave (km/s) = 3.43149 3.78406 3.61208
# Velocity P-wave (km/s) = 6.61687 7.41998 7.02990
#
# Compressibility (1/GPa) = 0.02022431
#
# Stress axis : x y z
#
# Youngs Moduli (GPa) = 33.14872 95.64687 67.90217
#
# Poissons Ratio (x) = 0.57673 0.64345
# Poissons Ratio (y) = 0.19988 0.13964
# Poissons Ratio (z) = 0.31412 0.19670
#
# Static dielectric constant tensor:
#      x y z
#    x 2.850710 0.000000 -0.082800 
#    y 0.000000 3.565150 0.000000 
#    z -0.082800 0.000000 3.473690 
# 
# 
# High freq. dielectric constant tensor:
#      x y z
#    x 1.630920 0.000000 -0.012270 
#    y 0.000000 1.688990 0.000000 
#    z -0.012270 0.000000 1.696360 
# 
# From -- ./inp_files/109583.got.cif
#   From: 2010.06.25/outbox.cif.g09.slc.cpg/sg15_55_cif.got.tgz:109583.got - 2010.06.28 07:06:18.
