data_PCOD8131557
_publ_section_title
;
Structure prediction by ZEFSAII (Michael W. Deem and Ramdas Pophale) SiO2 
 PCOD8131557
Probable space group: C 2/C
;
_chemical_formula_sum "Si O2"
_cell_formula_units_Z 56
_cell_length_a 18.068514
_cell_length_b 7.924650
_cell_length_c 19.803631
_cell_angle_alpha 90.000000
_cell_angle_beta 92.277920
_cell_angle_gamma 90.000000
_cell_volume 2833.374828
_symmetry_space_group_name_H-M "C 2/C"
_symmetry_group_IT_number 15
_symmetry_cell_setting 'monoclinic'
loop_
_space_group_symop_operation_xyz
x,y,z
-x,y,1/2-z
-x,-y,-z
x,-y,1/2+z
1/2+x,1/2+y,z
1/2-x,1/2+y,1/2-z
1/2-x,1/2-y,-z
1/2+x,1/2-y,1/2+z
loop_
_atom_site_type_symbol
_atom_site_label
_atom_site_fract_x
_atom_site_fract_y
_atom_site_fract_z
Si Si1 0.823818 0.382493 0.247095
Si Si2 0.580654 0.437453 0.526196
Si Si3 0.917714 0.099210 0.617330
Si Si4 0.957927 0.772278 0.683427
Si Si5 0.426183 0.735785 0.880754
Si Si6 0.085899 0.613478 0.619598
Si Si7 0.661016 0.267693 0.257031
O O1 0.873998 0.277574 0.196998
O O2 0.848116 0.348347 0.325149
O O3 0.739438 0.332364 0.233230
O O4 0.834169 0.573311 0.224719
O O5 0.500000 0.500000 0.500000
O O6 0.624968 0.409732 0.456737
O O7 0.611594 0.590248 0.573765
O O8 0.586260 0.255241 0.562117
O O9 0.861113 0.133346 0.675894
O O10 0.984485 0.233886 0.616850
O O11 0.957814 0.918809 0.628164
O O12 0.000000 0.845855 0.750000
O O13 0.006887 0.617601 0.656083
O O14 0.398741 0.702479 0.803689
O O15 0.403357 0.922173 0.907640
#
# Coordination Sequence:
#
# PCOD8131557 Si02
#       7
#     8   8   8   8   8   8   8
#     4  10  23  36  60  87 112 153 199 245 303 342
#     4  10  21  37  57  92 118 160 193 234 304 347
#     4  11  21  35  58  91 117 153 196 238 295 355
#     4  10  18  33  58  86 113 146 190 250 292 339
#     4  10  21  37  62  86 119 154 198 244 294 345
#     4  10  20  38  60  87 120 149 196 246 290 349
#     4  11  22  38  59  86 115 156 200 247 298 348
#
# _framework density 19.764416000000001
#
# number of rings (size 3 to 8) (size 9 to 14) (size 15 to 20)
#    0.000    1.714    2.857    3.000    4.000    4.571 
#    2.571    0.714    0.000    2.571    0.000    0.000 
#    0.000    0.000    0.000    0.000    0.000    0.000 
#
# Total GULP energy -347063.727195 kJ/mol
# GULP energy per Si atom -12395.133114 kJ/mol
# Density = 1.971943 g / cm^3
# Si number density = 19.764416 Si / 1000 Ang^3
#
#
#
# Elastic Constant Matrix: (Units=GPa)
#
#
# Indices 1 2 3 4 5 6 
#
# 1 53.6991 14.2509 14.9157 0.0000 -2.1543 0.0000
# 2 14.2509 123.4289 63.4016 0.0000 -2.3975 0.0000
# 3 14.9157 63.4016 106.3502 0.0000 -14.7802 0.0000
# 4 0.0000 0.0000 0.0000 45.7237 0.0000 10.7053
# 5 -2.1543 -2.3975 -14.7802 0.0000 13.7048 0.0000
# 6 0.0000 0.0000 0.0000 10.7053 0.0000 18.1659
#
#
#
# Elastic Compliance Matrix: (Units=1/GPa)
#
#
# Indices 1 2 3 4 5 6 
#
# 1 0.019512 -0.001284 -0.001854 0.000000 0.000843 0.000000
# 2 -0.001284 0.012265 -0.008071 0.000000 -0.006761 0.000000
# 3 -0.001854 -0.008071 0.016748 0.000000 0.016359 0.000000
# 4 0.000000 0.000000 0.000000 0.025371 0.000000 -0.014951
# 5 0.000843 -0.006761 0.016359 0.000000 0.089560 0.000000
# 6 0.000000 0.000000 0.000000 -0.014951 0.000000 0.063859
#
#
# Mechanical properties :
#
#
# Convention : Reuss Voigt Hill
#
# Bulk Modulus (GPa) = 38.30492 52.06830 45.18661
# Shear Modulus (GPa) = 19.34723 28.24623 23.79673
#
# Velocity S-wave (km/s) = 3.13212 3.78451 3.47366
# Velocity P-wave (km/s) = 5.70115 6.74524 6.24505
#
# Compressibility (1/GPa) = 0.02610630
#
# Stress axis : x y z
#
# Youngs Moduli (GPa) = 51.25100 81.53476 59.70824
#
# Poissons Ratio (x) = 0.10471 0.11068
# Poissons Ratio (y) = 0.06582 0.48192
# Poissons Ratio (z) = 0.09501 0.65808
#
# Static dielectric constant tensor:
#      x y z
#    x 2.688360 0.000000 -0.470970 
#    y 0.000000 3.708610 0.000000 
#    z -0.470970 0.000000 3.574470 
# 
# 
# High freq. dielectric constant tensor:
#      x y z
#    x 1.735680 0.000000 0.000330 
#    y 0.000000 1.783710 0.000000 
#    z 0.000330 0.000000 1.770550 
# 
# From -- ./inp_files/247030.got.cif
#   From: 2010.06.25/outbox.cif.g09.slc.cpg/sg15_124_cif.got.tgz:247030.got - 2010.06.28 07:06:18.
