data_PCOD8131343
_publ_section_title
;
Structure prediction by ZEFSAII (Michael W. Deem and Ramdas Pophale) SiO2 
 PCOD8131343
Probable space group: C 2/C
;
_chemical_formula_sum "Si O2"
_cell_formula_units_Z 52
_cell_length_a 8.855206
_cell_length_b 18.248800
_cell_length_c 30.503837
_cell_angle_alpha 90.000000
_cell_angle_beta 147.069168
_cell_angle_gamma 90.000000
_cell_volume 2679.710149
_symmetry_space_group_name_H-M "C 2/C"
_symmetry_group_IT_number 15
_symmetry_cell_setting 'monoclinic'
loop_
_space_group_symop_operation_xyz
x,y,z
-x,y,1/2-z
-x,-y,-z
x,-y,1/2+z
1/2+x,1/2+y,z
1/2-x,1/2+y,1/2-z
1/2-x,1/2-y,-z
1/2+x,1/2-y,1/2+z
loop_
_atom_site_type_symbol
_atom_site_label
_atom_site_fract_x
_atom_site_fract_y
_atom_site_fract_z
Si Si1 0.741419 0.412654 0.532169
Si Si2 0.295233 0.272608 0.331628
Si Si3 0.649345 0.820539 0.575103
Si Si4 0.312552 0.652449 0.341510
Si Si5 0.646724 0.274006 0.562467
Si Si6 0.000000 0.412978 0.250000
Si Si7 0.755102 0.507553 0.121418
O O1 0.584942 0.344757 0.517232
O O2 0.518728 0.458392 0.450599
O O3 0.868947 0.463627 0.602326
O O4 0.986007 0.387029 0.558977
O O5 0.373166 0.252639 0.400613
O O6 0.522692 0.239616 0.354945
O O7 0.000000 0.233535 0.250000
O O8 0.272792 0.360420 0.318246
O O9 0.505470 0.797868 0.493986
O O10 0.968614 0.844592 0.645256
O O11 0.427461 0.712015 0.404901
O O12 0.327707 0.573020 0.366623
O O13 0.000000 0.671108 0.250000
O O14 0.997872 0.461827 0.205249
#
# Coordination Sequence:
#
# PCOD8131343 Si02
#       7
#     8   8   8   8   8   4   8
#     4   9  20  35  60  84 108 144 194 232 268 339
#     4   9  19  32  58  85 109 145 185 235 280 339
#     4  11  20  36  57  86 113 145 192 238 278 332
#     4  11  23  36  54  80 119 155 180 232 291 333
#     4  10  19  36  57  85 111 143 190 234 284 330
#     4  10  18  32  58  80 108 152 186 222 282 338
#     4  10  19  37  56  80 111 152 187 223 280 338
#
# _framework density 19.405083000000001
#
# number of rings (size 3 to 8) (size 9 to 14) (size 15 to 20)
#    0.462    1.538    0.769    5.077    0.000    0.615 
#    0.000    0.000    0.000    1.846    0.000    0.000 
#    0.000    0.000    0.000    0.000    0.000    0.000 
#
# Total GULP energy -322165.107713 kJ/mol
# GULP energy per Si atom -12390.965681 kJ/mol
# Density = 1.936092 g / cm^3
# Si number density = 19.405083 Si / 1000 Ang^3
#
#
#
# Elastic Constant Matrix: (Units=GPa)
#
#
# Indices 1 2 3 4 5 6 
#
# 1 108.3804 37.1168 39.4249 -0.0015 0.3435 -0.0014
# 2 37.1168 91.0253 48.6903 0.0000 -11.8003 0.0001
# 3 39.4249 48.6903 102.2099 -0.0005 -7.8902 -0.0004
# 4 -0.0015 0.0000 -0.0005 36.0358 0.0000 -2.6866
# 5 0.3435 -11.8003 -7.8902 0.0000 27.8101 -0.0001
# 6 -0.0014 0.0001 -0.0004 -2.6866 -0.0001 19.5908
#
#
#
# Elastic Compliance Matrix: (Units=1/GPa)
#
#
# Indices 1 2 3 4 5 6 
#
# 1 0.011489 -0.003394 -0.003003 0.000000 -0.002434 0.000001
# 2 -0.003394 0.016281 -0.006042 0.000000 0.005236 0.000000
# 3 -0.003003 -0.006042 0.013930 0.000000 0.001426 0.000000
# 4 0.000000 0.000000 0.000000 0.028037 0.000000 0.003845
# 5 -0.002434 0.005236 0.001426 0.000000 0.038614 0.000000
# 6 0.000001 0.000000 0.000000 0.003845 0.000000 0.051572
#
#
# Mechanical properties :
#
#
# Convention : Reuss Voigt Hill
#
# Bulk Modulus (GPa) = 59.44599 61.34216 60.39408
# Shear Modulus (GPa) = 26.25924 28.44624 27.35274
#
# Velocity S-wave (km/s) = 3.68260 3.83288 3.75849
# Velocity P-wave (km/s) = 6.98447 7.16017 7.07286
#
# Compressibility (1/GPa) = 0.01682199
#
# Stress axis : x y z
#
# Youngs Moduli (GPa) = 87.03865 61.42162 71.78526
#
# Poissons Ratio (x) = 0.20848 0.21554
# Poissons Ratio (y) = 0.29543 0.43375
# Poissons Ratio (z) = 0.26134 0.37113
#
# Static dielectric constant tensor:
#      x y z
#    x 3.289580 0.000000 -0.154120 
#    y 0.000000 3.528410 0.000000 
#    z -0.154120 0.000000 3.661740 
# 
# 
# High freq. dielectric constant tensor:
#      x y z
#    x 1.728810 0.000000 -0.012060 
#    y 0.000000 1.748690 0.000000 
#    z -0.012060 0.000000 1.767110 
# 
# From -- ./inp_files/289638.got.cif
#   From: 2010.06.25/outbox.cif.g09.slc.cpg/sg15_145_cif.got.tgz:289638.got - 2010.06.28 07:06:18.
