data_PCOD8131886
_publ_section_title
;
Structure prediction by ZEFSAII (Michael W. Deem and Ramdas Pophale) SiO2 
 PCOD8131886
Probable space group: C 2/C
;
_chemical_formula_sum "Si O2"
_cell_formula_units_Z 64
_cell_length_a 11.757595
_cell_length_b 12.899126
_cell_length_c 21.297158
_cell_angle_alpha 90.000000
_cell_angle_beta 77.126039
_cell_angle_gamma 90.000000
_cell_volume 3148.790908
_symmetry_space_group_name_H-M "C 2/C"
_symmetry_group_IT_number 15
_symmetry_cell_setting 'monoclinic'
loop_
_space_group_symop_operation_xyz
x,y,z
-x,y,1/2-z
-x,-y,-z
x,-y,1/2+z
1/2+x,1/2+y,z
1/2-x,1/2+y,1/2-z
1/2-x,1/2-y,-z
1/2+x,1/2-y,1/2+z
loop_
_atom_site_type_symbol
_atom_site_label
_atom_site_fract_x
_atom_site_fract_y
_atom_site_fract_z
Si Si1 0.567139 0.716595 0.916786
Si Si2 0.357134 0.085360 0.628371
Si Si3 0.081240 0.849853 0.605691
Si Si4 0.829107 0.047079 0.519330
Si Si5 0.586422 0.853355 0.037850
Si Si6 0.313699 0.656256 0.958962
Si Si7 0.101029 0.776036 0.787978
Si Si8 0.719650 0.131057 0.325401
O O1 0.635596 0.607065 0.921219
O O2 0.435338 0.691968 0.913291
O O3 0.630809 0.775895 0.852315
O O4 0.562641 0.792735 0.976765
O O5 0.476191 0.078362 0.573063
O O6 0.255767 0.105532 0.590100
O O7 0.356380 0.174461 0.680865
O O8 0.346429 0.979144 0.669955
O O9 0.074220 0.915164 0.543101
O O10 0.113169 0.729681 0.588943
O O11 0.185545 0.893405 0.633663
O O12 0.956493 0.856807 0.655659
O O13 0.698082 0.075041 0.514409
O O14 0.835903 0.922883 0.515042
O O15 0.250000 0.750000 0.000000
O O16 0.213294 0.834577 0.745969
O O17 0.000000 0.746011 0.750000
#
# Coordination Sequence:
#
# PCOD8131886 Si02
#       8
#     8   8   8   8   8   8   8   8
#     4  11  21  37  58  93 125 158 201 246 292 369
#     4  11  23  41  63  90 124 159 199 251 315 365
#     4   9  16  35  63  88 110 146 210 260 280 339
#     4  11  20  37  61  91 121 160 208 245 293 354
#     4  10  18  34  65  87 121 154 202 253 294 347
#     4  12  25  38  54  92 139 165 184 236 326 387
#     4   9  22  42  65  87 114 156 218 266 290 341
#     4  11  20  40  64  89 114 160 216 248 293 362
#
# _framework density 20.325261999999999
#
# number of rings (size 3 to 8) (size 9 to 14) (size 15 to 20)
#    0.000    1.500    5.000    1.125    1.750    1.000 
#    2.250    1.875    0.000    0.000    0.000    0.000 
#    0.000    0.000    0.000    0.000    0.000    0.000 
#
# Total GULP energy -396631.594411 kJ/mol
# GULP energy per Si atom -12394.737325 kJ/mol
# Density = 2.027900 g / cm^3
# Si number density = 20.325262 Si / 1000 Ang^3
#
#
#
# Elastic Constant Matrix: (Units=GPa)
#
#
# Indices 1 2 3 4 5 6 
#
# 1 84.8411 47.8286 37.8181 0.0000 -22.0145 0.0000
# 2 47.8286 108.8632 33.0321 0.0000 -25.8813 0.0000
# 3 37.8181 33.0321 86.6538 0.0000 -33.2467 0.0000
# 4 0.0000 0.0000 0.0000 29.3374 0.0000 -3.3604
# 5 -22.0145 -25.8813 -33.2467 0.0000 34.0642 0.0000
# 6 0.0000 0.0000 0.0000 -3.3604 0.0000 20.3995
#
#
#
# Elastic Compliance Matrix: (Units=1/GPa)
#
#
# Indices 1 2 3 4 5 6 
#
# 1 0.017761 -0.005799 -0.004520 0.000000 0.002661 0.000000
# 2 -0.005799 0.013246 -0.000152 0.000000 0.006168 0.000000
# 3 -0.004520 -0.000152 0.019832 0.000000 0.016320 0.000000
# 4 0.000000 0.000000 0.000000 0.034742 0.000000 0.005723
# 5 0.002661 0.006168 0.016320 0.000000 0.051690 0.000000
# 6 0.000000 0.000000 0.000000 0.005723 0.000000 0.049963
#
#
# Mechanical properties :
#
#
# Convention : Reuss Voigt Hill
#
# Bulk Modulus (GPa) = 33.44777 57.52398 45.48587
# Shear Modulus (GPa) = 22.92070 27.53883 25.22976
#
# Velocity S-wave (km/s) = 3.36176 3.68490 3.52703
# Velocity P-wave (km/s) = 5.61788 6.81673 6.24613
#
# Compressibility (1/GPa) = 0.02989736
#
# Stress axis : x y z
#
# Youngs Moduli (GPa) = 56.30238 75.49318 50.42314
#
# Poissons Ratio (x) = 0.43780 0.22791
# Poissons Ratio (y) = 0.32651 0.00766
# Poissons Ratio (z) = 0.25448 0.01147
#
# Static dielectric constant tensor:
#      x y z
#    x 3.726780 0.000000 -0.247250 
#    y 0.000000 3.723960 0.000000 
#    z -0.247250 0.000000 3.685940 
# 
# 
# High freq. dielectric constant tensor:
#      x y z
#    x 1.793700 0.000000 -0.022180 
#    y 0.000000 1.793490 0.000000 
#    z -0.022180 0.000000 1.774200 
# 
# From -- ./inp_files/269242.got.cif
#   From: 2010.06.25/outbox.cif.g09.slc.cpg/sg15_135_cif.got.tgz:269242.got - 2010.06.28 07:06:18.
