data_PCOD8131654
_publ_section_title
;
Structure prediction by ZEFSAII (Michael W. Deem and Ramdas Pophale) SiO2 
 PCOD8131654
Probable space group: C 2/C
;
_chemical_formula_sum "Si O2"
_cell_formula_units_Z 56
_cell_length_a 32.328940
_cell_length_b 9.449328
_cell_length_c 22.971730
_cell_angle_alpha 90.000000
_cell_angle_beta 25.870221
_cell_angle_gamma 90.000000
_cell_volume 3062.001075
_symmetry_space_group_name_H-M "C 2/C"
_symmetry_group_IT_number 15
_symmetry_cell_setting 'monoclinic'
loop_
_space_group_symop_operation_xyz
x,y,z
-x,y,1/2-z
-x,-y,-z
x,-y,1/2+z
1/2+x,1/2+y,z
1/2-x,1/2+y,1/2-z
1/2-x,1/2-y,-z
1/2+x,1/2-y,1/2+z
loop_
_atom_site_type_symbol
_atom_site_label
_atom_site_fract_x
_atom_site_fract_y
_atom_site_fract_z
Si Si1 0.031947 0.027073 0.144051
Si Si2 0.988135 0.276882 0.411805
Si Si3 0.734276 0.529490 0.343178
Si Si4 0.437388 0.039226 0.135652
Si Si5 0.271147 0.240509 0.204455
Si Si6 0.386700 0.401072 0.658561
Si Si7 0.031760 0.136856 0.880295
O O1 0.974365 0.912795 0.178774
O O2 0.000000 0.009972 0.250000
O O3 0.006779 0.185978 0.153838
O O4 0.144288 0.998892 0.998086
O O5 0.880304 0.302350 0.567067
O O6 0.034211 0.432834 0.347506
O O7 0.043698 0.199731 0.393301
O O8 0.826295 0.520104 0.266566
O O9 0.741099 0.409581 0.283725
O O10 0.727451 0.681860 0.320156
O O11 0.457239 0.196578 0.131841
O O12 0.500000 0.000000 0.000000
O O13 0.217156 0.167430 0.217594
O O14 0.381329 0.555140 0.696735
O O15 0.434113 0.416354 0.534447
#
# Coordination Sequence:
#
# PCOD8131654 Si02
#       7
#     8   8   8   8   8   8   8
#     4  10  23  43  59  76 113 167 205 224 263 347
#     4  10  21  36  58  85 119 147 187 242 294 341
#     4  11  22  33  57  87 120 148 185 237 293 354
#     4  12  20  34  55  92 124 140 173 247 315 343
#     4  11  20  31  53  88 118 147 178 235 304 345
#     4  10  18  34  53  84 120 147 180 230 298 354
#     4  10  20  33  57  81 115 153 185 236 286 341
#
# _framework density 18.288694
#
# number of rings (size 3 to 8) (size 9 to 14) (size 15 to 20)
#    0.000    1.429    5.714    0.000    4.000    0.000 
#    0.000    2.143    0.000    0.000    0.000    0.000 
#    0.000    0.000    0.000    0.000    0.000    0.000 
#
# Total GULP energy -347118.331821 kJ/mol
# GULP energy per Si atom -12397.083279 kJ/mol
# Density = 1.824707 g / cm^3
# Si number density = 18.288694 Si / 1000 Ang^3
#
#
#
# Elastic Constant Matrix: (Units=GPa)
#
#
# Indices 1 2 3 4 5 6 
#
# 1 92.7620 40.8554 57.8952 -0.0013 -0.2546 0.0014
# 2 40.8554 134.7062 43.9512 0.0056 5.4375 0.0015
# 3 57.8952 43.9512 78.3680 -0.0002 0.3621 0.0027
# 4 -0.0013 0.0056 -0.0002 15.3876 0.0013 -4.5717
# 5 -0.2546 5.4375 0.3621 0.0013 37.4460 -0.0010
# 6 0.0014 0.0015 0.0027 -4.5717 -0.0010 26.7597
#
#
#
# Elastic Compliance Matrix: (Units=1/GPa)
#
#
# Indices 1 2 3 4 5 6 
#
# 1 0.020272 -0.001569 -0.014099 0.000002 0.000502 0.000001
# 2 -0.001569 0.009268 -0.004033 -0.000004 -0.001318 -0.000001
# 3 -0.014099 -0.004033 0.025437 0.000000 0.000244 -0.000002
# 4 0.000002 -0.000004 0.000000 0.068462 -0.000002 0.011696
# 5 0.000502 -0.001318 0.000244 -0.000002 0.026897 0.000001
# 6 0.000001 -0.000001 -0.000002 0.011696 0.000001 0.039368
#
#
# Mechanical properties :
#
#
# Convention : Reuss Voigt Hill
#
# Bulk Modulus (GPa) = 64.20065 65.69333 64.94699
# Shear Modulus (GPa) = 21.34039 26.79429 24.06734
#
# Velocity S-wave (km/s) = 3.41964 3.83178 3.63156
# Velocity P-wave (km/s) = 7.12546 7.45486 7.29202
#
# Compressibility (1/GPa) = 0.01557617
#
# Stress axis : x y z
#
# Youngs Moduli (GPa) = 49.32948 107.89374 39.31334
#
# Poissons Ratio (x) = 0.16923 0.55427
# Poissons Ratio (y) = 0.07737 0.15856
# Poissons Ratio (z) = 0.69548 0.43515
#
# Static dielectric constant tensor:
#      x y z
#    x 3.408170 0.000000 -0.416240 
#    y 0.000000 3.755460 0.000010 
#    z -0.416240 0.000010 3.035920 
# 
# 
# High freq. dielectric constant tensor:
#      x y z
#    x 1.704800 0.000000 -0.044590 
#    y 0.000000 1.727120 0.000000 
#    z -0.044590 0.000000 1.660960 
# 
# From -- ./inp_files/258973.got.cif
#   From: 2010.06.25/outbox.cif.g09.slc.cpg/sg15_130_cif.got.tgz:258973.got - 2010.06.28 07:06:18.
