data_PCOD8131665
_publ_section_title
;
Structure prediction by ZEFSAII (Michael W. Deem and Ramdas Pophale) SiO2 
 PCOD8131665
Probable space group: C 2/C
;
_chemical_formula_sum "Si O2"
_cell_formula_units_Z 64
_cell_length_a 19.380796
_cell_length_b 24.143708
_cell_length_c 11.996271
_cell_angle_alpha 90.000000
_cell_angle_beta 34.684500
_cell_angle_gamma 90.000000
_cell_volume 3194.314611
_symmetry_space_group_name_H-M "C 2/C"
_symmetry_group_IT_number 15
_symmetry_cell_setting 'monoclinic'
loop_
_space_group_symop_operation_xyz
x,y,z
-x,y,1/2-z
-x,-y,-z
x,-y,1/2+z
1/2+x,1/2+y,z
1/2-x,1/2+y,1/2-z
1/2-x,1/2-y,-z
1/2+x,1/2-y,1/2+z
loop_
_atom_site_type_symbol
_atom_site_label
_atom_site_fract_x
_atom_site_fract_y
_atom_site_fract_z
Si Si1 0.194240 0.673047 0.182229
Si Si2 0.877080 0.031442 0.478594
Si Si3 0.779708 0.120137 0.467406
Si Si4 0.770598 0.202536 0.669640
Si Si5 0.870616 0.275508 0.943496
Si Si6 0.378217 0.818311 0.482467
Si Si7 0.522045 0.628035 0.028966
Si Si8 0.604621 0.410193 0.023268
O O1 0.128893 0.674100 0.148718
O O2 0.102642 0.670037 0.410421
O O3 0.262125 0.731742 0.085989
O O4 0.286959 0.623025 0.064934
O O5 0.776847 0.058067 0.525647
O O6 0.000000 0.022104 0.250000
O O7 0.897183 0.073237 0.555537
O O8 0.840219 0.971418 0.577864
O O9 0.732455 0.163944 0.619151
O O10 0.696187 0.128659 0.468974
O O11 0.920444 0.134738 0.258905
O O12 0.796624 0.263119 0.583541
O O13 0.888695 0.181004 0.583433
O O14 0.649274 0.199222 0.907145
O O15 0.000000 0.245312 0.750000
O O16 0.500000 0.810478 0.250000
O O17 0.450183 0.622535 0.008863
O O18 0.500000 0.416627 0.250000
#
# Coordination Sequence:
#
# PCOD8131665 Si02
#       8
#     8   8   8   8   8   8   8   8
#     4  10  22  38  54  84 109 147 189 229 278 331
#     4   8  18  32  54  82 111 140 180 228 289 339
#     4  10  19  36  54  83 115 146 177 237 288 328
#     4  10  21  34  55  85 112 150 188 222 277 341
#     4  10  22  39  56  77 116 153 185 228 271 328
#     4  11  22  35  55  82 111 149 190 229 276 339
#     4  10  18  34  54  83 120 139 179 236 287 332
#     4  11  19  32  56  83 110 146 184 227 282 340
#
# _framework density 20.035596000000002
#
# number of rings (size 3 to 8) (size 9 to 14) (size 15 to 20)
#    0.000    2.000    1.250    3.750    1.750    2.000 
#    0.000    0.000    0.000    1.500    0.000    0.000 
#    0.000    0.000    0.000    0.000    0.000    0.000 
#
# Total GULP energy -396422.816325 kJ/mol
# GULP energy per Si atom -12388.213010 kJ/mol
# Density = 1.998999 g / cm^3
# Si number density = 20.035596 Si / 1000 Ang^3
#
#
#
# Elastic Constant Matrix: (Units=GPa)
#
#
# Indices 1 2 3 4 5 6 
#
# 1 61.7085 14.7859 14.4412 -0.0008 9.3793 0.0019
# 2 14.7859 67.9359 7.3225 0.0004 3.3703 -0.0001
# 3 14.4412 7.3225 115.3657 0.0001 13.9028 0.0003
# 4 -0.0008 0.0004 0.0001 25.9824 -0.0005 -3.7880
# 5 9.3793 3.3703 13.9028 -0.0005 19.9533 -0.0005
# 6 0.0019 -0.0001 0.0003 -3.7880 -0.0005 30.9001
#
#
#
# Elastic Compliance Matrix: (Units=1/GPa)
#
#
# Indices 1 2 3 4 5 6 
#
# 1 0.018431 -0.003522 -0.001213 0.000000 -0.007224 -0.000001
# 2 -0.003522 0.015569 -0.000469 0.000000 -0.000647 0.000000
# 3 -0.001213 -0.000469 0.009575 0.000000 -0.006022 0.000000
# 4 0.000000 0.000000 0.000000 0.039188 0.000001 0.004804
# 5 -0.007224 -0.000647 -0.006022 0.000001 0.057818 0.000002
# 6 -0.000001 0.000000 0.000000 0.004804 0.000002 0.032951
#
#
# Mechanical properties :
#
#
# Convention : Reuss Voigt Hill
#
# Bulk Modulus (GPa) = 30.15113 35.34546 32.74829
# Shear Modulus (GPa) = 25.64134 29.26454 27.45294
#
# Velocity S-wave (km/s) = 3.58130 3.82596 3.70565
# Velocity P-wave (km/s) = 5.67295 6.09893 5.88979
#
# Compressibility (1/GPa) = 0.03316626
#
# Stress axis : x y z
#
# Youngs Moduli (GPa) = 54.25635 64.22995 104.43328
#
# Poissons Ratio (x) = 0.22624 0.12668
# Poissons Ratio (y) = 0.19111 0.04901
# Poissons Ratio (z) = 0.06582 0.03014
#
# Static dielectric constant tensor:
#      x y z
#    x 3.676900 0.000000 0.330560 
#    y 0.000000 3.737180 0.000000 
#    z 0.330560 0.000000 3.612890 
# 
# 
# High freq. dielectric constant tensor:
#      x y z
#    x 1.773040 0.000000 0.026890 
#    y 0.000000 1.762030 0.000000 
#    z 0.026890 0.000000 1.771750 
# 
# From -- ./inp_files/115006.got.cif
#   From: 2010.06.25/outbox.cif.g09.slc.cpg/sg15_58_cif.got.tgz:115006.got - 2010.06.28 07:06:18.
