data_PCOD8131031
_publ_section_title
;
Structure prediction by ZEFSAII (Michael W. Deem and Ramdas Pophale) SiO2 
 PCOD8131031
Probable space group: C 2/C
;
_chemical_formula_sum "Si O2"
_cell_formula_units_Z 44
_cell_length_a 11.746732
_cell_length_b 22.753332
_cell_length_c 9.848441
_cell_angle_alpha 90.000000
_cell_angle_beta 107.297177
_cell_angle_gamma 90.000000
_cell_volume 2513.221668
_symmetry_space_group_name_H-M "C 2/C"
_symmetry_group_IT_number 15
_symmetry_cell_setting 'monoclinic'
loop_
_space_group_symop_operation_xyz
x,y,z
-x,y,1/2-z
-x,-y,-z
x,-y,1/2+z
1/2+x,1/2+y,z
1/2-x,1/2+y,1/2-z
1/2-x,1/2-y,-z
1/2+x,1/2-y,1/2+z
loop_
_atom_site_type_symbol
_atom_site_label
_atom_site_fract_x
_atom_site_fract_y
_atom_site_fract_z
Si Si1 0.851104 0.453967 0.844832
Si Si2 0.134346 0.444629 0.954248
Si Si3 0.594361 0.818205 0.018650
Si Si4 0.175134 0.665289 0.027156
Si Si5 0.500000 0.741042 0.750000
Si Si6 0.771420 0.217439 0.802087
O O1 0.808958 0.458868 0.673374
O O2 0.792269 0.396564 0.892306
O O3 0.992778 0.449935 0.897812
O O4 0.809505 0.510886 0.915432
O O5 0.164381 0.378457 0.010107
O O6 0.675553 0.780842 0.148283
O O7 0.466798 0.829233 0.043477
O O8 0.578220 0.782876 0.874015
O O9 0.227975 0.716923 0.138296
O O10 0.235558 0.668752 0.900563
O O11 0.404925 0.701089 0.797348
#
# Coordination Sequence:
#
# PCOD8131031 Si02
#       6
#     8   8   8   8   4   8
#     4   9  17  29  43  67 104 129 158 193 240 301
#     4   9  17  27  45  69  98 134 156 190 244 302
#     4  10  18  31  50  70 101 131 164 197 251 299
#     4   9  19  32  47  72 106 128 161 206 248 288
#     4  10  20  32  46  70 102 132 168 208 238 288
#     4  10  19  31  49  70  97 138 164 202 245 294
#
# _framework density 17.50741
#
# number of rings (size 3 to 8) (size 9 to 14) (size 15 to 20)
#    0.000    2.545    0.000    4.364    2.545    0.000 
#    0.000    0.000    0.000    0.000    0.000    1.273 
#   10.909    0.182    0.000    0.000    0.000    0.000 
#
# Total GULP energy -272769.025599 kJ/mol
# GULP energy per Si atom -12398.592073 kJ/mol
# Density = 1.746756 g / cm^3
# Si number density = 17.507410 Si / 1000 Ang^3
#
#
#
# Elastic Constant Matrix: (Units=GPa)
#
#
# Indices 1 2 3 4 5 6 
#
# 1 65.0949 32.3858 44.4344 0.0000 -21.8156 0.0000
# 2 32.3858 87.5366 58.3453 0.0000 -9.2305 0.0000
# 3 44.4344 58.3453 130.4820 0.0000 -15.6152 0.0000
# 4 0.0000 0.0000 0.0000 23.2870 0.0000 -6.1277
# 5 -21.8156 -9.2305 -15.6152 0.0000 30.2050 0.0000
# 6 0.0000 0.0000 0.0000 -6.1277 0.0000 20.2104
#
#
#
# Elastic Compliance Matrix: (Units=1/GPa)
#
#
# Indices 1 2 3 4 5 6 
#
# 1 0.026105 -0.004775 -0.004981 0.000000 0.014820 0.000000
# 2 -0.004775 0.017195 -0.006232 0.000000 -0.001416 0.000000
# 3 -0.004981 -0.006232 0.012246 0.000000 0.000829 0.000000
# 4 0.000000 0.000000 0.000000 0.046665 0.000000 0.014149
# 5 0.014820 -0.001416 0.000829 0.000000 0.043806 0.000000
# 6 0.000000 0.000000 0.000000 0.014149 0.000000 0.053769
#
#
# Mechanical properties :
#
#
# Convention : Reuss Voigt Hill
#
# Bulk Modulus (GPa) = 42.42844 61.49382 51.96113
# Shear Modulus (GPa) = 20.86642 24.60369 22.73506
#
# Velocity S-wave (km/s) = 3.45608 3.75284 3.60751
# Velocity P-wave (km/s) = 6.34139 7.34705 6.86266
#
# Compressibility (1/GPa) = 0.02356910
#
# Stress axis : x y z
#
# Youngs Moduli (GPa) = 38.30747 58.15648 81.65967
#
# Poissons Ratio (x) = 0.27771 0.40673
# Poissons Ratio (y) = 0.18293 0.50891
# Poissons Ratio (z) = 0.19080 0.36243
#
# Static dielectric constant tensor:
#      x y z
#    x 3.085230 0.000000 -0.327120 
#    y 0.000000 3.243870 0.000000 
#    z -0.327120 0.000000 3.356550 
# 
# 
# High freq. dielectric constant tensor:
#      x y z
#    x 1.634090 0.000000 -0.029490 
#    y 0.000000 1.664690 0.000000 
#    z -0.029490 0.000000 1.685820 
# 
# From -- ./inp_files/31891.got.cif
#   From: 2010.06.25/outbox.cif.g09.slc.cpg/sg15_16_cif.got.tgz:31891.got - 2010.06.28 07:06:18.
