data_PCOD8131168
_publ_section_title
;
Structure prediction by ZEFSAII (Michael W. Deem and Ramdas Pophale) SiO2 
 PCOD8131168
Probable space group: C 2/C
;
_chemical_formula_sum "Si O2"
_cell_formula_units_Z 52
_cell_length_a 26.345659
_cell_length_b 20.777059
_cell_length_c 10.965864
_cell_angle_alpha 90.000000
_cell_angle_beta 28.863717
_cell_angle_gamma 90.000000
_cell_volume 2897.599697
_symmetry_space_group_name_H-M "C 2/C"
_symmetry_group_IT_number 15
_symmetry_cell_setting 'monoclinic'
loop_
_space_group_symop_operation_xyz
x,y,z
-x,y,1/2-z
-x,-y,-z
x,-y,1/2+z
1/2+x,1/2+y,z
1/2-x,1/2+y,1/2-z
1/2-x,1/2-y,-z
1/2+x,1/2-y,1/2+z
loop_
_atom_site_type_symbol
_atom_site_label
_atom_site_fract_x
_atom_site_fract_y
_atom_site_fract_z
Si Si1 0.713655 0.328190 0.402210
Si Si2 0.100508 0.086269 0.727872
Si Si3 0.500000 0.324797 0.250000
Si Si4 0.436495 0.201603 0.499071
Si Si5 0.427510 0.551972 0.283246
Si Si6 0.481775 0.760028 0.155252
Si Si7 0.193212 0.809525 0.180561
O O1 0.819057 0.325698 0.260510
O O2 0.666511 0.398859 0.503063
O O3 0.631905 0.273365 0.614435
O O4 0.752974 0.316921 0.181597
O O5 0.194442 0.122830 0.603477
O O6 0.080143 0.131032 0.654578
O O7 0.132970 0.015473 0.613944
O O8 0.994993 0.075914 0.027280
O O9 0.433136 0.279085 0.482652
O O10 0.491040 0.191513 0.518788
O O11 0.500000 0.169366 0.250000
O O12 0.500000 0.546629 0.250000
O O13 0.500000 0.794651 0.250000
O O14 0.569584 0.704534 0.961407
O O15 0.250000 0.750000 0.000000
#
# Coordination Sequence:
#
# PCOD8131168 Si02
#       7
#     8   8   4   8   8   8   8
#     4  11  19  32  53  77 109 145 190 217 282 337
#     4  11  20  32  51  76 110 141 181 224 273 332
#     4  10  18  32  48  76 108 132 174 228 282 310
#     4  10  20  33  52  80 110 140 180 233 281 325
#     4  11  20  34  52  75 109 148 180 223 271 334
#     4  10  19  32  50  74 107 145 180 221 278 337
#     4  11  19  33  52  80 111 146 179 230 281 336
#
# _framework density 17.945888
#
# number of rings (size 3 to 8) (size 9 to 14) (size 15 to 20)
#    0.462    0.923    5.385    2.769    0.000    0.000 
#    0.000    0.000    0.000    0.000    0.000    9.692 
#    0.000    0.000    0.000    0.000    0.000    0.000 
#
# Total GULP energy -322168.948078 kJ/mol
# GULP energy per Si atom -12391.113388 kJ/mol
# Density = 1.790504 g / cm^3
# Si number density = 17.945888 Si / 1000 Ang^3
#
#
#
# Elastic Constant Matrix: (Units=GPa)
#
#
# Indices 1 2 3 4 5 6 
#
# 1 107.1513 18.9453 21.0995 0.0000 14.6052 0.0000
# 2 18.9453 81.2454 20.9911 0.0000 4.2701 0.0000
# 3 21.0995 20.9911 55.1828 0.0000 3.1796 0.0000
# 4 0.0000 0.0000 0.0000 20.5038 0.0000 -4.2485
# 5 14.6052 4.2701 3.1796 0.0000 27.1615 0.0000
# 6 0.0000 0.0000 0.0000 -4.2485 0.0000 22.2374
#
#
#
# Elastic Compliance Matrix: (Units=1/GPa)
#
#
# Indices 1 2 3 4 5 6 
#
# 1 0.010962 -0.001413 -0.003349 0.000000 -0.005280 0.000000
# 2 -0.001413 0.013897 -0.004696 0.000000 -0.000875 0.000000
# 3 -0.003349 -0.004696 0.021185 0.000000 0.000059 0.000000
# 4 0.000000 0.000000 0.000000 0.050782 0.000000 0.009702
# 5 -0.005280 -0.000875 0.000059 0.000000 0.039787 0.000000
# 6 0.000000 0.000000 0.000000 0.009702 0.000000 0.046823
#
#
# Mechanical properties :
#
#
# Convention : Reuss Voigt Hill
#
# Bulk Modulus (GPa) = 36.86322 40.62793 38.74558
# Shear Modulus (GPa) = 23.65250 26.15010 24.90130
#
# Velocity S-wave (km/s) = 3.63435 3.82142 3.72906
# Velocity P-wave (km/s) = 6.18039 6.49302 6.33863
#
# Compressibility (1/GPa) = 0.02712731
#
# Stress axis : x y z
#
# Youngs Moduli (GPa) = 91.22662 71.95741 47.20310
#
# Poissons Ratio (x) = 0.10169 0.15811
# Poissons Ratio (y) = 0.12892 0.22165
# Poissons Ratio (z) = 0.30556 0.33788
#
# Static dielectric constant tensor:
#      x y z
#    x 3.646730 0.000000 0.238560 
#    y 0.000000 3.128730 0.000000 
#    z 0.238560 0.000000 3.123520 
# 
# 
# High freq. dielectric constant tensor:
#      x y z
#    x 1.712520 0.000000 0.020720 
#    y 0.000000 1.656420 0.000000 
#    z 0.020720 0.000000 1.669870 
# 
# From -- ./inp_files/123873.got.cif
#   From: 2010.06.25/outbox.cif.g09.slc.cpg/sg15_62_cif.got.tgz:123873.got - 2010.06.28 07:06:18.
