data_PCOD8131112
_publ_section_title
;
Structure prediction by ZEFSAII (Michael W. Deem and Ramdas Pophale) SiO2 
 PCOD8131112
Probable space group: C 2/C
;
_chemical_formula_sum "Si O2"
_cell_formula_units_Z 52
_cell_length_a 20.040846
_cell_length_b 19.902754
_cell_length_c 10.622890
_cell_angle_alpha 90.000000
_cell_angle_beta 143.272697
_cell_angle_gamma 90.000000
_cell_volume 2533.834731
_symmetry_space_group_name_H-M "C 2/C"
_symmetry_group_IT_number 15
_symmetry_cell_setting 'monoclinic'
loop_
_space_group_symop_operation_xyz
x,y,z
-x,y,1/2-z
-x,-y,-z
x,-y,1/2+z
1/2+x,1/2+y,z
1/2-x,1/2+y,1/2-z
1/2-x,1/2-y,-z
1/2+x,1/2-y,1/2+z
loop_
_atom_site_type_symbol
_atom_site_label
_atom_site_fract_x
_atom_site_fract_y
_atom_site_fract_z
Si Si1 0.426760 0.229004 0.932203
Si Si2 0.000000 0.162992 0.750000
Si Si3 0.354642 0.162411 0.221317
Si Si4 0.692604 0.444026 0.532593
Si Si5 0.491433 0.659604 0.379399
Si Si6 0.729815 0.702720 0.792009
Si Si7 0.118709 0.967719 0.693259
O O1 0.438507 0.265176 0.813378
O O2 0.300794 0.205180 0.768715
O O3 0.472690 0.289083 0.091798
O O4 0.510805 0.165727 0.068171
O O5 0.896887 0.114957 0.629658
O O6 0.314776 0.090029 0.211379
O O7 0.300212 0.220886 0.222519
O O8 0.316632 0.171205 0.020492
O O9 0.681921 0.476993 0.655228
O O10 0.684589 0.500399 0.411150
O O11 0.500000 0.636769 0.250000
O O12 0.620290 0.656562 0.621526
O O13 0.406385 0.610684 0.323221
O O14 0.000000 0.000000 0.500000
#
# Coordination Sequence:
#
# PCOD8131112 Si02
#       7
#     8   4   8   8   8   8   8
#     4  11  19  34  57  84 116 146 188 240 288 341
#     4  12  16  32  56  82 116 136 180 240 286 332
#     4  10  18  31  55  85 112 143 191 236 294 330
#     4  12  22  33  55  83 118 148 186 242 287 342
#     4  11  23  34  50  80 120 157 185 224 289 360
#     4  10  18  31  54  81 113 148 185 236 286 340
#     4  12  21  35  52  78 113 148 191 230 288 333
#
# _framework density 20.522254
#
# number of rings (size 3 to 8) (size 9 to 14) (size 15 to 20)
#    0.000    0.923    6.154    3.692    0.000    0.615 
#    0.000    0.000    0.000    0.000    0.000   21.538 
#    0.000    0.000    0.000    0.000    0.000    0.000 
#
# Total GULP energy -322265.124673 kJ/mol
# GULP energy per Si atom -12394.812487 kJ/mol
# Density = 2.047554 g / cm^3
# Si number density = 20.522254 Si / 1000 Ang^3
#
#
#
# Elastic Constant Matrix: (Units=GPa)
#
#
# Indices 1 2 3 4 5 6 
#
# 1 111.2783 35.6140 31.8104 0.0000 1.5458 0.0000
# 2 35.6140 72.9753 32.7757 0.0000 0.8282 0.0000
# 3 31.8104 32.7757 44.0543 0.0000 -3.0077 0.0000
# 4 0.0000 0.0000 0.0000 27.0319 0.0000 5.9267
# 5 1.5458 0.8282 -3.0077 0.0000 31.8625 0.0000
# 6 0.0000 0.0000 0.0000 5.9267 0.0000 33.8955
#
#
#
# Elastic Compliance Matrix: (Units=1/GPa)
#
#
# Indices 1 2 3 4 5 6 
#
# 1 0.011752 -0.002820 -0.006464 0.000000 -0.001107 0.000000
# 2 -0.002820 0.021383 -0.013991 0.000000 -0.001740 0.000000
# 3 -0.006464 -0.013991 0.038067 0.000000 0.004271 0.000000
# 4 0.000000 0.000000 0.000000 0.038468 0.000000 -0.006726
# 5 -0.001107 -0.001740 0.004271 0.000000 0.031887 0.000000
# 6 0.000000 0.000000 0.000000 -0.006726 0.000000 0.030679
#
#
# Mechanical properties :
#
#
# Convention : Reuss Voigt Hill
#
# Bulk Modulus (GPa) = 40.56284 47.63423 44.09853
# Shear Modulus (GPa) = 22.02612 27.09850 24.56231
#
# Velocity S-wave (km/s) = 3.27965 3.63773 3.46332
# Velocity P-wave (km/s) = 5.84377 6.39574 6.12598
#
# Compressibility (1/GPa) = 0.02465311
#
# Stress axis : x y z
#
# Youngs Moduli (GPa) = 85.09197 46.76580 26.26921
#
# Poissons Ratio (x) = 0.13187 0.16979
# Poissons Ratio (y) = 0.23994 0.36754
# Poissons Ratio (z) = 0.54999 0.65432
#
# Static dielectric constant tensor:
#      x y z
#    x 4.829400 0.000000 -0.110470 
#    y 0.000000 3.837290 0.000000 
#    z -0.110470 0.000000 3.557640 
# 
# 
# High freq. dielectric constant tensor:
#      x y z
#    x 1.815610 0.000000 -0.005480 
#    y 0.000000 1.774750 0.000000 
#    z -0.005480 0.000000 1.764370 
# 
# From -- ./inp_files/113693.got.cif
#   From: 2010.06.25/outbox.cif.g09.slc.cpg/sg15_57_cif.got.tgz:113693.got - 2010.06.28 07:06:18.
