data_PCOD8131134
_publ_section_title
;
Structure prediction by ZEFSAII (Michael W. Deem and Ramdas Pophale) SiO2 
 PCOD8131134
Probable space group: C 2/C
;
_chemical_formula_sum "Si O2"
_cell_formula_units_Z 56
_cell_length_a 12.147242
_cell_length_b 19.888560
_cell_length_c 13.184495
_cell_angle_alpha 90.000000
_cell_angle_beta 75.818842
_cell_angle_gamma 90.000000
_cell_volume 3088.189693
_symmetry_space_group_name_H-M "C 2/C"
_symmetry_group_IT_number 15
_symmetry_cell_setting 'monoclinic'
loop_
_space_group_symop_operation_xyz
x,y,z
-x,y,1/2-z
-x,-y,-z
x,-y,1/2+z
1/2+x,1/2+y,z
1/2-x,1/2+y,1/2-z
1/2-x,1/2-y,-z
1/2+x,1/2-y,1/2+z
loop_
_atom_site_type_symbol
_atom_site_label
_atom_site_fract_x
_atom_site_fract_y
_atom_site_fract_z
Si Si1 0.626801 0.432298 0.177578
Si Si2 0.526175 0.278391 0.485743
Si Si3 0.623638 0.282239 0.675157
Si Si4 0.155121 0.289464 0.582139
Si Si5 0.868330 0.073114 0.259591
Si Si6 0.839171 0.887830 0.550423
Si Si7 0.317532 0.700632 0.733378
O O1 0.500000 0.428040 0.250000
O O2 0.686132 0.504828 0.182933
O O3 0.701207 0.371637 0.208463
O O4 0.625074 0.427168 0.057138
O O5 0.613741 0.264121 0.557638
O O6 0.462427 0.211472 0.456268
O O7 0.427993 0.327347 0.548803
O O8 0.592908 0.310763 0.376813
O O9 0.500000 0.278291 0.750000
O O10 0.679177 0.356858 0.681186
O O11 0.699758 0.226600 0.713017
O O12 0.250000 0.250000 0.500000
O O13 0.206774 0.363943 0.580427
O O14 0.134662 0.253805 0.695413
O O15 0.848053 0.064436 0.144742
O O16 0.000000 0.071391 0.250000
#
# Coordination Sequence:
#
# PCOD8131134 Si02
#       7
#     8   8   8   8   8   8   8
#     4  11  22  33  54  85 112 139 181 231 274 327
#     4  11  20  32  51  85 113 140 181 228 276 321
#     4  11  21  36  54  80 112 150 182 220 281 335
#     4  10  18  31  56  75 110 143 185 222 263 329
#     4  10  21  35  53  78 113 150 177 215 282 339
#     4  11  19  35  54  79 110 149 184 217 271 339
#     4  12  20  34  53  84 113 138 186 236 273 320
#
# _framework density 18.133600999999999
#
# number of rings (size 3 to 8) (size 9 to 14) (size 15 to 20)
#    0.000    1.143    8.571    1.714    0.000    3.429 
#    0.000    0.000    0.000    0.000    3.714    2.000 
#    0.000    0.000    0.000    0.000    0.000    0.000 
#
# Total GULP energy -346964.797521 kJ/mol
# GULP energy per Si atom -12391.599911 kJ/mol
# Density = 1.809233 g / cm^3
# Si number density = 18.133601 Si / 1000 Ang^3
#
#
#
# Elastic Constant Matrix: (Units=GPa)
#
#
# Indices 1 2 3 4 5 6 
#
# 1 59.1930 44.6181 34.3200 0.0000 21.8996 0.0000
# 2 44.6181 85.5894 27.8320 0.0000 19.4217 0.0000
# 3 34.3200 27.8320 117.3580 0.0000 36.8878 0.0000
# 4 0.0000 0.0000 0.0000 22.7935 0.0000 8.0513
# 5 21.8996 19.4217 36.8878 0.0000 30.0302 0.0000
# 6 0.0000 0.0000 0.0000 8.0513 0.0000 33.5814
#
#
#
# Elastic Compliance Matrix: (Units=1/GPa)
#
#
# Indices 1 2 3 4 5 6 
#
# 1 0.033267 -0.013728 -0.002668 0.000000 -0.012104 0.000000
# 2 -0.013728 0.019399 0.000343 0.000000 -0.002957 0.000000
# 3 -0.002668 0.000343 0.014136 0.000000 -0.015640 0.000000
# 4 0.000000 0.000000 0.000000 0.047931 0.000000 -0.011492
# 5 -0.012104 -0.002957 -0.015640 0.000000 0.063250 0.000000
# 6 0.000000 0.000000 0.000000 -0.011492 0.000000 0.032534
#
#
# Mechanical properties :
#
#
# Convention : Reuss Voigt Hill
#
# Bulk Modulus (GPa) = 28.82166 52.85340 40.83753
# Shear Modulus (GPa) = 19.67044 27.63903 23.65474
#
# Velocity S-wave (km/s) = 3.29713 3.90832 3.61566
# Velocity P-wave (km/s) = 5.51573 7.04106 6.32455
#
# Compressibility (1/GPa) = 0.03469613
#
# Stress axis : x y z
#
# Youngs Moduli (GPa) = 30.06001 51.54788 70.74247
#
# Poissons Ratio (x) = 0.70764 0.18877
# Poissons Ratio (y) = 0.41266 -0.02429
# Poissons Ratio (z) = 0.08021 -0.01770
#
# Static dielectric constant tensor:
#      x y z
#    x 2.978280 0.000000 0.334500 
#    y 0.000000 4.029830 0.000000 
#    z 0.334500 0.000000 3.582860 
# 
# 
# High freq. dielectric constant tensor:
#      x y z
#    x 1.674330 0.000000 0.020130 
#    y 0.000000 1.672170 0.000000 
#    z 0.020130 0.000000 1.723800 
# 
# From -- ./inp_files/88895.got.cif
#   From: 2010.06.25/outbox.cif.g09.slc.cpg/sg15_45_cif.got.tgz:88895.got - 2010.06.28 07:06:18.
