data_PCOD8131999
_publ_section_title
;
Structure prediction by ZEFSAII (Michael W. Deem and Ramdas Pophale) SiO2 
 PCOD8131999
Probable space group: C 2/C
;
_chemical_formula_sum "Si O2"
_cell_formula_units_Z 56
_cell_length_a 19.449979
_cell_length_b 10.718468
_cell_length_c 17.784350
_cell_angle_alpha 90.000000
_cell_angle_beta 135.367470
_cell_angle_gamma 90.000000
_cell_volume 2604.782923
_symmetry_space_group_name_H-M "C 2/C"
_symmetry_group_IT_number 15
_symmetry_cell_setting 'monoclinic'
loop_
_space_group_symop_operation_xyz
x,y,z
-x,y,1/2-z
-x,-y,-z
x,-y,1/2+z
1/2+x,1/2+y,z
1/2-x,1/2+y,1/2-z
1/2-x,1/2-y,-z
1/2+x,1/2-y,1/2+z
loop_
_atom_site_type_symbol
_atom_site_label
_atom_site_fract_x
_atom_site_fract_y
_atom_site_fract_z
Si Si1 0.134256 0.726938 0.127349
Si Si2 0.612814 0.094152 0.259146
Si Si3 0.451534 0.381714 0.032051
Si Si4 0.809161 0.518926 0.886731
Si Si5 0.165471 0.342964 0.237596
Si Si6 0.106999 0.074827 0.171663
Si Si7 0.109184 0.663797 0.419542
O O1 0.166033 0.667997 0.233086
O O2 0.132214 0.612476 0.066510
O O3 0.218190 0.821458 0.166931
O O4 0.031489 0.795872 0.051309
O O5 0.647203 0.159936 0.363412
O O6 0.496852 0.101979 0.157750
O O7 0.639305 0.947086 0.279546
O O8 0.505843 0.501632 0.111451
O O9 0.395582 0.306750 0.054175
O O10 0.378072 0.421945 0.908011
O O11 0.862319 0.607732 0.867220
O O12 0.695526 0.502278 0.776812
O O13 0.815817 0.582628 0.973016
O O14 0.105733 0.214469 0.205345
#
# Coordination Sequence:
#
# PCOD8131999 Si02
#       7
#     8   8   8   8   8   8   8
#     4   9  19  33  57  86 114 151 203 255 288 351
#     4   9  21  36  61  87 118 157 202 244 303 366
#     4  10  19  33  58  85 123 153 202 252 305 354
#     4  10  19  33  58  86 118 152 203 252 303 347
#     4  10  18  35  58  87 120 146 204 253 290 352
#     4  10  20  32  54  92 116 157 198 255 302 347
#     4  10  20  38  60  87 120 160 196 251 303 367
#
# _framework density 21.498913000000002
#
# number of rings (size 3 to 8) (size 9 to 14) (size 15 to 20)
#    0.000    2.286    2.857    0.000    2.000    1.714 
#    0.000    3.571    0.000    6.857    0.000    0.000 
#    0.000    0.000    0.000    0.000    0.000    0.000 
#
# Total GULP energy -347117.311131 kJ/mol
# GULP energy per Si atom -12397.046826 kJ/mol
# Density = 2.144998 g / cm^3
# Si number density = 21.498913 Si / 1000 Ang^3
#
#
#
# Elastic Constant Matrix: (Units=GPa)
#
#
# Indices 1 2 3 4 5 6 
#
# 1 49.6010 26.3573 20.0413 0.0000 -17.3409 0.0000
# 2 26.3573 112.0737 26.0568 0.0000 -11.6212 0.0000
# 3 20.0413 26.0568 97.0944 0.0000 -16.0340 0.0000
# 4 0.0000 0.0000 0.0000 22.4649 0.0000 2.2818
# 5 -17.3409 -11.6212 -16.0340 0.0000 27.4844 0.0000
# 6 0.0000 0.0000 0.0000 2.2818 0.0000 33.2926
#
#
#
# Elastic Compliance Matrix: (Units=1/GPa)
#
#
# Indices 1 2 3 4 5 6 
#
# 1 0.028752 -0.004705 -0.002218 0.000000 0.014857 0.000000
# 2 -0.004705 0.010486 -0.001772 0.000000 0.000431 0.000000
# 3 -0.002218 -0.001772 0.012037 0.000000 0.004874 0.000000
# 4 0.000000 0.000000 0.000000 0.044826 0.000000 -0.003072
# 5 0.014857 0.000431 0.004874 0.000000 0.048784 0.000000
# 6 0.000000 0.000000 0.000000 -0.003072 0.000000 0.030247
#
#
# Mechanical properties :
#
#
# Convention : Reuss Voigt Hill
#
# Bulk Modulus (GPa) = 29.51238 44.85332 37.18285
# Shear Modulus (GPa) = 24.53175 29.06929 26.80052
#
# Velocity S-wave (km/s) = 3.38164 3.68112 3.53455
# Velocity P-wave (km/s) = 5.38558 6.24307 5.83011
#
# Compressibility (1/GPa) = 0.03388409
#
# Stress axis : x y z
#
# Youngs Moduli (GPa) = 34.78055 95.36583 83.07419
#
# Poissons Ratio (x) = 0.44874 0.18430
# Poissons Ratio (y) = 0.16366 0.14717
# Poissons Ratio (z) = 0.07716 0.16895
#
# Static dielectric constant tensor:
#      x y z
#    x 3.495550 0.000000 -0.030940 
#    y 0.000000 4.237840 0.000000 
#    z -0.030940 0.000000 3.719450 
# 
# 
# High freq. dielectric constant tensor:
#      x y z
#    x 1.789180 0.000000 0.013050 
#    y 0.000000 1.862240 0.000000 
#    z 0.013050 0.000000 1.839690 
# 
# From -- ./inp_files/252414.got.cif
#   From: 2010.06.25/outbox.cif.g09.slc.cpg/sg15_127_cif.got.tgz:252414.got - 2010.06.28 07:06:18.
