data_PCOD8131831
_publ_section_title
;
Structure prediction by ZEFSAII (Michael W. Deem and Ramdas Pophale) SiO2 
 PCOD8131831
Probable space group: C 2/C
;
_chemical_formula_sum "Si O2"
_cell_formula_units_Z 60
_cell_length_a 23.421165
_cell_length_b 17.173248
_cell_length_c 11.855645
_cell_angle_alpha 90.000000
_cell_angle_beta 142.119689
_cell_angle_gamma 90.000000
_cell_volume 2927.955006
_symmetry_space_group_name_H-M "C 2/C"
_symmetry_group_IT_number 15
_symmetry_cell_setting 'monoclinic'
loop_
_space_group_symop_operation_xyz
x,y,z
-x,y,1/2-z
-x,-y,-z
x,-y,1/2+z
1/2+x,1/2+y,z
1/2-x,1/2+y,1/2-z
1/2-x,1/2-y,-z
1/2+x,1/2-y,1/2+z
loop_
_atom_site_type_symbol
_atom_site_label
_atom_site_fract_x
_atom_site_fract_y
_atom_site_fract_z
Si Si1 0.286601 0.373538 0.208032
Si Si2 0.000000 0.676235 0.750000
Si Si3 0.241326 0.913902 0.735492
Si Si4 0.871537 0.552396 0.635413
Si Si5 0.604686 0.475091 0.684479
Si Si6 0.583686 0.120499 0.295993
Si Si7 0.128407 0.286807 0.646411
Si Si8 0.288814 0.558249 0.949624
O O1 0.329070 0.448912 0.213603
O O2 0.344217 0.297309 0.262717
O O3 0.297341 0.383495 0.359111
O O4 0.180479 0.360681 0.008006
O O5 0.054705 0.620963 0.749565
O O6 0.936082 0.726297 0.565248
O O7 0.276543 0.830471 0.745945
O O8 0.143233 0.912436 0.652292
O O9 0.225568 0.968219 0.604112
O O10 0.321225 0.954802 0.935582
O O11 0.922181 0.471188 0.742953
O O12 0.799318 0.582726 0.614937
O O13 0.500000 0.500000 0.500000
O O14 0.616959 0.436971 0.827385
O O15 0.500000 0.144370 0.250000
O O16 0.576786 0.167342 0.167111
#
# Coordination Sequence:
#
# PCOD8131831 Si02
#       8
#     8   4   8   8   8   8   8   8
#     4  11  24  43  63  92 134 173 213 270 346 383
#     4  10  24  36  60 100 128 174 212 260 334 386
#     4   9  18  36  58  86 120 168 209 262 328 373
#     4  10  18  34  60  93 125 153 216 269 311 384
#     4  10  21  38  62  93 121 167 232 270 312 389
#     4  12  23  39  68  99 127 169 218 273 337 397
#     4  11  24  42  63  91 143 169 210 273 336 409
#     4  10  18  36  64  84 122 168 213 265 320 381
#
# _framework density 20.492117
#
# number of rings (size 3 to 8) (size 9 to 14) (size 15 to 20)
#    0.000    1.600    6.000    0.400    1.867    3.733 
#    2.400    6.000    0.000    0.000    0.000    0.000 
#    0.000    0.000    0.000    0.000    0.000    0.000 
#
# Total GULP energy -371868.427575 kJ/mol
# GULP energy per Si atom -12395.614253 kJ/mol
# Density = 2.044548 g / cm^3
# Si number density = 20.492117 Si / 1000 Ang^3
#
#
#
# Elastic Constant Matrix: (Units=GPa)
#
#
# Indices 1 2 3 4 5 6 
#
# 1 86.8504 7.8222 36.6762 0.0000 -2.2751 0.0000
# 2 7.8222 51.5871 2.7455 0.0000 -3.1696 0.0000
# 3 36.6762 2.7455 90.0968 0.0000 5.5595 0.0000
# 4 0.0000 0.0000 0.0000 18.4625 0.0000 -7.5061
# 5 -2.2751 -3.1696 5.5595 0.0000 33.0869 0.0000
# 6 0.0000 0.0000 0.0000 -7.5061 0.0000 9.4415
#
#
#
# Elastic Compliance Matrix: (Units=1/GPa)
#
#
# Indices 1 2 3 4 5 6 
#
# 1 0.014178 -0.001730 -0.005829 0.000000 0.001789 0.000000
# 2 -0.001730 0.019756 -0.000007 0.000000 0.001775 0.000000
# 3 -0.005829 -0.000007 0.013639 0.000000 -0.002693 0.000000
# 4 0.000000 0.000000 0.000000 0.080032 0.000000 0.063626
# 5 0.001789 0.001775 -0.002693 0.000000 0.030969 0.000000
# 6 0.000000 0.000000 0.000000 0.063626 0.000000 0.156499
#
#
# Mechanical properties :
#
#
# Convention : Reuss Voigt Hill
#
# Bulk Modulus (GPa) = 30.82579 35.89135 33.35857
# Shear Modulus (GPa) = 14.66194 24.28420 19.47307
#
# Velocity S-wave (km/s) = 2.67777 3.44619 3.08599
# Velocity P-wave (km/s) = 4.96347 5.77821 5.38627
#
# Compressibility (1/GPa) = 0.03244036
#
# Stress axis : x y z
#
# Youngs Moduli (GPa) = 70.52989 50.61651 73.32142
#
# Poissons Ratio (x) = 0.08755 0.42742
# Poissons Ratio (y) = 0.12200 0.00054
# Poissons Ratio (z) = 0.41114 0.00038
#
# Static dielectric constant tensor:
#      x y z
#    x 3.995250 0.000000 -0.013220 
#    y 0.000000 3.427530 0.000000 
#    z -0.013220 0.000000 3.741670 
# 
# 
# High freq. dielectric constant tensor:
#      x y z
#    x 1.803540 0.000000 -0.010630 
#    y 0.000000 1.771800 0.000000 
#    z -0.010630 0.000000 1.805170 
# 
# From -- ./inp_files/119468.got.cif
#   From: 2010.06.25/outbox.cif.g09.slc.cpg/sg15_60_cif.got.tgz:119468.got - 2010.06.28 07:06:18.
