data_PCOD8131584
_publ_section_title
;
Structure prediction by ZEFSAII (Michael W. Deem and Ramdas Pophale) SiO2 
 PCOD8131584
Probable space group: C 2/C
;
_chemical_formula_sum "Si O2"
_cell_formula_units_Z 56
_cell_length_a 16.085368
_cell_length_b 8.232346
_cell_length_c 22.905078
_cell_angle_alpha 90.000000
_cell_angle_beta 115.837080
_cell_angle_gamma 90.000000
_cell_volume 2729.899845
_symmetry_space_group_name_H-M "C 2/C"
_symmetry_group_IT_number 15
_symmetry_cell_setting 'monoclinic'
loop_
_space_group_symop_operation_xyz
x,y,z
-x,y,1/2-z
-x,-y,-z
x,-y,1/2+z
1/2+x,1/2+y,z
1/2-x,1/2+y,1/2-z
1/2-x,1/2-y,-z
1/2+x,1/2-y,1/2+z
loop_
_atom_site_type_symbol
_atom_site_label
_atom_site_fract_x
_atom_site_fract_y
_atom_site_fract_z
Si Si1 0.444430 0.477742 0.287157
Si Si2 0.903282 0.182551 0.110407
Si Si3 0.231006 0.949924 0.837235
Si Si4 0.395388 0.523766 0.982584
Si Si5 0.601786 0.747583 0.622667
Si Si6 0.460606 0.967577 0.061643
Si Si7 0.632771 0.832565 0.057203
O O1 0.500000 0.395825 0.250000
O O2 0.502619 0.632405 0.327341
O O3 0.341239 0.517178 0.236064
O O4 0.438862 0.363151 0.340150
O O5 0.816479 0.148656 0.124891
O O6 0.912887 0.377203 0.101964
O O7 0.881512 0.087613 0.043705
O O8 0.308418 0.843401 0.828616
O O9 0.280605 0.114982 0.875692
O O10 0.362706 0.654122 0.924409
O O11 0.345123 0.347372 0.960593
O O12 0.500000 0.500000 0.000000
O O13 0.516417 0.868119 0.588236
O O14 0.531942 0.831118 0.058318
O O15 0.376861 0.021745 0.993478
#
# Coordination Sequence:
#
# PCOD8131584 Si02
#       7
#     8   8   8   8   8   8   8
#     4  10  22  43  61  78 115 162 198 236 290 357
#     4  11  21  39  62  86 119 158 197 241 301 355
#     4  10  25  39  57  89 125 155 193 251 300 349
#     4  12  19  35  65  89 114 156 199 242 295 358
#     4  11  22  39  61  90 116 152 203 246 297 355
#     4  10  18  33  60  84 116 149 194 242 294 357
#     4  10  19  34  55  89 117 153 192 240 297 348
#
# _framework density 20.513573000000001
#
# number of rings (size 3 to 8) (size 9 to 14) (size 15 to 20)
#    0.000    1.429    4.286    1.714    0.000    6.286 
#    0.000    6.429    0.000    0.000    0.000    0.000 
#    0.000    0.000    0.000    0.000    0.000    0.000 
#
# Total GULP energy -346940.764415 kJ/mol
# GULP energy per Si atom -12390.741586 kJ/mol
# Density = 2.046688 g / cm^3
# Si number density = 20.513573 Si / 1000 Ang^3
#
#
#
# Elastic Constant Matrix: (Units=GPa)
#
#
# Indices 1 2 3 4 5 6 
#
# 1 31.0396 15.0676 9.1720 0.0000 4.9160 0.0000
# 2 15.0676 91.0591 23.2576 0.0000 4.3193 0.0000
# 3 9.1720 23.2576 82.2880 0.0000 7.7853 0.0000
# 4 0.0000 0.0000 0.0000 7.3860 0.0000 -2.7587
# 5 4.9160 4.3193 7.7853 0.0000 37.1500 0.0000
# 6 0.0000 0.0000 0.0000 -2.7587 0.0000 22.5178
#
#
#
# Elastic Compliance Matrix: (Units=1/GPa)
#
#
# Indices 1 2 3 4 5 6 
#
# 1 0.035982 -0.005220 -0.002185 0.000000 -0.003697 0.000000
# 2 -0.005220 0.012611 -0.002968 0.000000 -0.000153 0.000000
# 3 -0.002185 -0.002968 0.013441 0.000000 -0.002183 0.000000
# 4 0.000000 0.000000 0.000000 0.141884 0.000000 0.017383
# 5 -0.003697 -0.000153 -0.002183 0.000000 0.027882 0.000000
# 6 0.000000 0.000000 0.000000 0.017383 0.000000 0.046539
#
#
# Mechanical properties :
#
#
# Convention : Reuss Voigt Hill
#
# Bulk Modulus (GPa) = 24.22068 33.26457 28.74262
# Shear Modulus (GPa) = 15.98209 23.87006 19.92607
#
# Velocity S-wave (km/s) = 2.79426 3.41489 3.12005
# Velocity P-wave (km/s) = 4.71628 5.63913 5.19822
#
# Compressibility (1/GPa) = 0.04128704
#
# Stress axis : x y z
#
# Youngs Moduli (GPa) = 27.79144 79.29557 74.39714
#
# Poissons Ratio (x) = 0.41396 0.16259
# Poissons Ratio (y) = 0.14508 0.22081
# Poissons Ratio (z) = 0.06074 0.23535
#
# Static dielectric constant tensor:
#      x y z
#    x 3.571020 0.000000 0.016490 
#    y 0.000000 3.937710 0.000000 
#    z 0.016490 0.000000 3.787310 
# 
# 
# High freq. dielectric constant tensor:
#      x y z
#    x 1.792400 0.000000 0.007800 
#    y 0.000000 1.800170 0.000000 
#    z 0.007800 0.000000 1.800620 
# 
# From -- ./inp_files/247560.got.cif
#   From: 2010.06.25/outbox.cif.g09.slc.cpg/sg15_124_cif.got.tgz:247560.got - 2010.06.28 07:06:18.
