data_PCOD8131832
_publ_section_title
;
Structure prediction by ZEFSAII (Michael W. Deem and Ramdas Pophale) SiO2 
 PCOD8131832
Probable space group: C 2/C
;
_chemical_formula_sum "Si O2"
_cell_formula_units_Z 56
_cell_length_a 9.386803
_cell_length_b 16.109112
_cell_length_c 23.947497
_cell_angle_alpha 90.000000
_cell_angle_beta 139.697698
_cell_angle_gamma 90.000000
_cell_volume 2342.249499
_symmetry_space_group_name_H-M "C 2/C"
_symmetry_group_IT_number 15
_symmetry_cell_setting 'monoclinic'
loop_
_space_group_symop_operation_xyz
x,y,z
-x,y,1/2-z
-x,-y,-z
x,-y,1/2+z
1/2+x,1/2+y,z
1/2-x,1/2+y,1/2-z
1/2-x,1/2-y,-z
1/2+x,1/2-y,1/2+z
loop_
_atom_site_type_symbol
_atom_site_label
_atom_site_fract_x
_atom_site_fract_y
_atom_site_fract_z
Si Si1 0.321063 0.408478 0.660365
Si Si2 0.021639 0.011372 0.891153
Si Si3 0.305436 0.842853 0.235316
Si Si4 0.905812 0.624863 0.976858
Si Si5 0.942831 0.552163 0.872219
Si Si6 0.334407 0.054385 0.148456
Si Si7 0.433513 0.242239 0.166721
O O1 0.500000 0.355190 0.750000
O O2 0.454375 0.440688 0.647397
O O3 0.109058 0.353207 0.578885
O O4 0.259905 0.488507 0.680383
O O5 0.924141 0.959666 0.914372
O O6 0.248976 0.062710 0.965718
O O7 0.826498 0.075445 0.820690
O O8 0.500000 0.823874 0.250000
O O9 0.387922 0.862980 0.322786
O O10 0.143771 0.763391 0.190577
O O11 0.776328 0.704694 0.916533
O O12 0.016358 0.577416 0.956972
O O13 0.131056 0.505812 0.893726
O O14 0.500000 0.034897 0.250000
O O15 0.370899 0.147672 0.138566
O O16 0.500000 0.263735 0.250000
#
# Coordination Sequence:
#
# PCOD8131832 Si02
#       7
#     8   8   8   8   8   8   8
#     4  11  21  38  64  95 124 161 222 285 325 389
#     4  10  18  34  60  93 126 159 220 262 309 390
#     4  11  18  33  60  92 129 170 212 272 316 378
#     4  10  23  38  61  98 123 171 223 267 334 386
#     4  11  18  35  62  94 124 162 214 267 316 389
#     4  11  20  36  60  96 127 181 220 249 319 396
#     4  10  22  38  62  90 137 177 212 264 325 388
#
# _framework density 23.908639999999998
#
# number of rings (size 3 to 8) (size 9 to 14) (size 15 to 20)
#    0.000    1.429    5.714    1.714    0.000    0.000 
#    0.000   10.714    0.000    0.000    0.000    0.000 
#    0.000    0.000    0.000    0.000    0.000    0.000 
#
# Total GULP energy -346916.240170 kJ/mol
# GULP energy per Si atom -12389.865720 kJ/mol
# Density = 2.385422 g / cm^3
# Si number density = 23.908640 Si / 1000 Ang^3
#
#
#
# Elastic Constant Matrix: (Units=GPa)
#
#
# Indices 1 2 3 4 5 6 
#
# 1 165.7308 41.3868 39.2736 0.0001 30.8378 0.0000
# 2 41.3868 83.7435 37.5329 0.0000 12.7740 0.0000
# 3 39.2736 37.5329 162.9098 0.0003 10.9674 0.0001
# 4 0.0001 0.0000 0.0003 7.7885 0.0001 3.6679
# 5 30.8378 12.7740 10.9674 0.0001 19.4355 0.0001
# 6 0.0000 0.0000 0.0001 3.6679 0.0001 27.7048
#
#
#
# Elastic Compliance Matrix: (Units=1/GPa)
#
#
# Indices 1 2 3 4 5 6 
#
# 1 0.009120 -0.002217 -0.000844 0.000000 -0.012538 0.000000
# 2 -0.002217 0.014931 -0.002580 0.000000 -0.004841 0.000000
# 3 -0.000844 -0.002580 0.006998 0.000000 -0.000914 0.000000
# 4 0.000000 0.000000 0.000000 0.136932 -0.000001 -0.018129
# 5 -0.012538 -0.004841 -0.000914 -0.000001 0.075044 0.000000
# 6 0.000000 0.000000 0.000000 -0.018129 0.000000 0.038495
#
#
# Mechanical properties :
#
#
# Convention : Reuss Voigt Hill
#
# Bulk Modulus (GPa) = 50.58486 72.08564 61.33525
# Shear Modulus (GPa) = 16.70063 30.59847 23.64955
#
# Velocity S-wave (km/s) = 2.64582 3.58132 3.14851
# Velocity P-wave (km/s) = 5.52606 6.87874 6.23916
#
# Compressibility (1/GPa) = 0.01976876
#
# Stress axis : x y z
#
# Youngs Moduli (GPa) = 109.64452 66.97328 142.90375
#
# Poissons Ratio (x) = 0.14846 0.12060
# Poissons Ratio (y) = 0.24304 0.36866
# Poissons Ratio (z) = 0.09253 0.17278
#
# Static dielectric constant tensor:
#      x y z
#    x 4.606900 0.000000 0.108270 
#    y 0.000000 3.944760 0.000000 
#    z 0.108270 0.000000 4.262270 
# 
# 
# High freq. dielectric constant tensor:
#      x y z
#    x 1.967620 0.000000 0.006240 
#    y 0.000000 1.921720 0.000000 
#    z 0.006240 0.000000 1.935630 
# 
# From -- ./inp_files/289777.got.cif
#   From: 2010.06.25/outbox.cif.g09.slc.cpg/sg15_145_cif.got.tgz:289777.got - 2010.06.28 07:06:18.
