data_PCOD8131126
_publ_section_title
;
Structure prediction by ZEFSAII (Michael W. Deem and Ramdas Pophale) SiO2 
 PCOD8131126
Probable space group: C 2/C
;
_chemical_formula_sum "Si O2"
_cell_formula_units_Z 52
_cell_length_a 8.907531
_cell_length_b 26.420973
_cell_length_c 14.093079
_cell_angle_alpha 90.000000
_cell_angle_beta 59.981048
_cell_angle_gamma 90.000000
_cell_volume 2871.836412
_symmetry_space_group_name_H-M "C 2/C"
_symmetry_group_IT_number 15
_symmetry_cell_setting 'monoclinic'
loop_
_space_group_symop_operation_xyz
x,y,z
-x,y,1/2-z
-x,-y,-z
x,-y,1/2+z
1/2+x,1/2+y,z
1/2-x,1/2+y,1/2-z
1/2-x,1/2-y,-z
1/2+x,1/2-y,1/2+z
loop_
_atom_site_type_symbol
_atom_site_label
_atom_site_fract_x
_atom_site_fract_y
_atom_site_fract_z
Si Si1 0.000000 0.026699 0.750000
Si Si2 0.829945 0.054906 0.175557
Si Si3 0.931484 0.810578 0.501264
Si Si4 0.415201 0.643121 0.371295
Si Si5 0.918425 0.618128 0.120528
Si Si6 0.543170 0.775789 0.638261
Si Si7 0.799255 0.915571 0.476327
O O1 0.874154 0.058677 0.858282
O O2 0.872836 0.996256 0.718973
O O3 0.658568 0.080567 0.275006
O O4 0.994424 0.090102 0.137058
O O5 0.805710 0.048469 0.068957
O O6 0.744862 0.787542 0.579102
O O7 0.025389 0.766387 0.413230
O O8 0.910395 0.864464 0.455701
O O9 0.050677 0.817057 0.556118
O O10 0.500000 0.667291 0.250000
O O11 0.213818 0.627965 0.424530
O O12 0.938518 0.672320 0.162984
O O13 0.097220 0.597039 0.021157
O O14 0.500000 0.749130 0.750000
#
# Coordination Sequence:
#
# PCOD8131126 Si02
#       7
#     4   8   8   8   8   8   8
#     4  12  22  36  58  84 106 154 180 224 296 336
#     4  10  19  38  56  82 107 141 188 229 275 330
#     4   9  20  34  50  82 109 147 178 226 274 329
#     4   9  16  32  57  76 111 140 181 231 273 312
#     4  10  18  35  58  83 109 141 187 239 266 322
#     4  10  18  31  55  81 108 143 192 219 268 326
#     4  10  22  35  57  79 113 142 184 228 276 333
#
# _framework density 18.10688
#
# number of rings (size 3 to 8) (size 9 to 14) (size 15 to 20)
#    0.000    2.154    2.308    4.615    1.077    1.231 
#    0.000    0.000    0.000    0.000    0.000    0.000 
#    0.000    0.000    0.000    0.000    0.000    0.000 
#
# Total GULP energy -322153.241592 kJ/mol
# GULP energy per Si atom -12390.509292 kJ/mol
# Density = 1.806567 g / cm^3
# Si number density = 18.106880 Si / 1000 Ang^3
#
#
#
# Elastic Constant Matrix: (Units=GPa)
#
#
# Indices 1 2 3 4 5 6 
#
# 1 106.1610 35.0092 53.3673 0.0000 9.4833 0.0000
# 2 35.0092 87.3838 68.8898 0.0000 8.5414 0.0000
# 3 53.3673 68.8898 122.7214 0.0000 17.2326 0.0000
# 4 0.0000 0.0000 0.0000 6.2868 0.0000 -6.9697
# 5 9.4833 8.5414 17.2326 0.0000 24.4454 0.0000
# 6 0.0000 0.0000 0.0000 -6.9697 0.0000 23.4127
#
#
#
# Elastic Compliance Matrix: (Units=1/GPa)
#
#
# Indices 1 2 3 4 5 6 
#
# 1 0.012161 -0.001288 -0.004402 0.000000 -0.001165 0.000000
# 2 -0.001288 0.020690 -0.011220 0.000000 0.001180 0.000000
# 3 -0.004402 -0.011220 0.017281 0.000000 -0.006554 0.000000
# 4 0.000000 0.000000 0.000000 0.237417 0.000000 0.070677
# 5 -0.001165 0.001180 -0.006554 0.000000 0.045568 0.000000
# 6 0.000000 0.000000 0.000000 0.070677 0.000000 0.063752
#
#
# Mechanical properties :
#
#
# Convention : Reuss Voigt Hill
#
# Bulk Modulus (GPa) = 61.30130 70.08878 65.69504
# Shear Modulus (GPa) = 11.46458 21.42898 16.44678
#
# Velocity S-wave (km/s) = 2.51900 3.44389 3.01710
# Velocity P-wave (km/s) = 6.51070 7.38961 6.96403
#
# Compressibility (1/GPa) = 0.01631287
#
# Stress axis : x y z
#
# Youngs Moduli (GPa) = 82.22779 48.33332 57.86602
#
# Poissons Ratio (x) = 0.06226 0.25472
# Poissons Ratio (y) = 0.10592 0.64924
# Poissons Ratio (z) = 0.36196 0.54228
#
# Static dielectric constant tensor:
#      x y z
#    x 3.508310 0.000000 0.160660 
#    y 0.000000 3.381200 0.000000 
#    z 0.160660 0.000000 3.394210 
# 
# 
# High freq. dielectric constant tensor:
#      x y z
#    x 1.704990 0.000000 0.006360 
#    y 0.000000 1.688510 0.000000 
#    z 0.006360 0.000000 1.691110 
# 
# From -- ./inp_files/80615.got.cif
#   From: 2010.06.25/outbox.cif.g09.slc.cpg/sg15_41_cif.got.tgz:80615.got - 2010.06.28 07:06:18.
