data_PCOD8131874
_publ_section_title
;
Structure prediction by ZEFSAII (Michael W. Deem and Ramdas Pophale) SiO2 
 PCOD8131874
Probable space group: C 2/C
;
_chemical_formula_sum "Si O2"
_cell_formula_units_Z 40
_cell_length_a 5.001661
_cell_length_b 13.087394
_cell_length_c 26.208771
_cell_angle_alpha 90.000000
_cell_angle_beta 84.878404
_cell_angle_gamma 90.000000
_cell_volume 1708.742770
_symmetry_space_group_name_H-M "C 2/C"
_symmetry_group_IT_number 15
_symmetry_cell_setting 'monoclinic'
loop_
_space_group_symop_operation_xyz
x,y,z
-x,y,1/2-z
-x,-y,-z
x,-y,1/2+z
1/2+x,1/2+y,z
1/2-x,1/2+y,1/2-z
1/2-x,1/2-y,-z
1/2+x,1/2-y,1/2+z
loop_
_atom_site_type_symbol
_atom_site_label
_atom_site_fract_x
_atom_site_fract_y
_atom_site_fract_z
Si Si1 0.251147 0.097607 0.781947
Si Si2 0.027247 0.904498 0.390227
Si Si3 0.403096 0.324358 0.804926
Si Si4 0.485522 0.005147 0.940093
Si Si5 0.110056 0.328371 0.630342
O O1 0.500000 0.037462 0.750000
O O2 0.141724 0.043582 0.835494
O O3 0.381922 0.204014 0.796677
O O4 0.000000 0.118205 0.750000
O O5 0.264195 0.910403 0.427983
O O6 0.773361 0.968711 0.412154
O O7 0.945984 0.787845 0.384035
O O8 0.500000 0.379102 0.750000
O O9 0.606960 0.341361 0.847404
O O10 0.116622 0.369359 0.826536
O O11 0.388815 0.895310 0.920914
O O12 0.500000 0.000000 0.000000
#
# Coordination Sequence:
#
# PCOD8131874 Si02
#       5
#     8   8   8   8   8
#     4  10  18  34  63  97 130 166 204 247 308 381
#     4  11  23  43  67  93 128 166 207 259 318 378
#     4  10  18  35  63  94 129 166 201 246 309 379
#     4  12  27  45  65  92 125 164 220 277 317 364
#     4  11  23  41  66  93 126 167 208 256 315 377
#
# _framework density 23.409023999999999
#
# number of rings (size 3 to 8) (size 9 to 14) (size 15 to 20)
#    0.000    1.200    0.000   10.800    0.000    1.600 
#    0.000   10.000    0.000    0.000    0.000    0.000 
#    0.000    0.000    0.000    0.000    0.000    0.000 
#
# Total GULP energy -248026.168748 kJ/mol
# GULP energy per Si atom -12401.308437 kJ/mol
# Density = 2.335574 g / cm^3
# Si number density = 23.409024 Si / 1000 Ang^3
#
#
#
# Elastic Constant Matrix: (Units=GPa)
#
#
# Indices 1 2 3 4 5 6 
#
# 1 156.7402 21.9333 56.5627 0.0000 3.6755 0.0000
# 2 21.9333 48.4501 47.8659 0.0000 -5.8447 0.0000
# 3 56.5627 47.8659 159.8582 0.0000 19.4859 0.0000
# 4 0.0000 0.0000 0.0000 28.6437 0.0000 -3.1892
# 5 3.6755 -5.8447 19.4859 0.0000 41.4338 0.0000
# 6 0.0000 0.0000 0.0000 -3.1892 0.0000 -0.2131
#
#
#
# Elastic Compliance Matrix: (Units=1/GPa)
#
#
# Indices 1 2 3 4 5 6 
#
# 1 0.007357 -0.000969 -0.002351 0.000000 0.000317 0.000000
# 2 -0.000969 0.032780 -0.010658 0.000000 0.009722 0.000000
# 3 -0.002351 -0.010658 0.011071 0.000000 -0.006501 0.000000
# 4 0.000000 0.000000 0.000000 0.013093 0.000000 -0.195969
# 5 0.000317 0.009722 -0.006501 0.000000 0.028536 0.000000
# 6 0.000000 0.000000 0.000000 -0.195969 0.000000 -1.760112
#
#
# Mechanical properties :
#
#
# Convention : Reuss Voigt Hill
#
# Bulk Modulus (GPa) = 43.00673 68.64133 55.82403
# Shear Modulus (GPa) = -3.06454 29.88533 13.41040
#
# Velocity S-wave (km/s) = -1.14541 3.57691 2.39607
# Velocity P-wave (km/s) = 4.08197 6.81508 5.61728
#
# Compressibility (1/GPa) = 0.02325217
#
# Stress axis : x y z
#
# Youngs Moduli (GPa) = 135.92981 30.50608 90.32443
#
# Poissons Ratio (x) = 0.02956 0.21239
# Poissons Ratio (y) = 0.13173 0.96263
# Poissons Ratio (z) = 0.31963 0.32512
#
# Static dielectric constant tensor:
#      x y z
#    x 4.797970 0.000000 -0.487320 
#    y 0.000000 4.072930 0.000000 
#    z -0.487320 0.000000 4.743310 
# 
# 
# High freq. dielectric constant tensor:
#      x y z
#    x 1.953040 0.000000 0.000270 
#    y 0.000000 1.920480 0.000000 
#    z 0.000270 0.000000 1.918540 
# 
# From -- ./inp_files/260169.got.cif
#   From: 2010.06.25/outbox.cif.g09.slc.cpg/sg15_131_cif.got.tgz:260169.got - 2010.06.28 07:06:18.
