data_PCOD8131810
_publ_section_title
;
Structure prediction by ZEFSAII (Michael W. Deem and Ramdas Pophale) SiO2 
 PCOD8131810
Probable space group: C 2/C
;
_chemical_formula_sum "Si O2"
_cell_formula_units_Z 48
_cell_length_a 13.797864
_cell_length_b 22.627762
_cell_length_c 9.861679
_cell_angle_alpha 90.000000
_cell_angle_beta 59.834132
_cell_angle_gamma 90.000000
_cell_volume 2661.991403
_symmetry_space_group_name_H-M "C 2/C"
_symmetry_group_IT_number 15
_symmetry_cell_setting 'monoclinic'
loop_
_space_group_symop_operation_xyz
x,y,z
-x,y,1/2-z
-x,-y,-z
x,-y,1/2+z
1/2+x,1/2+y,z
1/2-x,1/2+y,1/2-z
1/2-x,1/2-y,-z
1/2+x,1/2-y,1/2+z
loop_
_atom_site_type_symbol
_atom_site_label
_atom_site_fract_x
_atom_site_fract_y
_atom_site_fract_z
Si Si1 0.881407 0.786180 0.285855
Si Si2 0.869334 0.447075 0.814650
Si Si3 0.585499 0.604123 0.302088
Si Si4 0.751761 0.826275 0.640987
Si Si5 0.935678 0.092142 0.654925
Si Si6 0.254794 0.499224 0.341143
O O1 0.818214 0.815124 0.456767
O O2 0.812434 0.732922 0.266800
O O3 0.900816 0.838799 0.164459
O O4 0.000000 0.759491 0.250000
O O5 0.835452 0.378729 0.825335
O O6 0.841526 0.480873 0.695118
O O7 0.000000 0.452019 0.750000
O O8 0.800987 0.477968 0.981955
O O9 0.500000 0.628863 0.250000
O O10 0.662542 0.658063 0.298787
O O11 0.519428 0.575343 0.474886
O O12 0.661647 0.553085 0.183017
O O13 0.000000 0.080150 0.750000
O O14 0.824151 0.053580 0.723581
#
# Coordination Sequence:
#
# PCOD8131810 Si02
#       6
#     8   8   8   8   8   8
#     4  10  18  34  60  82 104 133 192 235 268 308
#     4  11  22  37  54  80 112 149 187 225 274 328
#     4  11  21  34  54  84 118 143 175 227 286 329
#     4  10  20  35  56  83 106 143 184 233 268 319
#     4  11  18  35  57  84 107 143 189 233 272 322
#     4  11  21  35  54  82 111 150 183 228 274 330
#
# _framework density 18.031611999999999
#
# number of rings (size 3 to 8) (size 9 to 14) (size 15 to 20)
#    0.000    1.333    5.000    4.000    0.000    0.000 
#    0.000    0.833    0.000    1.000    0.000    0.000 
#    0.000    0.000    0.000    0.000    0.000    0.000 
#
# Total GULP energy -297647.365021 kJ/mol
# GULP energy per Si atom -12401.973543 kJ/mol
# Density = 1.799057 g / cm^3
# Si number density = 18.031612 Si / 1000 Ang^3
#
#
#
# Elastic Constant Matrix: (Units=GPa)
#
#
# Indices 1 2 3 4 5 6 
#
# 1 123.1712 53.9845 15.7518 0.0000 2.4508 0.0000
# 2 53.9845 100.5544 13.0204 0.0000 1.7735 0.0000
# 3 15.7518 13.0204 32.4537 0.0000 1.1715 0.0000
# 4 0.0000 0.0000 0.0000 -0.7325 0.0000 -21.2017
# 5 2.4508 1.7735 1.1715 0.0000 28.9792 0.0000
# 6 0.0000 0.0000 0.0000 -21.2017 0.0000 4.6214
#
#
#
# Elastic Compliance Matrix: (Units=1/GPa)
#
#
# Indices 1 2 3 4 5 6 
#
# 1 0.010912 -0.005450 -0.003093 0.000000 -0.000464 0.000000
# 2 -0.005450 0.013218 -0.002649 0.000000 -0.000241 0.000000
# 3 -0.003093 -0.002649 0.033411 0.000000 -0.000927 0.000000
# 4 0.000000 0.000000 0.000000 -0.010204 0.000000 -0.046813
# 5 -0.000464 -0.000241 -0.000927 0.000000 0.034599 0.000000
# 6 0.000000 0.000000 0.000000 -0.046813 0.000000 0.001617
#
#
# Mechanical properties :
#
#
# Convention : Reuss Voigt Hill
#
# Bulk Modulus (GPa) = 28.44416 46.85474 37.64945
# Shear Modulus (GPa) = 42.49671 18.13512 30.31592
#
# Velocity S-wave (km/s) = 4.85994 3.17478 4.10477
# Velocity P-wave (km/s) = 6.87757 6.28332 6.58715
#
# Compressibility (1/GPa) = 0.03515660
#
# Stress axis : x y z
#
# Youngs Moduli (GPa) = 91.64131 75.65494 29.93051
#
# Poissons Ratio (x) = 0.41229 0.09258
# Poissons Ratio (y) = 0.49941 0.07929
# Poissons Ratio (z) = 0.28346 0.20043
#
# Static dielectric constant tensor:
#      x y z
#    x 3.423500 0.000000 -0.149260 
#    y 0.000000 3.438590 0.000000 
#    z -0.149260 0.000000 3.222650 
# 
# 
# High freq. dielectric constant tensor:
#      x y z
#    x 1.701400 0.000000 -0.014800 
#    y 0.000000 1.699070 0.000000 
#    z -0.014800 0.000000 1.688660 
# 
# From -- ./inp_files/32525.got.cif
#   From: 2010.06.25/outbox.cif.g09.slc.cpg/sg15_17_cif.got.tgz:32525.got - 2010.06.28 07:06:18.
