data_PCOD8131990
_publ_section_title
;
Structure prediction by ZEFSAII (Michael W. Deem and Ramdas Pophale) SiO2 
 PCOD8131990
Probable space group: C 2/C
;
_chemical_formula_sum "Si O2"
_cell_formula_units_Z 48
_cell_length_a 29.938589
_cell_length_b 5.092364
_cell_length_c 15.993306
_cell_angle_alpha 90.000000
_cell_angle_beta 71.500569
_cell_angle_gamma 90.000000
_cell_volume 2312.315238
_symmetry_space_group_name_H-M "C 2/C"
_symmetry_group_IT_number 15
_symmetry_cell_setting 'monoclinic'
loop_
_space_group_symop_operation_xyz
x,y,z
-x,y,1/2-z
-x,-y,-z
x,-y,1/2+z
1/2+x,1/2+y,z
1/2-x,1/2+y,1/2-z
1/2-x,1/2-y,-z
1/2+x,1/2-y,1/2+z
loop_
_atom_site_type_symbol
_atom_site_label
_atom_site_fract_x
_atom_site_fract_y
_atom_site_fract_z
Si Si1 0.682061 0.292135 0.966107
Si Si2 0.892155 0.537570 0.597469
Si Si3 0.603602 0.449575 0.119453
Si Si4 0.946342 0.972924 0.007277
Si Si5 0.869373 0.434099 0.299328
Si Si6 0.728638 0.957940 0.076197
O O1 0.657592 0.070936 0.922749
O O2 0.726853 0.434318 0.894474
O O3 0.643639 0.502864 0.023503
O O4 0.703871 0.183667 0.038294
O O5 0.925379 0.314843 0.539080
O O6 0.880800 0.472488 0.699744
O O7 0.918249 0.815258 0.578530
O O8 0.603515 0.667155 0.191807
O O9 0.610897 0.158942 0.151249
O O10 0.556172 0.467738 0.091593
O O11 0.000000 0.000000 0.000000
O O12 0.813463 0.362087 0.338194
O O13 0.750000 0.750000 0.000000
#
# Coordination Sequence:
#
# PCOD8131990 Si02
#       6
#     8   8   8   8   8   8
#     4   9  20  35  56  85 118 167 210 246 289 364
#     4  11  24  41  61  94 128 156 201 270 326 356
#     4  10  20  39  63  84 120 167 206 242 316 377
#     4  11  23  44  69  90 115 160 213 257 314 401
#     4  11  22  39  59  92 130 163 200 259 312 358
#     4  10  18  35  58  84 119 168 219 237 280 370
#
# _framework density 20.758414999999999
#
# number of rings (size 3 to 8) (size 9 to 14) (size 15 to 20)
#    0.000    1.667    1.667    4.500    2.333    0.000 
#    3.000    5.000    0.000    0.000    0.000    0.000 
#    0.000    0.000    0.000    0.000    0.000    0.000 
#
# Total GULP energy -297356.403335 kJ/mol
# GULP energy per Si atom -12389.850139 kJ/mol
# Density = 2.071117 g / cm^3
# Si number density = 20.758415 Si / 1000 Ang^3
#
#
#
# Elastic Constant Matrix: (Units=GPa)
#
#
# Indices 1 2 3 4 5 6 
#
# 1 131.8985 32.0661 31.7560 0.0000 23.9753 0.0000
# 2 32.0661 93.5635 11.9211 0.0000 6.0442 0.0000
# 3 31.7560 11.9211 80.5683 0.0000 9.7708 0.0000
# 4 0.0000 0.0000 0.0000 28.6127 0.0000 2.7386
# 5 23.9753 6.0442 9.7708 0.0000 22.3534 0.0000
# 6 0.0000 0.0000 0.0000 2.7386 0.0000 29.8487
#
#
#
# Elastic Compliance Matrix: (Units=1/GPa)
#
#
# Indices 1 2 3 4 5 6 
#
# 1 0.010590 -0.002682 -0.002627 0.000000 -0.009485 0.000000
# 2 -0.002682 0.011692 -0.000674 0.000000 0.000010 0.000000
# 3 -0.002627 -0.000674 0.013921 0.000000 -0.003085 0.000000
# 4 0.000000 0.000000 0.000000 0.035259 0.000000 -0.003235
# 5 -0.009485 0.000010 -0.003085 0.000000 0.056255 0.000000
# 6 0.000000 0.000000 0.000000 -0.003235 0.000000 0.033799
#
#
# Mechanical properties :
#
#
# Convention : Reuss Voigt Hill
#
# Bulk Modulus (GPa) = 41.25837 50.83517 46.04677
# Shear Modulus (GPa) = 27.53870 31.51542 29.52706
#
# Velocity S-wave (km/s) = 3.64624 3.90064 3.77558
# Velocity P-wave (km/s) = 6.13559 6.69543 6.42161
#
# Compressibility (1/GPa) = 0.02423751
#
# Stress axis : x y z
#
# Youngs Moduli (GPa) = 94.42665 85.52580 71.83317
#
# Poissons Ratio (x) = 0.22938 0.18871
# Poissons Ratio (y) = 0.25326 0.04842
# Poissons Ratio (z) = 0.24806 0.05765
#
# Static dielectric constant tensor:
#      x y z
#    x 4.812310 0.000000 0.222750 
#    y 0.000000 4.186520 0.000000 
#    z 0.222750 0.000000 3.558160 
# 
# 
# High freq. dielectric constant tensor:
#      x y z
#    x 1.817860 0.000000 0.013100 
#    y 0.000000 1.817890 0.000000 
#    z 0.013100 0.000000 1.780490 
# 
# From -- ./inp_files/175694.got.cif
#   From: 2010.06.25/outbox.cif.g09.slc.cpg/sg15_88_cif.got.tgz:175694.got - 2010.06.28 07:06:18.
