data_PCOD8131475
_publ_section_title
;
Structure prediction by ZEFSAII (Michael W. Deem and Ramdas Pophale) SiO2 
 PCOD8131475
Probable space group: C 2/C
;
_chemical_formula_sum "Si O2"
_cell_formula_units_Z 64
_cell_length_a 22.422014
_cell_length_b 9.364021
_cell_length_c 21.138716
_cell_angle_alpha 90.000000
_cell_angle_beta 129.303044
_cell_angle_gamma 90.000000
_cell_volume 3434.377330
_symmetry_space_group_name_H-M "C 2/C"
_symmetry_group_IT_number 15
_symmetry_cell_setting 'monoclinic'
loop_
_space_group_symop_operation_xyz
x,y,z
-x,y,1/2-z
-x,-y,-z
x,-y,1/2+z
1/2+x,1/2+y,z
1/2-x,1/2+y,1/2-z
1/2-x,1/2-y,-z
1/2+x,1/2-y,1/2+z
loop_
_atom_site_type_symbol
_atom_site_label
_atom_site_fract_x
_atom_site_fract_y
_atom_site_fract_z
Si Si1 0.672626 0.692044 0.612311
Si Si2 0.916739 0.767624 0.226209
Si Si3 0.808058 0.860110 0.512240
Si Si4 0.308680 0.379286 0.853022
Si Si5 0.763134 0.655000 0.069050
Si Si6 0.911039 0.089403 0.201380
Si Si7 0.649285 0.205057 0.731925
Si Si8 0.366050 0.110143 0.306837
O O1 0.653277 0.706616 0.524901
O O2 0.647860 0.532161 0.616538
O O3 0.763675 0.695940 0.685944
O O4 0.627077 0.819613 0.618131
O O5 0.852716 0.671390 0.147935
O O6 0.920004 0.710311 0.299885
O O7 0.000000 0.750043 0.250000
O O8 0.888259 0.931560 0.210501
O O9 0.750000 0.750000 0.500000
O O10 0.872264 0.892534 0.607124
O O11 0.753816 0.992624 0.458734
O O12 0.296960 0.306019 0.914482
O O13 0.359968 0.283555 0.841534
O O14 0.223614 0.388263 0.768152
O O15 0.750000 0.750000 0.000000
O O16 0.892738 0.210131 0.240371
O O17 0.000000 0.098913 0.250000
O O18 0.608339 0.053486 0.688076
#
# Coordination Sequence:
#
# PCOD8131475 Si02
#       8
#     8   8   8   8   8   8   8   8
#     4   9  17  32  54  79 110 142 185 233 276 327
#     4  10  21  37  57  82 115 151 190 227 282 339
#     4  11  21  36  57  86 116 146 187 233 287 328
#     4   8  17  29  51  79 107 138 183 230 275 323
#     4  10  19  35  57  85 113 144 187 235 276 330
#     4  11  23  37  57  81 116 153 187 228 281 345
#     4  10  18  33  54  82 111 142 189 232 277 331
#     4   9  18  31  53  81 106 143 188 231 278 326
#
# _framework density 18.635110999999998
#
# number of rings (size 3 to 8) (size 9 to 14) (size 15 to 20)
#    0.000    2.250    2.500    1.500    0.000    4.500 
#    0.000    0.000    2.750    3.750    0.000    0.000 
#    0.000    0.000    0.000    0.000    0.000    0.000 
#
# Total GULP energy -396467.488258 kJ/mol
# GULP energy per Si atom -12389.609008 kJ/mol
# Density = 1.859270 g / cm^3
# Si number density = 18.635111 Si / 1000 Ang^3
#
#
#
# Elastic Constant Matrix: (Units=GPa)
#
#
# Indices 1 2 3 4 5 6 
#
# 1 78.2281 60.5683 55.6346 0.0000 -28.7421 0.0000
# 2 60.5683 122.9441 61.9566 0.0000 -30.0061 0.0000
# 3 55.6346 61.9566 81.3551 0.0000 -25.9505 0.0000
# 4 0.0000 0.0000 0.0000 21.3762 0.0000 -14.8515
# 5 -28.7421 -30.0061 -25.9505 0.0000 38.7658 0.0000
# 6 0.0000 0.0000 0.0000 -14.8515 0.0000 27.9721
#
#
#
# Elastic Compliance Matrix: (Units=1/GPa)
#
#
# Indices 1 2 3 4 5 6 
#
# 1 0.030023 -0.006022 -0.013137 0.000000 0.008805 0.000000
# 2 -0.006022 0.015035 -0.006414 0.000000 0.002880 0.000000
# 3 -0.013137 -0.006414 0.027299 0.000000 0.003570 0.000000
# 4 0.000000 0.000000 0.000000 0.074124 0.000000 0.039356
# 5 0.008805 0.002880 0.003570 0.000000 0.036943 0.000000
# 6 0.000000 0.000000 0.000000 0.039356 0.000000 0.056645
#
#
# Mechanical properties :
#
#
# Convention : Reuss Voigt Hill
#
# Bulk Modulus (GPa) = 47.14222 70.98294 59.06258
# Shear Modulus (GPa) = 16.76248 24.58066 20.67157
#
# Velocity S-wave (km/s) = 3.00244 3.63581 3.33420
# Velocity P-wave (km/s) = 6.11326 7.46989 6.82536
#
# Compressibility (1/GPa) = 0.02121241
#
# Stress axis : x y z
#
# Youngs Moduli (GPa) = 33.30740 66.50975 36.63201
#
# Poissons Ratio (x) = 0.40051 0.48123
# Poissons Ratio (y) = 0.20057 0.23495
# Poissons Ratio (z) = 0.43756 0.42658
#
# Static dielectric constant tensor:
#      x y z
#    x 3.344360 0.000000 -0.417100 
#    y 0.000000 3.830270 0.000000 
#    z -0.417100 0.000000 3.273540 
# 
# 
# High freq. dielectric constant tensor:
#      x y z
#    x 1.710910 0.000000 -0.034790 
#    y 0.000000 1.734980 0.000000 
#    z -0.034790 0.000000 1.701960 
# 
# From -- ./inp_files/255050.got.cif
#   From: 2010.06.25/outbox.cif.g09.slc.cpg/sg15_128_cif.got.tgz:255050.got - 2010.06.28 07:06:18.
