data_PCOD8131466
_publ_section_title
;
Structure prediction by ZEFSAII (Michael W. Deem and Ramdas Pophale) SiO2 
 PCOD8131466
Probable space group: C 2/C
;
_chemical_formula_sum "Si O2"
_cell_formula_units_Z 56
_cell_length_a 9.300737
_cell_length_b 23.776622
_cell_length_c 15.022164
_cell_angle_alpha 90.000000
_cell_angle_beta 61.305606
_cell_angle_gamma 90.000000
_cell_volume 2914.038236
_symmetry_space_group_name_H-M "C 2/C"
_symmetry_group_IT_number 15
_symmetry_cell_setting 'monoclinic'
loop_
_space_group_symop_operation_xyz
x,y,z
-x,y,1/2-z
-x,-y,-z
x,-y,1/2+z
1/2+x,1/2+y,z
1/2-x,1/2+y,1/2-z
1/2-x,1/2-y,-z
1/2+x,1/2-y,1/2+z
loop_
_atom_site_type_symbol
_atom_site_label
_atom_site_fract_x
_atom_site_fract_y
_atom_site_fract_z
Si Si1 0.089577 0.311404 0.984709
Si Si2 0.174801 0.967964 0.712329
Si Si3 0.592637 0.384774 0.889266
Si Si4 0.750573 0.918063 0.991395
Si Si5 0.074636 0.367471 0.632868
Si Si6 0.047720 0.226709 0.141792
Si Si7 0.007687 0.496998 0.646778
O O1 0.125697 0.366250 0.034981
O O2 0.258278 0.281931 0.908299
O O3 0.983982 0.325932 0.928221
O O4 0.993532 0.268113 0.077450
O O5 0.177681 0.933681 0.804505
O O6 0.194264 0.923063 0.627545
O O7 0.325600 0.012509 0.663115
O O8 0.000000 0.999582 0.750000
O O9 0.425710 0.406781 0.989022
O O10 0.727064 0.366701 0.922484
O O11 0.547322 0.331906 0.841421
O O12 0.659258 0.973374 0.053597
O O13 0.017700 0.430502 0.627358
O O14 0.000000 0.347552 0.750000
O O15 0.000000 0.254374 0.250000
O O16 0.000000 0.516315 0.750000
#
# Coordination Sequence:
#
# PCOD8131466 Si02
#       7
#     8   8   8   8   8   8   8
#     4  10  21  35  55  83 106 144 187 226 279 332
#     4  10  18  33  54  79 105 139 187 230 271 321
#     4  10  19  35  56  81 111 139 184 236 276 321
#     4  10  20  34  54  76 111 146 181 227 269 333
#     4  11  19  33  54  82 114 142 185 235 274 329
#     4  10  20  36  58  80 107 145 188 229 276 334
#     4  11  21  34  51  81 111 145 182 223 281 330
#
# _framework density 19.217317999999999
#
# number of rings (size 3 to 8) (size 9 to 14) (size 15 to 20)
#    0.000    1.714    4.286    3.429    0.000    1.714 
#    0.000    0.000    0.000    0.000    0.000    7.000 
#    0.000    0.000    0.000    0.000    0.000    0.000 
#
# Total GULP energy -347010.510497 kJ/mol
# GULP energy per Si atom -12393.232518 kJ/mol
# Density = 1.917358 g / cm^3
# Si number density = 19.217318 Si / 1000 Ang^3
#
#
#
# Elastic Constant Matrix: (Units=GPa)
#
#
# Indices 1 2 3 4 5 6 
#
# 1 163.4353 32.7902 46.8556 0.0000 -10.7664 0.0000
# 2 32.7902 52.6949 43.0842 0.0000 0.1107 0.0000
# 3 46.8556 43.0842 85.2734 0.0000 2.3680 0.0000
# 4 0.0000 0.0000 0.0000 17.9600 0.0000 -4.2475
# 5 -10.7664 0.1107 2.3680 0.0000 26.5870 0.0000
# 6 0.0000 0.0000 0.0000 -4.2475 0.0000 21.4935
#
#
#
# Elastic Compliance Matrix: (Units=1/GPa)
#
#
# Indices 1 2 3 4 5 6 
#
# 1 0.007705 -0.002151 -0.003242 0.000000 0.003418 0.000000
# 2 -0.002151 0.032982 -0.015492 0.000000 0.000371 0.000000
# 3 -0.003242 -0.015492 0.021423 0.000000 -0.003156 0.000000
# 4 0.000000 0.000000 0.000000 0.058409 0.000000 0.011543
# 5 0.003418 0.000371 -0.003156 0.000000 0.039276 0.000000
# 6 0.000000 0.000000 0.000000 0.011543 0.000000 0.048807
#
#
# Mechanical properties :
#
#
# Convention : Reuss Voigt Hill
#
# Bulk Modulus (GPa) = 49.16507 60.76263 54.96385
# Shear Modulus (GPa) = 19.44380 25.11966 22.28173
#
# Velocity S-wave (km/s) = 3.18431 3.61936 3.40878
# Velocity P-wave (km/s) = 6.25772 7.01097 6.64502
#
# Compressibility (1/GPa) = 0.02033964
#
# Stress axis : x y z
#
# Youngs Moduli (GPa) = 129.79096 30.31982 46.67830
#
# Poissons Ratio (x) = 0.06522 0.15131
# Poissons Ratio (y) = 0.27921 0.72315
# Poissons Ratio (z) = 0.42072 0.46972
#
# Static dielectric constant tensor:
#      x y z
#    x 3.895350 0.000000 -0.180960 
#    y 0.000000 3.198700 0.000000 
#    z -0.180960 0.000000 3.368090 
# 
# 
# High freq. dielectric constant tensor:
#      x y z
#    x 1.764880 0.000000 -0.010900 
#    y 0.000000 1.708440 0.000000 
#    z -0.010900 0.000000 1.728790 
# 
# From -- ./inp_files/137694.got.cif
#   From: 2010.06.25/outbox.cif.g09.slc.cpg/sg15_69_cif.got.tgz:137694.got - 2010.06.28 07:06:18.
