data_PCOD8131676
_publ_section_title
;
Structure prediction by ZEFSAII (Michael W. Deem and Ramdas Pophale) SiO2 
 PCOD8131676
Probable space group: C 2/C
;
_chemical_formula_sum "Si O2"
_cell_formula_units_Z 56
_cell_length_a 15.498573
_cell_length_b 28.172465
_cell_length_c 8.198951
_cell_angle_alpha 90.000000
_cell_angle_beta 51.339462
_cell_angle_gamma 90.000000
_cell_volume 2795.429236
_symmetry_space_group_name_H-M "C 2/C"
_symmetry_group_IT_number 15
_symmetry_cell_setting 'monoclinic'
loop_
_space_group_symop_operation_xyz
x,y,z
-x,y,1/2-z
-x,-y,-z
x,-y,1/2+z
1/2+x,1/2+y,z
1/2-x,1/2+y,1/2-z
1/2-x,1/2-y,-z
1/2+x,1/2-y,1/2+z
loop_
_atom_site_type_symbol
_atom_site_label
_atom_site_fract_x
_atom_site_fract_y
_atom_site_fract_z
Si Si1 0.876967 0.981425 0.901129
Si Si2 0.233095 0.707522 0.297628
Si Si3 0.128793 0.618261 0.574881
Si Si4 0.811674 0.885546 0.129542
Si Si5 0.869163 0.148025 0.912228
Si Si6 0.289152 0.561534 0.190496
Si Si7 0.381821 0.289186 0.929966
O O1 0.861842 0.964652 0.737124
O O2 0.000000 0.003094 0.750000
O O3 0.865463 0.937000 0.039033
O O4 0.787007 0.023062 0.046405
O O5 0.147008 0.667172 0.456912
O O6 0.319187 0.717114 0.336877
O O7 0.167907 0.757807 0.360388
O O8 0.298497 0.694166 0.053991
O O9 0.193136 0.617470 0.674314
O O10 0.170822 0.575276 0.407829
O O11 0.000000 0.609535 0.750000
O O12 0.807678 0.874368 0.327157
O O13 0.890310 0.844290 0.967467
O O14 0.000000 0.160406 0.750000
O O15 0.855543 0.109228 0.069899
O O16 0.500000 0.268077 0.750000
#
# Coordination Sequence:
#
# PCOD8131676 Si02
#       7
#     8   8   8   8   8   8   8
#     4  11  19  33  53  80 110 140 173 219 270 320
#     4   9  20  33  54  80 104 138 182 216 262 322
#     4   9  19  39  58  76 103 140 181 227 263 306
#     4  10  21  33  54  81 108 140 181 215 265 326
#     4  11  20  35  53  80 116 143 168 218 270 317
#     4  10  21  33  53  79 106 139 180 215 265 324
#     4  10  18  34  55  78 105 141 179 220 263 313
#
# _framework density 20.032700999999999
#
# number of rings (size 3 to 8) (size 9 to 14) (size 15 to 20)
#    0.000    2.000    0.000    5.143    0.000    0.571 
#    0.000    5.714    0.000    0.000    0.000    0.000 
#    0.000    0.000    0.000    0.000    0.000    0.000 
#
# Total GULP energy -346916.191725 kJ/mol
# GULP energy per Si atom -12389.863990 kJ/mol
# Density = 1.998711 g / cm^3
# Si number density = 20.032701 Si / 1000 Ang^3
#
#
#
# Elastic Constant Matrix: (Units=GPa)
#
#
# Indices 1 2 3 4 5 6 
#
# 1 55.1834 12.8141 45.2240 0.0000 -7.4747 0.0000
# 2 12.8141 88.0714 41.1424 0.0000 -18.7701 0.0000
# 3 45.2240 41.1424 123.6049 0.0000 -21.2426 0.0000
# 4 0.0000 0.0000 0.0000 50.0363 0.0000 -8.9831
# 5 -7.4747 -18.7701 -21.2426 0.0000 35.6673 0.0000
# 6 0.0000 0.0000 0.0000 -8.9831 0.0000 30.5014
#
#
#
# Elastic Compliance Matrix: (Units=1/GPa)
#
#
# Indices 1 2 3 4 5 6 
#
# 1 0.025927 0.000788 -0.009740 0.000000 0.000047 0.000000
# 2 0.000788 0.014289 -0.004148 0.000000 0.005214 0.000000
# 3 -0.009740 -0.004148 0.013712 0.000000 0.003942 0.000000
# 4 0.000000 0.000000 0.000000 0.021101 0.000000 0.006215
# 5 0.000047 0.005214 0.003942 0.000000 0.033139 0.000000
# 6 0.000000 0.000000 0.000000 0.006215 0.000000 0.034616
#
#
# Mechanical properties :
#
#
# Convention : Reuss Voigt Hill
#
# Bulk Modulus (GPa) = 36.06591 51.69119 43.87855
# Shear Modulus (GPa) = 28.05398 34.41960 31.23679
#
# Velocity S-wave (km/s) = 3.74626 4.14958 3.95307
# Velocity P-wave (km/s) = 6.06261 6.98699 6.54115
#
# Compressibility (1/GPa) = 0.02772702
#
# Stress axis : x y z
#
# Youngs Moduli (GPa) = 38.56951 69.98440 72.92693
#
# Poissons Ratio (x) = -0.05514 0.71033
# Poissons Ratio (y) = -0.03039 0.30252
# Poissons Ratio (z) = 0.37568 0.29032
#
# Static dielectric constant tensor:
#      x y z
#    x 3.433280 0.000000 0.182090 
#    y 0.000000 4.139790 0.000000 
#    z 0.182090 0.000000 3.769880 
# 
# 
# High freq. dielectric constant tensor:
#      x y z
#    x 1.754750 0.000000 0.011940 
#    y 0.000000 1.792480 0.000000 
#    z 0.011940 0.000000 1.779860 
# 
# From -- ./inp_files/35801.got.cif
#   From: 2010.06.25/outbox.cif.g09.slc.cpg/sg15_18_cif.got.tgz:35801.got - 2010.06.28 07:06:18.
