data_PCOD8131844
_publ_section_title
;
Structure prediction by ZEFSAII (Michael W. Deem and Ramdas Pophale) SiO2 
 PCOD8131844
Probable space group: C 2/C
;
_chemical_formula_sum "Si O2"
_cell_formula_units_Z 64
_cell_length_a 20.467178
_cell_length_b 9.555627
_cell_length_c 32.168471
_cell_angle_alpha 90.000000
_cell_angle_beta 146.914734
_cell_angle_gamma 90.000000
_cell_volume 3434.392624
_symmetry_space_group_name_H-M "C 2/C"
_symmetry_group_IT_number 15
_symmetry_cell_setting 'monoclinic'
loop_
_space_group_symop_operation_xyz
x,y,z
-x,y,1/2-z
-x,-y,-z
x,-y,1/2+z
1/2+x,1/2+y,z
1/2-x,1/2+y,1/2-z
1/2-x,1/2-y,-z
1/2+x,1/2-y,1/2+z
loop_
_atom_site_type_symbol
_atom_site_label
_atom_site_fract_x
_atom_site_fract_y
_atom_site_fract_z
Si Si1 0.617049 0.807313 0.932551
Si Si2 0.036070 0.520222 0.951945
Si Si3 0.927456 0.925169 0.351967
Si Si4 0.789462 0.829895 0.199807
Si Si5 0.543161 0.083497 0.227174
Si Si6 0.173127 0.415134 0.605516
Si Si7 0.090693 0.231226 0.149384
Si Si8 0.278292 0.835653 0.203253
O O1 0.536918 0.678679 0.904903
O O2 0.564516 0.883227 0.862952
O O3 0.621989 0.917133 0.972769
O O4 0.750000 0.750000 0.000000
O O5 0.918585 0.434862 0.904566
O O6 0.003178 0.642561 0.902047
O O7 0.102537 0.595523 0.025085
O O8 0.841170 0.914234 0.266448
O O9 0.849457 0.898979 0.351749
O O10 0.977448 0.082858 0.383971
O O11 0.882070 0.725328 0.228093
O O12 0.673826 0.740647 0.152524
O O13 0.756035 0.946409 0.147711
O O14 0.500000 0.042066 0.250000
O O15 0.626432 0.955886 0.256736
O O16 0.251438 0.273454 0.651493
O O17 0.172830 0.241259 0.233562
#
# Coordination Sequence:
#
# PCOD8131844 Si02
#       8
#     8   8   8   8   8   8   8   8
#     4  11  24  43  62  87 128 173 201 243 311 385
#     4  10  21  38  59  90 127 162 193 248 316 366
#     4  10  19  35  63  93 115 154 209 255 302 358
#     4   9  19  32  60  89 116 152 199 254 302 352
#     4  11  24  41  60  90 124 164 206 252 305 363
#     4  10  20  36  61  93 123 151 199 260 308 357
#     4  10  18  34  61  93 116 148 204 261 302 352
#     4  11  19  37  64  93 122 151 209 263 304 351
#
# _framework density 18.635027999999998
#
# number of rings (size 3 to 8) (size 9 to 14) (size 15 to 20)
#    0.000    1.750    5.000    0.000    1.750    0.000 
#    2.250    3.125    0.000    0.000    0.000    0.000 
#    0.000    0.000    0.000    0.000    0.000    0.000 
#
# Total GULP energy -396691.555990 kJ/mol
# GULP energy per Si atom -12396.611125 kJ/mol
# Density = 1.859261 g / cm^3
# Si number density = 18.635028 Si / 1000 Ang^3
#
#
#
# Elastic Constant Matrix: (Units=GPa)
#
#
# Indices 1 2 3 4 5 6 
#
# 1 78.0579 40.1058 31.2847 0.0000 8.0399 0.0000
# 2 40.1058 120.9854 49.3428 0.0000 6.4152 0.0001
# 3 31.2847 49.3428 92.0408 0.0000 8.7026 0.0000
# 4 0.0000 0.0000 0.0000 33.3513 0.0000 3.1718
# 5 8.0399 6.4152 8.7026 0.0000 18.7889 -0.0001
# 6 0.0000 0.0001 0.0000 3.1718 -0.0001 24.0779
#
#
#
# Elastic Compliance Matrix: (Units=1/GPa)
#
#
# Indices 1 2 3 4 5 6 
#
# 1 0.016540 -0.004003 -0.003070 0.000000 -0.004289 0.000000
# 2 -0.004003 0.011566 -0.004841 0.000000 0.000006 0.000000
# 3 -0.003070 -0.004841 0.014874 0.000000 -0.003923 0.000000
# 4 0.000000 0.000000 0.000000 0.030364 0.000000 -0.004000
# 5 -0.004289 0.000006 -0.003923 0.000000 0.056873 0.000000
# 6 0.000000 0.000000 0.000000 -0.004000 0.000000 0.042059
#
#
# Mechanical properties :
#
#
# Convention : Reuss Voigt Hill
#
# Bulk Modulus (GPa) = 52.21271 59.17229 55.69250
# Shear Modulus (GPa) = 24.69264 26.60034 25.64649
#
# Velocity S-wave (km/s) = 3.64409 3.78224 3.71381
# Velocity P-wave (km/s) = 6.76648 7.13414 6.95274
#
# Compressibility (1/GPa) = 0.01915242
#
# Stress axis : x y z
#
# Youngs Moduli (GPa) = 60.45879 86.45738 67.23029
#
# Poissons Ratio (x) = 0.34612 0.20642
# Poissons Ratio (y) = 0.24204 0.32543
# Poissons Ratio (z) = 0.18563 0.41850
#
# Static dielectric constant tensor:
#      x y z
#    x 3.140710 0.000000 -0.011090 
#    y 0.000000 3.475900 0.000000 
#    z -0.011090 0.000000 3.316920 
# 
# 
# High freq. dielectric constant tensor:
#      x y z
#    x 1.692310 0.000000 -0.005990 
#    y 0.000000 1.736650 0.000000 
#    z -0.005990 0.000000 1.714200 
# 
# From -- ./inp_files/315752.got.cif
#   From: 2010.06.25/outbox.cif.g09.slc.cpg/sg15_158_cif.got.tgz:315752.got - 2010.06.28 07:06:18.
