data_PCOD8131574
_publ_section_title
;
Structure prediction by ZEFSAII (Michael W. Deem and Ramdas Pophale) SiO2 
 PCOD8131574
Probable space group: C 2/C
;
_chemical_formula_sum "Si O2"
_cell_formula_units_Z 64
_cell_length_a 23.496464
_cell_length_b 21.171476
_cell_length_c 9.583544
_cell_angle_alpha 90.000000
_cell_angle_beta 132.595756
_cell_angle_gamma 90.000000
_cell_volume 3509.493686
_symmetry_space_group_name_H-M "C 2/C"
_symmetry_group_IT_number 15
_symmetry_cell_setting 'monoclinic'
loop_
_space_group_symop_operation_xyz
x,y,z
-x,y,1/2-z
-x,-y,-z
x,-y,1/2+z
1/2+x,1/2+y,z
1/2-x,1/2+y,1/2-z
1/2-x,1/2-y,-z
1/2+x,1/2-y,1/2+z
loop_
_atom_site_type_symbol
_atom_site_label
_atom_site_fract_x
_atom_site_fract_y
_atom_site_fract_z
Si Si1 0.101768 0.682907 0.038559
Si Si2 0.587195 0.958234 0.415517
Si Si3 0.017751 0.656221 0.425712
Si Si4 0.740528 0.339393 0.076051
Si Si5 0.235540 0.207304 0.261951
Si Si6 0.427929 0.695225 0.201342
Si Si7 0.639034 0.059072 0.713919
Si Si8 0.933301 0.210464 0.536156
O O1 0.193477 0.693136 0.225955
O O2 0.053896 0.685749 0.104101
O O3 0.086358 0.614957 0.950510
O O4 0.078278 0.735143 0.882269
O O5 0.500000 0.982760 0.250000
O O6 0.640360 0.970235 0.369467
O O7 0.629945 0.999459 0.601121
O O8 0.066316 0.607272 0.597549
O O9 0.068975 0.714171 0.454259
O O10 0.000000 0.619795 0.250000
O O11 0.774345 0.281216 0.219893
O O12 0.782406 0.403584 0.193864
O O13 0.757224 0.329136 0.940318
O O14 0.649005 0.345160 0.952713
O O15 0.152362 0.184584 0.062235
O O16 0.500000 0.659203 0.250000
O O17 0.448040 0.697051 0.397814
O O18 0.000000 0.181560 0.750000
#
# Coordination Sequence:
#
# PCOD8131574 Si02
#       8
#     8   8   8   8   8   8   8   8
#     4  11  20  34  57  82 107 147 194 223 265 328
#     4  12  24  35  54  77 110 152 193 226 256 314
#     4  11  22  34  51  74 115 151 184 226 270 312
#     4   9  18  32  56  80 106 139 185 228 273 324
#     4   9  17  33  56  80 104 143 183 226 277 332
#     4  10  18  33  59  85 109 138 178 225 277 343
#     4  12  23  38  52  77 111 153 191 229 259 318
#     4  10  19  32  51  80 111 142 169 220 282 325
#
# _framework density 18.236248
#
# number of rings (size 3 to 8) (size 9 to 14) (size 15 to 20)
#    0.000    1.500    5.000    2.625    1.750    0.000 
#    0.000    3.750    0.000    0.000    0.000    1.750 
#    0.000    0.000    0.000    0.000    0.000    0.000 
#
# Total GULP energy -396510.624159 kJ/mol
# GULP energy per Si atom -12390.957005 kJ/mol
# Density = 1.819474 g / cm^3
# Si number density = 18.236248 Si / 1000 Ang^3
#
#
#
# Elastic Constant Matrix: (Units=GPa)
#
#
# Indices 1 2 3 4 5 6 
#
# 1 126.4695 30.0888 58.7019 0.0000 15.7243 0.0000
# 2 30.0888 44.6335 15.2180 0.0000 -2.4078 0.0000
# 3 58.7019 15.2180 89.8216 0.0000 5.9153 0.0000
# 4 0.0000 0.0000 0.0000 15.8293 0.0000 -3.0924
# 5 15.7243 -2.4078 5.9153 0.0000 31.5441 0.0000
# 6 0.0000 0.0000 0.0000 -3.0924 0.0000 -0.5504
#
#
#
# Elastic Compliance Matrix: (Units=1/GPa)
#
#
# Indices 1 2 3 4 5 6 
#
# 1 0.013781 -0.007089 -0.007409 0.000000 -0.006021 0.000000
# 2 -0.007089 0.027638 -0.000426 0.000000 0.005723 0.000000
# 3 -0.007409 -0.000426 0.016004 0.000000 0.000660 0.000000
# 4 0.000000 0.000000 0.000000 0.030116 0.000000 -0.169213
# 5 -0.006021 0.005723 0.000660 0.000000 0.035016 0.000000
# 6 0.000000 0.000000 0.000000 -0.169213 0.000000 -0.866150
#
#
# Mechanical properties :
#
#
# Convention : Reuss Voigt Hill
#
# Bulk Modulus (GPa) = 36.26589 52.10464 44.18526
# Shear Modulus (GPa) = -7.09669 19.82566 6.36449
#
# Velocity S-wave (km/s) = -1.97484 3.30078 1.87019
# Velocity P-wave (km/s) = 3.83796 6.56970 5.38009
#
# Compressibility (1/GPa) = 0.02757412
#
# Stress axis : x y z
#
# Youngs Moduli (GPa) = 72.56257 36.18233 62.48427
#
# Poissons Ratio (x) = 0.25650 0.46294
# Poissons Ratio (y) = 0.51440 0.02665
# Poissons Ratio (z) = 0.53761 0.01543
#
# Static dielectric constant tensor:
#      x y z
#    x 3.632700 0.000000 0.109450 
#    y 0.000000 2.933100 0.000000 
#    z 0.109450 0.000000 3.579360 
# 
# 
# High freq. dielectric constant tensor:
#      x y z
#    x 1.713370 0.000000 0.004860 
#    y 0.000000 1.656320 0.000000 
#    z 0.004860 0.000000 1.702730 
# 
# From -- ./inp_files/63423.got.cif
#   From: 2010.06.25/outbox.cif.g09.slc.cpg/sg15_32_cif.got.tgz:63423.got - 2010.06.28 07:06:18.
