data_PCOD8131458
_publ_section_title
;
Structure prediction by ZEFSAII (Michael W. Deem and Ramdas Pophale) SiO2 
 PCOD8131458
Probable space group: C 2/C
;
_chemical_formula_sum "Si O2"
_cell_formula_units_Z 64
_cell_length_a 26.523031
_cell_length_b 18.271513
_cell_length_c 22.622161
_cell_angle_alpha 90.000000
_cell_angle_beta 158.811677
_cell_angle_gamma 90.000000
_cell_volume 3962.428345
_symmetry_space_group_name_H-M "C 2/C"
_symmetry_group_IT_number 15
_symmetry_cell_setting 'monoclinic'
loop_
_space_group_symop_operation_xyz
x,y,z
-x,y,1/2-z
-x,-y,-z
x,-y,1/2+z
1/2+x,1/2+y,z
1/2-x,1/2+y,1/2-z
1/2-x,1/2-y,-z
1/2+x,1/2-y,1/2+z
loop_
_atom_site_type_symbol
_atom_site_label
_atom_site_fract_x
_atom_site_fract_y
_atom_site_fract_z
Si Si1 0.564168 0.892317 0.755939
Si Si2 0.383182 0.542715 0.449999
Si Si3 0.651227 0.739883 0.693228
Si Si4 0.399078 0.105889 0.400166
Si Si5 0.387136 0.605210 0.580226
Si Si6 0.566691 0.976991 0.984427
Si Si7 0.446986 0.256597 0.074099
Si Si8 0.849104 0.917708 0.329615
O O1 0.500000 0.901307 0.750000
O O2 0.514857 0.964319 0.665845
O O3 0.494004 0.821789 0.649456
O O4 0.732529 0.887593 0.940043
O O5 0.259528 0.591694 0.289896
O O6 0.385789 0.548871 0.523713
O O7 0.360366 0.458606 0.405103
O O8 0.519546 0.573348 0.568665
O O9 0.587638 0.805665 0.583200
O O10 0.550570 0.717997 0.636560
O O11 0.670676 0.667412 0.674720
O O12 0.795263 0.760418 0.880525
O O13 0.498856 0.074892 0.459235
O O14 0.439857 0.063716 0.505650
O O15 0.500000 0.573584 0.750000
O O16 0.445578 0.684719 0.625410
O O17 0.725563 0.950420 0.154312
#
# Coordination Sequence:
#
# PCOD8131458 Si02
#       8
#     8   8   8   8   8   8   8   8
#     4  12  25  37  50  73 101 140 184 211 243 300
#     4  10  19  36  47  74 102 133 168 212 253 297
#     4  12  18  32  53  80 101 136 167 206 253 314
#     4  10  18  33  54  70 102 132 166 212 263 297
#     4  12  25  37  51  69 105 144 174 213 251 293
#     4  10  19  34  51  74  96 134 172 215 254 294
#     4  12  21  34  50  72 108 135 172 208 243 296
#     4  10  20  29  56  74 100 132 168 207 256 306
#
# _framework density 16.151712
#
# number of rings (size 3 to 8) (size 9 to 14) (size 15 to 20)
#    0.000    1.000    7.500    0.375    3.500    1.000 
#    0.000    0.000    0.000    0.000    0.000    0.875 
#    0.000    2.000    0.000    0.000    0.000    0.000 
#
# Total GULP energy -396627.082078 kJ/mol
# GULP energy per Si atom -12394.596315 kJ/mol
# Density = 1.611495 g / cm^3
# Si number density = 16.151712 Si / 1000 Ang^3
#
#
#
# Elastic Constant Matrix: (Units=GPa)
#
#
# Indices 1 2 3 4 5 6 
#
# 1 76.5994 35.6451 29.7224 -0.0103 1.9301 -0.0071
# 2 35.6451 85.2860 8.4600 0.0067 -15.2456 -0.0054
# 3 29.7224 8.4600 73.7528 0.0120 11.4300 0.0105
# 4 -0.0103 0.0067 0.0120 20.8225 0.0000 -4.6680
# 5 1.9301 -15.2456 11.4300 0.0000 37.5381 -0.0015
# 6 -0.0071 -0.0054 0.0105 -4.6680 -0.0015 24.4460
#
#
#
# Elastic Compliance Matrix: (Units=1/GPa)
#
#
# Indices 1 2 3 4 5 6 
#
# 1 0.019273 -0.007794 -0.006537 0.000018 -0.002166 0.000010
# 2 -0.007794 0.016198 0.000211 -0.000009 0.006915 0.000000
# 3 -0.006537 0.000211 0.016901 -0.000016 -0.004724 -0.000012
# 4 0.000018 -0.000009 -0.000016 0.050173 0.000001 0.009581
# 5 -0.002166 0.006915 -0.004724 0.000001 0.030998 0.000005
# 6 0.000010 0.000000 -0.000012 0.009581 0.000005 0.042736
#
#
# Mechanical properties :
#
#
# Convention : Reuss Voigt Hill
#
# Bulk Modulus (GPa) = 41.43833 42.58814 42.01323
# Shear Modulus (GPa) = 23.52249 27.34870 25.43559
#
# Velocity S-wave (km/s) = 3.82035 4.11936 3.97267
# Velocity P-wave (km/s) = 6.72097 7.00359 6.86374
#
# Compressibility (1/GPa) = 0.02413225
#
# Stress axis : x y z
#
# Youngs Moduli (GPa) = 51.88623 61.73681 59.16693
#
# Poissons Ratio (x) = 0.48116 0.38680
# Poissons Ratio (y) = 0.40439 -0.01250
# Poissons Ratio (z) = 0.33920 -0.01304
#
# Static dielectric constant tensor:
#      x y z
#    x 3.061980 0.000010 0.121340 
#    y 0.000010 3.274640 -0.000040 
#    z 0.121340 -0.000040 3.147720 
# 
# 
# High freq. dielectric constant tensor:
#      x y z
#    x 1.600080 0.000000 0.029100 
#    y 0.000000 1.609730 0.000000 
#    z 0.029100 0.000000 1.635260 
# 
# From -- ./inp_files/283729.got.cif
#   From: 2010.06.25/outbox.cif.g09.slc.cpg/sg15_142_cif.got.tgz:283729.got - 2010.06.28 07:06:18.
