data_PCOD8131893
_publ_section_title
;
Structure prediction by ZEFSAII (Michael W. Deem and Ramdas Pophale) SiO2 
 PCOD8131893
Probable space group: C 2/C
;
_chemical_formula_sum "Si O2"
_cell_formula_units_Z 28
_cell_length_a 22.873255
_cell_length_b 7.711857
_cell_length_c 11.030867
_cell_angle_alpha 90.000000
_cell_angle_beta 29.799553
_cell_angle_gamma 90.000000
_cell_volume 966.995173
_symmetry_space_group_name_H-M "C 2/C"
_symmetry_group_IT_number 15
_symmetry_cell_setting 'monoclinic'
loop_
_space_group_symop_operation_xyz
x,y,z
-x,y,1/2-z
-x,-y,-z
x,-y,1/2+z
1/2+x,1/2+y,z
1/2-x,1/2+y,1/2-z
1/2-x,1/2-y,-z
1/2+x,1/2-y,1/2+z
loop_
_atom_site_type_symbol
_atom_site_label
_atom_site_fract_x
_atom_site_fract_y
_atom_site_fract_z
Si Si1 0.148590 0.816051 0.913114
Si Si2 0.447800 0.764700 0.593601
Si Si3 0.500000 0.627231 0.250000
Si Si4 0.730559 0.956524 0.462175
O O1 0.192282 0.689368 0.935639
O O2 0.257478 0.855083 0.622656
O O3 0.038617 0.736610 0.040245
O O4 0.114847 0.004292 0.030858
O O5 0.508141 0.754364 0.353058
O O6 0.361285 0.599006 0.771598
O O7 0.368631 0.944165 0.752026
#
# Coordination Sequence:
#
# PCOD8131893 Si02
#       4
#     8   8   4   8
#     4  11  21  39  67  95 130 169 214 268 321 385
#     4  10  21  38  67  93 130 173 212 266 321 386
#     4  10  18  34  66  90 122 176 210 250 328 378
#     4  10  21  37  68  97 126 171 220 257 331 384
#
# _framework density 28.955677999999999
#
# number of rings (size 3 to 8) (size 9 to 14) (size 15 to 20)
#    0.000    1.714    2.857    3.429    4.000    0.000 
#    0.000    7.143   25.143    0.000    0.000    0.000 
#    0.000    0.000    0.000    0.000    0.000    0.000 
#
# Total GULP energy -173502.711549 kJ/mol
# GULP energy per Si atom -12393.050825 kJ/mol
# Density = 2.888977 g / cm^3
# Si number density = 28.955678 Si / 1000 Ang^3
#
#
#
# Elastic Constant Matrix: (Units=GPa)
#
#
# Indices 1 2 3 4 5 6 
#
# 1 68.1739 -1.1163 3.8935 0.0000 8.5685 0.0000
# 2 -1.1163 24.4903 7.5643 0.0000 -6.6706 0.0000
# 3 3.8935 7.5643 140.6367 0.0000 18.0654 0.0000
# 4 0.0000 0.0000 0.0000 39.3217 0.0000 17.8225
# 5 8.5685 -6.6706 18.0654 0.0000 26.3011 0.0000
# 6 0.0000 0.0000 0.0000 17.8225 0.0000 14.2420
#
#
#
# Elastic Compliance Matrix: (Units=1/GPa)
#
#
# Indices 1 2 3 4 5 6 
#
# 1 0.015319 -0.000881 0.000321 0.000000 -0.005435 0.000000
# 2 -0.000881 0.046244 -0.004394 0.000000 0.015034 0.000000
# 3 0.000321 -0.004394 0.008220 0.000000 -0.006865 0.000000
# 4 0.000000 0.000000 0.000000 0.058759 0.000000 -0.073532
# 5 -0.005435 0.015034 -0.006865 0.000000 0.048320 0.000000
# 6 0.000000 0.000000 0.000000 -0.073532 0.000000 0.162232
#
#
# Mechanical properties :
#
#
# Convention : Reuss Voigt Hill
#
# Bulk Modulus (GPa) = 16.70152 28.22044 22.46098
# Shear Modulus (GPa) = 13.55156 30.83692 22.19424
#
# Velocity S-wave (km/s) = 2.16570 3.26693 2.77156
# Velocity P-wave (km/s) = 3.46903 4.89874 4.24452
#
# Compressibility (1/GPa) = 0.05987479
#
# Stress axis : x y z
#
# Youngs Moduli (GPa) = 65.27984 21.62423 121.65732
#
# Poissons Ratio (x) = 0.01906 -0.03911
# Poissons Ratio (y) = 0.05754 0.53457
# Poissons Ratio (z) = -0.02098 0.09502
#
# Static dielectric constant tensor:
#      x y z
#    x 5.272960 0.000000 0.475530 
#    y 0.000000 4.949840 0.000000 
#    z 0.475530 0.000000 6.491170 
# 
# 
# High freq. dielectric constant tensor:
#      x y z
#    x 2.178550 0.000000 0.009320 
#    y 0.000000 2.138960 0.000000 
#    z 0.009320 0.000000 2.200820 
# 
# From -- ./inp_files/117061.got.cif
#   From: 2010.06.25/outbox.cif.g09.slc.cpg/sg15_59_cif.got.tgz:117061.got - 2010.06.28 07:06:18.
