data_PCOD8131360
_publ_section_title
;
Structure prediction by ZEFSAII (Michael W. Deem and Ramdas Pophale) SiO2 
 PCOD8131360
Probable space group: C 2/C
;
_chemical_formula_sum "Si O2"
_cell_formula_units_Z 48
_cell_length_a 7.978091
_cell_length_b 17.544661
_cell_length_c 23.278414
_cell_angle_alpha 90.000000
_cell_angle_beta 126.979539
_cell_angle_gamma 90.000000
_cell_volume 2602.931850
_symmetry_space_group_name_H-M "C 2/C"
_symmetry_group_IT_number 15
_symmetry_cell_setting 'monoclinic'
loop_
_space_group_symop_operation_xyz
x,y,z
-x,y,1/2-z
-x,-y,-z
x,-y,1/2+z
1/2+x,1/2+y,z
1/2-x,1/2+y,1/2-z
1/2-x,1/2-y,-z
1/2+x,1/2-y,1/2+z
loop_
_atom_site_type_symbol
_atom_site_label
_atom_site_fract_x
_atom_site_fract_y
_atom_site_fract_z
Si Si1 0.108067 0.798406 0.895580
Si Si2 0.760672 0.640844 0.965140
Si Si3 0.968883 0.266679 0.895187
Si Si4 0.100307 0.363474 0.451278
Si Si5 0.238322 0.983003 0.554172
Si Si6 0.161757 0.360737 0.832548
O O1 0.225331 0.791237 0.857020
O O2 0.118935 0.712119 0.918475
O O3 0.868093 0.826562 0.843649
O O4 0.228901 0.857683 0.962047
O O5 0.523551 0.675070 0.907510
O O6 0.862739 0.625245 0.924303
O O7 0.905827 0.705061 0.023457
O O8 0.785893 0.565230 0.007275
O O9 0.055965 0.299672 0.853447
O O10 0.138545 0.437466 0.419933
O O11 0.288447 0.937483 0.622550
O O12 0.000000 0.000000 0.500000
O O13 0.000000 0.383085 0.750000
#
# Coordination Sequence:
#
# PCOD8131360 Si02
#       6
#     8   8   8   8   8   8
#     4  10  19  34  60  86 109 150 190 244 285 349
#     4   9  17  30  54  87 116 138 180 245 291 334
#     4   9  18  33  55  85 111 143 191 233 282 342
#     4  10  18  32  58  88 116 140 193 242 296 336
#     4  11  20  33  56  87 116 153 193 242 296 349
#     4  11  23  39  58  80 120 157 193 242 299 356
#
# _framework density 18.440743000000001
#
# number of rings (size 3 to 8) (size 9 to 14) (size 15 to 20)
#    0.000    2.000    3.333    1.500    4.667    0.667 
#    0.000    0.000    7.333    0.000    0.000    0.000 
#    0.000    0.000    0.000    0.000    0.000    0.000 
#
# Total GULP energy -297320.427131 kJ/mol
# GULP energy per Si atom -12388.351130 kJ/mol
# Density = 1.839877 g / cm^3
# Si number density = 18.440743 Si / 1000 Ang^3
#
#
#
# Elastic Constant Matrix: (Units=GPa)
#
#
# Indices 1 2 3 4 5 6 
#
# 1 150.7904 40.2348 34.4690 0.0000 10.5182 0.0000
# 2 40.2348 104.6971 29.3462 0.0000 4.3399 0.0000
# 3 34.4690 29.3462 66.4296 0.0000 4.2258 0.0000
# 4 0.0000 0.0000 0.0000 8.4359 0.0000 10.0644
# 5 10.5182 4.3399 4.2258 0.0000 13.7861 0.0000
# 6 0.0000 0.0000 0.0000 10.0644 0.0000 23.1701
#
#
#
# Elastic Compliance Matrix: (Units=1/GPa)
#
#
# Indices 1 2 3 4 5 6 
#
# 1 0.008215 -0.002113 -0.003031 0.000000 -0.004673 0.000000
# 2 -0.002113 0.011499 -0.003932 0.000000 -0.000802 0.000000
# 3 -0.003031 -0.003932 0.018498 0.000000 -0.002120 0.000000
# 4 0.000000 0.000000 0.000000 0.246049 0.000000 -0.106877
# 5 -0.004673 -0.000802 -0.002120 0.000000 0.077004 0.000000
# 6 0.000000 0.000000 0.000000 -0.106877 0.000000 0.089583
#
#
# Mechanical properties :
#
#
# Convention : Reuss Voigt Hill
#
# Bulk Modulus (GPa) = 49.85598 58.89079 54.37339
# Shear Modulus (GPa) = 10.51108 23.60289 17.05698
#
# Velocity S-wave (km/s) = 2.39004 3.58149 3.04462
# Velocity P-wave (km/s) = 5.89159 7.00766 6.47372
#
# Compressibility (1/GPa) = 0.02005777
#
# Stress axis : x y z
#
# Youngs Moduli (GPa) = 121.73521 86.96428 54.05865
#
# Poissons Ratio (x) = 0.18379 0.16388
# Poissons Ratio (y) = 0.25728 0.21257
# Poissons Ratio (z) = 0.36904 0.34196
#
# Static dielectric constant tensor:
#      x y z
#    x 3.674030 0.000000 0.066140 
#    y 0.000000 3.035730 0.000000 
#    z 0.066140 0.000000 2.863740 
# 
# 
# High freq. dielectric constant tensor:
#      x y z
#    x 1.742270 0.000000 -0.001300 
#    y 0.000000 1.714680 0.000000 
#    z -0.001300 0.000000 1.650820 
# 
# From -- ./inp_files/189755.got.cif
#   From: 2010.06.25/outbox.cif.g09.slc.cpg/sg15_95_cif.got.tgz:189755.got - 2010.06.28 07:06:18.
