data_PCOD8131335
_publ_section_title
;
Structure prediction by ZEFSAII (Michael W. Deem and Ramdas Pophale) SiO2 
 PCOD8131335
Probable space group: C 2/C
;
_chemical_formula_sum "Si O2"
_cell_formula_units_Z 56
_cell_length_a 20.495036
_cell_length_b 6.351449
_cell_length_c 18.424073
_cell_angle_alpha 90.000000
_cell_angle_beta 122.295301
_cell_angle_gamma 90.000000
_cell_volume 2027.313537
_symmetry_space_group_name_H-M "C 2/C"
_symmetry_group_IT_number 15
_symmetry_cell_setting 'monoclinic'
loop_
_space_group_symop_operation_xyz
x,y,z
-x,y,1/2-z
-x,-y,-z
x,-y,1/2+z
1/2+x,1/2+y,z
1/2-x,1/2+y,1/2-z
1/2-x,1/2-y,-z
1/2+x,1/2-y,1/2+z
loop_
_atom_site_type_symbol
_atom_site_label
_atom_site_fract_x
_atom_site_fract_y
_atom_site_fract_z
Si Si1 0.383723 0.567211 0.805409
Si Si2 0.351011 0.075341 0.818451
Si Si3 0.534040 0.595433 0.350086
Si Si4 0.513882 0.016473 0.422699
Si Si5 0.721914 0.614966 0.636879
Si Si6 0.807180 0.990338 0.616995
Si Si7 0.165839 0.285571 0.034391
O O1 0.477521 0.584283 0.852260
O O2 0.345767 0.709708 0.849018
O O3 0.338237 0.619455 0.704896
O O4 0.370792 0.319529 0.815106
O O5 0.427274 0.932774 0.839140
O O6 0.279697 0.995298 0.727229
O O7 0.331333 0.062227 0.892215
O O8 0.500000 0.655876 0.250000
O O9 0.622320 0.517501 0.397743
O O10 0.540069 0.795415 0.405495
O O11 0.500000 0.000000 0.500000
O O12 0.583077 0.181074 0.445652
O O13 0.772879 0.763763 0.617026
O O14 0.676102 0.458560 0.557406
O O15 0.740808 0.124431 0.536117
#
# Coordination Sequence:
#
# PCOD8131335 Si02
#       7
#     8   8   8   8   8   8   8
#     4   8  15  29  53  80 109 147 192 244 284 342
#     4   8  15  29  53  81 106 150 193 234 286 345
#     4   9  18  34  57  83 117 159 196 240 302 359
#     4   9  18  34  57  84 119 157 197 238 299 361
#     4  10  18  32  57  88 114 147 205 249 283 354
#     4  10  19  31  54  84 112 154 191 239 303 348
#     4  10  19  31  54  84 114 151 194 246 292 347
#
# _framework density 27.62276
#
# number of rings (size 3 to 8) (size 9 to 14) (size 15 to 20)
#    0.000    2.857    1.429    1.714    0.000    0.571 
#    0.000    0.714    0.000   53.143    0.000    0.000 
#    0.000    0.000    0.000    0.000    0.000    0.000 
#
# Total GULP energy -346988.656500 kJ/mol
# GULP energy per Si atom -12392.452018 kJ/mol
# Density = 2.755989 g / cm^3
# Si number density = 27.622760 Si / 1000 Ang^3
#
#
#
# Elastic Constant Matrix: (Units=GPa)
#
#
# Indices 1 2 3 4 5 6 
#
# 1 205.8481 59.4078 49.7796 0.0000 37.8785 0.0000
# 2 59.4078 46.8116 16.1321 0.0000 5.3030 0.0002
# 3 49.7796 16.1321 87.2098 0.0000 28.8295 0.0000
# 4 0.0000 0.0000 0.0000 35.5675 0.0000 3.6157
# 5 37.8785 5.3030 28.8295 0.0000 62.2193 0.0000
# 6 0.0000 0.0002 0.0000 3.6157 0.0000 62.7871
#
#
#
# Elastic Compliance Matrix: (Units=1/GPa)
#
#
# Indices 1 2 3 4 5 6 
#
# 1 0.008993 -0.010303 -0.002017 0.000000 -0.003662 0.000000
# 2 -0.010303 0.034621 -0.001914 0.000000 0.004209 0.000000
# 3 -0.002017 -0.001914 0.014775 0.000000 -0.005455 0.000000
# 4 0.000000 0.000000 0.000000 0.028281 0.000000 -0.001629
# 5 -0.003662 0.004209 -0.005455 0.000000 0.020471 0.000000
# 6 0.000000 0.000000 0.000000 -0.001629 0.000000 0.016021
#
#
# Mechanical properties :
#
#
# Convention : Reuss Voigt Hill
#
# Bulk Modulus (GPa) = 33.42185 65.61203 49.51694
# Shear Modulus (GPa) = 30.94002 46.41811 38.67907
#
# Velocity S-wave (km/s) = 3.35041 4.10375 3.74607
# Velocity P-wave (km/s) = 5.20506 6.80138 6.05605
#
# Compressibility (1/GPa) = 0.02992054
#
# Stress axis : x y z
#
# Youngs Moduli (GPa) = 111.19786 28.88459 67.68073
#
# Poissons Ratio (x) = 0.29760 0.13649
# Poissons Ratio (y) = 1.14567 0.12957
# Poissons Ratio (z) = 0.22425 0.05530
#
# Static dielectric constant tensor:
#      x y z
#    x 5.789190 0.000000 0.516470 
#    y 0.000000 4.844970 0.000000 
#    z 0.516470 0.000000 5.040920 
# 
# 
# High freq. dielectric constant tensor:
#      x y z
#    x 2.144130 0.000000 0.027100 
#    y 0.000000 2.124470 0.000000 
#    z 0.027100 0.000000 2.104510 
# 
# From -- ./inp_files/276351.got.cif
#   From: 2010.06.25/outbox.cif.g09.slc.cpg/sg15_139_cif.got.tgz:276351.got - 2010.06.28 07:06:18.
