data_PCOD8131293
_publ_section_title
;
Structure prediction by ZEFSAII (Michael W. Deem and Ramdas Pophale) SiO2 
 PCOD8131293
Probable space group: C 2/C
;
_chemical_formula_sum "Si O2"
_cell_formula_units_Z 56
_cell_length_a 17.301147
_cell_length_b 8.331629
_cell_length_c 27.270560
_cell_angle_alpha 90.000000
_cell_angle_beta 49.603154
_cell_angle_gamma 90.000000
_cell_volume 2993.718596
_symmetry_space_group_name_H-M "C 2/C"
_symmetry_group_IT_number 15
_symmetry_cell_setting 'monoclinic'
loop_
_space_group_symop_operation_xyz
x,y,z
-x,y,1/2-z
-x,-y,-z
x,-y,1/2+z
1/2+x,1/2+y,z
1/2-x,1/2+y,1/2-z
1/2-x,1/2-y,-z
1/2+x,1/2-y,1/2+z
loop_
_atom_site_type_symbol
_atom_site_label
_atom_site_fract_x
_atom_site_fract_y
_atom_site_fract_z
Si Si1 0.505858 0.720879 0.671450
Si Si2 0.620102 0.013216 0.322768
Si Si3 0.021883 0.026217 0.908941
Si Si4 0.027270 0.761813 0.500145
Si Si5 0.641169 0.978006 0.421676
Si Si6 0.803094 0.169866 0.203623
Si Si7 0.836919 0.174323 0.814072
O O1 0.537996 0.623690 0.609036
O O2 0.420894 0.622668 0.738577
O O3 0.606023 0.750534 0.662672
O O4 0.463737 0.899007 0.676216
O O5 0.586385 0.023699 0.392859
O O6 0.637198 0.826976 0.300686
O O7 0.727222 0.107164 0.276314
O O8 0.052931 0.136849 0.941472
O O9 0.123010 0.974261 0.839562
O O10 0.962531 0.871282 0.954968
O O11 0.110803 0.619994 0.471666
O O12 0.912900 0.690053 0.540858
O O13 0.763527 0.966959 0.365384
O O14 0.741115 0.202949 0.178929
#
# Coordination Sequence:
#
# PCOD8131293 Si02
#       7
#     8   8   8   8   8   8   8
#     4  10  20  35  58  79 111 138 175 226 281 327
#     4  10  18  32  55  84 100 138 180 229 267 321
#     4  11  19  34  54  85 107 140 183 231 262 316
#     4  10  21  31  57  79 112 140 191 222 262 307
#     4  10  18  37  55  80 105 147 183 224 257 329
#     4  10  19  33  59  81 105 135 188 227 271 319
#     4   9  19  36  57  79 107 143 176 217 281 331
#
# _framework density 18.705832000000001
#
# number of rings (size 3 to 8) (size 9 to 14) (size 15 to 20)
#    0.000    2.000    4.286    2.571    0.000    0.000 
#    0.000    1.429    3.143    6.857    0.000    0.000 
#    0.000    0.000    0.000    0.000    0.000    0.000 
#
# Total GULP energy -346882.689585 kJ/mol
# GULP energy per Si atom -12388.667485 kJ/mol
# Density = 1.866326 g / cm^3
# Si number density = 18.705832 Si / 1000 Ang^3
#
#
#
# Elastic Constant Matrix: (Units=GPa)
#
#
# Indices 1 2 3 4 5 6 
#
# 1 78.8003 23.2504 20.0000 0.0011 3.3193 0.0028
# 2 23.2504 88.7725 38.3485 0.0022 1.5853 0.0039
# 3 20.0000 38.3485 60.9346 0.0001 1.9539 0.0004
# 4 0.0011 0.0022 0.0001 42.5411 0.0001 -0.4188
# 5 3.3193 1.5853 1.9539 0.0001 23.0253 0.0007
# 6 0.0028 0.0039 0.0004 -0.4188 0.0007 15.7220
#
#
#
# Elastic Compliance Matrix: (Units=1/GPa)
#
#
# Indices 1 2 3 4 5 6 
#
# 1 0.014250 -0.002342 -0.003151 0.000000 -0.001626 -0.000002
# 2 -0.002342 0.015857 -0.009212 -0.000001 0.000028 -0.000003
# 3 -0.003151 -0.009212 0.023271 0.000001 -0.000886 0.000002
# 4 0.000000 -0.000001 0.000001 0.023513 0.000000 0.000626
# 5 -0.001626 0.000028 -0.000886 0.000000 0.043738 -0.000002
# 6 -0.000002 -0.000003 0.000002 0.000626 -0.000002 0.063622
#
#
# Mechanical properties :
#
#
# Convention : Reuss Voigt Hill
#
# Bulk Modulus (GPa) = 41.72171 43.52281 42.62226
# Shear Modulus (GPa) = 22.55824 26.05159 24.30492
#
# Velocity S-wave (km/s) = 3.47644 3.73594 3.60852
# Velocity P-wave (km/s) = 6.20216 6.47511 6.34010
#
# Compressibility (1/GPa) = 0.02396834
#
# Stress axis : x y z
#
# Youngs Moduli (GPa) = 70.17781 63.06403 42.97207
#
# Poissons Ratio (x) = 0.14769 0.13541
# Poissons Ratio (y) = 0.16435 0.39584
# Poissons Ratio (z) = 0.22113 0.58092
#
# Static dielectric constant tensor:
#      x y z
#    x 3.087490 0.000000 0.024370 
#    y 0.000000 3.533270 0.000000 
#    z 0.024370 0.000000 3.757970 
# 
# 
# High freq. dielectric constant tensor:
#      x y z
#    x 1.673410 0.000000 0.003850 
#    y 0.000000 1.720780 0.000000 
#    z 0.003850 0.000000 1.748370 
# 
# From -- ./inp_files/298107.got.cif
#   From: 2010.06.25/outbox.cif.g09.slc.cpg/sg15_150_cif.got.tgz:298107.got - 2010.06.28 07:06:18.
