data_PCOD8131573
_publ_section_title
;
Structure prediction by ZEFSAII (Michael W. Deem and Ramdas Pophale) SiO2 
 PCOD8131573
Probable space group: C 2/C
;
_chemical_formula_sum "Si O2"
_cell_formula_units_Z 64
_cell_length_a 20.154167
_cell_length_b 8.698139
_cell_length_c 25.715321
_cell_angle_alpha 90.000000
_cell_angle_beta 44.117472
_cell_angle_gamma 90.000000
_cell_volume 3138.156441
_symmetry_space_group_name_H-M "C 2/C"
_symmetry_group_IT_number 15
_symmetry_cell_setting 'monoclinic'
loop_
_space_group_symop_operation_xyz
x,y,z
-x,y,1/2-z
-x,-y,-z
x,-y,1/2+z
1/2+x,1/2+y,z
1/2-x,1/2+y,1/2-z
1/2-x,1/2-y,-z
1/2+x,1/2-y,1/2+z
loop_
_atom_site_type_symbol
_atom_site_label
_atom_site_fract_x
_atom_site_fract_y
_atom_site_fract_z
Si Si1 0.400316 0.874408 0.324485
Si Si2 0.126143 0.528573 0.855827
Si Si3 0.728710 0.100274 0.160716
Si Si4 0.932657 0.468623 0.910202
Si Si5 0.193003 0.609375 0.924181
Si Si6 0.622121 0.436005 0.718006
Si Si7 0.035598 0.757584 0.284001
Si Si8 0.719184 0.325301 0.763411
O O1 0.500000 0.950573 0.250000
O O2 0.406065 0.694304 0.307864
O O3 0.308909 0.945663 0.345494
O O4 0.392976 0.909471 0.390104
O O5 0.116018 0.567757 0.922690
O O6 0.175099 0.360938 0.819972
O O7 0.202512 0.646849 0.786943
O O8 0.023079 0.543796 0.888049
O O9 0.784148 0.207472 0.088000
O O10 0.640774 0.193751 0.236144
O O11 0.794428 0.073846 0.175085
O O12 0.962035 0.304006 0.868929
O O13 0.847119 0.438751 0.997758
O O14 0.289808 0.520530 0.858211
O O15 0.536830 0.556786 0.778066
O O16 0.641796 0.366745 0.763635
O O17 0.000000 0.686251 0.250000
#
# Coordination Sequence:
#
# PCOD8131573 Si02
#       8
#     8   8   8   8   8   8   8   8
#     4  12  21  36  62  88 113 148 200 247 286 342
#     4  10  20  35  60  88 116 149 201 242 281 347
#     4  10  18  37  58  84 114 147 198 236 279 348
#     4  12  21  37  63  83 119 164 188 229 304 349
#     4   9  23  38  57  86 121 157 191 236 287 357
#     4  10  23  37  57  89 115 146 195 251 286 337
#     4  11  20  37  56  83 111 144 197 242 275 343
#     4  10  18  33  59  84 109 148 189 244 292 318
#
# _framework density 20.39414
#
# number of rings (size 3 to 8) (size 9 to 14) (size 15 to 20)
#    0.000    1.500    3.750    3.000    0.000    1.000 
#    0.000    0.000    5.500    1.500    0.000    0.000 
#    0.000    0.000    0.000    0.000    0.000    0.000 
#
# Total GULP energy -396511.887610 kJ/mol
# GULP energy per Si atom -12390.996488 kJ/mol
# Density = 2.034772 g / cm^3
# Si number density = 20.394140 Si / 1000 Ang^3
#
#
#
# Elastic Constant Matrix: (Units=GPa)
#
#
# Indices 1 2 3 4 5 6 
#
# 1 77.4437 30.9074 33.2265 0.0001 15.9174 0.0011
# 2 30.9074 105.0542 35.6395 -0.0002 10.5961 0.0014
# 3 33.2265 35.6395 99.3917 0.0000 21.8322 0.0000
# 4 0.0001 -0.0002 0.0000 17.8903 0.0000 -0.8500
# 5 15.9174 10.5961 21.8322 0.0000 25.7093 0.0001
# 6 0.0011 0.0014 0.0000 -0.8500 0.0001 21.5576
#
#
#
# Elastic Compliance Matrix: (Units=1/GPa)
#
#
# Indices 1 2 3 4 5 6 
#
# 1 0.016859 -0.003275 -0.003031 0.000000 -0.006514 -0.000001
# 2 -0.003275 0.011516 -0.002996 0.000000 -0.000174 -0.000001
# 3 -0.003031 -0.002996 0.014094 0.000000 -0.008858 0.000000
# 4 0.000000 0.000000 0.000000 0.056001 0.000000 0.002208
# 5 -0.006514 -0.000174 -0.008858 0.000000 0.050523 0.000000
# 6 -0.000001 -0.000001 0.000000 0.002208 0.000000 0.046474
#
#
# Mechanical properties :
#
#
# Convention : Reuss Voigt Hill
#
# Bulk Modulus (GPa) = 41.90069 53.49293 47.69681
# Shear Modulus (GPa) = 22.51972 25.17253 23.84612
#
# Velocity S-wave (km/s) = 3.32659 3.51707 3.42316
# Velocity P-wave (km/s) = 5.94517 6.54061 6.24998
#
# Compressibility (1/GPa) = 0.02386596
#
# Stress axis : x y z
#
# Youngs Moduli (GPa) = 59.31634 86.83210 70.94988
#
# Poissons Ratio (x) = 0.28435 0.21503
# Poissons Ratio (y) = 0.19424 0.21260
# Poissons Ratio (z) = 0.17977 0.26019
#
# Static dielectric constant tensor:
#      x y z
#    x 3.990320 0.000000 0.220150 
#    y 0.000000 3.688620 0.000000 
#    z 0.220150 0.000000 3.339230 
# 
# 
# High freq. dielectric constant tensor:
#      x y z
#    x 1.814330 0.000000 0.023410 
#    y 0.000000 1.793280 0.000000 
#    z 0.023410 0.000000 1.754560 
# 
# From -- ./inp_files/279567.got.cif
#   From: 2010.06.25/outbox.cif.g09.slc.cpg/sg15_140_cif.got.tgz:279567.got - 2010.06.28 07:06:18.
