data_PCOD8131660
_publ_section_title
;
Structure prediction by ZEFSAII (Michael W. Deem and Ramdas Pophale) SiO2 
 PCOD8131660
Probable space group: C 2/C
;
_chemical_formula_sum "Si O2"
_cell_formula_units_Z 48
_cell_length_a 8.841115
_cell_length_b 16.304338
_cell_length_c 16.911589
_cell_angle_alpha 90.000000
_cell_angle_beta 84.431758
_cell_angle_gamma 90.000000
_cell_volume 2426.277579
_symmetry_space_group_name_H-M "C 2/C"
_symmetry_group_IT_number 15
_symmetry_cell_setting 'monoclinic'
loop_
_space_group_symop_operation_xyz
x,y,z
-x,y,1/2-z
-x,-y,-z
x,-y,1/2+z
1/2+x,1/2+y,z
1/2-x,1/2+y,1/2-z
1/2-x,1/2-y,-z
1/2+x,1/2-y,1/2+z
loop_
_atom_site_type_symbol
_atom_site_label
_atom_site_fract_x
_atom_site_fract_y
_atom_site_fract_z
Si Si1 0.324446 0.397928 0.189733
Si Si2 0.960129 0.420547 0.397946
Si Si3 0.263232 0.347652 0.368204
Si Si4 0.488793 0.768210 0.660835
Si Si5 0.564847 0.487859 0.082902
Si Si6 0.854089 0.578838 0.078937
O O1 0.324392 0.391365 0.284294
O O2 0.385606 0.311934 0.152889
O O3 0.430070 0.472867 0.153352
O O4 0.153995 0.413359 0.169132
O O5 0.080706 0.345020 0.383289
O O6 0.048280 0.506425 0.386768
O O7 0.870620 0.415309 0.484060
O O8 0.337806 0.257087 0.373760
O O9 0.326143 0.408176 0.432693
O O10 0.500000 0.799589 0.750000
O O11 0.414333 0.837147 0.611550
O O12 0.673940 0.563909 0.104417
O O13 0.500000 0.500000 0.000000
#
# Coordination Sequence:
#
# PCOD8131660 Si02
#       6
#     8   8   8   8   8   8
#     4  10  19  37  60  80 108 153 194 231 281 345
#     4  10  20  35  57  85 111 146 189 232 283 346
#     4   9  20  36  57  79 111 154 193 227 283 347
#     4   9  20  38  56  80 114 148 187 234 284 338
#     4  10  18  34  54  80 112 142 184 232 277 336
#     4  10  21  35  55  85 116 143 184 239 291 330
#
# _framework density 19.783391999999999
#
# number of rings (size 3 to 8) (size 9 to 14) (size 15 to 20)
#    0.000    2.333    1.667    2.000    0.000    4.000 
#    0.000    1.667    0.000    6.000    0.000    0.000 
#    0.000    0.000    0.000    0.000    0.000    0.000 
#
# Total GULP energy -297463.717149 kJ/mol
# GULP energy per Si atom -12394.321548 kJ/mol
# Density = 1.973836 g / cm^3
# Si number density = 19.783392 Si / 1000 Ang^3
#
#
#
# Elastic Constant Matrix: (Units=GPa)
#
#
# Indices 1 2 3 4 5 6 
#
# 1 143.6292 52.7566 27.9833 0.0000 7.0022 0.0000
# 2 52.7566 88.1368 34.7111 0.0000 8.3044 0.0000
# 3 27.9833 34.7111 49.4852 0.0000 12.2797 0.0000
# 4 0.0000 0.0000 0.0000 18.2779 0.0000 5.2355
# 5 7.0022 8.3044 12.2797 0.0000 33.9982 0.0000
# 6 0.0000 0.0000 0.0000 5.2355 0.0000 37.3301
#
#
#
# Elastic Compliance Matrix: (Units=1/GPa)
#
#
# Indices 1 2 3 4 5 6 
#
# 1 0.009042 -0.004696 -0.001803 0.000000 -0.000064 0.000000
# 2 -0.004696 0.018116 -0.010099 0.000000 0.000190 0.000000
# 3 -0.001803 -0.010099 0.030325 0.000000 -0.008115 0.000000
# 4 0.000000 0.000000 0.000000 0.057001 0.000000 -0.007994
# 5 -0.000064 0.000190 -0.008115 0.000000 0.032311 0.000000
# 6 0.000000 0.000000 0.000000 -0.007994 0.000000 0.027909
#
#
# Mechanical properties :
#
#
# Convention : Reuss Voigt Hill
#
# Bulk Modulus (GPa) = 41.17443 56.90590 49.04016
# Shear Modulus (GPa) = 23.14846 28.97459 26.06152
#
# Velocity S-wave (km/s) = 3.42438 3.83115 3.63346
# Velocity P-wave (km/s) = 6.04094 6.95681 6.51499
#
# Compressibility (1/GPa) = 0.02428692
#
# Stress axis : x y z
#
# Youngs Moduli (GPa) = 110.59885 55.19854 32.97555
#
# Poissons Ratio (x) = 0.25921 0.05946
# Poissons Ratio (y) = 0.51937 0.33303
# Poissons Ratio (z) = 0.19942 0.55746
#
# Static dielectric constant tensor:
#      x y z
#    x 3.895130 0.000000 -0.065660 
#    y 0.000000 3.357750 0.000000 
#    z -0.065660 0.000000 3.500230 
# 
# 
# High freq. dielectric constant tensor:
#      x y z
#    x 1.791410 0.000000 0.008190 
#    y 0.000000 1.737590 0.000000 
#    z 0.008190 0.000000 1.763810 
# 
# From -- ./inp_files/189738.got.cif
#   From: 2010.06.25/outbox.cif.g09.slc.cpg/sg15_95_cif.got.tgz:189738.got - 2010.06.28 07:06:18.
