data_PCOD8131312
_publ_section_title
;
Structure prediction by ZEFSAII (Michael W. Deem and Ramdas Pophale) SiO2 
 PCOD8131312
Probable space group: C 2/C
;
_chemical_formula_sum "Si O2"
_cell_formula_units_Z 60
_cell_length_a 28.888971
_cell_length_b 8.896992
_cell_length_c 11.918392
_cell_angle_alpha 90.000000
_cell_angle_beta 70.588028
_cell_angle_gamma 90.000000
_cell_volume 2889.183964
_symmetry_space_group_name_H-M "C 2/C"
_symmetry_group_IT_number 15
_symmetry_cell_setting 'monoclinic'
loop_
_space_group_symop_operation_xyz
x,y,z
-x,y,1/2-z
-x,-y,-z
x,-y,1/2+z
1/2+x,1/2+y,z
1/2-x,1/2+y,1/2-z
1/2-x,1/2-y,-z
1/2+x,1/2-y,1/2+z
loop_
_atom_site_type_symbol
_atom_site_label
_atom_site_fract_x
_atom_site_fract_y
_atom_site_fract_z
Si Si1 0.426288 0.247491 0.641901
Si Si2 0.130769 0.013379 0.710818
Si Si3 0.631390 0.746636 0.894007
Si Si4 0.000000 0.735208 0.250000
Si Si5 0.364094 0.993018 0.282953
Si Si6 0.693039 0.742587 0.069014
Si Si7 0.100794 0.281025 0.581703
Si Si8 0.022092 0.837152 0.467385
O O1 0.413577 0.406017 0.711441
O O2 0.413215 0.109610 0.734545
O O3 0.392675 0.233602 0.556485
O O4 0.483349 0.230162 0.563036
O O5 0.150797 0.116227 0.796178
O O6 0.110090 0.115213 0.625804
O O7 0.177821 0.916842 0.634477
O O8 0.575345 0.703776 0.973915
O O9 0.637263 0.906361 0.827420
O O10 0.662875 0.761383 0.979415
O O11 0.046395 0.651782 0.156355
O O12 0.025728 0.825414 0.330195
O O13 0.318834 0.877404 0.333695
O O14 0.362721 0.096405 0.395376
O O15 0.750000 0.750000 0.000000
O O16 0.000000 0.000000 0.500000
#
# Coordination Sequence:
#
# PCOD8131312 Si02
#       8
#     8   8   8   4   8   8   8   8
#     4  10  20  34  57  87 125 162 192 230 292 352
#     4  10  20  39  62  90 117 154 200 252 303 356
#     4  11  22  41  62  91 124 160 200 251 305 362
#     4  10  18  32  56  84 124 160 192 228 282 348
#     4  10  22  42  58  86 123 159 197 250 300 357
#     4  11  26  44  63  87 116 156 211 266 313 360
#     4  10  19  36  58  86 122 160 192 236 287 357
#     4  11  20  34  58  92 126 161 198 237 288 363
#
# _framework density 20.767109999999999
#
# number of rings (size 3 to 8) (size 9 to 14) (size 15 to 20)
#    0.000    1.600    4.000    1.600    1.867    1.600 
#    2.400    2.667    0.000    0.000    0.000    0.000 
#    0.000    0.000    0.000    0.000    0.000    0.000 
#
# Total GULP energy -371711.245549 kJ/mol
# GULP energy per Si atom -12390.374852 kJ/mol
# Density = 2.071984 g / cm^3
# Si number density = 20.767110 Si / 1000 Ang^3
#
#
#
# Elastic Constant Matrix: (Units=GPa)
#
#
# Indices 1 2 3 4 5 6 
#
# 1 112.9735 37.2560 48.1434 0.0000 -19.8759 0.0000
# 2 37.2560 120.8747 37.5598 0.0000 -9.8320 0.0000
# 3 48.1434 37.5598 65.6721 0.0000 -11.1040 0.0000
# 4 0.0000 0.0000 0.0000 28.7836 0.0000 -2.1417
# 5 -19.8759 -9.8320 -11.1040 0.0000 39.9773 0.0000
# 6 0.0000 0.0000 0.0000 -2.1417 0.0000 13.4044
#
#
#
# Elastic Compliance Matrix: (Units=1/GPa)
#
#
# Indices 1 2 3 4 5 6 
#
# 1 0.013641 -0.001191 -0.008627 0.000000 0.004093 0.000000
# 2 -0.001191 0.010197 -0.004864 0.000000 0.000565 0.000000
# 3 -0.008627 -0.004864 0.024559 0.000000 0.001336 0.000000
# 4 0.000000 0.000000 0.000000 0.035160 0.000000 0.005618
# 5 0.004093 0.000565 0.001336 0.000000 0.027559 0.000000
# 6 0.000000 0.000000 0.000000 0.005618 0.000000 0.075500
#
#
# Mechanical properties :
#
#
# Convention : Reuss Voigt Hill
#
# Bulk Modulus (GPa) = 52.53609 60.60431 56.57020
# Shear Modulus (GPa) = 22.48976 28.20378 25.34677
#
# Velocity S-wave (km/s) = 3.29439 3.68924 3.49739
# Velocity P-wave (km/s) = 6.31057 6.88429 6.60367
#
# Compressibility (1/GPa) = 0.01903453
#
# Stress axis : x y z
#
# Youngs Moduli (GPa) = 73.31022 98.06505 40.71838
#
# Poissons Ratio (x) = 0.11678 0.35127
# Poissons Ratio (y) = 0.08730 0.19804
# Poissons Ratio (z) = 0.63243 0.47695
#
# Static dielectric constant tensor:
#      x y z
#    x 3.510990 0.000000 -0.062130 
#    y 0.000000 4.022210 0.000000 
#    z -0.062130 0.000000 3.986370 
# 
# 
# High freq. dielectric constant tensor:
#      x y z
#    x 1.769100 0.000000 0.002610 
#    y 0.000000 1.819370 0.000000 
#    z 0.002610 0.000000 1.828990 
# 
# From -- ./inp_files/125896.got.cif
#   From: 2010.06.25/outbox.cif.g09.slc.cpg/sg15_63_cif.got.tgz:125896.got - 2010.06.28 07:06:18.
