data_PCOD8131366
_publ_section_title
;
Structure prediction by ZEFSAII (Michael W. Deem and Ramdas Pophale) SiO2 
 PCOD8131366
Probable space group: C 2/C
;
_chemical_formula_sum "Si O2"
_cell_formula_units_Z 60
_cell_length_a 26.695751
_cell_length_b 21.456653
_cell_length_c 15.125922
_cell_angle_alpha 90.000000
_cell_angle_beta 161.000604
_cell_angle_gamma 90.000000
_cell_volume 2820.685061
_symmetry_space_group_name_H-M "C 2/C"
_symmetry_group_IT_number 15
_symmetry_cell_setting 'monoclinic'
loop_
_space_group_symop_operation_xyz
x,y,z
-x,y,1/2-z
-x,-y,-z
x,-y,1/2+z
1/2+x,1/2+y,z
1/2-x,1/2+y,1/2-z
1/2-x,1/2-y,-z
1/2+x,1/2-y,1/2+z
loop_
_atom_site_type_symbol
_atom_site_label
_atom_site_fract_x
_atom_site_fract_y
_atom_site_fract_z
Si Si1 0.500000 0.130123 0.750000
Si Si2 0.575632 0.392649 0.742693
Si Si3 0.187731 0.297596 0.825176
Si Si4 0.736199 0.224491 0.223322
Si Si5 0.523763 0.086658 0.113727
Si Si6 0.111656 0.227930 0.206013
Si Si7 0.860736 0.456075 0.164273
Si Si8 0.712961 0.636561 0.653700
O O1 0.395144 0.175316 0.518238
O O2 0.602567 0.086534 0.858470
O O3 0.564961 0.342841 0.646629
O O4 0.402867 0.411250 0.487256
O O5 0.677210 0.451551 0.879837
O O6 0.666563 0.358763 0.974045
O O7 0.301072 0.298776 0.927977
O O8 0.160931 0.363679 0.828064
O O9 0.026973 0.275909 0.512050
O O10 0.250000 0.250000 0.000000
O O11 0.859274 0.228056 0.350643
O O12 0.679631 0.296058 0.141411
O O13 0.599299 0.027765 0.289399
O O14 0.459308 0.067373 0.911384
O O15 0.389662 0.113664 0.954318
O O16 0.250000 0.250000 0.500000
#
# Coordination Sequence:
#
# PCOD8131366 Si02
#       8
#     4   8   8   8   8   8   8   8
#     4  12  20  34  64 104 122 156 224 296 340 378
#     4  10  18  32  58  98 127 157 208 283 340 375
#     4  12  26  42  62  93 140 184 218 268 343 408
#     4  12  21  34  63  96 131 167 216 276 331 399
#     4  10  21  43  61  86 130 185 220 260 335 412
#     4  12  20  36  64  97 133 165 215 286 336 384
#     4  10  21  37  65  92 128 165 224 284 331 392
#     4  10  19  32  61  96 126 162 216 273 336 398
#
# _framework density 21.271429000000001
#
# number of rings (size 3 to 8) (size 9 to 14) (size 15 to 20)
#    0.000    1.067    6.667    2.400    0.000    0.533 
#    2.400    0.000    2.933    3.200    0.000    0.000 
#    0.000    0.000    0.000    0.000    0.000    0.000 
#
# Total GULP energy -371796.417663 kJ/mol
# GULP energy per Si atom -12393.213922 kJ/mol
# Density = 2.122301 g / cm^3
# Si number density = 21.271429 Si / 1000 Ang^3
#
#
#
# Elastic Constant Matrix: (Units=GPa)
#
#
# Indices 1 2 3 4 5 6 
#
# 1 129.4769 48.5257 32.1597 0.0000 14.9744 0.0000
# 2 48.5257 137.8548 39.8006 0.0000 13.5443 0.0000
# 3 32.1597 39.8006 36.6720 0.0000 7.9666 0.0000
# 4 0.0000 0.0000 0.0000 27.5338 0.0000 5.4603
# 5 14.9744 13.5443 7.9666 0.0000 29.1619 0.0000
# 6 0.0000 0.0000 0.0000 5.4603 0.0000 13.5091
#
#
#
# Elastic Compliance Matrix: (Units=1/GPa)
#
#
# Indices 1 2 3 4 5 6 
#
# 1 0.010271 -0.001336 -0.006960 0.000000 -0.002752 0.000000
# 2 -0.001336 0.010836 -0.010254 0.000000 -0.001546 0.000000
# 3 -0.006960 -0.010254 0.045383 0.000000 -0.004062 0.000000
# 4 0.000000 0.000000 0.000000 0.039484 0.000000 -0.015959
# 5 -0.002752 -0.001546 -0.004062 0.000000 0.037532 0.000000
# 6 0.000000 0.000000 0.000000 -0.015959 0.000000 0.080475
#
#
# Mechanical properties :
#
#
# Convention : Reuss Voigt Hill
#
# Bulk Modulus (GPa) = 34.02248 60.55285 47.28766
# Shear Modulus (GPa) = 18.45855 26.27547 22.36701
#
# Velocity S-wave (km/s) = 2.94898 3.51842 3.24621
# Velocity P-wave (km/s) = 5.25590 6.71076 6.02738
#
# Compressibility (1/GPa) = 0.02939233
#
# Stress axis : x y z
#
# Youngs Moduli (GPa) = 97.36216 92.28079 22.03462
#
# Poissons Ratio (x) = 0.12326 0.15335
# Poissons Ratio (y) = 0.13004 0.22594
# Poissons Ratio (z) = 0.67760 0.94623
#
# Static dielectric constant tensor:
#      x y z
#    x 4.129650 0.000000 0.245270 
#    y 0.000000 3.809140 0.000000 
#    z 0.245270 0.000000 3.545760 
# 
# 
# High freq. dielectric constant tensor:
#      x y z
#    x 1.856540 0.000000 0.014830 
#    y 0.000000 1.815740 0.000000 
#    z 0.014830 0.000000 1.796090 
# 
# From -- ./inp_files/179150.got.cif
#   From: 2010.06.25/outbox.cif.g09.slc.cpg/sg15_90_cif.got.tgz:179150.got - 2010.06.28 07:06:18.
