data_PCOD8131652
_publ_section_title
;
Structure prediction by ZEFSAII (Michael W. Deem and Ramdas Pophale) SiO2 
 PCOD8131652
Probable space group: C 2/C
;
_chemical_formula_sum "Si O2"
_cell_formula_units_Z 56
_cell_length_a 21.509423
_cell_length_b 10.466904
_cell_length_c 27.341761
_cell_angle_alpha 90.000000
_cell_angle_beta 149.798433
_cell_angle_gamma 90.000000
_cell_volume 3096.557138
_symmetry_space_group_name_H-M "C 2/C"
_symmetry_group_IT_number 15
_symmetry_cell_setting 'monoclinic'
loop_
_space_group_symop_operation_xyz
x,y,z
-x,y,1/2-z
-x,-y,-z
x,-y,1/2+z
1/2+x,1/2+y,z
1/2-x,1/2+y,1/2-z
1/2-x,1/2-y,-z
1/2+x,1/2-y,1/2+z
loop_
_atom_site_type_symbol
_atom_site_label
_atom_site_fract_x
_atom_site_fract_y
_atom_site_fract_z
Si Si1 0.034720 0.790551 0.040886
Si Si2 0.410030 0.182547 0.732142
Si Si3 0.465606 0.550698 0.403997
Si Si4 0.793885 0.887025 0.476223
Si Si5 0.773746 0.884493 0.696109
Si Si6 0.900735 0.553286 0.971219
Si Si7 0.116201 0.397200 0.441047
O O1 0.160106 0.710683 0.127298
O O2 0.059684 0.918844 0.086795
O O3 0.996183 0.829431 0.959890
O O4 0.924281 0.705721 0.990174
O O5 0.500000 0.221763 0.750000
O O6 0.294506 0.102122 0.631940
O O7 0.370775 0.318492 0.726474
O O8 0.483263 0.104226 0.823521
O O9 0.583237 0.529016 0.448234
O O10 0.338661 0.584585 0.291112
O O11 0.838664 0.741007 0.511062
O O12 0.722260 0.942953 0.474883
O O13 0.731766 0.017247 0.642084
O O14 0.905573 0.491812 0.028493
O O15 0.000000 0.500000 0.000000
#
# Coordination Sequence:
#
# PCOD8131652 Si02
#       7
#     8   8   8   8   8   8   8
#     4  10  24  40  54  79 116 152 191 230 287 339
#     4  10  19  31  54  86 112 141 185 232 284 331
#     4  11  22  38  56  82 114 151 187 241 280 338
#     4  10  18  34  53  83 113 142 188 232 287 321
#     4  11  21  33  59  81 112 143 191 227 284 334
#     4  10  21  38  53  80 112 148 187 228 281 335
#     4  10  19  32  57  80 112 149 181 237 279 334
#
# _framework density 18.084600999999999
#
# number of rings (size 3 to 8) (size 9 to 14) (size 15 to 20)
#    0.000    1.714    4.286    0.857    2.000    1.143 
#    0.000    0.714    0.000    0.000    0.000    0.000 
#    0.000    0.000    0.000    0.000    0.000    0.000 
#
# Total GULP energy -347015.569216 kJ/mol
# GULP energy per Si atom -12393.413186 kJ/mol
# Density = 1.804344 g / cm^3
# Si number density = 18.084601 Si / 1000 Ang^3
#
#
#
# Elastic Constant Matrix: (Units=GPa)
#
#
# Indices 1 2 3 4 5 6 
#
# 1 94.6707 39.2863 49.4832 -0.0002 -15.4788 -0.0001
# 2 39.2863 68.7802 47.1060 0.0053 -3.3568 0.0013
# 3 49.4832 47.1060 152.0771 0.0081 -19.3425 0.0021
# 4 -0.0002 0.0053 0.0081 13.6464 0.0002 -2.3036
# 5 -15.4788 -3.3568 -19.3425 0.0002 25.0827 -0.0003
# 6 -0.0001 0.0013 0.0021 -2.3036 -0.0003 23.1426
#
#
#
# Elastic Compliance Matrix: (Units=1/GPa)
#
#
# Indices 1 2 3 4 5 6 
#
# 1 0.015819 -0.007348 -0.001945 0.000004 0.007279 0.000001
# 2 -0.007348 0.021972 -0.005120 -0.000006 -0.005542 -0.000001
# 3 -0.001945 -0.005120 0.009485 -0.000004 0.005429 -0.000001
# 4 0.000004 -0.000006 -0.000004 0.074532 -0.000002 0.007419
# 5 0.007279 -0.005542 0.005429 -0.000002 0.047804 0.000000
# 6 0.000001 -0.000001 -0.000001 0.007419 0.000000 0.043949
#
#
# Mechanical properties :
#
#
# Convention : Reuss Voigt Hill
#
# Bulk Modulus (GPa) = 54.20199 65.25322 59.72761
# Shear Modulus (GPa) = 20.11765 24.35117 22.23441
#
# Velocity S-wave (km/s) = 3.33891 3.67347 3.51018
# Velocity P-wave (km/s) = 6.70081 7.35887 7.03754
#
# Compressibility (1/GPa) = 0.01844951
#
# Stress axis : x y z
#
# Youngs Moduli (GPa) = 63.21465 45.51212 105.42999
#
# Poissons Ratio (x) = 0.33442 0.20511
# Poissons Ratio (y) = 0.46450 0.53979
# Poissons Ratio (z) = 0.12298 0.23302
#
# Static dielectric constant tensor:
#      x y z
#    x 3.525210 0.000000 0.030910 
#    y 0.000000 3.262610 0.000000 
#    z 0.030910 0.000000 3.816410 
# 
# 
# High freq. dielectric constant tensor:
#      x y z
#    x 1.706540 0.000000 -0.003550 
#    y 0.000000 1.660820 0.000000 
#    z -0.003550 0.000000 1.717790 
# 
# From -- ./inp_files/300735.got.cif
#   From: 2010.06.25/outbox.cif.g09.slc.cpg/sg15_151_cif.got.tgz:300735.got - 2010.06.28 07:06:18.
