data_PCOD8131783
_publ_section_title
;
Structure prediction by ZEFSAII (Michael W. Deem and Ramdas Pophale) SiO2 
 PCOD8131783
Probable space group: C 2/C
;
_chemical_formula_sum "Si O2"
_cell_formula_units_Z 60
_cell_length_a 30.889795
_cell_length_b 20.086659
_cell_length_c 11.473286
_cell_angle_alpha 90.000000
_cell_angle_beta 153.895804
_cell_angle_gamma 90.000000
_cell_volume 3132.334255
_symmetry_space_group_name_H-M "C 2/C"
_symmetry_group_IT_number 15
_symmetry_cell_setting 'monoclinic'
loop_
_space_group_symop_operation_xyz
x,y,z
-x,y,1/2-z
-x,-y,-z
x,-y,1/2+z
1/2+x,1/2+y,z
1/2-x,1/2+y,1/2-z
1/2-x,1/2-y,-z
1/2+x,1/2-y,1/2+z
loop_
_atom_site_type_symbol
_atom_site_label
_atom_site_fract_x
_atom_site_fract_y
_atom_site_fract_z
Si Si1 0.824009 0.172737 0.730971
Si Si2 0.113673 0.868005 0.502946
Si Si3 0.744345 0.430356 0.017531
Si Si4 0.897172 0.622777 0.064228
Si Si5 0.209358 0.449797 0.005015
Si Si6 0.874432 0.004560 0.077731
Si Si7 0.827719 0.753095 0.008912
Si Si8 0.000000 0.092425 0.250000
O O1 0.739289 0.116033 0.500923
O O2 0.866067 0.210209 0.718820
O O3 0.779745 0.225464 0.717313
O O4 0.913108 0.141494 0.012841
O O5 0.175978 0.886885 0.767824
O O6 0.175734 0.806747 0.602093
O O7 0.000000 0.847207 0.250000
O O8 0.110476 0.925871 0.398138
O O9 0.818624 0.484058 0.136441
O O10 0.668639 0.478164 0.901711
O O11 0.808479 0.381784 0.254797
O O12 0.000000 0.609818 0.250000
O O13 0.879837 0.566564 0.121656
O O14 0.897592 0.693806 0.130610
O O15 0.306052 0.469600 0.309045
O O16 0.976914 0.044252 0.305117
#
# Coordination Sequence:
#
# PCOD8131783 Si02
#       8
#     8   8   8   8   8   8   8   4
#     4   9  19  36  59  78 111 154 187 236 279 338
#     4  11  22  34  53  88 118 149 185 230 287 354
#     4  10  21  36  57  83 113 148 181 241 299 335
#     4  10  21  39  56  76 108 152 196 236 279 337
#     4   8  17  35  56  81 107 138 185 236 288 337
#     4   9  18  33  53  85 120 139 179 233 294 344
#     4  10  21  38  52  77 114 155 190 224 281 340
#     4  10  18  34  58  90 110 148 196 232 284 348
#
# _framework density 19.155045000000001
#
# number of rings (size 3 to 8) (size 9 to 14) (size 15 to 20)
#    0.000    2.400    0.667    2.000    1.867    1.600 
#    2.400    0.000    0.000    0.000    5.200    0.000 
#    0.000    0.000    0.000    0.000    0.000    0.000 
#
# Total GULP energy -371720.659061 kJ/mol
# GULP energy per Si atom -12390.688635 kJ/mol
# Density = 1.911145 g / cm^3
# Si number density = 19.155045 Si / 1000 Ang^3
#
#
#
# Elastic Constant Matrix: (Units=GPa)
#
#
# Indices 1 2 3 4 5 6 
#
# 1 110.3118 42.5296 22.9601 0.0000 9.6773 0.0000
# 2 42.5296 96.5899 17.1932 0.0000 1.9229 0.0000
# 3 22.9601 17.1932 43.9255 0.0000 6.8993 0.0000
# 4 0.0000 0.0000 0.0000 10.1049 0.0000 3.2925
# 5 9.6773 1.9229 6.8993 0.0000 22.1627 0.0000
# 6 0.0000 0.0000 0.0000 3.2925 0.0000 39.7549
#
#
#
# Elastic Compliance Matrix: (Units=1/GPa)
#
#
# Indices 1 2 3 4 5 6 
#
# 1 0.011923 -0.004482 -0.003913 0.000000 -0.003599 0.000000
# 2 -0.004482 0.012817 -0.002951 0.000000 0.001764 0.000000
# 3 -0.003913 -0.002951 0.026977 0.000000 -0.006433 0.000000
# 4 0.000000 0.000000 0.000000 0.101707 0.000000 -0.008423
# 5 -0.003599 0.001764 -0.006433 0.000000 0.048542 0.000000
# 6 0.000000 0.000000 0.000000 -0.008423 0.000000 0.025852
#
#
# Mechanical properties :
#
#
# Convention : Reuss Voigt Hill
#
# Bulk Modulus (GPa) = 34.45262 46.24366 40.34814
# Shear Modulus (GPa) = 19.21720 25.61411 22.41566
#
# Velocity S-wave (km/s) = 3.17084 3.66074 3.42456
# Velocity P-wave (km/s) = 5.60632 6.48554 6.06189
#
# Compressibility (1/GPa) = 0.02902537
#
# Stress axis : x y z
#
# Youngs Moduli (GPa) = 83.86950 78.02372 37.06916
#
# Poissons Ratio (x) = 0.34969 0.14504
# Poissons Ratio (y) = 0.37589 0.10939
# Poissons Ratio (z) = 0.32816 0.23025
#
# Static dielectric constant tensor:
#      x y z
#    x 3.730670 0.000000 0.116000 
#    y 0.000000 3.785350 0.000000 
#    z 0.116000 0.000000 3.065540 
# 
# 
# High freq. dielectric constant tensor:
#      x y z
#    x 1.761250 0.000000 0.007990 
#    y 0.000000 1.755990 0.000000 
#    z 0.007990 0.000000 1.699530 
# 
# From -- ./inp_files/127428.got.cif
#   From: 2010.06.25/outbox.cif.g09.slc.cpg/sg15_64_cif.got.tgz:127428.got - 2010.06.28 07:06:18.
