data_PCOD8131936
_publ_section_title
;
Structure prediction by ZEFSAII (Michael W. Deem and Ramdas Pophale) SiO2 
 PCOD8131936
Probable space group: C 2/C
;
_chemical_formula_sum "Si O2"
_cell_formula_units_Z 64
_cell_length_a 16.602009
_cell_length_b 11.562034
_cell_length_c 30.028253
_cell_angle_alpha 90.000000
_cell_angle_beta 145.429330
_cell_angle_gamma 90.000000
_cell_volume 3270.629544
_symmetry_space_group_name_H-M "C 2/C"
_symmetry_group_IT_number 15
_symmetry_cell_setting 'monoclinic'
loop_
_space_group_symop_operation_xyz
x,y,z
-x,y,1/2-z
-x,-y,-z
x,-y,1/2+z
1/2+x,1/2+y,z
1/2-x,1/2+y,1/2-z
1/2-x,1/2-y,-z
1/2+x,1/2-y,1/2+z
loop_
_atom_site_type_symbol
_atom_site_label
_atom_site_fract_x
_atom_site_fract_y
_atom_site_fract_z
Si Si1 0.241883 0.976664 0.997043
Si Si2 0.156861 0.546489 0.630079
Si Si3 0.870474 0.806504 0.025066
Si Si4 0.118265 0.252833 0.767595
Si Si5 0.829233 0.900665 0.911818
Si Si6 0.525164 0.881360 0.635748
Si Si7 0.640619 0.636191 0.531536
Si Si8 0.346158 0.891946 0.955116
O O1 0.214411 0.867750 0.016602
O O2 0.383738 0.042598 0.078404
O O3 0.241939 0.936171 0.946447
O O4 0.108476 0.064924 0.944566
O O5 0.275210 0.644684 0.692391
O O6 0.144351 0.468295 0.669612
O O7 0.198225 0.466643 0.607367
O O8 0.005540 0.600426 0.547205
O O9 0.003866 0.719542 0.088671
O O10 0.750000 0.750000 0.000000
O O11 0.832017 0.816638 0.955908
O O12 0.199054 0.363423 0.822902
O O13 0.057496 0.306710 0.694483
O O14 0.000000 0.213903 0.750000
O O15 0.801073 0.034832 0.910147
O O16 0.972783 0.883209 0.949547
O O17 0.681826 0.759449 0.570900
#
# Coordination Sequence:
#
# PCOD8131936 Si02
#       8
#     8   8   8   8   8   8   8   8
#     4   9  19  32  61  94 119 153 204 247 308 362
#     4  10  23  40  60  91 118 159 205 252 314 359
#     4   9  17  33  58  88 114 146 200 248 289 347
#     4  12  24  41  65  89 126 164 212 252 301 382
#     4  10  21  35  59  91 118 155 207 253 299 358
#     4  10  22  40  59  88 126 165 192 252 316 365
#     4  10  18  35  55  92 121 152 196 255 305 361
#     4  10  19  36  65  86 122 152 199 265 306 356
#
# _framework density 19.568097999999999
#
# number of rings (size 3 to 8) (size 9 to 14) (size 15 to 20)
#    0.000    2.000    1.250    3.375    7.000    0.000 
#    9.000    0.000    0.000    0.750    0.000    0.000 
#    0.000    0.000    0.000    0.000    0.000    0.000 
#
# Total GULP energy -396439.061601 kJ/mol
# GULP energy per Si atom -12388.720675 kJ/mol
# Density = 1.952356 g / cm^3
# Si number density = 19.568098 Si / 1000 Ang^3
#
#
#
# Elastic Constant Matrix: (Units=GPa)
#
#
# Indices 1 2 3 4 5 6 
#
# 1 105.0565 42.0669 18.3714 0.0000 -8.2475 0.0000
# 2 42.0669 117.6673 31.7907 0.0000 -7.3721 0.0000
# 3 18.3714 31.7907 51.4114 0.0000 -8.8873 0.0001
# 4 0.0000 0.0000 0.0000 28.3580 0.0000 5.5440
# 5 -8.2475 -7.3721 -8.8873 0.0000 24.5867 0.0000
# 6 0.0000 0.0000 0.0001 5.5440 0.0000 26.6467
#
#
#
# Elastic Compliance Matrix: (Units=1/GPa)
#
#
# Indices 1 2 3 4 5 6 
#
# 1 0.011364 -0.003518 -0.001503 0.000000 0.002214 0.000000
# 2 -0.003518 0.011308 -0.005710 0.000000 0.000147 0.000000
# 3 -0.001503 -0.005710 0.024678 0.000000 0.006704 0.000000
# 4 0.000000 0.000000 0.000000 0.036759 0.000000 -0.007648
# 5 0.002214 0.000147 0.006704 0.000000 0.043882 0.000000
# 6 0.000000 0.000000 0.000000 -0.007648 0.000000 0.039119
#
#
# Mechanical properties :
#
#
# Convention : Reuss Voigt Hill
#
# Bulk Modulus (GPa) = 38.62748 50.95478 44.79113
# Shear Modulus (GPa) = 25.35488 28.04537 26.70013
#
# Velocity S-wave (km/s) = 3.60352 3.78990 3.69788
# Velocity P-wave (km/s) = 6.09071 6.72661 6.41654
#
# Compressibility (1/GPa) = 0.02588830
#
# Stress axis : x y z
#
# Youngs Moduli (GPa) = 87.99755 88.43194 40.52246
#
# Poissons Ratio (x) = 0.31110 0.06089
# Poissons Ratio (y) = 0.30957 0.23138
# Poissons Ratio (z) = 0.13223 0.50495
#
# Static dielectric constant tensor:
#      x y z
#    x 3.827140 0.000000 0.035670 
#    y 0.000000 4.027840 0.000000 
#    z 0.035670 0.000000 3.182660 
# 
# 
# High freq. dielectric constant tensor:
#      x y z
#    x 1.779760 0.000000 -0.007050 
#    y 0.000000 1.780410 0.000000 
#    z -0.007050 0.000000 1.707410 
# 
# From -- ./inp_files/316243.got.cif
#   From: 2010.06.25/outbox.cif.g09.slc.cpg/sg15_159_cif.got.tgz:316243.got - 2010.06.28 07:06:18.
