data_PCOD8131541
_publ_section_title
;
Structure prediction by ZEFSAII (Michael W. Deem and Ramdas Pophale) SiO2 
 PCOD8131541
Probable space group: C 2/C
;
_chemical_formula_sum "Si O2"
_cell_formula_units_Z 64
_cell_length_a 26.205491
_cell_length_b 11.212053
_cell_length_c 22.438433
_cell_angle_alpha 90.000000
_cell_angle_beta 150.818762
_cell_angle_gamma 90.000000
_cell_volume 3214.476957
_symmetry_space_group_name_H-M "C 2/C"
_symmetry_group_IT_number 15
_symmetry_cell_setting 'monoclinic'
loop_
_space_group_symop_operation_xyz
x,y,z
-x,y,1/2-z
-x,-y,-z
x,-y,1/2+z
1/2+x,1/2+y,z
1/2-x,1/2+y,1/2-z
1/2-x,1/2-y,-z
1/2+x,1/2-y,1/2+z
loop_
_atom_site_type_symbol
_atom_site_label
_atom_site_fract_x
_atom_site_fract_y
_atom_site_fract_z
Si Si1 0.621389 0.512552 0.819626
Si Si2 0.788221 0.286067 0.324533
Si Si3 0.606773 0.550249 0.435045
Si Si4 0.233126 0.825111 0.578972
Si Si5 0.263029 0.028250 0.357023
Si Si6 0.633152 0.735563 0.557108
Si Si7 0.111861 0.718798 0.353731
Si Si8 0.560576 0.380610 0.582593
O O1 0.518428 0.460054 0.681889
O O2 0.637742 0.437770 0.897202
O O3 0.725664 0.503998 0.885846
O O4 0.598002 0.648719 0.812799
O O5 0.725789 0.226866 0.316482
O O6 0.814604 0.419566 0.373097
O O7 0.715092 0.296169 0.192545
O O8 0.893447 0.207200 0.422063
O O9 0.657697 0.433946 0.516373
O O10 0.656179 0.660461 0.521003
O O11 0.173575 0.722698 0.479328
O O12 0.330409 0.864331 0.636252
O O13 0.354418 0.127130 0.449635
O O14 0.159470 0.077919 0.220565
O O15 0.516302 0.705236 0.458978
O O16 0.000000 0.658748 0.250000
O O17 0.500000 0.500000 0.500000
#
# Coordination Sequence:
#
# PCOD8131541 Si02
#       8
#     8   8   8   8   8   8   8   8
#     4  10  18  36  64  91 114 155 212 261 304 375
#     4  11  24  36  61  95 124 164 210 257 309 369
#     4  10  20  37  64  91 115 162 211 255 314 370
#     4  10  20  32  58  89 124 150 199 259 309 364
#     4  11  23  39  61  91 126 154 213 261 306 375
#     4  11  24  39  61  89 124 168 209 254 306 379
#     4  10  18  33  57  92 120 150 201 257 315 370
#     4  11  22  41  65  86 123 166 208 251 310 373
#
# _framework density 19.909925999999999
#
# number of rings (size 3 to 8) (size 9 to 14) (size 15 to 20)
#    0.000    1.500    6.250    0.750    1.750    2.000 
#    0.000    0.000    5.500    0.000    0.000    0.000 
#    0.000    0.000    0.000    0.000    0.000    0.000 
#
# Total GULP energy -396577.031559 kJ/mol
# GULP energy per Si atom -12393.032236 kJ/mol
# Density = 1.986461 g / cm^3
# Si number density = 19.909926 Si / 1000 Ang^3
#
#
#
# Elastic Constant Matrix: (Units=GPa)
#
#
# Indices 1 2 3 4 5 6 
#
# 1 109.6569 50.4780 35.4318 0.0000 7.3086 0.0000
# 2 50.4780 101.3098 33.6005 0.0000 -0.7154 0.0000
# 3 35.4318 33.6005 73.2348 0.0000 -0.0315 0.0000
# 4 0.0000 0.0000 0.0000 31.0774 0.0000 3.4412
# 5 7.3086 -0.7154 -0.0315 0.0000 35.4376 0.0000
# 6 0.0000 0.0000 0.0000 3.4412 0.0000 34.7217
#
#
#
# Elastic Compliance Matrix: (Units=1/GPa)
#
#
# Indices 1 2 3 4 5 6 
#
# 1 0.012945 -0.005180 -0.003888 0.000000 -0.002778 0.000000
# 2 -0.005180 0.013717 -0.003787 0.000000 0.001342 0.000000
# 3 -0.003888 -0.003787 0.017273 0.000000 0.000741 0.000000
# 4 0.000000 0.000000 0.000000 0.032535 0.000000 -0.003224
# 5 -0.002778 0.001342 0.000741 0.000000 0.028819 0.000000
# 6 0.000000 0.000000 0.000000 -0.003224 0.000000 0.029120
#
#
# Mechanical properties :
#
#
# Convention : Reuss Voigt Hill
#
# Bulk Modulus (GPa) = 54.86455 58.13578 56.50017
# Shear Modulus (GPa) = 30.08531 31.22676 30.65603
#
# Velocity S-wave (km/s) = 3.89147 3.96460 3.92820
# Velocity P-wave (km/s) = 6.91430 7.08662 7.00099
#
# Compressibility (1/GPa) = 0.01822671
#
# Stress axis : x y z
#
# Youngs Moduli (GPa) = 77.24852 72.90131 57.89321
#
# Poissons Ratio (x) = 0.37765 0.22506
# Poissons Ratio (y) = 0.40017 0.21922
# Poissons Ratio (z) = 0.30030 0.27605
#
# Static dielectric constant tensor:
#      x y z
#    x 3.966560 0.000000 0.065550 
#    y 0.000000 3.711980 0.000000 
#    z 0.065550 0.000000 3.581330 
# 
# 
# High freq. dielectric constant tensor:
#      x y z
#    x 1.792270 0.000000 -0.006080 
#    y 0.000000 1.753540 0.000000 
#    z -0.006080 0.000000 1.760660 
# 
# From -- ./inp_files/283505.got.cif
#   From: 2010.06.25/outbox.cif.g09.slc.cpg/sg15_142_cif.got.tgz:283505.got - 2010.06.28 07:06:18.
