data_PCOD8131558
_publ_section_title
;
Structure prediction by ZEFSAII (Michael W. Deem and Ramdas Pophale) SiO2 
 PCOD8131558
Probable space group: C 2/C
;
_chemical_formula_sum "Si O2"
_cell_formula_units_Z 64
_cell_length_a 18.524302
_cell_length_b 11.491523
_cell_length_c 34.675419
_cell_angle_alpha 90.000000
_cell_angle_beta 152.908048
_cell_angle_gamma 90.000000
_cell_volume 3361.654888
_symmetry_space_group_name_H-M "C 2/C"
_symmetry_group_IT_number 15
_symmetry_cell_setting 'monoclinic'
loop_
_space_group_symop_operation_xyz
x,y,z
-x,y,1/2-z
-x,-y,-z
x,-y,1/2+z
1/2+x,1/2+y,z
1/2-x,1/2+y,1/2-z
1/2-x,1/2-y,-z
1/2+x,1/2-y,1/2+z
loop_
_atom_site_type_symbol
_atom_site_label
_atom_site_fract_x
_atom_site_fract_y
_atom_site_fract_z
Si Si1 0.753998 0.990653 0.787157
Si Si2 0.454903 0.634646 0.582616
Si Si3 0.176040 0.509867 0.337327
Si Si4 0.310830 0.857810 0.482460
Si Si5 0.678921 0.274702 0.342402
Si Si6 0.963482 0.556568 0.603225
Si Si7 0.316805 0.410692 0.476822
Si Si8 0.392642 0.261294 0.871108
O O1 0.574792 0.986599 0.686182
O O2 0.862411 0.096676 0.821571
O O3 0.762903 0.997631 0.837763
O O4 0.822599 0.862666 0.810180
O O5 0.436855 0.754661 0.550574
O O6 0.356580 0.654689 0.575049
O O7 0.387626 0.531806 0.524613
O O8 0.172893 0.640483 0.353504
O O9 0.265183 0.423893 0.408279
O O10 0.000000 0.460829 0.250000
O O11 0.265525 0.855338 0.415661
O O12 0.394418 0.976897 0.535915
O O13 0.500000 0.320675 0.250000
O O14 0.776424 0.280728 0.349413
O O15 0.081606 0.649987 0.642492
O O16 0.826793 0.620213 0.562635
O O17 0.438300 0.304444 0.532540
#
# Coordination Sequence:
#
# PCOD8131558 Si02
#       8
#     8   8   8   8   8   8   8   8
#     4  10  22  35  58  86 113 150 189 243 285 339
#     4   9  20  33  58  86 114 142 192 232 289 340
#     4  10  18  33  58  87 114 138 185 242 298 326
#     4  10  21  36  58  85 114 153 187 243 283 341
#     4  10  22  36  60  86 118 149 191 249 290 337
#     4  11  23  38  58  82 121 157 194 232 284 353
#     4  10  19  38  59  85 115 149 186 241 287 345
#     4  10  24  38  58  84 115 156 191 234 293 350
#
# _framework density 19.038242
#
# number of rings (size 3 to 8) (size 9 to 14) (size 15 to 20)
#    0.000    2.000    2.500    0.375    5.250    2.000 
#    0.000    0.000    0.000    0.750    0.000    0.000 
#    0.000    0.000    0.000    0.000    0.000    0.000 
#
# Total GULP energy -396711.157976 kJ/mol
# GULP energy per Si atom -12397.223687 kJ/mol
# Density = 1.899491 g / cm^3
# Si number density = 19.038242 Si / 1000 Ang^3
#
#
#
# Elastic Constant Matrix: (Units=GPa)
#
#
# Indices 1 2 3 4 5 6 
#
# 1 84.9607 36.0340 35.8596 0.0000 12.4403 0.0000
# 2 36.0340 55.5807 21.2396 0.0000 -1.2825 0.0000
# 3 35.8596 21.2396 99.8047 0.0002 4.3005 0.0001
# 4 0.0000 0.0000 0.0002 22.6478 0.0001 3.4276
# 5 12.4403 -1.2825 4.3005 0.0001 30.8602 0.0000
# 6 0.0000 0.0000 0.0001 3.4276 0.0000 24.5176
#
#
#
# Elastic Compliance Matrix: (Units=1/GPa)
#
#
# Indices 1 2 3 4 5 6 
#
# 1 0.019427 -0.011138 -0.004278 0.000000 -0.007698 0.000000
# 2 -0.011138 0.026030 -0.001789 0.000000 0.005821 0.000000
# 3 -0.004278 -0.001789 0.011938 0.000000 -0.000013 0.000000
# 4 0.000000 0.000000 0.000000 0.045109 0.000000 -0.006306
# 5 -0.007698 0.005821 -0.000013 0.000000 0.035751 0.000000
# 6 0.000000 0.000000 0.000000 -0.006306 0.000000 0.041669
#
#
# Mechanical properties :
#
#
# Convention : Reuss Voigt Hill
#
# Bulk Modulus (GPa) = 43.50397 47.40139 45.45268
# Shear Modulus (GPa) = 22.52310 25.41931 23.97120
#
# Velocity S-wave (km/s) = 3.44327 3.65796 3.55224
# Velocity P-wave (km/s) = 6.22163 6.54163 6.38363
#
# Compressibility (1/GPa) = 0.02298641
#
# Stress axis : x y z
#
# Youngs Moduli (GPa) = 51.47556 38.41667 83.76679
#
# Poissons Ratio (x) = 0.42787 0.35836
# Poissons Ratio (y) = 0.57331 0.14983
# Poissons Ratio (z) = 0.22022 0.06872
#
# Static dielectric constant tensor:
#      x y z
#    x 3.481540 0.000000 0.220220 
#    y 0.000000 3.274330 0.000000 
#    z 0.220220 0.000000 3.547800 
# 
# 
# High freq. dielectric constant tensor:
#      x y z
#    x 1.738410 0.000000 0.011890 
#    y 0.000000 1.712840 0.000000 
#    z 0.011890 0.000000 1.746580 
# 
# From -- ./inp_files/316216.got.cif
#   From: 2010.06.25/outbox.cif.g09.slc.cpg/sg15_159_cif.got.tgz:316216.got - 2010.06.28 07:06:18.
