data_PCOD8131183
_publ_section_title
;
Structure prediction by ZEFSAII (Michael W. Deem and Ramdas Pophale) SiO2 
 PCOD8131183
Probable space group: C 2/C
;
_chemical_formula_sum "Si O2"
_cell_formula_units_Z 56
_cell_length_a 20.528034
_cell_length_b 18.219846
_cell_length_c 17.568969
_cell_angle_alpha 90.000000
_cell_angle_beta 150.858172
_cell_angle_gamma 90.000000
_cell_volume 3199.951094
_symmetry_space_group_name_H-M "C 2/C"
_symmetry_group_IT_number 15
_symmetry_cell_setting 'monoclinic'
loop_
_space_group_symop_operation_xyz
x,y,z
-x,y,1/2-z
-x,-y,-z
x,-y,1/2+z
1/2+x,1/2+y,z
1/2-x,1/2+y,1/2-z
1/2-x,1/2-y,-z
1/2+x,1/2-y,1/2+z
loop_
_atom_site_type_symbol
_atom_site_label
_atom_site_fract_x
_atom_site_fract_y
_atom_site_fract_z
Si Si1 0.721675 0.332025 0.104870
Si Si2 0.000000 0.369195 0.750000
Si Si3 0.502706 0.243881 0.125945
Si Si4 0.546651 0.734658 0.218199
Si Si5 0.239369 0.171291 0.794458
Si Si6 0.000000 0.858711 0.250000
Si Si7 0.646130 0.414232 0.883933
Si Si8 0.240337 0.060283 0.927137
O O1 0.857358 0.287021 0.230385
O O2 0.731345 0.360231 0.200972
O O3 0.587967 0.282533 0.965604
O O4 0.715457 0.398069 0.036948
O O5 0.053375 0.320067 0.734253
O O6 0.883517 0.422474 0.606496
O O7 0.621432 0.270378 0.191719
O O8 0.459217 0.311256 0.134865
O O9 0.377538 0.214646 0.949582
O O10 0.500000 0.771878 0.250000
O O11 0.631985 0.661425 0.323459
O O12 0.225518 0.097006 0.829383
O O13 0.870887 0.908025 0.130590
O O14 0.500000 0.448194 0.750000
O O15 0.727965 0.471650 0.915296
#
# Coordination Sequence:
#
# PCOD8131183 Si02
#       8
#     8   4   8   8   8   4   8   8
#     4  10  19  34  54  78 101 127 162 210 254 288
#     4   9  18  30  48  72 101 132 170 210 233 290
#     4   9  17  30  48  76 102 128 168 206 245 288
#     4   9  18  34  55  78  97 124 169 208 243 291
#     4  10  19  30  52  76 106 129 158 205 258 294
#     4   9  16  28  54  72  93 138 174 198 237 296
#     4   9  18  34  53  71  97 132 172 208 232 293
#     4  10  18  32  50  72 101 135 170 199 245 293
#
# _framework density 17.500267999999998
#
# number of rings (size 3 to 8) (size 9 to 14) (size 15 to 20)
#    0.000    2.857    0.714    3.429    0.000    3.429 
#    3.857    2.857    6.286    1.714    0.000    0.000 
#    0.000    0.000    0.000    0.000    0.000    0.000 
#
# Total GULP energy -347007.221622 kJ/mol
# GULP energy per Si atom -12393.115058 kJ/mol
# Density = 1.746044 g / cm^3
# Si number density = 17.500268 Si / 1000 Ang^3
#
#
#
# Elastic Constant Matrix: (Units=GPa)
#
#
# Indices 1 2 3 4 5 6 
#
# 1 92.3195 44.4460 46.2202 -0.0010 -5.9706 -0.0006
# 2 44.4460 61.7253 23.9963 -0.0002 6.4867 -0.0002
# 3 46.2202 23.9963 81.7575 -0.0036 -4.3756 -0.0028
# 4 -0.0010 -0.0002 -0.0036 12.1870 -0.0027 5.2436
# 5 -5.9706 6.4867 -4.3756 -0.0027 24.8698 -0.0019
# 6 -0.0006 -0.0002 -0.0028 5.2436 -0.0019 21.7945
#
#
#
# Elastic Compliance Matrix: (Units=1/GPa)
#
#
# Indices 1 2 3 4 5 6 
#
# 1 0.021688 -0.013280 -0.007974 0.000001 0.007268 0.000000
# 2 -0.013280 0.027278 -0.001060 -0.000003 -0.010489 0.000000
# 3 -0.007974 -0.001060 0.017124 0.000004 0.001375 0.000001
# 4 0.000001 -0.000003 0.000004 0.091529 0.000010 -0.022021
# 5 0.007268 -0.010489 0.001375 0.000010 0.044932 0.000002
# 6 0.000000 0.000000 0.000001 -0.022021 0.000002 0.051181
#
#
# Mechanical properties :
#
#
# Convention : Reuss Voigt Hill
#
# Bulk Modulus (GPa) = 46.59562 51.68081 49.13821
# Shear Modulus (GPa) = 16.36588 19.84625 18.10607
#
# Velocity S-wave (km/s) = 3.06139 3.37123 3.22004
# Velocity P-wave (km/s) = 6.25936 6.68948 6.47799
#
# Compressibility (1/GPa) = 0.02146125
#
# Stress axis : x y z
#
# Youngs Moduli (GPa) = 46.10881 36.65987 58.39796
#
# Poissons Ratio (x) = 0.48685 0.46567
# Poissons Ratio (y) = 0.61234 0.06189
# Poissons Ratio (z) = 0.36767 0.03885
#
# Static dielectric constant tensor:
#      x y z
#    x 3.254610 0.000000 0.082330 
#    y 0.000000 3.053750 0.000000 
#    z 0.082330 0.000000 3.293790 
# 
# 
# High freq. dielectric constant tensor:
#      x y z
#    x 1.666700 0.000000 0.006280 
#    y 0.000000 1.653420 0.000000 
#    z 0.006280 0.000000 1.683470 
# 
# From -- ./inp_files/216047.got.cif
#   From: 2010.06.25/outbox.cif.g09.slc.cpg/sg15_109_cif.got.tgz:216047.got - 2010.06.28 07:06:18.
