data_PCOD8131581
_publ_section_title
;
Structure prediction by ZEFSAII (Michael W. Deem and Ramdas Pophale) SiO2 
 PCOD8131581
Probable space group: C 2/C
;
_chemical_formula_sum "Si O2"
_cell_formula_units_Z 44
_cell_length_a 12.320987
_cell_length_b 19.782535
_cell_length_c 11.054851
_cell_angle_alpha 90.000000
_cell_angle_beta 54.764923
_cell_angle_gamma 90.000000
_cell_volume 2200.856518
_symmetry_space_group_name_H-M "C 2/C"
_symmetry_group_IT_number 15
_symmetry_cell_setting 'monoclinic'
loop_
_space_group_symop_operation_xyz
x,y,z
-x,y,1/2-z
-x,-y,-z
x,-y,1/2+z
1/2+x,1/2+y,z
1/2-x,1/2+y,1/2-z
1/2-x,1/2-y,-z
1/2+x,1/2-y,1/2+z
loop_
_atom_site_type_symbol
_atom_site_label
_atom_site_fract_x
_atom_site_fract_y
_atom_site_fract_z
Si Si1 0.000000 0.388307 0.250000
Si Si2 0.703523 0.604249 0.299591
Si Si3 0.717220 0.177359 0.468298
Si Si4 0.863224 0.917749 0.389631
Si Si5 0.411057 0.565186 0.442458
Si Si6 0.776655 0.459223 0.237820
O O1 0.104656 0.434504 0.253907
O O2 0.931262 0.340822 0.394102
O O3 0.767706 0.669390 0.188496
O O4 0.685360 0.618073 0.454905
O O5 0.560556 0.590255 0.331597
O O6 0.798880 0.540004 0.208735
O O7 0.750000 0.250000 0.500000
O O8 0.816658 0.124524 0.461497
O O9 0.738539 0.915017 0.375201
O O10 0.000000 0.883589 0.250000
O O11 0.886846 0.997504 0.383791
O O12 0.370919 0.548373 0.606709
#
# Coordination Sequence:
#
# PCOD8131581 Si02
#       6
#     4   8   8   8   8   8
#     4  10  26  42  56  90 132 170 204 254 330 374
#     4  11  20  33  60  95 121 160 209 254 321 363
#     4  11  24  40  59  84 121 171 217 260 294 366
#     4  11  16  31  60  97 130 150 193 262 322 376
#     4  10  18  33  59  93 124 151 206 260 308 364
#     4  10  19  36  58  92 135 161 193 259 327 381
#
# _framework density 19.992215999999999
#
# number of rings (size 3 to 8) (size 9 to 14) (size 15 to 20)
#    0.000    1.455    5.455    1.636    2.545    0.727 
#    0.000    0.000    0.000    4.364    9.455    0.000 
#    0.000    0.000    0.000    0.000    0.000    0.000 
#
# Total GULP energy -272589.729429 kJ/mol
# GULP energy per Si atom -12390.442247 kJ/mol
# Density = 1.994671 g / cm^3
# Si number density = 19.992216 Si / 1000 Ang^3
#
#
#
# Elastic Constant Matrix: (Units=GPa)
#
#
# Indices 1 2 3 4 5 6 
#
# 1 89.3803 10.0599 40.3701 0.0000 5.6082 0.0000
# 2 10.0599 67.5711 54.9866 0.0000 -2.9546 0.0000
# 3 40.3701 54.9866 148.2035 0.0000 12.4104 0.0000
# 4 0.0000 0.0000 0.0000 18.9273 0.0000 7.2542
# 5 5.6082 -2.9546 12.4104 0.0000 33.2818 0.0000
# 6 0.0000 0.0000 0.0000 7.2542 0.0000 18.0898
#
#
#
# Elastic Compliance Matrix: (Units=1/GPa)
#
#
# Indices 1 2 3 4 5 6 
#
# 1 0.012853 0.001245 -0.003913 0.000000 -0.000596 0.000000
# 2 0.001245 0.022148 -0.008984 0.000000 0.005107 0.000000
# 3 -0.003913 -0.008984 0.011518 0.000000 -0.004433 0.000000
# 4 0.000000 0.000000 0.000000 0.062429 0.000000 -0.025034
# 5 -0.000596 0.005107 -0.004433 0.000000 0.032253 0.000000
# 6 0.000000 0.000000 0.000000 -0.025034 0.000000 0.065319
#
#
# Mechanical properties :
#
#
# Convention : Reuss Voigt Hill
#
# Bulk Modulus (GPa) = 43.07745 57.33201 50.20473
# Shear Modulus (GPa) = 21.04713 27.37566 24.21139
#
# Velocity S-wave (km/s) = 3.24816 3.70444 3.48378
# Velocity P-wave (km/s) = 5.97170 6.85832 6.43031
#
# Compressibility (1/GPa) = 0.02321400
#
# Stress axis : x y z
#
# Youngs Moduli (GPa) = 77.80410 45.15063 86.82194
#
# Poissons Ratio (x) = -0.05619 0.33972
# Poissons Ratio (y) = -0.09683 0.78001
# Poissons Ratio (z) = 0.30444 0.40564
#
# Static dielectric constant tensor:
#      x y z
#    x 3.506870 0.000000 0.146320 
#    y 0.000000 2.688830 0.000000 
#    z 0.146320 0.000000 4.523430 
# 
# 
# High freq. dielectric constant tensor:
#      x y z
#    x 1.771860 0.000000 0.011950 
#    y 0.000000 1.722880 0.000000 
#    z 0.011950 0.000000 1.805990 
# 
# From -- ./inp_files/87703.got.cif
#   From: 2010.06.25/outbox.cif.g09.slc.cpg/sg15_44_cif.got.tgz:87703.got - 2010.06.28 07:06:18.
