data_PCOD8131214
_publ_section_title
;
Structure prediction by ZEFSAII (Michael W. Deem and Ramdas Pophale) SiO2 
 PCOD8131214
Probable space group: C 2/C
;
_chemical_formula_sum "Si O2"
_cell_formula_units_Z 36
_cell_length_a 13.223653
_cell_length_b 20.359443
_cell_length_c 12.859102
_cell_angle_alpha 90.000000
_cell_angle_beta 146.971503
_cell_angle_gamma 90.000000
_cell_volume 1886.988171
_symmetry_space_group_name_H-M "C 2/C"
_symmetry_group_IT_number 15
_symmetry_cell_setting 'monoclinic'
loop_
_space_group_symop_operation_xyz
x,y,z
-x,y,1/2-z
-x,-y,-z
x,-y,1/2+z
1/2+x,1/2+y,z
1/2-x,1/2+y,1/2-z
1/2-x,1/2-y,-z
1/2+x,1/2-y,1/2+z
loop_
_atom_site_type_symbol
_atom_site_label
_atom_site_fract_x
_atom_site_fract_y
_atom_site_fract_z
Si Si1 0.820131 0.944218 0.898127
Si Si2 0.000000 0.467320 0.750000
Si Si3 0.404232 0.925284 0.000487
Si Si4 0.201707 0.174321 0.465418
Si Si5 0.808782 0.909920 0.347412
O O1 0.666329 0.920743 0.849602
O O2 0.750276 0.934512 0.719909
O O3 0.849721 0.022100 0.945592
O O4 0.014756 0.903992 0.079747
O O5 0.079553 0.510763 0.913201
O O6 0.605836 0.914055 0.118356
O O7 0.355354 0.863619 0.030703
O O8 0.250000 0.250000 0.500000
O O9 0.202535 0.151542 0.585346
O O10 0.000000 0.158216 0.250000
#
# Coordination Sequence:
#
# PCOD8131214 Si02
#       5
#     8   4   8   8   8
#     4  10  20  32  52  77 109 148 180 225 280 321
#     4  10  18  32  52  74 110 144 176 234 264 330
#     4  11  19  35  50  78 112 144 180 224 276 325
#     4  12  22  35  55  80 115 149 182 226 279 334
#     4  10  19  34  49  75 110 141 180 223 267 334
#
# _framework density 19.078021
#
# number of rings (size 3 to 8) (size 9 to 14) (size 15 to 20)
#    0.000    1.333    6.667    4.000    0.000    0.000 
#    0.000    3.333    0.000    0.000    0.000    1.556 
#    0.000    0.000    0.000    0.000    0.000    0.000 
#
# Total GULP energy -223040.411577 kJ/mol
# GULP energy per Si atom -12391.133976 kJ/mol
# Density = 1.903460 g / cm^3
# Si number density = 19.078021 Si / 1000 Ang^3
#
#
#
# Elastic Constant Matrix: (Units=GPa)
#
#
# Indices 1 2 3 4 5 6 
#
# 1 123.2196 30.8817 32.1876 0.0000 44.7959 0.0000
# 2 30.8817 71.8443 3.1025 0.0000 9.8592 0.0000
# 3 32.1876 3.1025 79.3627 0.0000 29.9872 0.0000
# 4 0.0000 0.0000 0.0000 20.5909 0.0000 2.0497
# 5 44.7959 9.8592 29.9872 0.0000 44.2184 0.0000
# 6 0.0000 0.0000 0.0000 2.0497 0.0000 21.8455
#
#
#
# Elastic Compliance Matrix: (Units=1/GPa)
#
#
# Indices 1 2 3 4 5 6 
#
# 1 0.014000 -0.004235 -0.000686 0.000000 -0.012773 0.000000
# 2 -0.004235 0.015685 0.001082 0.000000 0.000060 0.000000
# 3 -0.000686 0.001082 0.017028 0.000000 -0.011094 0.000000
# 4 0.000000 0.000000 0.000000 0.049023 0.000000 -0.004600
# 5 -0.012773 0.000060 -0.011094 0.000000 0.043065 0.000000
# 6 0.000000 0.000000 0.000000 -0.004600 0.000000 0.046208
#
#
# Mechanical properties :
#
#
# Convention : Reuss Voigt Hill
#
# Bulk Modulus (GPa) = 25.61871 45.19669 35.40770
# Shear Modulus (GPa) = 24.30740 31.21460 27.76100
#
# Velocity S-wave (km/s) = 3.57333 4.04933 3.81875
# Velocity P-wave (km/s) = 5.52109 6.75312 6.16795
#
# Compressibility (1/GPa) = 0.03903396
#
# Stress axis : x y z
#
# Youngs Moduli (GPa) = 71.42923 63.75694 58.72598
#
# Poissons Ratio (x) = 0.27003 0.04029
# Poissons Ratio (y) = 0.30252 -0.06354
# Poissons Ratio (z) = 0.04901 -0.06899
#
# Static dielectric constant tensor:
#      x y z
#    x 3.929890 0.000000 0.660440 
#    y 0.000000 3.115260 0.000000 
#    z 0.660440 0.000000 3.804650 
# 
# 
# High freq. dielectric constant tensor:
#      x y z
#    x 1.736650 0.000000 0.037800 
#    y 0.000000 1.683230 0.000000 
#    z 0.037800 0.000000 1.756250 
# 
# From -- ./inp_files/31156.got.cif
#   From: 2010.06.25/outbox.cif.g09.slc.cpg/sg15_16_cif.got.tgz:31156.got - 2010.06.28 07:06:18.
