data_PCOD8131419
_publ_section_title
;
Structure prediction by ZEFSAII (Michael W. Deem and Ramdas Pophale) SiO2 
 PCOD8131419
Probable space group: C 2/C
;
_chemical_formula_sum "Si O2"
_cell_formula_units_Z 64
_cell_length_a 23.459983
_cell_length_b 12.355778
_cell_length_c 21.941791
_cell_angle_alpha 90.000000
_cell_angle_beta 145.883966
_cell_angle_gamma 90.000000
_cell_volume 3567.242374
_symmetry_space_group_name_H-M "C 2/C"
_symmetry_group_IT_number 15
_symmetry_cell_setting 'monoclinic'
loop_
_space_group_symop_operation_xyz
x,y,z
-x,y,1/2-z
-x,-y,-z
x,-y,1/2+z
1/2+x,1/2+y,z
1/2-x,1/2+y,1/2-z
1/2-x,1/2-y,-z
1/2+x,1/2-y,1/2+z
loop_
_atom_site_type_symbol
_atom_site_label
_atom_site_fract_x
_atom_site_fract_y
_atom_site_fract_z
Si Si1 0.333799 0.792187 0.878929
Si Si2 0.463628 0.768936 0.584518
Si Si3 0.760016 0.419161 0.230165
Si Si4 0.056913 0.073620 0.739064
Si Si5 0.249985 0.713648 0.568510
Si Si6 0.345690 0.429096 0.769659
Si Si7 0.939735 0.732094 0.924891
Si Si8 0.170200 0.367985 0.760962
O O1 0.304506 0.667579 0.865730
O O2 0.258740 0.874081 0.848808
O O3 0.307729 0.809620 0.783912
O O4 0.450372 0.813480 0.000581
O O5 0.486008 0.662017 0.643914
O O6 0.362765 0.830330 0.517678
O O7 0.453049 0.730010 0.505893
O O8 0.551224 0.857981 0.670923
O O9 0.686426 0.469669 0.216436
O O10 0.859306 0.365124 0.348717
O O11 0.798054 0.507282 0.215200
O O12 0.168212 0.120773 0.850286
O O13 0.000000 0.035363 0.750000
O O14 0.078760 0.969529 0.716375
O O15 0.250000 0.750000 0.500000
O O16 0.265855 0.813865 0.628560
O O17 0.408863 0.338168 0.860947
#
# Coordination Sequence:
#
# PCOD8131419 Si02
#       8
#     8   8   8   8   8   8   8   8
#     4   9  19  34  50  80 111 133 166 214 261 314
#     4  10  19  33  52  78 111 134 168 213 262 316
#     4  10  18  33  50  79 112 133 168 208 265 317
#     4  11  22  36  50  76 104 139 179 215 257 301
#     4  11  20  34  52  73 106 141 171 212 252 304
#     4  10  20  33  54  77 107 137 170 215 257 315
#     4  10  20  33  54  83 106 138 167 212 270 311
#     4   9  20  31  51  79 107 139 164 210 264 309
#
# _framework density 17.941030000000001
#
# number of rings (size 3 to 8) (size 9 to 14) (size 15 to 20)
#    0.000    2.000    1.250    5.250    0.000    8.500 
#    0.000    0.000    0.000    0.750   13.000    0.000 
#    0.000    0.000    0.000    0.000    0.000    0.000 
#
# Total GULP energy -396720.523005 kJ/mol
# GULP energy per Si atom -12397.516344 kJ/mol
# Density = 1.790020 g / cm^3
# Si number density = 17.941030 Si / 1000 Ang^3
#
#
#
# Elastic Constant Matrix: (Units=GPa)
#
#
# Indices 1 2 3 4 5 6 
#
# 1 95.5892 30.5016 25.3245 0.0000 16.5255 0.0000
# 2 30.5016 69.4485 0.5008 0.0000 2.9578 0.0000
# 3 25.3245 0.5008 54.6458 0.0000 11.7290 0.0000
# 4 0.0000 0.0000 0.0000 15.5500 0.0000 1.8327
# 5 16.5255 2.9578 11.7290 0.0000 31.5773 0.0000
# 6 0.0000 0.0000 0.0000 1.8327 0.0000 22.7752
#
#
#
# Elastic Compliance Matrix: (Units=1/GPa)
#
#
# Indices 1 2 3 4 5 6 
#
# 1 0.014857 -0.006268 -0.005743 0.000000 -0.005055 0.000000
# 2 -0.006268 0.017103 0.002595 0.000000 0.000715 0.000000
# 3 -0.005743 0.002595 0.022107 0.000000 -0.005449 0.000000
# 4 0.000000 0.000000 0.000000 0.064924 0.000000 -0.005224
# 5 -0.005055 0.000715 -0.005449 0.000000 0.036271 0.000000
# 6 0.000000 0.000000 0.000000 -0.005224 0.000000 0.044328
#
#
# Mechanical properties :
#
#
# Convention : Reuss Voigt Hill
#
# Bulk Modulus (GPa) = 28.38151 36.92637 32.65394
# Shear Modulus (GPa) = 21.72334 24.87094 23.29714
#
# Velocity S-wave (km/s) = 3.48346 3.72729 3.60743
# Velocity P-wave (km/s) = 5.65977 6.25702 5.96588
#
# Compressibility (1/GPa) = 0.03523421
#
# Stress axis : x y z
#
# Youngs Moduli (GPa) = 67.30857 58.46893 45.23500
#
# Poissons Ratio (x) = 0.36651 0.25977
# Poissons Ratio (y) = 0.42192 -0.11738
# Poissons Ratio (z) = 0.38653 -0.15172
#
# Static dielectric constant tensor:
#      x y z
#    x 3.408000 0.000000 0.299890 
#    y 0.000000 3.199270 0.000000 
#    z 0.299890 0.000000 5.370710 
# 
# 
# High freq. dielectric constant tensor:
#      x y z
#    x 1.680980 0.000000 0.030430 
#    y 0.000000 1.678880 0.000000 
#    z 0.030430 0.000000 1.699730 
# 
# From -- ./inp_files/283511.got.cif
#   From: 2010.06.25/outbox.cif.g09.slc.cpg/sg15_142_cif.got.tgz:283511.got - 2010.06.28 07:06:18.
