data_PCOD8131186
_publ_section_title
;
Structure prediction by ZEFSAII (Michael W. Deem and Ramdas Pophale) SiO2 
 PCOD8131186
Probable space group: C 2/C
;
_chemical_formula_sum "Si O2"
_cell_formula_units_Z 64
_cell_length_a 15.368654
_cell_length_b 26.093857
_cell_length_c 9.825761
_cell_angle_alpha 90.000000
_cell_angle_beta 108.843926
_cell_angle_gamma 90.000000
_cell_volume 3729.202085
_symmetry_space_group_name_H-M "C 2/C"
_symmetry_group_IT_number 15
_symmetry_cell_setting 'monoclinic'
loop_
_space_group_symop_operation_xyz
x,y,z
-x,y,1/2-z
-x,-y,-z
x,-y,1/2+z
1/2+x,1/2+y,z
1/2-x,1/2+y,1/2-z
1/2-x,1/2-y,-z
1/2+x,1/2-y,1/2+z
loop_
_atom_site_type_symbol
_atom_site_label
_atom_site_fract_x
_atom_site_fract_y
_atom_site_fract_z
Si Si1 0.404044 0.762624 0.437633
Si Si2 0.283030 0.854469 0.480868
Si Si3 0.277074 0.147289 0.300411
Si Si4 0.893005 0.451318 0.855829
Si Si5 0.108509 0.742736 0.076454
Si Si6 0.894903 0.453208 0.542619
Si Si7 0.895660 0.194051 0.186912
Si Si8 0.399725 0.313371 0.173959
O O1 0.333944 0.806686 0.439980
O O2 0.508201 0.782649 0.504747
O O3 0.382646 0.744432 0.274045
O O4 0.392636 0.712099 0.522821
O O5 0.284115 0.847122 0.642634
O O6 0.332275 0.906438 0.461486
O O7 0.179933 0.856400 0.365762
O O8 0.329320 0.095741 0.371480
O O9 0.320817 0.196247 0.397428
O O10 0.171601 0.147591 0.300359
O O11 0.875546 0.466614 0.690280
O O12 0.999733 0.436667 0.929236
O O13 0.866107 0.498566 0.937602
O O14 0.117177 0.768200 0.227922
O O15 0.128240 0.787214 0.976853
O O16 0.000000 0.172916 0.250000
O O17 0.500000 0.339153 0.250000
#
# Coordination Sequence:
#
# PCOD8131186 Si02
#       8
#     8   8   8   8   8   8   8   8
#     4  10  18  32  50  73 105 134 166 203 243 290
#     4  11  19  31  55  77  95 131 175 207 241 294
#     4  11  19  32  54  74  98 135 173 201 244 301
#     4   9  19  36  56  76 100 128 158 203 253 298
#     4  10  20  31  47  75 107 135 166 202 242 294
#     4   9  19  36  55  77 102 125 158 203 253 300
#     4  10  21  34  46  69 108 142 166 201 245 290
#     4  10  19  31  49  72 101 134 166 205 242 282
#
# _framework density 17.161849
#
# number of rings (size 3 to 8) (size 9 to 14) (size 15 to 20)
#    0.000    2.000    2.500    2.250    0.000    1.000 
#    4.500    0.000    0.000    0.750    0.000    3.500 
#    0.000    0.000    0.000    0.000    0.000    0.000 
#
# Total GULP energy -396789.704630 kJ/mol
# GULP energy per Si atom -12399.678270 kJ/mol
# Density = 1.712279 g / cm^3
# Si number density = 17.161849 Si / 1000 Ang^3
#
#
#
# Elastic Constant Matrix: (Units=GPa)
#
#
# Indices 1 2 3 4 5 6 
#
# 1 122.6384 66.7986 29.6618 0.0000 7.7388 0.0000
# 2 66.7986 79.4788 20.8432 0.0000 12.7168 0.0000
# 3 29.6618 20.8432 42.3403 0.0000 6.1994 0.0000
# 4 0.0000 0.0000 0.0000 19.3203 0.0000 -1.1054
# 5 7.7388 12.7168 6.1994 0.0000 26.8821 0.0000
# 6 0.0000 0.0000 0.0000 -1.1054 0.0000 27.0700
#
#
#
# Elastic Compliance Matrix: (Units=1/GPa)
#
#
# Indices 1 2 3 4 5 6 
#
# 1 0.016160 -0.012543 -0.005520 0.000000 0.002554 0.000000
# 2 -0.012543 0.024974 -0.002387 0.000000 -0.007653 0.000000
# 3 -0.005520 -0.002387 0.029250 0.000000 -0.004027 0.000000
# 4 0.000000 0.000000 0.000000 0.051880 0.000000 0.002118
# 5 0.002554 -0.007653 -0.004027 0.000000 0.041013 0.000000
# 6 0.000000 0.000000 0.000000 0.002118 0.000000 0.037028
#
#
# Mechanical properties :
#
#
# Convention : Reuss Voigt Hill
#
# Bulk Modulus (GPa) = 33.91641 53.22942 43.57292
# Shear Modulus (GPa) = 19.91774 23.13139 21.52457
#
# Velocity S-wave (km/s) = 3.41043 3.67527 3.54533
# Velocity P-wave (km/s) = 5.94253 7.00669 6.49643
#
# Compressibility (1/GPa) = 0.02948425
#
# Stress axis : x y z
#
# Youngs Moduli (GPa) = 61.88226 40.04183 34.18791
#
# Poissons Ratio (x) = 0.50223 0.18873
# Poissons Ratio (y) = 0.77616 0.08160
# Poissons Ratio (z) = 0.34162 0.09557
#
# Static dielectric constant tensor:
#      x y z
#    x 3.515500 0.000000 0.054430 
#    y 0.000000 2.874100 0.000000 
#    z 0.054430 0.000000 3.241010 
# 
# 
# High freq. dielectric constant tensor:
#      x y z
#    x 1.673730 0.000000 0.000780 
#    y 0.000000 1.617990 0.000000 
#    z 0.000780 0.000000 1.669570 
# 
# From -- ./inp_files/43530.got.cif
#   From: 2010.06.25/outbox.cif.g09.slc.cpg/sg15_22_cif.got.tgz:43530.got - 2010.06.28 07:06:18.
