data_PCOD8131716
_publ_section_title
;
Structure prediction by ZEFSAII (Michael W. Deem and Ramdas Pophale) SiO2 
 PCOD8131716
Probable space group: C 2/C
;
_chemical_formula_sum "Si O2"
_cell_formula_units_Z 56
_cell_length_a 16.373829
_cell_length_b 15.113387
_cell_length_c 19.840291
_cell_angle_alpha 90.000000
_cell_angle_beta 148.690031
_cell_angle_gamma 90.000000
_cell_volume 2551.443035
_symmetry_space_group_name_H-M "C 2/C"
_symmetry_group_IT_number 15
_symmetry_cell_setting 'monoclinic'
loop_
_space_group_symop_operation_xyz
x,y,z
-x,y,1/2-z
-x,-y,-z
x,-y,1/2+z
1/2+x,1/2+y,z
1/2-x,1/2+y,1/2-z
1/2-x,1/2-y,-z
1/2+x,1/2-y,1/2+z
loop_
_atom_site_type_symbol
_atom_site_label
_atom_site_fract_x
_atom_site_fract_y
_atom_site_fract_z
Si Si1 0.956733 0.787541 0.893603
Si Si2 0.681965 0.979077 0.624356
Si Si3 0.120636 0.378206 0.457240
Si Si4 0.304228 0.969343 0.225768
Si Si5 0.865070 0.792062 0.349792
Si Si6 0.143081 0.049996 0.479751
Si Si7 0.948058 0.106119 0.784473
O O1 0.044264 0.719152 0.904402
O O2 0.003327 0.887364 0.907701
O O3 0.767717 0.782532 0.755821
O O4 0.008051 0.760376 0.005745
O O5 0.707882 0.897359 0.590987
O O6 0.500000 0.000000 0.500000
O O7 0.736107 0.962872 0.740980
O O8 0.772603 0.065379 0.659443
O O9 0.242243 0.386311 0.481841
O O10 0.990711 0.453963 0.351915
O O11 0.223457 0.876835 0.184777
O O12 0.232651 0.000573 0.104200
O O13 0.957175 0.815416 0.345767
O O14 0.069860 0.973418 0.383503
O O15 0.000000 0.148245 0.750000
#
# Coordination Sequence:
#
# PCOD8131716 Si02
#       7
#     8   8   8   8   8   8   8
#     4  10  22  38  59  89 121 166 198 240 304 376
#     4   9  18  34  56  81 115 157 196 232 288 359
#     4  10  18  34  56  88 126 159 190 239 304 363
#     4   8  18  34  54  82 123 160 189 238 294 354
#     4   9  21  40  59  82 119 162 204 248 297 363
#     4  11  21  34  58  93 125 152 197 249 304 357
#     4  11  22  39  60  90 118 154 201 261 301 341
#
# _framework density 21.948364000000002
#
# number of rings (size 3 to 8) (size 9 to 14) (size 15 to 20)
#    0.000    2.286    1.429    1.714    2.000    5.143 
#    0.000    2.143    0.000    0.000    0.000    0.000 
#    0.000    0.000    0.000    0.000    0.000    0.000 
#
# Total GULP energy -347051.289029 kJ/mol
# GULP energy per Si atom -12394.688894 kJ/mol
# Density = 2.189841 g / cm^3
# Si number density = 21.948364 Si / 1000 Ang^3
#
#
#
# Elastic Constant Matrix: (Units=GPa)
#
#
# Indices 1 2 3 4 5 6 
#
# 1 127.4997 10.3094 30.6761 0.0047 -12.4446 0.0008
# 2 10.3094 25.5235 0.3933 0.0105 -5.1732 0.0023
# 3 30.6761 0.3933 77.4362 0.0179 -14.4666 0.0046
# 4 0.0047 0.0105 0.0179 22.8944 0.0060 -4.8861
# 5 -12.4446 -5.1732 -14.4666 0.0060 31.9649 0.0010
# 6 0.0008 0.0023 0.0046 -4.8861 0.0010 29.2021
#
#
#
# Elastic Compliance Matrix: (Units=1/GPa)
#
#
# Indices 1 2 3 4 5 6 
#
# 1 0.009047 -0.003300 -0.003287 0.000002 0.001501 0.000001
# 2 -0.003300 0.041800 0.002314 -0.000024 0.006528 -0.000008
# 3 -0.003287 0.002314 0.015331 -0.000015 0.006033 -0.000005
# 4 0.000002 -0.000024 -0.000015 0.045296 -0.000019 0.007579
# 5 0.001501 0.006528 0.006033 -0.000019 0.035656 -0.000006
# 6 0.000001 -0.000008 -0.000005 0.007579 -0.000006 0.035512
#
#
# Mechanical properties :
#
#
# Convention : Reuss Voigt Hill
#
# Bulk Modulus (GPa) = 17.35089 34.80190 26.07639
# Shear Modulus (GPa) = 23.76447 29.41765 26.59106
#
# Velocity S-wave (km/s) = 3.29408 3.66500 3.48448
# Velocity P-wave (km/s) = 4.73185 5.81380 5.30051
#
# Compressibility (1/GPa) = 0.05763394
#
# Stress axis : x y z
#
# Youngs Moduli (GPa) = 110.53080 23.92365 65.22568
#
# Poissons Ratio (x) = 0.07894 0.21439
# Poissons Ratio (y) = 0.36470 -0.15095
# Poissons Ratio (z) = 0.36331 -0.05537
#
# Static dielectric constant tensor:
#      x y z
#    x 4.051110 0.000000 -0.262790 
#    y 0.000000 3.472290 0.000000 
#    z -0.262790 0.000000 4.389120 
# 
# 
# High freq. dielectric constant tensor:
#      x y z
#    x 1.861130 0.000000 -0.005370 
#    y 0.000000 1.820270 0.000000 
#    z -0.005370 0.000000 1.874350 
# 
# From -- ./inp_files/249295.got.cif
#   From: 2010.06.25/outbox.cif.g09.slc.cpg/sg15_125_cif.got.tgz:249295.got - 2010.06.28 07:06:18.
