data_PCOD8132198
_publ_section_title
;
Structure prediction by ZEFSAII (Michael W. Deem and Ramdas Pophale) SiO2 
 PCOD8132198
Probable space group: C 2/C
;
_chemical_formula_sum "Si O2"
_cell_formula_units_Z 56
_cell_length_a 11.382247
_cell_length_b 16.129187
_cell_length_c 23.891961
_cell_angle_alpha 90.000000
_cell_angle_beta 133.277006
_cell_angle_gamma 90.000000
_cell_volume 3193.392146
_symmetry_space_group_name_H-M "C 2/C"
_symmetry_group_IT_number 15
_symmetry_cell_setting 'monoclinic'
loop_
_space_group_symop_operation_xyz
x,y,z
-x,y,1/2-z
-x,-y,-z
x,-y,1/2+z
1/2+x,1/2+y,z
1/2-x,1/2+y,1/2-z
1/2-x,1/2-y,-z
1/2+x,1/2-y,1/2+z
loop_
_atom_site_type_symbol
_atom_site_label
_atom_site_fract_x
_atom_site_fract_y
_atom_site_fract_z
Si Si1 0.488383 0.246627 0.548928
Si Si2 0.338767 0.203749 0.610320
Si Si3 0.634760 0.976561 0.395809
Si Si4 0.773054 0.628775 0.134095
Si Si5 0.173257 0.858818 0.823983
Si Si6 0.389146 0.071174 0.487020
Si Si7 0.390864 0.893512 0.792050
O O1 0.477047 0.235392 0.612285
O O2 0.332981 0.295740 0.476884
O O3 0.644471 0.299018 0.581554
O O4 0.495414 0.155268 0.523607
O O5 0.365857 0.109300 0.639046
O O6 0.345472 0.262585 0.665973
O O7 0.677652 0.955254 0.474179
O O8 0.764054 0.043513 0.413114
O O9 0.453958 0.014385 0.329665
O O10 0.775788 0.603294 0.200375
O O11 0.949304 0.661654 0.170703
O O12 0.237058 0.913889 0.896559
O O13 0.296536 0.855941 0.813073
O O14 0.000000 0.896320 0.750000
O O15 0.500000 0.000000 0.500000
#
# Coordination Sequence:
#
# PCOD8132198 Si02
#       7
#     8   8   8   8   8   8   8
#     4   9  18  33  56  81 108 146 185 232 279 334
#     4   9  19  33  53  85 107 140 189 234 277 331
#     4   9  18  34  57  82 114 150 189 228 288 333
#     4   9  18  35  55  79 112 152 186 224 286 343
#     4  11  21  34  58  83 112 146 193 239 284 341
#     4  10  18  36  59  81 113 150 190 232 286 340
#     4   9  19  34  54  80 111 156 182 227 289 339
#
# _framework density 17.536211000000002
#
# number of rings (size 3 to 8) (size 9 to 14) (size 15 to 20)
#    0.857    1.714    1.429    1.714    0.000    1.714 
#    0.000    6.429    3.143    0.000    0.000    0.000 
#    0.000    0.000    0.000    0.000    0.000    0.000 
#
# Total GULP energy -346948.948576 kJ/mol
# GULP energy per Si atom -12391.033878 kJ/mol
# Density = 1.749630 g / cm^3
# Si number density = 17.536211 Si / 1000 Ang^3
#
#
#
# Elastic Constant Matrix: (Units=GPa)
#
#
# Indices 1 2 3 4 5 6 
#
# 1 90.4498 59.0758 39.6759 0.0000 -5.0778 0.0000
# 2 59.0758 134.8964 48.1493 0.0000 1.6549 0.0000
# 3 39.6759 48.1493 99.1473 0.0000 -5.0980 0.0000
# 4 0.0000 0.0000 0.0000 17.0552 0.0000 -1.4174
# 5 -5.0778 1.6549 -5.0980 0.0000 25.9529 0.0000
# 6 0.0000 0.0000 0.0000 -1.4174 0.0000 35.1418
#
#
#
# Elastic Compliance Matrix: (Units=1/GPa)
#
#
# Indices 1 2 3 4 5 6 
#
# 1 0.016788 -0.006103 -0.003602 0.000000 0.002966 0.000000
# 2 -0.006103 0.011240 -0.003146 0.000000 -0.002529 0.000000
# 3 -0.003602 -0.003146 0.013162 0.000000 0.002081 0.000000
# 4 0.000000 0.000000 0.000000 0.058830 0.000000 0.002373
# 5 0.002966 -0.002529 0.002081 0.000000 0.039682 0.000000
# 6 0.000000 0.000000 0.000000 0.002373 0.000000 0.028552
#
#
# Mechanical properties :
#
#
# Convention : Reuss Voigt Hill
#
# Bulk Modulus (GPa) = 64.56469 68.69950 66.63210
# Shear Modulus (GPa) = 25.11053 27.46948 26.29001
#
# Velocity S-wave (km/s) = 3.78818 3.96213 3.87613
# Velocity P-wave (km/s) = 7.48543 7.75836 7.62311
#
# Compressibility (1/GPa) = 0.01548834
#
# Stress axis : x y z
#
# Youngs Moduli (GPa) = 59.56493 88.96937 75.97440
#
# Poissons Ratio (x) = 0.54298 0.27365
# Poissons Ratio (y) = 0.36352 0.23903
# Poissons Ratio (z) = 0.21455 0.27992
#
# Static dielectric constant tensor:
#      x y z
#    x 3.138130 0.000000 -0.145350 
#    y 0.000000 3.208440 0.000000 
#    z -0.145350 0.000000 3.211580 
# 
# 
# High freq. dielectric constant tensor:
#      x y z
#    x 1.666210 0.000000 -0.015080 
#    y 0.000000 1.668830 0.000000 
#    z -0.015080 0.000000 1.672140 
# 
# From -- ./inp_files/270245.got.cif
#   From: 2010.06.25/outbox.cif.g09.slc.cpg/sg15_136_cif.got.tgz:270245.got - 2010.06.28 07:06:18.
