data_PCOD8132191
_publ_section_title
;
Structure prediction by ZEFSAII (Michael W. Deem and Ramdas Pophale) SiO2 
 PCOD8132191
Probable space group: C 2/C
;
_chemical_formula_sum "Si O2"
_cell_formula_units_Z 56
_cell_length_a 9.182234
_cell_length_b 28.133895
_cell_length_c 12.070517
_cell_angle_alpha 90.000000
_cell_angle_beta 61.895998
_cell_angle_gamma 90.000000
_cell_volume 2750.546181
_symmetry_space_group_name_H-M "C 2/C"
_symmetry_group_IT_number 15
_symmetry_cell_setting 'monoclinic'
loop_
_space_group_symop_operation_xyz
x,y,z
-x,y,1/2-z
-x,-y,-z
x,-y,1/2+z
1/2+x,1/2+y,z
1/2-x,1/2+y,1/2-z
1/2-x,1/2-y,-z
1/2+x,1/2-y,1/2+z
loop_
_atom_site_type_symbol
_atom_site_label
_atom_site_fract_x
_atom_site_fract_y
_atom_site_fract_z
Si Si1 0.674984 0.045419 0.130512
Si Si2 0.123889 0.389869 0.447807
Si Si3 0.821418 0.440445 0.459715
Si Si4 0.304354 0.138574 0.802306
Si Si5 0.195601 0.256858 0.145943
Si Si6 0.092559 0.673988 0.330905
Si Si7 0.170878 0.912571 0.731634
O O1 0.500000 0.059647 0.250000
O O2 0.827054 0.053180 0.161651
O O3 0.674993 0.990790 0.099936
O O4 0.709330 0.080010 0.014241
O O5 0.248522 0.372661 0.306529
O O6 0.006312 0.425314 0.421852
O O7 0.033893 0.342340 0.527030
O O8 0.732100 0.401268 0.412472
O O9 0.731349 0.444949 0.608822
O O10 0.500000 0.139673 0.750000
O O11 0.235851 0.190626 0.852968
O O12 0.304982 0.220658 0.177255
O O13 0.000000 0.250779 0.250000
O O14 0.250000 0.250000 0.000000
O O15 0.217688 0.630940 0.271745
O O16 0.000000 0.684140 0.250000
O O17 0.000000 0.891264 0.750000
#
# Coordination Sequence:
#
# PCOD8132191 Si02
#       7
#     8   8   8   8   8   8   8
#     4  12  20  35  63  92 115 161 214 264 316 376
#     4  10  18  36  58  90 124 154 203 275 314 367
#     4  10  21  33  61  88 120 159 211 258 313 379
#     4   9  19  35  56  90 125 158 202 263 315 381
#     4  11  22  40  67  95 130 180 221 264 337 398
#     4  11  20  39  64  93 120 161 219 276 314 384
#     4  11  23  39  57  85 124 164 212 257 325 391
#
# _framework density 20.359591999999999
#
# number of rings (size 3 to 8) (size 9 to 14) (size 15 to 20)
#    0.000    1.429    4.286    5.571    2.000    0.571 
#    0.000    2.857    3.143    0.000    0.000    0.000 
#    0.000    0.000    0.000    0.000    0.000    0.000 
#
# Total GULP energy -346937.760439 kJ/mol
# GULP energy per Si atom -12390.634301 kJ/mol
# Density = 2.031325 g / cm^3
# Si number density = 20.359592 Si / 1000 Ang^3
#
#
#
# Elastic Constant Matrix: (Units=GPa)
#
#
# Indices 1 2 3 4 5 6 
#
# 1 90.4733 36.3242 51.2694 0.0000 28.2760 0.0000
# 2 36.3242 95.0024 77.4202 0.0000 26.9333 0.0000
# 3 51.2694 77.4202 138.2527 0.0000 38.9393 0.0000
# 4 0.0000 0.0000 0.0000 34.6799 0.0000 5.4873
# 5 28.2760 26.9333 38.9393 0.0000 30.4885 0.0000
# 6 0.0000 0.0000 0.0000 5.4873 0.0000 24.8989
#
#
#
# Elastic Compliance Matrix: (Units=1/GPa)
#
#
# Indices 1 2 3 4 5 6 
#
# 1 0.016303 -0.001290 -0.002164 0.000000 -0.011216 0.000000
# 2 -0.001290 0.019982 -0.009491 0.000000 -0.004335 0.000000
# 3 -0.002164 -0.009491 0.016280 0.000000 -0.010401 0.000000
# 4 0.000000 0.000000 0.000000 0.029877 0.000000 -0.006584
# 5 -0.011216 -0.004335 -0.010401 0.000000 0.060315 0.000000
# 6 0.000000 0.000000 0.000000 -0.006584 0.000000 0.041613
#
#
# Mechanical properties :
#
#
# Convention : Reuss Voigt Hill
#
# Bulk Modulus (GPa) = 37.48790 72.63956 55.06373
# Shear Modulus (GPa) = 22.81523 28.59445 25.70484
#
# Velocity S-wave (km/s) = 3.35119 3.75169 3.55708
# Velocity P-wave (km/s) = 5.78159 7.38395 6.63135
#
# Compressibility (1/GPa) = 0.02667527
#
# Stress axis : x y z
#
# Youngs Moduli (GPa) = 61.33946 50.04408 61.42497
#
# Poissons Ratio (x) = 0.06455 0.13295
# Poissons Ratio (y) = 0.07911 0.58297
# Poissons Ratio (z) = 0.13276 0.47496
#
# Static dielectric constant tensor:
#      x y z
#    x 3.521530 0.000000 0.180350 
#    y 0.000000 4.300800 0.000000 
#    z 0.180350 0.000000 4.119330 
# 
# 
# High freq. dielectric constant tensor:
#      x y z
#    x 1.755220 0.000000 0.032200 
#    y 0.000000 1.802410 0.000000 
#    z 0.032200 0.000000 1.807490 
# 
# From -- ./inp_files/81288.got.cif
#   From: 2010.06.25/outbox.cif.g09.slc.cpg/sg15_41_cif.got.tgz:81288.got - 2010.06.28 07:06:18.
