data_PCOD8132631
_publ_section_title
;
Structure prediction by ZEFSAII (Michael W. Deem and Ramdas Pophale) SiO2 
 PCOD8132631
Probable space group: C 2/C
;
_chemical_formula_sum "Si O2"
_cell_formula_units_Z 60
_cell_length_a 22.889401
_cell_length_b 14.406605
_cell_length_c 9.656502
_cell_angle_alpha 90.000000
_cell_angle_beta 79.969224
_cell_angle_gamma 90.000000
_cell_volume 3135.639830
_symmetry_space_group_name_H-M "C 2/C"
_symmetry_group_IT_number 15
_symmetry_cell_setting 'monoclinic'
loop_
_space_group_symop_operation_xyz
x,y,z
-x,y,1/2-z
-x,-y,-z
x,-y,1/2+z
1/2+x,1/2+y,z
1/2-x,1/2+y,1/2-z
1/2-x,1/2-y,-z
1/2+x,1/2-y,1/2+z
loop_
_atom_site_type_symbol
_atom_site_label
_atom_site_fract_x
_atom_site_fract_y
_atom_site_fract_z
Si Si1 0.619959 0.201016 0.856106
Si Si2 0.792101 0.809256 0.078762
Si Si3 0.502692 0.093342 0.913890
Si Si4 0.176529 0.007127 0.067026
Si Si5 0.744574 0.832581 0.395725
Si Si6 0.909065 0.733852 0.927563
Si Si7 0.000000 0.874503 0.750000
Si Si8 0.391191 0.417943 0.639863
O O1 0.560674 0.150968 0.933676
O O2 0.674776 0.147500 0.903437
O O3 0.626118 0.190840 0.688258
O O4 0.619465 0.310253 0.892905
O O5 0.772884 0.796348 0.243098
O O6 0.750000 0.750000 0.000000
O O7 0.787307 0.914824 0.030130
O O8 0.860913 0.777365 0.049392
O O9 0.500000 0.075645 0.750000
O O10 0.445922 0.152999 0.987348
O O11 0.500000 0.000000 0.000000
O O12 0.153676 0.047233 0.221990
O O13 0.223124 0.924542 0.065791
O O14 0.120634 0.974727 0.996012
O O15 0.750000 0.750000 0.500000
O O16 0.954920 0.811484 0.855653
O O17 0.040745 0.935462 0.837452
#
# Coordination Sequence:
#
# PCOD8132631 Si02
#       8
#     8   8   8   8   8   8   4   8
#     4  10  19  41  65  84 127 176 209 257 331 380
#     4  12  24  41  67  93 131 177 225 268 322 406
#     4  10  21  41  66  94 125 167 217 269 317 387
#     4  12  24  39  63  96 131 165 222 272 321 395
#     4  12  25  42  64  96 135 173 212 276 336 380
#     4  10  18  38  69  90 119 173 217 255 324 387
#     4  10  18  38  70  90 124 174 214 254 332 394
#     4  11  21  40  64  93 128 169 217 269 322 392
#
# _framework density 19.134851999999999
#
# number of rings (size 3 to 8) (size 9 to 14) (size 15 to 20)
#    0.000    1.067   10.000    0.000    0.000    1.600 
#    2.400    0.000    0.000    0.000    0.000    0.000 
#    0.000    0.000    0.000    0.000    0.000    0.000 
#
# Total GULP energy -371953.450251 kJ/mol
# GULP energy per Si atom -12398.448342 kJ/mol
# Density = 1.909130 g / cm^3
# Si number density = 19.134852 Si / 1000 Ang^3
#
#
#
# Elastic Constant Matrix: (Units=GPa)
#
#
# Indices 1 2 3 4 5 6 
#
# 1 143.9653 67.6609 41.5545 0.0000 12.1757 0.0000
# 2 67.6609 135.0605 51.1198 0.0000 4.2482 0.0000
# 3 41.5545 51.1198 89.8028 0.0000 -2.9235 0.0000
# 4 0.0000 0.0000 0.0000 30.9071 0.0000 0.1439
# 5 12.1757 4.2482 -2.9235 0.0000 29.7406 0.0000
# 6 0.0000 0.0000 0.0000 0.1439 0.0000 38.6065
#
#
#
# Elastic Compliance Matrix: (Units=1/GPa)
#
#
# Indices 1 2 3 4 5 6 
#
# 1 0.009777 -0.003855 -0.002450 0.000000 -0.003693 0.000000
# 2 -0.003855 0.011063 -0.004529 0.000000 -0.000447 0.000000
# 3 -0.002450 -0.004529 0.014949 0.000000 0.003119 0.000000
# 4 0.000000 0.000000 0.000000 0.032356 0.000000 -0.000121
# 5 -0.003693 -0.000447 0.003119 0.000000 0.035507 0.000000
# 6 0.000000 0.000000 0.000000 -0.000121 0.000000 0.025903
#
#
# Mechanical properties :
#
#
# Convention : Reuss Voigt Hill
#
# Bulk Modulus (GPa) = 70.80965 76.61099 73.71032
# Shear Modulus (GPa) = 32.06595 33.75040 32.90817
#
# Velocity S-wave (km/s) = 4.09808 4.20434 4.15155
# Velocity P-wave (km/s) = 7.71222 7.98079 7.84765
#
# Compressibility (1/GPa) = 0.01412237
#
# Stress axis : x y z
#
# Youngs Moduli (GPa) = 102.27818 90.38955 66.89491
#
# Poissons Ratio (x) = 0.34841 0.16391
# Poissons Ratio (y) = 0.39423 0.30294
# Poissons Ratio (z) = 0.25061 0.40934
#
# Static dielectric constant tensor:
#      x y z
#    x 4.054880 0.000000 0.124210 
#    y 0.000000 3.553340 0.000000 
#    z 0.124210 0.000000 3.398560 
# 
# 
# High freq. dielectric constant tensor:
#      x y z
#    x 1.760460 0.000000 0.006360 
#    y 0.000000 1.742060 0.000000 
#    z 0.006360 0.000000 1.725890 
# 
# From -- ./inp_files/61554.got.cif
#   From: 2010.06.25/outbox.cif.g09.slc.cpg/sg15_31_cif.got.tgz:61554.got - 2010.06.28 07:06:18.
