data_PCOD8132064
_publ_section_title
;
Structure prediction by ZEFSAII (Michael W. Deem and Ramdas Pophale) SiO2 
 PCOD8132064
Probable space group: C 2/C
;
_chemical_formula_sum "Si O2"
_cell_formula_units_Z 48
_cell_length_a 10.439167
_cell_length_b 21.413421
_cell_length_c 12.770175
_cell_angle_alpha 90.000000
_cell_angle_beta 131.322244
_cell_angle_gamma 90.000000
_cell_volume 2143.844210
_symmetry_space_group_name_H-M "C 2/C"
_symmetry_group_IT_number 15
_symmetry_cell_setting 'monoclinic'
loop_
_space_group_symop_operation_xyz
x,y,z
-x,y,1/2-z
-x,-y,-z
x,-y,1/2+z
1/2+x,1/2+y,z
1/2-x,1/2+y,1/2-z
1/2-x,1/2-y,-z
1/2+x,1/2-y,1/2+z
loop_
_atom_site_type_symbol
_atom_site_label
_atom_site_fract_x
_atom_site_fract_y
_atom_site_fract_z
Si Si1 0.767368 0.715269 0.257990
Si Si2 0.000000 0.101694 0.750000
Si Si3 0.044756 0.816856 0.461785
Si Si4 0.809404 0.455808 0.302052
Si Si5 0.145019 0.412300 0.586184
Si Si6 0.269254 0.383958 0.441251
Si Si7 0.000000 0.283083 0.250000
O O1 0.917173 0.764234 0.351807
O O2 0.832960 0.649670 0.335501
O O3 0.592891 0.738370 0.217697
O O4 0.717257 0.709490 0.107785
O O5 0.902396 0.143315 0.610763
O O6 0.134791 0.058632 0.765626
O O7 0.951797 0.859978 0.499515
O O8 0.835637 0.529809 0.324319
O O9 0.802851 0.436289 0.177015
O O10 0.957280 0.414859 0.434667
O O11 0.281934 0.414429 0.563784
O O12 0.139973 0.325454 0.383990
#
# Coordination Sequence:
#
# PCOD8132064 Si02
#       7
#     8   4   8   8   8   8   4
#     4  11  23  38  62  99 125 159 208 262 316 370
#     4  10  24  45  62  83 130 170 212 244 312 372
#     4  10  24  40  63  93 128 167 206 255 316 370
#     4  10  23  41  63  91 122 172 206 257 305 373
#     4  11  22  39  65  93 126 156 215 258 312 367
#     4  10  19  39  65  88 125 163 208 258 318 362
#     4  10  18  35  62  91 124 154 198 266 320 354
#
# _framework density 22.389686000000001
#
# number of rings (size 3 to 8) (size 9 to 14) (size 15 to 20)
#    0.000    1.667    1.667    2.000    4.667    6.667 
#    0.000    5.000    0.000    0.000    0.000    0.000 
#    0.000    0.000    0.000    0.000    0.000    0.000 
#
# Total GULP energy -297639.285597 kJ/mol
# GULP energy per Si atom -12401.636900 kJ/mol
# Density = 2.233873 g / cm^3
# Si number density = 22.389686 Si / 1000 Ang^3
#
#
#
# Elastic Constant Matrix: (Units=GPa)
#
#
# Indices 1 2 3 4 5 6 
#
# 1 29.0044 -4.4715 -15.6188 0.0000 1.2070 0.0000
# 2 -4.4715 53.5746 -7.8638 0.0000 2.4160 0.0000
# 3 -15.6188 -7.8638 62.2377 0.0000 -0.0581 0.0000
# 4 0.0000 0.0000 0.0000 33.3117 0.0000 -5.2759
# 5 1.2070 2.4160 -0.0581 0.0000 16.7069 0.0000
# 6 0.0000 0.0000 0.0000 -5.2759 0.0000 25.1005
#
#
#
# Elastic Compliance Matrix: (Units=1/GPa)
#
#
# Indices 1 2 3 4 5 6 
#
# 1 0.041388 0.005243 0.011046 0.000000 -0.003710 0.000000
# 2 0.005243 0.019809 0.003816 0.000000 -0.003230 0.000000
# 3 0.011046 0.003816 0.019320 0.000000 -0.001283 0.000000
# 4 0.000000 0.000000 0.000000 0.031053 0.000000 0.006527
# 5 -0.003710 -0.003230 -0.001283 0.000000 0.060586 0.000000
# 6 0.000000 0.000000 0.000000 0.006527 0.000000 0.041212
#
#
# Mechanical properties :
#
#
# Convention : Reuss Voigt Hill
#
# Bulk Modulus (GPa) = 8.28326 9.87873 9.08099
# Shear Modulus (GPa) = 23.42993 26.54186 24.98590
#
# Velocity S-wave (km/s) = 3.23841 3.44677 3.34422
# Velocity P-wave (km/s) = 4.20603 4.50134 4.35619
#
# Compressibility (1/GPa) = 0.12072545
#
# Stress axis : x y z
#
# Youngs Moduli (GPa) = 24.16148 50.48243 51.75912
#
# Poissons Ratio (x) = -0.26468 -0.57171
# Poissons Ratio (y) = -0.12668 -0.19749
# Poissons Ratio (z) = -0.26688 -0.19262
#
# Static dielectric constant tensor:
#      x y z
#    x 3.945870 0.000000 -0.103580 
#    y 0.000000 4.060500 0.000000 
#    z -0.103580 0.000000 4.058510 
# 
# 
# High freq. dielectric constant tensor:
#      x y z
#    x 1.872900 0.000000 -0.004420 
#    y 0.000000 1.884060 0.000000 
#    z -0.004420 0.000000 1.881850 
# 
# From -- ./inp_files/91007.got.cif
#   From: 2010.06.25/outbox.cif.g09.slc.cpg/sg15_46_cif.got.tgz:91007.got - 2010.06.28 07:06:18.
