data_PCOD8132903
_publ_section_title
;
Structure prediction by ZEFSAII (Michael W. Deem and Ramdas Pophale) SiO2 
 PCOD8132903
Probable space group: C 2/C
;
_chemical_formula_sum "Si O2"
_cell_formula_units_Z 48
_cell_length_a 18.293991
_cell_length_b 13.476615
_cell_length_c 9.108426
_cell_angle_alpha 90.000000
_cell_angle_beta 83.097922
_cell_angle_gamma 90.000000
_cell_volume 2229.327217
_symmetry_space_group_name_H-M "C 2/C"
_symmetry_group_IT_number 15
_symmetry_cell_setting 'monoclinic'
loop_
_space_group_symop_operation_xyz
x,y,z
-x,y,1/2-z
-x,-y,-z
x,-y,1/2+z
1/2+x,1/2+y,z
1/2-x,1/2+y,1/2-z
1/2-x,1/2-y,-z
1/2+x,1/2-y,1/2+z
loop_
_atom_site_type_symbol
_atom_site_label
_atom_site_fract_x
_atom_site_fract_y
_atom_site_fract_z
Si Si1 0.639154 0.673662 0.236717
Si Si2 0.811620 0.974653 0.309509
Si Si3 0.573076 0.210184 0.182067
Si Si4 0.104122 0.855820 0.424878
Si Si5 0.804730 0.671864 0.557011
Si Si6 0.555143 0.407491 0.016229
O O1 0.705365 0.591836 0.206929
O O2 0.662748 0.776880 0.304492
O O3 0.578289 0.612448 0.343295
O O4 0.611143 0.696249 0.080402
O O5 0.828703 0.925212 0.146318
O O6 0.738050 0.928014 0.395090
O O7 0.883346 0.964373 0.400502
O O8 0.500000 0.147571 0.250000
O O9 0.607613 0.262869 0.315038
O O10 0.544441 0.296841 0.083084
O O11 0.632081 0.144378 0.077709
O O12 0.033681 0.937011 0.445818
O O13 0.750000 0.750000 0.500000
#
# Coordination Sequence:
#
# PCOD8132903 Si02
#       6
#     8   8   8   8   8   8
#     4  11  22  32  52  80 112 146 188 227 268 316
#     4  11  21  35  52  77 112 153 189 214 271 338
#     4   8  16  33  55  76 105 147 185 212 268 333
#     4  10  19  30  50  80 114 144 187 217 254 338
#     4  11  20  39  55  73 115 153 178 226 280 330
#     4   9  18  33  49  75 117 153 172 208 273 338
#
# _framework density 21.531158999999999
#
# number of rings (size 3 to 8) (size 9 to 14) (size 15 to 20)
#    0.000    2.000    5.000    3.000    0.000    4.667 
#    0.000    0.000    0.000    0.000    0.000    1.167 
#    0.000   12.667    0.000    0.000    0.000    0.000 
#
# Total GULP energy -297313.334621 kJ/mol
# GULP energy per Si atom -12388.055609 kJ/mol
# Density = 2.148215 g / cm^3
# Si number density = 21.531159 Si / 1000 Ang^3
#
#
#
# Elastic Constant Matrix: (Units=GPa)
#
#
# Indices 1 2 3 4 5 6 
#
# 1 89.0006 28.0296 53.6802 0.0000 -23.9569 0.0000
# 2 28.0296 42.9931 28.1135 0.0000 -10.6205 0.0000
# 3 53.6802 28.1135 163.7887 0.0000 -5.8693 0.0000
# 4 0.0000 0.0000 0.0000 16.6889 0.0000 -9.6941
# 5 -23.9569 -10.6205 -5.8693 0.0000 43.8485 0.0000
# 6 0.0000 0.0000 0.0000 -9.6941 0.0000 31.6324
#
#
#
# Elastic Compliance Matrix: (Units=1/GPa)
#
#
# Indices 1 2 3 4 5 6 
#
# 1 0.018223 -0.007058 -0.004487 0.000000 0.007646 0.000000
# 2 -0.007058 0.030473 -0.002805 0.000000 0.003149 0.000000
# 3 -0.004487 -0.002805 0.007984 0.000000 -0.002062 0.000000
# 4 0.000000 0.000000 0.000000 0.072897 0.000000 0.022340
# 5 0.007646 0.003149 -0.002062 0.000000 0.027470 0.000000
# 6 0.000000 0.000000 0.000000 0.022340 0.000000 0.038459
#
#
# Mechanical properties :
#
#
# Convention : Reuss Voigt Hill
#
# Bulk Modulus (GPa) = 35.73878 57.26989 46.50434
# Shear Modulus (GPa) = 21.41040 30.83122 26.12081
#
# Velocity S-wave (km/s) = 3.15682 3.78820 3.48683
# Velocity P-wave (km/s) = 5.47010 6.76685 6.15273
#
# Compressibility (1/GPa) = 0.02798081
#
# Stress axis : x y z
#
# Youngs Moduli (GPa) = 54.87522 32.81618 125.25826
#
# Poissons Ratio (x) = 0.23161 0.56204
# Poissons Ratio (y) = 0.38729 0.35129
# Poissons Ratio (z) = 0.24623 0.09203
#
# Static dielectric constant tensor:
#      x y z
#    x 4.311550 0.000000 -0.543490 
#    y 0.000000 3.810740 0.000000 
#    z -0.543490 0.000000 4.650840 
# 
# 
# High freq. dielectric constant tensor:
#      x y z
#    x 1.818040 0.000000 -0.011960 
#    y 0.000000 1.791820 0.000000 
#    z -0.011960 0.000000 1.879940 
# 
# From -- ./inp_files/55230.got.cif
#   From: 2010.06.25/outbox.cif.g09.slc.cpg/sg15_28_cif.got.tgz:55230.got - 2010.06.28 07:06:18.
