data_PCOD8132900
_publ_section_title
;
Structure prediction by ZEFSAII (Michael W. Deem and Ramdas Pophale) SiO2 
 PCOD8132900
Probable space group: C 2/C
;
_chemical_formula_sum "Si O2"
_cell_formula_units_Z 56
_cell_length_a 25.086230
_cell_length_b 15.901911
_cell_length_c 28.118598
_cell_angle_alpha 90.000000
_cell_angle_beta 162.156973
_cell_angle_gamma 90.000000
_cell_volume 3437.016724
_symmetry_space_group_name_H-M "C 2/C"
_symmetry_group_IT_number 15
_symmetry_cell_setting 'monoclinic'
loop_
_space_group_symop_operation_xyz
x,y,z
-x,y,1/2-z
-x,-y,-z
x,-y,1/2+z
1/2+x,1/2+y,z
1/2-x,1/2+y,1/2-z
1/2-x,1/2-y,-z
1/2+x,1/2-y,1/2+z
loop_
_atom_site_type_symbol
_atom_site_label
_atom_site_fract_x
_atom_site_fract_y
_atom_site_fract_z
Si Si1 0.946290 0.369048 0.974708
Si Si2 0.984441 0.069697 0.947885
Si Si3 0.240361 0.773085 0.234498
Si Si4 0.282894 0.961198 0.360582
Si Si5 0.388698 0.755701 0.550789
Si Si6 0.589831 0.372137 0.281822
Si Si7 0.741567 0.185752 0.335113
O O1 0.791871 0.309202 0.824723
O O2 0.858295 0.444559 0.929651
O O3 0.071359 0.315676 0.116139
O O4 0.061758 0.403114 0.028049
O O5 0.903919 0.156353 0.899986
O O6 0.879303 0.036515 0.813303
O O7 0.187521 0.091272 0.111105
O O8 0.000000 0.000000 0.000000
O O9 0.238060 0.747892 0.287552
O O10 0.212058 0.929362 0.351676
O O11 0.435574 0.672542 0.620946
O O12 0.208293 0.802117 0.410190
O O13 0.547857 0.821562 0.691807
O O14 0.376334 0.730112 0.485242
O O15 0.500000 0.422460 0.250000
#
# Coordination Sequence:
#
# PCOD8132900 Si02
#       7
#     8   8   8   8   8   8   8
#     4  10  20  33  51  73 107 131 170 205 254 300
#     4  11  20  28  47  73 104 135 169 204 253 300
#     4  11  18  30  48  74 101 138 168 201 248 307
#     4  10  21  34  48  76 105 134 168 211 250 303
#     4  10  19  30  50  69  94 131 178 206 235 294
#     4  11  21  35  51  72 100 136 174 212 251 298
#     4  11  16  30  47  69  99 136 166 203 245 288
#
# _framework density 16.293199999999999
#
# number of rings (size 3 to 8) (size 9 to 14) (size 15 to 20)
#    0.000    1.429    4.286    4.714    0.000    2.286 
#    0.000    0.000    0.000    0.000    0.000    1.000 
#    0.000    0.000    0.000    0.000    0.000    0.000 
#
# Total GULP energy -346881.261180 kJ/mol
# GULP energy per Si atom -12388.616471 kJ/mol
# Density = 1.625612 g / cm^3
# Si number density = 16.293200 Si / 1000 Ang^3
#
#
#
# Elastic Constant Matrix: (Units=GPa)
#
#
# Indices 1 2 3 4 5 6 
#
# 1 77.0793 38.6037 28.3568 -0.0157 7.2438 -0.0048
# 2 38.6037 85.9745 38.8761 -0.0101 0.7348 -0.0025
# 3 28.3568 38.8761 73.9904 0.0276 -10.9025 -0.0073
# 4 -0.0157 -0.0101 0.0276 33.8438 0.0003 -1.6418
# 5 7.2438 0.7348 -10.9025 0.0003 11.6514 -0.0080
# 6 -0.0048 -0.0025 -0.0073 -1.6418 -0.0080 17.3057
#
#
#
# Elastic Compliance Matrix: (Units=1/GPa)
#
#
# Indices 1 2 3 4 5 6 
#
# 1 0.020464 -0.005452 -0.007890 0.000014 -0.019762 -0.000006
# 2 -0.005452 0.017742 -0.008001 0.000009 -0.005216 -0.000004
# 3 -0.007890 -0.008001 0.024985 -0.000026 0.028789 0.000018
# 4 0.000014 0.000009 -0.000026 0.029684 -0.000032 0.002816
# 5 -0.019762 -0.005216 0.028789 -0.000032 0.125380 0.000061
# 6 -0.000006 -0.000004 0.000018 0.002816 0.000061 0.058052
#
#
# Mechanical properties :
#
#
# Convention : Reuss Voigt Hill
#
# Bulk Modulus (GPa) = 48.76934 49.85749 49.31342
# Shear Modulus (GPa) = 15.34546 21.30734 18.32640
#
# Velocity S-wave (km/s) = 3.07226 3.62020 3.35742
# Velocity P-wave (km/s) = 6.52551 6.93838 6.73511
#
# Compressibility (1/GPa) = 0.02050468
#
# Stress axis : x y z
#
# Youngs Moduli (GPa) = 48.86610 56.36378 40.02354
#
# Poissons Ratio (x) = 0.30729 0.31580
# Poissons Ratio (y) = 0.26641 0.32023
# Poissons Ratio (z) = 0.38557 0.45097
#
# Static dielectric constant tensor:
#      x y z
#    x 2.755200 -0.000010 0.003950 
#    y -0.000010 3.079770 -0.000130 
#    z 0.003950 -0.000130 3.741300 
# 
# 
# High freq. dielectric constant tensor:
#      x y z
#    x 1.576200 0.000000 -0.008460 
#    y 0.000000 1.605580 -0.000010 
#    z -0.008460 -0.000010 1.654860 
# 
# From -- ./inp_files/65925.got.cif
#   From: 2010.06.25/outbox.cif.g09.slc.cpg/sg15_33_cif.got.tgz:65925.got - 2010.06.28 07:06:18.
