data_PCOD8132159
_publ_section_title
;
Structure prediction by ZEFSAII (Michael W. Deem and Ramdas Pophale) SiO2 
 PCOD8132159
Probable space group: C 2/C
;
_chemical_formula_sum "Si O2"
_cell_formula_units_Z 56
_cell_length_a 15.733222
_cell_length_b 10.129819
_cell_length_c 23.834373
_cell_angle_alpha 90.000000
_cell_angle_beta 54.842799
_cell_angle_gamma 90.000000
_cell_volume 3105.637962
_symmetry_space_group_name_H-M "C 2/C"
_symmetry_group_IT_number 15
_symmetry_cell_setting 'monoclinic'
loop_
_space_group_symop_operation_xyz
x,y,z
-x,y,1/2-z
-x,-y,-z
x,-y,1/2+z
1/2+x,1/2+y,z
1/2-x,1/2+y,1/2-z
1/2-x,1/2-y,-z
1/2+x,1/2-y,1/2+z
loop_
_atom_site_type_symbol
_atom_site_label
_atom_site_fract_x
_atom_site_fract_y
_atom_site_fract_z
Si Si1 0.617304 0.659252 0.208627
Si Si2 0.240604 0.575515 0.831884
Si Si3 0.135555 0.499353 0.600791
Si Si4 0.907137 0.423638 0.214841
Si Si5 0.614222 0.974584 0.978092
Si Si6 0.382808 0.819350 0.796350
Si Si7 0.246202 0.758383 0.435824
O O1 0.500000 0.608547 0.250000
O O2 0.684235 0.545486 0.213403
O O3 0.629135 0.793626 0.238914
O O4 0.659522 0.679426 0.129412
O O5 0.144027 0.577098 0.826583
O O6 0.194763 0.561420 0.911750
O O7 0.304154 0.710698 0.803732
O O8 0.129610 0.479443 0.536315
O O9 0.143611 0.358819 0.628948
O O10 0.236738 0.585518 0.582581
O O11 0.031818 0.576099 0.661372
O O12 0.870026 0.551513 0.262868
O O13 0.639219 0.816604 0.958797
O O14 0.500000 0.000000 0.000000
O O15 0.500000 0.762856 0.750000
O O16 0.250000 0.750000 0.500000
#
# Coordination Sequence:
#
# PCOD8132159 Si02
#       7
#     8   8   8   8   8   8   8
#     4  11  19  34  57  82 105 142 192 229 273 329
#     4  11  23  34  53  86 115 142 179 240 291 327
#     4  10  18  36  58  79 105 149 193 223 271 337
#     4  11  19  35  58  80 109 146 186 231 272 337
#     4  10  20  35  56  82 111 148 185 233 281 339
#     4  10  21  37  55  82 115 146 180 230 289 338
#     4   9  18  32  55  83 103 140 190 232 260 327
#
# _framework density 18.031721000000001
#
# number of rings (size 3 to 8) (size 9 to 14) (size 15 to 20)
#    0.000    1.714    4.286    1.714    0.000    0.571 
#    0.000    0.000    0.000    0.857    0.000    0.000 
#    0.000    0.000    0.000    0.000    0.000    0.000 
#
# Total GULP energy -346955.758533 kJ/mol
# GULP energy per Si atom -12391.277090 kJ/mol
# Density = 1.799068 g / cm^3
# Si number density = 18.031721 Si / 1000 Ang^3
#
#
#
# Elastic Constant Matrix: (Units=GPa)
#
#
# Indices 1 2 3 4 5 6 
#
# 1 72.8952 40.0523 20.3898 0.0000 0.7029 0.0000
# 2 40.0523 98.2164 31.8097 0.0000 -2.9245 0.0000
# 3 20.3898 31.8097 94.9890 0.0000 9.0149 0.0000
# 4 0.0000 0.0000 0.0000 19.7926 0.0000 -4.4831
# 5 0.7029 -2.9245 9.0149 0.0000 26.7801 0.0000
# 6 0.0000 0.0000 0.0000 -4.4831 0.0000 28.9417
#
#
#
# Elastic Compliance Matrix: (Units=1/GPa)
#
#
# Indices 1 2 3 4 5 6 
#
# 1 0.017898 -0.006840 -0.001483 0.000000 -0.000717 0.000000
# 2 -0.006840 0.014215 -0.003570 0.000000 0.002934 0.000000
# 3 -0.001483 -0.003570 0.012473 0.000000 -0.004550 0.000000
# 4 0.000000 0.000000 0.000000 0.052361 0.000000 0.008111
# 5 -0.000717 0.002934 -0.004550 0.000000 0.039212 0.000000
# 6 0.000000 0.000000 0.000000 0.008111 0.000000 0.035809
#
#
# Mechanical properties :
#
#
# Convention : Reuss Voigt Hill
#
# Bulk Modulus (GPa) = 48.07887 50.06712 49.07300
# Shear Modulus (GPa) = 24.66847 26.69280 25.68064
#
# Velocity S-wave (km/s) = 3.70274 3.85167 3.77794
# Velocity P-wave (km/s) = 6.70834 6.89978 6.80473
#
# Compressibility (1/GPa) = 0.02079916
#
# Stress axis : x y z
#
# Youngs Moduli (GPa) = 55.87126 70.35045 80.17071
#
# Poissons Ratio (x) = 0.48118 0.11892
# Poissons Ratio (y) = 0.38215 0.28624
# Poissons Ratio (z) = 0.08288 0.25118
#
# Static dielectric constant tensor:
#      x y z
#    x 3.315690 0.000000 -0.063660 
#    y 0.000000 3.461740 0.000000 
#    z -0.063660 0.000000 3.661460 
# 
# 
# High freq. dielectric constant tensor:
#      x y z
#    x 1.681500 0.000000 0.002220 
#    y 0.000000 1.688380 0.000000 
#    z 0.002220 0.000000 1.716110 
# 
# From -- ./inp_files/246929.got.cif
#   From: 2010.06.25/outbox.cif.g09.slc.cpg/sg15_124_cif.got.tgz:246929.got - 2010.06.28 07:06:18.
