data_PCOD8132004
_publ_section_title
;
Structure prediction by ZEFSAII (Michael W. Deem and Ramdas Pophale) SiO2 
 PCOD8132004
Probable space group: C 2/C
;
_chemical_formula_sum "Si O2"
_cell_formula_units_Z 64
_cell_length_a 23.109005
_cell_length_b 8.511887
_cell_length_c 18.353672
_cell_angle_alpha 90.000000
_cell_angle_beta 119.379678
_cell_angle_gamma 90.000000
_cell_volume 3145.875808
_symmetry_space_group_name_H-M "C 2/C"
_symmetry_group_IT_number 15
_symmetry_cell_setting 'monoclinic'
loop_
_space_group_symop_operation_xyz
x,y,z
-x,y,1/2-z
-x,-y,-z
x,-y,1/2+z
1/2+x,1/2+y,z
1/2-x,1/2+y,1/2-z
1/2-x,1/2-y,-z
1/2+x,1/2-y,1/2+z
loop_
_atom_site_type_symbol
_atom_site_label
_atom_site_fract_x
_atom_site_fract_y
_atom_site_fract_z
Si Si1 0.474958 0.099203 0.551182
Si Si2 0.784124 0.926372 0.608714
Si Si3 0.146802 0.419376 0.016666
Si Si4 0.822466 0.073140 0.488694
Si Si5 0.775593 0.582966 0.666844
Si Si6 0.619333 0.845589 0.165769
Si Si7 0.430878 0.586490 0.956955
Si Si8 0.164968 0.009137 0.710624
O O1 0.540226 0.154396 0.636781
O O2 0.434567 0.245908 0.495525
O O3 0.500000 0.000000 0.500000
O O4 0.419922 0.995963 0.561584
O O5 0.828224 0.970576 0.565612
O O6 0.784519 0.742921 0.626685
O O7 0.815334 0.031791 0.693106
O O8 0.708464 0.966777 0.543981
O O9 0.131915 0.409396 0.093207
O O10 0.165125 0.256465 0.988375
O O11 0.749598 0.049344 0.405813
O O12 0.878939 0.019481 0.468305
O O13 0.845385 0.544830 0.750601
O O14 0.722182 0.592828 0.698828
O O15 0.654271 0.676279 0.190494
O O16 0.500000 0.500000 0.000000
O O17 0.403482 0.596598 0.856384
#
# Coordination Sequence:
#
# PCOD8132004 Si02
#       8
#     8   8   8   8   8   8   8   8
#     4  10  21  35  58  94 117 154 203 260 310 362
#     4  11  23  37  59  93 127 161 203 259 319 371
#     4  11  19  36  58  85 128 158 199 251 311 366
#     4  11  23  39  60  91 123 165 204 256 318 375
#     4  10  20  36  62  86 124 156 210 260 304 369
#     4  10  18  35  58  91 119 148 209 259 296 363
#     4  11  19  38  65  88 116 159 208 255 305 374
#     4  10  19  35  61  93 113 155 206 260 304 358
#
# _framework density 20.344097000000001
#
# number of rings (size 3 to 8) (size 9 to 14) (size 15 to 20)
#    0.000    1.500    5.000    3.000    0.000    0.000 
#    4.500    0.625    0.000    2.250    3.250    0.000 
#    0.000    0.000    0.000    0.000    0.000    0.000 
#
# Total GULP energy -396483.399893 kJ/mol
# GULP energy per Si atom -12390.106247 kJ/mol
# Density = 2.029779 g / cm^3
# Si number density = 20.344097 Si / 1000 Ang^3
#
#
#
# Elastic Constant Matrix: (Units=GPa)
#
#
# Indices 1 2 3 4 5 6 
#
# 1 67.2198 19.3876 47.2386 0.0000 15.6479 0.0000
# 2 19.3876 69.2850 19.3940 0.0000 10.7694 0.0000
# 3 47.2386 19.3940 100.8303 0.0000 18.0941 0.0000
# 4 0.0000 0.0000 0.0000 24.0479 0.0000 4.8099
# 5 15.6479 10.7694 18.0941 0.0000 38.2902 0.0000
# 6 0.0000 0.0000 0.0000 4.8099 0.0000 32.8526
#
#
#
# Elastic Compliance Matrix: (Units=1/GPa)
#
#
# Indices 1 2 3 4 5 6 
#
# 1 0.023580 -0.003244 -0.009678 0.000000 -0.004150 0.000000
# 2 -0.003244 0.016062 -0.001089 0.000000 -0.002677 0.000000
# 3 -0.009678 -0.001089 0.015184 0.000000 -0.002914 0.000000
# 4 0.000000 0.000000 0.000000 0.042838 0.000000 -0.006272
# 5 -0.004150 -0.002677 -0.002914 0.000000 0.029942 0.000000
# 6 0.000000 0.000000 0.000000 -0.006272 0.000000 0.031357
#
#
# Mechanical properties :
#
#
# Convention : Reuss Voigt Hill
#
# Bulk Modulus (GPa) = 37.30921 45.48616 41.39768
# Shear Modulus (GPa) = 25.52053 29.12580 27.32316
#
# Velocity S-wave (km/s) = 3.54566 3.78783 3.66874
# Velocity P-wave (km/s) = 5.92799 6.44493 6.19186
#
# Compressibility (1/GPa) = 0.02680303
#
# Stress axis : x y z
#
# Youngs Moduli (GPa) = 42.40937 62.25923 65.85764
#
# Poissons Ratio (x) = 0.20197 0.63739
# Poissons Ratio (y) = 0.13757 0.07173
# Poissons Ratio (z) = 0.41045 0.06781
#
# Static dielectric constant tensor:
#      x y z
#    x 3.849900 0.000000 0.508410 
#    y 0.000000 3.719020 0.000000 
#    z 0.508410 0.000000 4.440600 
# 
# 
# High freq. dielectric constant tensor:
#      x y z
#    x 1.773740 0.000000 0.022840 
#    y 0.000000 1.792620 0.000000 
#    z 0.022840 0.000000 1.795070 
# 
# From -- ./inp_files/257025.got.cif
#   From: 2010.06.25/outbox.cif.g09.slc.cpg/sg15_129_cif.got.tgz:257025.got - 2010.06.28 07:06:18.
