data_PCOD8132480
_publ_section_title
;
Structure prediction by ZEFSAII (Michael W. Deem and Ramdas Pophale) SiO2 
 PCOD8132480
Probable space group: C 2/C
;
_chemical_formula_sum "Si O2"
_cell_formula_units_Z 56
_cell_length_a 26.980792
_cell_length_b 9.046647
_cell_length_c 16.534414
_cell_angle_alpha 90.000000
_cell_angle_beta 136.145479
_cell_angle_gamma 90.000000
_cell_volume 2796.131690
_symmetry_space_group_name_H-M "C 2/C"
_symmetry_group_IT_number 15
_symmetry_cell_setting 'monoclinic'
loop_
_space_group_symop_operation_xyz
x,y,z
-x,y,1/2-z
-x,-y,-z
x,-y,1/2+z
1/2+x,1/2+y,z
1/2-x,1/2+y,1/2-z
1/2-x,1/2-y,-z
1/2+x,1/2-y,1/2+z
loop_
_atom_site_type_symbol
_atom_site_label
_atom_site_fract_x
_atom_site_fract_y
_atom_site_fract_z
Si Si1 0.666956 0.815634 0.581964
Si Si2 0.326229 0.483788 0.496570
Si Si3 0.754152 0.497010 0.443491
Si Si4 0.938771 0.772522 0.121022
Si Si5 0.790188 0.699149 0.189226
Si Si6 0.524799 0.012454 0.437739
Si Si7 0.611590 0.946792 0.808595
O O1 0.649774 0.674120 0.507824
O O2 0.735193 0.899493 0.622007
O O3 0.694411 0.758517 0.700622
O O4 0.595993 0.916840 0.504368
O O5 0.315975 0.474340 0.582877
O O6 0.388021 0.593486 0.540362
O O7 0.255311 0.548128 0.370233
O O8 0.751423 0.328273 0.408068
O O9 0.819554 0.540131 0.581658
O O10 0.964311 0.688018 0.069135
O O11 0.902789 0.640001 0.126660
O O12 0.000000 0.840791 0.250000
O O13 0.866543 0.666610 0.237250
O O14 0.457630 0.958452 0.301915
O O15 0.500000 0.000000 0.500000
#
# Coordination Sequence:
#
# PCOD8132480 Si02
#       7
#     8   8   8   8   8   8   8
#     4  12  24  37  60  97 132 153 200 268 327 350
#     4  11  22  40  61  91 124 160 208 260 306 366
#     4  11  21  40  64  91 122 165 215 250 305 382
#     4  10  20  39  65  85 113 167 217 243 295 385
#     4  11  20  38  66  87 123 165 206 252 306 380
#     4  11  22  39  63  89 126 160 209 256 309 376
#     4  10  18  37  67  84 112 169 217 240 291 380
#
# _framework density 20.027668999999999
#
# number of rings (size 3 to 8) (size 9 to 14) (size 15 to 20)
#    0.000    1.143    5.714    2.143    0.000    0.000 
#    2.571    0.714    0.000    0.000    0.000    0.000 
#    0.000    0.000    0.000    0.000    0.000    0.000 
#
# Total GULP energy -346886.310300 kJ/mol
# GULP energy per Si atom -12388.796796 kJ/mol
# Density = 1.998208 g / cm^3
# Si number density = 20.027669 Si / 1000 Ang^3
#
#
#
# Elastic Constant Matrix: (Units=GPa)
#
#
# Indices 1 2 3 4 5 6 
#
# 1 112.7305 39.9218 36.1503 0.0000 -16.4615 0.0000
# 2 39.9218 73.7852 28.9661 0.0000 -5.3355 0.0000
# 3 36.1503 28.9661 87.4222 0.0000 -1.5421 0.0000
# 4 0.0000 0.0000 0.0000 21.9043 0.0000 -2.7932
# 5 -16.4615 -5.3355 -1.5421 0.0000 34.0993 0.0000
# 6 0.0000 0.0000 0.0000 -2.7932 0.0000 23.9692
#
#
#
# Elastic Compliance Matrix: (Units=1/GPa)
#
#
# Indices 1 2 3 4 5 6 
#
# 1 0.012495 -0.005057 -0.003402 0.000000 0.005087 0.000000
# 2 -0.005057 0.017794 -0.003801 0.000000 0.000171 0.000000
# 3 -0.003402 -0.003801 0.014077 0.000000 -0.001600 0.000000
# 4 0.000000 0.000000 0.000000 0.046342 0.000000 0.005400
# 5 0.005087 0.000171 -0.001600 0.000000 0.031736 0.000000
# 6 0.000000 0.000000 0.000000 0.005400 0.000000 0.042350
#
#
# Mechanical properties :
#
#
# Convention : Reuss Voigt Hill
#
# Bulk Modulus (GPa) = 50.39039 53.77936 52.08488
# Shear Modulus (GPa) = 25.51940 27.25453 26.38697
#
# Velocity S-wave (km/s) = 3.57348 3.69296 3.63371
# Velocity P-wave (km/s) = 6.49933 6.71527 6.60818
#
# Compressibility (1/GPa) = 0.01984505
#
# Stress axis : x y z
#
# Youngs Moduli (GPa) = 80.02955 56.19906 71.03966
#
# Poissons Ratio (x) = 0.28423 0.24165
# Poissons Ratio (y) = 0.40475 0.27005
# Poissons Ratio (z) = 0.27223 0.21363
#
# Static dielectric constant tensor:
#      x y z
#    x 4.249650 0.000000 0.194530 
#    y 0.000000 3.371690 0.000000 
#    z 0.194530 0.000000 3.759820 
# 
# 
# High freq. dielectric constant tensor:
#      x y z
#    x 1.803310 0.000000 -0.001710 
#    y 0.000000 1.748030 0.000000 
#    z -0.001710 0.000000 1.773130 
# 
# From -- ./inp_files/218501.got.cif
#   From: 2010.06.25/outbox.cif.g09.slc.cpg/sg15_110_cif.got.tgz:218501.got - 2010.06.28 07:06:18.
