data_PCOD8132696
_publ_section_title
;
Structure prediction by ZEFSAII (Michael W. Deem and Ramdas Pophale) SiO2 
 PCOD8132696
Probable space group: C 2/C
;
_chemical_formula_sum "Si O2"
_cell_formula_units_Z 60
_cell_length_a 20.002729
_cell_length_b 9.238827
_cell_length_c 19.717213
_cell_angle_alpha 90.000000
_cell_angle_beta 48.715014
_cell_angle_gamma 90.000000
_cell_volume 2738.067955
_symmetry_space_group_name_H-M "C 2/C"
_symmetry_group_IT_number 15
_symmetry_cell_setting 'monoclinic'
loop_
_space_group_symop_operation_xyz
x,y,z
-x,y,1/2-z
-x,-y,-z
x,-y,1/2+z
1/2+x,1/2+y,z
1/2-x,1/2+y,1/2-z
1/2-x,1/2-y,-z
1/2+x,1/2-y,1/2+z
loop_
_atom_site_type_symbol
_atom_site_label
_atom_site_fract_x
_atom_site_fract_y
_atom_site_fract_z
Si Si1 0.729863 0.583060 0.667557
Si Si2 0.000000 0.223952 0.750000
Si Si3 0.154010 0.456275 0.284663
Si Si4 0.492923 0.776842 0.403951
Si Si5 0.141535 0.506384 0.025506
Si Si6 0.466369 0.456632 0.154753
Si Si7 0.481933 0.820512 0.567793
Si Si8 0.820682 0.374558 0.857295
O O1 0.773258 0.605769 0.712194
O O2 0.786219 0.474631 0.582009
O O3 0.630464 0.523048 0.745391
O O4 0.737804 0.733190 0.619770
O O5 0.922908 0.329737 0.776504
O O6 0.029813 0.119979 0.668093
O O7 0.085115 0.330525 0.309393
O O8 0.105504 0.593669 0.350993
O O9 0.203439 0.503960 0.182397
O O10 0.487814 0.604988 0.399245
O O11 0.497210 0.837715 0.477753
O O12 0.408156 0.853703 0.425159
O O13 0.192650 0.563376 0.058339
O O14 0.068580 0.624289 0.050321
O O15 0.462986 0.349475 0.093006
#
# Coordination Sequence:
#
# PCOD8132696 Si02
#       8
#     8   4   8   8   8   8   8   8
#     4  11  23  39  64  98 133 168 212 277 335 380
#     4  10  18  40  60  90 122 170 216 256 316 392
#     4  11  21  39  65  95 127 169 220 268 323 390
#     4  11  23  38  64  98 129 175 223 271 321 383
#     4  11  21  41  71  93 128 168 232 271 317 386
#     4  11  24  37  66  92 132 169 217 269 333 382
#     4  11  19  41  66  92 127 177 224 264 314 401
#     4  11  22  39  69  97 124 174 220 266 321 397
#
# _framework density 21.913262
#
# number of rings (size 3 to 8) (size 9 to 14) (size 15 to 20)
#    0.000    1.067    6.667    2.400    1.867    1.067 
#    0.000    0.000    0.000    4.000    0.000    0.000 
#    0.000    0.000    0.000    0.000    0.000    0.000 
#
# Total GULP energy -371977.668726 kJ/mol
# GULP energy per Si atom -12399.255624 kJ/mol
# Density = 2.186339 g / cm^3
# Si number density = 21.913262 Si / 1000 Ang^3
#
#
#
# Elastic Constant Matrix: (Units=GPa)
#
#
# Indices 1 2 3 4 5 6 
#
# 1 94.1644 17.6091 23.3566 0.0000 16.8535 0.0000
# 2 17.6091 96.2724 5.8575 -0.0002 -1.8478 -0.0002
# 3 23.3566 5.8575 67.8336 -0.0001 5.6997 0.0002
# 4 0.0000 -0.0002 -0.0001 21.9906 0.0000 9.9055
# 5 16.8535 -1.8478 5.6997 0.0000 35.7703 0.0001
# 6 0.0000 -0.0002 0.0002 9.9055 0.0001 32.8899
#
#
#
# Elastic Compliance Matrix: (Units=1/GPa)
#
#
# Indices 1 2 3 4 5 6 
#
# 1 0.012993 -0.002253 -0.003806 0.000000 -0.005632 0.000000
# 2 -0.002253 0.010850 -0.000301 0.000000 0.001670 0.000000
# 3 -0.003806 -0.000301 0.016145 0.000000 -0.000795 0.000000
# 4 0.000000 0.000000 0.000000 0.052611 0.000000 -0.015845
# 5 -0.005632 0.001670 -0.000795 0.000000 0.030823 0.000000
# 6 0.000000 0.000000 0.000000 -0.015845 0.000000 0.035176
#
#
# Mechanical properties :
#
#
# Convention : Reuss Voigt Hill
#
# Bulk Modulus (GPa) = 36.67441 39.10188 37.88814
# Shear Modulus (GPa) = 27.71490 32.22665 29.97078
#
# Velocity S-wave (km/s) = 3.56020 3.83906 3.70226
# Velocity P-wave (km/s) = 5.80280 6.12649 5.96684
#
# Compressibility (1/GPa) = 0.02726697
#
# Stress axis : x y z
#
# Youngs Moduli (GPa) = 76.96407 92.16850 61.93764
#
# Poissons Ratio (x) = 0.20766 0.23574
# Poissons Ratio (y) = 0.17341 0.01867
# Poissons Ratio (z) = 0.29293 0.02778
#
# Static dielectric constant tensor:
#      x y z
#    x 3.982760 0.000000 0.175750 
#    y 0.000000 3.786500 0.000000 
#    z 0.175750 0.000000 3.822090 
# 
# 
# High freq. dielectric constant tensor:
#      x y z
#    x 1.854950 0.000000 0.014060 
#    y 0.000000 1.847080 0.000000 
#    z 0.014060 0.000000 1.854440 
# 
# From -- ./inp_files/252110.got.cif
#   From: 2010.06.25/outbox.cif.g09.slc.cpg/sg15_127_cif.got.tgz:252110.got - 2010.06.28 07:06:18.
