data_PCOD8132446
_publ_section_title
;
Structure prediction by ZEFSAII (Michael W. Deem and Ramdas Pophale) SiO2 
 PCOD8132446
Probable space group: C 2/C
;
_chemical_formula_sum "Si O2"
_cell_formula_units_Z 56
_cell_length_a 15.145688
_cell_length_b 11.918698
_cell_length_c 17.992690
_cell_angle_alpha 90.000000
_cell_angle_beta 59.771262
_cell_angle_gamma 90.000000
_cell_volume 2806.331151
_symmetry_space_group_name_H-M "C 2/C"
_symmetry_group_IT_number 15
_symmetry_cell_setting 'monoclinic'
loop_
_space_group_symop_operation_xyz
x,y,z
-x,y,1/2-z
-x,-y,-z
x,-y,1/2+z
1/2+x,1/2+y,z
1/2-x,1/2+y,1/2-z
1/2-x,1/2-y,-z
1/2+x,1/2-y,1/2+z
loop_
_atom_site_type_symbol
_atom_site_label
_atom_site_fract_x
_atom_site_fract_y
_atom_site_fract_z
Si Si1 0.438940 0.106211 0.547451
Si Si2 0.279554 0.903057 0.412663
Si Si3 0.294920 0.845348 0.239367
Si Si4 0.591512 0.261917 0.544716
Si Si5 0.242771 0.378396 0.481038
Si Si6 0.113396 0.098879 0.715318
Si Si7 0.934411 0.852962 0.711916
O O1 0.377343 0.093234 0.651395
O O2 0.521044 0.205724 0.512428
O O3 0.364885 0.124318 0.511618
O O4 0.500000 0.000000 0.500000
O O5 0.292729 0.913121 0.318020
O O6 0.372737 0.837757 0.413600
O O7 0.182691 0.824179 0.466420
O O8 0.261232 0.029408 0.450973
O O9 0.184620 0.834648 0.244424
O O10 0.333160 0.718690 0.237622
O O11 0.517458 0.355859 0.611209
O O12 0.250000 0.250000 0.500000
O O13 0.333979 0.411824 0.387097
O O14 0.000000 0.152870 0.750000
O O15 0.103052 0.975900 0.753463
O O16 0.000000 0.796514 0.750000
#
# Coordination Sequence:
#
# PCOD8132446 Si02
#       7
#     8   8   8   8   8   8   8
#     4  10  21  42  63  91 131 178 207 254 330 388
#     4  11  21  37  63  98 125 159 216 272 315 373
#     4  10  23  35  63  98 126 157 222 270 315 379
#     4  10  21  35  66  96 123 161 213 268 321 380
#     4  11  25  44  63  89 133 175 213 260 327 396
#     4  10  23  43  65  89 127 177 210 261 331 387
#     4  10  18  37  63  91 124 159 209 264 322 379
#
# _framework density 19.954879999999999
#
# number of rings (size 3 to 8) (size 9 to 14) (size 15 to 20)
#    0.000    1.714    2.857    1.714    2.000    4.571 
#    0.000    3.571    0.000    0.000    0.000    0.000 
#    0.000    0.000    0.000    0.000    0.000    0.000 
#
# Total GULP energy -346916.150545 kJ/mol
# GULP energy per Si atom -12389.862519 kJ/mol
# Density = 1.990946 g / cm^3
# Si number density = 19.954880 Si / 1000 Ang^3
#
#
#
# Elastic Constant Matrix: (Units=GPa)
#
#
# Indices 1 2 3 4 5 6 
#
# 1 146.0029 27.4492 32.6111 0.0000 -13.2035 0.0000
# 2 27.4492 72.3913 28.1890 0.0000 -13.1025 0.0000
# 3 32.6111 28.1890 55.5658 0.0000 1.5190 0.0000
# 4 0.0000 0.0000 0.0000 30.2204 0.0000 -4.1840
# 5 -13.2035 -13.1025 1.5190 0.0000 28.4384 0.0000
# 6 0.0000 0.0000 0.0000 -4.1840 0.0000 24.8830
#
#
#
# Elastic Compliance Matrix: (Units=1/GPa)
#
#
# Indices 1 2 3 4 5 6 
#
# 1 0.008365 -0.000655 -0.004681 0.000000 0.003832 0.000000
# 2 -0.000655 0.019539 -0.009780 0.000000 0.009221 0.000000
# 3 -0.004681 -0.009780 0.025926 0.000000 -0.008064 0.000000
# 4 0.000000 0.000000 0.000000 0.033879 0.000000 0.005697
# 5 0.003832 0.009221 -0.008064 0.000000 0.041622 0.000000
# 6 0.000000 0.000000 0.000000 0.005697 0.000000 0.041146
#
#
# Mechanical properties :
#
#
# Convention : Reuss Voigt Hill
#
# Bulk Modulus (GPa) = 42.37874 50.05097 46.21485
# Shear Modulus (GPa) = 23.97212 29.08907 26.53059
#
# Velocity S-wave (km/s) = 3.46976 3.82218 3.65023
# Velocity P-wave (km/s) = 6.11030 6.67947 6.40121
#
# Compressibility (1/GPa) = 0.02359674
#
# Stress axis : x y z
#
# Youngs Moduli (GPa) = 119.55278 51.17841 38.57112
#
# Poissons Ratio (x) = 0.03353 0.18057
# Poissons Ratio (y) = 0.07833 0.37723
# Poissons Ratio (z) = 0.55968 0.50053
#
# Static dielectric constant tensor:
#      x y z
#    x 4.013570 0.000000 -0.070070 
#    y 0.000000 3.308360 0.000000 
#    z -0.070070 0.000000 3.677810 
# 
# 
# High freq. dielectric constant tensor:
#      x y z
#    x 1.796830 0.000000 -0.008730 
#    y 0.000000 1.760770 0.000000 
#    z -0.008730 0.000000 1.781090 
# 
# From -- ./inp_files/204375.got.cif
#   From: 2010.06.25/outbox.cif.g09.slc.cpg/sg15_103_cif.got.tgz:204375.got - 2010.06.28 07:06:18.
