data_PCOD8132433
_publ_section_title
;
Structure prediction by ZEFSAII (Michael W. Deem and Ramdas Pophale) SiO2 
 PCOD8132433
Probable space group: C 2/C
;
_chemical_formula_sum "Si O2"
_cell_formula_units_Z 40
_cell_length_a 16.698990
_cell_length_b 22.419663
_cell_length_c 9.445142
_cell_angle_alpha 90.000000
_cell_angle_beta 32.084800
_cell_angle_gamma 90.000000
_cell_volume 1878.297777
_symmetry_space_group_name_H-M "C 2/C"
_symmetry_group_IT_number 15
_symmetry_cell_setting 'monoclinic'
loop_
_space_group_symop_operation_xyz
x,y,z
-x,y,1/2-z
-x,-y,-z
x,-y,1/2+z
1/2+x,1/2+y,z
1/2-x,1/2+y,1/2-z
1/2-x,1/2-y,-z
1/2+x,1/2-y,1/2+z
loop_
_atom_site_type_symbol
_atom_site_label
_atom_site_fract_x
_atom_site_fract_y
_atom_site_fract_z
Si Si1 0.807097 0.520869 0.288984
Si Si2 0.253407 0.382024 0.124384
Si Si3 0.491486 0.344805 0.976209
Si Si4 0.500000 0.001214 0.750000
Si Si5 0.586193 0.221582 0.764392
Si Si6 0.500000 0.410749 0.250000
O O1 0.802854 0.449207 0.295429
O O2 0.901157 0.539494 0.289214
O O3 0.641930 0.546318 0.547999
O O4 0.889487 0.540807 0.018123
O O5 0.107203 0.338869 0.324022
O O6 0.332030 0.368349 0.156578
O O7 0.372871 0.369786 0.821500
O O8 0.486491 0.272634 0.989808
O O9 0.516831 0.367707 0.094064
O O10 0.500000 0.204245 0.750000
O O11 0.750000 0.250000 0.500000
#
# Coordination Sequence:
#
# PCOD8132433 Si02
#       6
#     8   8   8   4   8   4
#     4  11  23  41  62  93 126 175 210 267 317 387
#     4  10  20  36  65  88 121 165 218 260 317 378
#     4  10  20  37  59  96 121 160 217 273 303 370
#     4  10  24  42  55  88 137 160 212 258 328 384
#     4  10  18  37  62  91 120 160 218 260 310 380
#     4  12  24  40  69  92 133 170 220 264 314 374
#
# _framework density 21.295877999999998
#
# number of rings (size 3 to 8) (size 9 to 14) (size 15 to 20)
#    0.000    1.600    4.000    3.600    1.400    2.400 
#    3.600    2.000    0.000    0.000    0.000    0.000 
#    0.000    0.000    0.000    0.000    0.000    0.000 
#
# Total GULP energy -247855.633551 kJ/mol
# GULP energy per Si atom -12392.781678 kJ/mol
# Density = 2.124741 g / cm^3
# Si number density = 21.295878 Si / 1000 Ang^3
#
#
#
# Elastic Constant Matrix: (Units=GPa)
#
#
# Indices 1 2 3 4 5 6 
#
# 1 153.4429 33.1668 28.6185 0.0056 -5.9421 -0.0051
# 2 33.1668 120.3601 3.8294 0.0016 -3.8478 -0.0016
# 3 28.6185 3.8294 60.7119 0.0069 -5.3647 -0.0057
# 4 0.0056 0.0016 0.0069 7.0722 -0.0047 -5.8582
# 5 -5.9421 -3.8478 -5.3647 -0.0047 34.8980 0.0041
# 6 -0.0051 -0.0016 -0.0057 -5.8582 0.0041 36.0928
#
#
#
# Elastic Compliance Matrix: (Units=1/GPa)
#
#
# Indices 1 2 3 4 5 6 
#
# 1 0.007600 -0.001968 -0.003409 -0.000002 0.000553 0.000000
# 2 -0.001968 0.008860 0.000431 0.000000 0.000708 0.000000
# 3 -0.003409 0.000431 0.018252 -0.000014 0.002273 0.000000
# 4 -0.000002 0.000000 -0.000014 0.163363 0.000017 0.026516
# 5 0.000553 0.000708 0.002273 0.000017 0.029177 0.000000
# 6 0.000000 0.000000 0.000000 0.026516 0.000000 0.032010
#
#
# Mechanical properties :
#
#
# Convention : Reuss Voigt Hill
#
# Bulk Modulus (GPa) = 40.29109 51.74936 46.02023
# Shear Modulus (GPa) = 18.02282 33.53928 25.78105
#
# Velocity S-wave (km/s) = 2.91229 3.97283 3.48316
# Velocity P-wave (km/s) = 5.50176 6.73776 6.15088
#
# Compressibility (1/GPa) = 0.02481938
#
# Stress axis : x y z
#
# Youngs Moduli (GPa) = 131.58284 112.87149 54.78854
#
# Poissons Ratio (x) = 0.22214 0.18680
# Poissons Ratio (y) = 0.25896 -0.02364
# Poissons Ratio (z) = 0.44862 -0.04870
#
# Static dielectric constant tensor:
#      x y z
#    x 4.287180 0.000000 -0.183670 
#    y 0.000000 3.971210 0.000000 
#    z -0.183670 0.000000 3.842600 
# 
# 
# High freq. dielectric constant tensor:
#      x y z
#    x 1.861160 0.000000 -0.016660 
#    y 0.000000 1.822470 0.000000 
#    z -0.016660 0.000000 1.811470 
# 
# From -- ./inp_files/41986.got.cif
#   From: 2010.06.25/outbox.cif.g09.slc.cpg/sg15_21_cif.got.tgz:41986.got - 2010.06.28 07:06:18.
