data_PCOD8132099
_publ_section_title
;
Structure prediction by ZEFSAII (Michael W. Deem and Ramdas Pophale) SiO2 
 PCOD8132099
Probable space group: C 2/C
;
_chemical_formula_sum "Si O2"
_cell_formula_units_Z 60
_cell_length_a 17.466193
_cell_length_b 10.069508
_cell_length_c 19.055648
_cell_angle_alpha 90.000000
_cell_angle_beta 64.219633
_cell_angle_gamma 90.000000
_cell_volume 3017.855505
_symmetry_space_group_name_H-M "C 2/C"
_symmetry_group_IT_number 15
_symmetry_cell_setting 'monoclinic'
loop_
_space_group_symop_operation_xyz
x,y,z
-x,y,1/2-z
-x,-y,-z
x,-y,1/2+z
1/2+x,1/2+y,z
1/2-x,1/2+y,1/2-z
1/2-x,1/2-y,-z
1/2+x,1/2-y,1/2+z
loop_
_atom_site_type_symbol
_atom_site_label
_atom_site_fract_x
_atom_site_fract_y
_atom_site_fract_z
Si Si1 0.437556 0.230248 0.164047
Si Si2 0.000000 0.453633 0.750000
Si Si3 0.432246 0.561369 0.903121
Si Si4 0.873817 0.392478 0.395098
Si Si5 0.307371 0.523238 0.567406
Si Si6 0.115390 0.988483 0.822589
Si Si7 0.146742 0.328513 0.941666
Si Si8 0.334397 0.612944 0.340632
O O1 0.432331 0.133469 0.232856
O O2 0.534638 0.287410 0.120389
O O3 0.373403 0.354772 0.202801
O O4 0.415205 0.153253 0.100460
O O5 0.046564 0.542562 0.674158
O O6 0.515867 0.467615 0.883938
O O7 0.385181 0.511263 0.852183
O O8 0.365978 0.561754 0.992563
O O9 0.790824 0.483510 0.415269
O O10 0.893254 0.386117 0.470625
O O11 0.862410 0.247238 0.367111
O O12 0.321332 0.459311 0.638277
O O13 0.338023 0.673963 0.551191
O O14 0.142595 0.886850 0.750838
O O15 0.233996 0.406273 0.890757
#
# Coordination Sequence:
#
# PCOD8132099 Si02
#       8
#     8   4   8   8   8   8   8   8
#     4   9  23  40  60  84 118 165 195 250 298 358
#     4  12  26  42  56  76 130 162 196 232 304 380
#     4  10  18  35  66  87 116 148 201 254 301 346
#     4  11  24  37  60  85 123 160 194 247 311 359
#     4  10  18  38  58  94 115 150 191 256 308 346
#     4   9  21  31  65  89 116 144 202 249 300 345
#     4  10  20  39  62  85 123 153 199 250 309 353
#     4  11  19  35  62  94 117 152 201 259 297 357
#
# _framework density 19.881665999999999
#
# number of rings (size 3 to 8) (size 9 to 14) (size 15 to 20)
#    0.800    1.067    2.667    2.400    3.733    0.533 
#    0.000    0.667    0.000    0.000    0.000    0.000 
#    0.000    0.000    0.000    0.000    0.000    0.000 
#
# Total GULP energy -371834.812134 kJ/mol
# GULP energy per Si atom -12394.493738 kJ/mol
# Density = 1.983641 g / cm^3
# Si number density = 19.881666 Si / 1000 Ang^3
#
#
#
# Elastic Constant Matrix: (Units=GPa)
#
#
# Indices 1 2 3 4 5 6 
#
# 1 75.5164 30.3946 24.8484 0.0000 14.4009 0.0000
# 2 30.3946 30.1972 28.0867 0.0000 3.8705 0.0000
# 3 24.8484 28.0867 103.5488 0.0000 9.5242 0.0000
# 4 0.0000 0.0000 0.0000 21.4312 0.0000 1.6616
# 5 14.4009 3.8705 9.5242 0.0000 37.7101 0.0000
# 6 0.0000 0.0000 0.0000 1.6616 0.0000 23.3217
#
#
#
# Elastic Compliance Matrix: (Units=1/GPa)
#
#
# Indices 1 2 3 4 5 6 
#
# 1 0.024028 -0.024772 0.001600 0.000000 -0.007038 0.000000
# 2 -0.024772 0.069916 -0.013544 0.000000 0.005705 0.000000
# 3 0.001600 -0.013544 0.013182 0.000000 -0.002550 0.000000
# 4 0.000000 0.000000 0.000000 0.046920 0.000000 -0.003343
# 5 -0.007038 0.005705 -0.002550 0.000000 0.029264 0.000000
# 6 0.000000 0.000000 0.000000 -0.003343 0.000000 0.043117
#
#
# Mechanical properties :
#
#
# Convention : Reuss Voigt Hill
#
# Bulk Modulus (GPa) = 29.67863 41.76907 35.72385
# Shear Modulus (GPa) = 16.07260 24.88812 20.48036
#
# Velocity S-wave (km/s) = 2.84635 3.54193 3.21302
# Velocity P-wave (km/s) = 5.07566 6.14667 5.63666
#
# Compressibility (1/GPa) = 0.03369428
#
# Stress axis : x y z
#
# Youngs Moduli (GPa) = 41.61825 14.30295 75.86355
#
# Poissons Ratio (x) = 0.35431 -0.12141
# Poissons Ratio (y) = 1.03095 1.02752
# Poissons Ratio (z) = -0.06661 0.19372
#
# Static dielectric constant tensor:
#      x y z
#    x 3.716420 0.000000 0.163140 
#    y 0.000000 3.260880 0.000000 
#    z 0.163140 0.000000 3.557330 
# 
# 
# High freq. dielectric constant tensor:
#      x y z
#    x 1.773470 0.000000 0.015840 
#    y 0.000000 1.736620 0.000000 
#    z 0.015840 0.000000 1.778660 
# 
# From -- ./inp_files/210623.got.cif
#   From: 2010.06.25/outbox.cif.g09.slc.cpg/sg15_106_cif.got.tgz:210623.got - 2010.06.28 07:06:18.
