data_PCOD8132665
_publ_section_title
;
Structure prediction by ZEFSAII (Michael W. Deem and Ramdas Pophale) SiO2 
 PCOD8132665
Probable space group: C 2/C
;
_chemical_formula_sum "Si O2"
_cell_formula_units_Z 56
_cell_length_a 11.142729
_cell_length_b 19.075104
_cell_length_c 15.633233
_cell_angle_alpha 90.000000
_cell_angle_beta 120.225790
_cell_angle_gamma 90.000000
_cell_volume 2871.080047
_symmetry_space_group_name_H-M "C 2/C"
_symmetry_group_IT_number 15
_symmetry_cell_setting 'monoclinic'
loop_
_space_group_symop_operation_xyz
x,y,z
-x,y,1/2-z
-x,-y,-z
x,-y,1/2+z
1/2+x,1/2+y,z
1/2-x,1/2+y,1/2-z
1/2-x,1/2-y,-z
1/2+x,1/2-y,1/2+z
loop_
_atom_site_type_symbol
_atom_site_label
_atom_site_fract_x
_atom_site_fract_y
_atom_site_fract_z
Si Si1 0.191983 0.171589 0.841526
Si Si2 0.851696 0.014271 0.719708
Si Si3 0.922267 0.417153 0.138610
Si Si4 0.113663 0.946776 0.079514
Si Si5 0.999521 0.670874 0.500839
Si Si6 0.548805 0.300838 0.122177
Si Si7 0.937139 0.537147 0.397245
O O1 0.343709 0.192178 0.924879
O O2 0.173164 0.197301 0.736572
O O3 0.090690 0.209816 0.872216
O O4 0.163192 0.088138 0.835421
O O5 0.729349 0.961769 0.649952
O O6 0.000000 0.979973 0.750000
O O7 0.835969 0.022018 0.814099
O O8 0.758301 0.435205 0.080741
O O9 0.000000 0.382971 0.250000
O O10 0.935877 0.362476 0.064433
O O11 0.009181 0.490121 0.161917
O O12 0.038737 0.872315 0.064584
O O13 0.000000 0.000000 0.000000
O O14 0.923713 0.740345 0.438245
O O15 0.990360 0.616921 0.417203
O O16 0.000000 0.500000 0.500000
#
# Coordination Sequence:
#
# PCOD8132665 Si02
#       7
#     8   8   8   8   8   8   8
#     4  10  18  39  65  85 119 163 200 259 308 367
#     4  11  19  38  65  87 118 157 201 256 308 364
#     4  11  21  40  62  87 125 164 204 250 312 371
#     4  11  24  37  60  88 121 161 209 252 303 367
#     4  11  23  38  64  88 125 160 206 254 310 376
#     4  10  22  40  58  91 121 163 209 248 315 365
#     4  10  21  36  63  91 116 153 203 253 309 354
#
# _framework density 19.504856
#
# number of rings (size 3 to 8) (size 9 to 14) (size 15 to 20)
#    0.000    1.429    7.143    1.286    6.000    0.571 
#    5.143    0.000    0.000    0.000    0.000    0.000 
#    0.000    0.000    0.000    0.000    0.000    0.000 
#
# Total GULP energy -346915.985582 kJ/mol
# GULP energy per Si atom -12389.856628 kJ/mol
# Density = 1.946046 g / cm^3
# Si number density = 19.504856 Si / 1000 Ang^3
#
#
#
# Elastic Constant Matrix: (Units=GPa)
#
#
# Indices 1 2 3 4 5 6 
#
# 1 110.1255 30.5502 42.7033 0.0000 13.2431 0.0000
# 2 30.5502 107.8545 62.5468 0.0000 1.1485 0.0000
# 3 42.7033 62.5468 85.6499 0.0000 7.8940 0.0000
# 4 0.0000 0.0000 0.0000 23.8848 0.0000 -0.6510
# 5 13.2431 1.1485 7.8940 0.0000 37.8614 0.0000
# 6 0.0000 0.0000 0.0000 -0.6510 0.0000 15.2385
#
#
#
# Elastic Compliance Matrix: (Units=1/GPa)
#
#
# Indices 1 2 3 4 5 6 
#
# 1 0.011561 -0.000098 -0.005424 0.000000 -0.002910 0.000000
# 2 -0.000098 0.016233 -0.011994 0.000000 0.002043 0.000000
# 3 -0.005424 -0.011994 0.023379 0.000000 -0.002613 0.000000
# 4 0.000000 0.000000 0.000000 0.041917 0.000000 0.001791
# 5 -0.002910 0.002043 -0.002613 0.000000 0.027913 0.000000
# 6 0.000000 0.000000 0.000000 0.001791 0.000000 0.065700
#
#
# Mechanical properties :
#
#
# Convention : Reuss Voigt Hill
#
# Bulk Modulus (GPa) = 61.95316 63.91452 62.93384
# Shear Modulus (GPa) = 22.01520 26.58558 24.30039
#
# Velocity S-wave (km/s) = 3.36326 3.69592 3.53351
# Velocity P-wave (km/s) = 6.84938 7.14512 6.99881
#
# Compressibility (1/GPa) = 0.01614123
#
# Stress axis : x y z
#
# Youngs Moduli (GPa) = 86.49724 61.60204 42.77267
#
# Poissons Ratio (x) = 0.00604 0.23201
# Poissons Ratio (y) = 0.00848 0.51301
# Poissons Ratio (z) = 0.46919 0.73885
#
# Static dielectric constant tensor:
#      x y z
#    x 6.054330 0.000000 -4.002850 
#    y 0.000000 4.441000 0.000000 
#    z -4.002850 0.000000 10.889460 
# 
# 
# High freq. dielectric constant tensor:
#      x y z
#    x 1.761550 0.000000 0.006310 
#    y 0.000000 1.727500 0.000000 
#    z 0.006310 0.000000 1.768530 
# 
# From -- ./inp_files/146153.got.cif
#   From: 2010.06.25/outbox.cif.g09.slc.cpg/sg15_74_cif.got.tgz:146153.got - 2010.06.28 07:06:18.
