data_PCOD8132778
_publ_section_title
;
Structure prediction by ZEFSAII (Michael W. Deem and Ramdas Pophale) SiO2 
 PCOD8132778
Probable space group: C 2/C
;
_chemical_formula_sum "Si O2"
_cell_formula_units_Z 52
_cell_length_a 7.954454
_cell_length_b 26.644615
_cell_length_c 12.249723
_cell_angle_alpha 90.000000
_cell_angle_beta 110.117017
_cell_angle_gamma 90.000000
_cell_volume 2437.856008
_symmetry_space_group_name_H-M "C 2/C"
_symmetry_group_IT_number 15
_symmetry_cell_setting 'monoclinic'
loop_
_space_group_symop_operation_xyz
x,y,z
-x,y,1/2-z
-x,-y,-z
x,-y,1/2+z
1/2+x,1/2+y,z
1/2-x,1/2+y,1/2-z
1/2-x,1/2-y,-z
1/2+x,1/2-y,1/2+z
loop_
_atom_site_type_symbol
_atom_site_label
_atom_site_fract_x
_atom_site_fract_y
_atom_site_fract_z
Si Si1 0.294348 0.582368 0.895940
Si Si2 0.000000 0.974375 0.750000
Si Si3 0.284840 0.196168 0.886462
Si Si4 0.837373 0.691713 0.134877
Si Si5 0.292223 0.010621 0.987289
Si Si6 0.500000 0.623510 0.750000
Si Si7 0.637336 0.407050 0.597038
Si Si8 0.000000 0.647956 0.750000
O O1 0.370543 0.586333 0.789202
O O2 0.112047 0.613963 0.859505
O O3 0.255008 0.525376 0.920934
O O4 0.436989 0.604461 0.011648
O O5 0.145135 0.005226 0.856944
O O6 0.128223 0.940760 0.703071
O O7 0.256459 0.255155 0.872676
O O8 0.107403 0.161153 0.854965
O O9 0.379355 0.183560 0.795181
O O10 0.396280 0.184642 0.021385
O O11 0.711975 0.646759 0.146155
O O12 0.000000 0.689644 0.250000
O O13 0.500000 0.000000 0.000000
O O14 0.260095 0.066190 0.030059
#
# Coordination Sequence:
#
# PCOD8132778 Si02
#       8
#     8   4   8   8   8   4   8   4
#     4  10  22  40  64  99 127 172 218 274 328 381
#     4  10  24  46  64  92 134 176 219 275 336 394
#     4  10  22  43  66 103 128 173 223 272 334 391
#     4  11  24  41  71  96 135 179 218 269 339 404
#     4  11  27  43  65  95 135 173 226 272 333 401
#     4  10  18  41  70  90 132 164 222 277 318 386
#     4  11  25  43  64  95 133 175 221 271 334 400
#     4  10  24  39  72 102 134 170 229 282 324 392
#
# _framework density 21.330219
#
# number of rings (size 3 to 8) (size 9 to 14) (size 15 to 20)
#    0.000    1.538    2.308    1.846    4.308    6.769 
#    0.000    1.538    0.000    0.000    0.000    0.000 
#    0.000    0.000    0.000    0.000    0.000    0.000 
#
# Total GULP energy -322237.288232 kJ/mol
# GULP energy per Si atom -12393.741855 kJ/mol
# Density = 2.128167 g / cm^3
# Si number density = 21.330219 Si / 1000 Ang^3
#
#
#
# Elastic Constant Matrix: (Units=GPa)
#
#
# Indices 1 2 3 4 5 6 
#
# 1 90.8353 45.3460 35.7031 0.0000 14.5692 0.0000
# 2 45.3460 114.4710 52.6618 0.0000 7.4303 0.0000
# 3 35.7031 52.6618 133.0171 0.0000 14.0581 0.0000
# 4 0.0000 0.0000 0.0000 34.4824 0.0000 2.1915
# 5 14.5692 7.4303 14.0581 0.0000 38.2462 0.0000
# 6 0.0000 0.0000 0.0000 2.1915 0.0000 16.7817
#
#
#
# Elastic Compliance Matrix: (Units=1/GPa)
#
#
# Indices 1 2 3 4 5 6 
#
# 1 0.014700 -0.004819 -0.001607 0.000000 -0.004073 0.000000
# 2 -0.004819 0.012272 -0.003649 0.000000 0.000793 0.000000
# 3 -0.001607 -0.003649 0.009628 0.000000 -0.002218 0.000000
# 4 0.000000 0.000000 0.000000 0.029243 0.000000 -0.003819
# 5 -0.004073 0.000793 -0.002218 0.000000 0.028359 0.000000
# 6 0.000000 0.000000 0.000000 -0.003819 0.000000 0.060087
#
#
# Mechanical properties :
#
#
# Convention : Reuss Voigt Hill
#
# Bulk Modulus (GPa) = 60.79244 67.30502 64.04873
# Shear Modulus (GPa) = 27.78965 31.54290 29.66627
#
# Velocity S-wave (km/s) = 3.61339 3.84967 3.73340
# Velocity P-wave (km/s) = 6.78021 7.16815 6.97688
#
# Compressibility (1/GPa) = 0.01644942
#
# Stress axis : x y z
#
# Youngs Moduli (GPa) = 68.02855 81.48571 103.86194
#
# Poissons Ratio (x) = 0.39271 0.16692
# Poissons Ratio (y) = 0.32785 0.37897
# Poissons Ratio (z) = 0.10933 0.29732
#
# Static dielectric constant tensor:
#      x y z
#    x 3.966210 0.000000 0.101450 
#    y 0.000000 3.768070 0.000000 
#    z 0.101450 0.000000 4.160860 
# 
# 
# High freq. dielectric constant tensor:
#      x y z
#    x 1.821630 0.000000 -0.000110 
#    y 0.000000 1.846260 0.000000 
#    z -0.000110 0.000000 1.852570 
# 
# From -- ./inp_files/81533.got.cif
#   From: 2010.06.25/outbox.cif.g09.slc.cpg/sg15_41_cif.got.tgz:81533.got - 2010.06.28 07:06:18.
