data_PCOD8132870
_publ_section_title
;
Structure prediction by ZEFSAII (Michael W. Deem and Ramdas Pophale) SiO2 
 PCOD8132870
Probable space group: C 2/C
;
_chemical_formula_sum "Si O2"
_cell_formula_units_Z 48
_cell_length_a 22.542250
_cell_length_b 15.160100
_cell_length_c 14.323339
_cell_angle_alpha 90.000000
_cell_angle_beta 149.431012
_cell_angle_gamma 90.000000
_cell_volume 2489.424703
_symmetry_space_group_name_H-M "C 2/C"
_symmetry_group_IT_number 15
_symmetry_cell_setting 'monoclinic'
loop_
_space_group_symop_operation_xyz
x,y,z
-x,y,1/2-z
-x,-y,-z
x,-y,1/2+z
1/2+x,1/2+y,z
1/2-x,1/2+y,1/2-z
1/2-x,1/2-y,-z
1/2+x,1/2-y,1/2+z
loop_
_atom_site_type_symbol
_atom_site_label
_atom_site_fract_x
_atom_site_fract_y
_atom_site_fract_z
Si Si1 0.646256 0.634382 0.293154
Si Si2 0.959865 0.992598 0.591933
Si Si3 0.209250 0.305828 0.672945
Si Si4 0.054130 0.804144 0.421844
Si Si5 0.763896 0.877643 0.379521
Si Si6 0.472093 0.803356 0.437652
O O1 0.545769 0.560936 0.138916
O O2 0.738300 0.626286 0.332392
O O3 0.713509 0.617654 0.479648
O O4 0.588822 0.731825 0.213321
O O5 0.825162 0.958136 0.405851
O O6 0.000000 0.967252 0.750000
O O7 0.974201 0.095101 0.590882
O O8 0.181741 0.212354 0.587656
O O9 0.089237 0.344009 0.552259
O O10 0.305346 0.291905 0.885535
O O11 0.994425 0.743277 0.419286
O O12 0.000000 0.776018 0.250000
O O13 0.623301 0.880800 0.174348
#
# Coordination Sequence:
#
# PCOD8132870 Si02
#       6
#     8   8   8   8   8   8
#     4   9  17  28  49  74 103 127 155 202 246 295
#     4   9  16  31  52  75  98 128 164 204 244 286
#     4  10  19  30  45  75 101 128 166 197 247 296
#     4   9  20  35  51  70  96 130 174 211 241 276
#     4   9  17  29  48  74 104 130 157 194 251 298
#     4  10  19  30  47  75 101 128 163 198 249 297
#
# _framework density 19.281563999999999
#
# number of rings (size 3 to 8) (size 9 to 14) (size 15 to 20)
#    0.000    3.000    1.667    2.000    0.000    5.333 
#    0.000    0.833    0.000    0.000    0.000    0.000 
#    0.000    0.000    0.000    0.000    0.000    0.000 
#
# Total GULP energy -297423.409115 kJ/mol
# GULP energy per Si atom -12392.642046 kJ/mol
# Density = 1.923768 g / cm^3
# Si number density = 19.281564 Si / 1000 Ang^3
#
#
#
# Elastic Constant Matrix: (Units=GPa)
#
#
# Indices 1 2 3 4 5 6 
#
# 1 125.6101 31.7632 69.2439 0.0000 29.0311 0.0000
# 2 31.7632 33.6383 24.6309 0.0000 4.8880 0.0000
# 3 69.2439 24.6309 91.6238 0.0000 11.9285 0.0000
# 4 0.0000 0.0000 0.0000 19.2765 0.0000 0.5376
# 5 29.0311 4.8880 11.9285 0.0000 46.0144 0.0000
# 6 0.0000 0.0000 0.0000 0.5376 0.0000 10.9835
#
#
#
# Elastic Compliance Matrix: (Units=1/GPa)
#
#
# Indices 1 2 3 4 5 6 
#
# 1 0.017073 -0.007849 -0.009831 0.000000 -0.007389 0.000000
# 2 -0.007849 0.040710 -0.005272 0.000000 0.001994 0.000000
# 3 -0.009831 -0.005272 0.019540 0.000000 0.001697 0.000000
# 4 0.000000 0.000000 0.000000 0.051948 0.000000 -0.002543
# 5 -0.007389 0.001994 0.001697 0.000000 0.025743 0.000000
# 6 0.000000 0.000000 0.000000 -0.002543 0.000000 0.091170
#
#
# Mechanical properties :
#
#
# Convention : Reuss Voigt Hill
#
# Bulk Modulus (GPa) = 31.82701 55.79423 43.81062
# Shear Modulus (GPa) = 16.52565 23.60382 20.06473
#
# Velocity S-wave (km/s) = 2.93075 3.50260 3.22936
# Velocity P-wave (km/s) = 5.29100 6.73476 6.05606
#
# Compressibility (1/GPa) = 0.03141986
#
# Stress axis : x y z
#
# Youngs Moduli (GPa) = 58.57147 24.56401 51.17728
#
# Poissons Ratio (x) = 0.19281 0.50311
# Poissons Ratio (y) = 0.45975 0.26978
# Poissons Ratio (z) = 0.57580 0.12949
#
# Static dielectric constant tensor:
#      x y z
#    x 3.566490 0.000000 0.087980 
#    y 0.000000 3.199410 0.000000 
#    z 0.087980 0.000000 3.573670 
# 
# 
# High freq. dielectric constant tensor:
#      x y z
#    x 1.749300 0.000000 0.002460 
#    y 0.000000 1.711070 0.000000 
#    z 0.002460 0.000000 1.745030 
# 
# From -- ./inp_files/173724.got.cif
#   From: 2010.06.25/outbox.cif.g09.slc.cpg/sg15_87_cif.got.tgz:173724.got - 2010.06.28 07:06:18.
