data_PCOD8132047
_publ_section_title
;
Structure prediction by ZEFSAII (Michael W. Deem and Ramdas Pophale) SiO2 
 PCOD8132047
Probable space group: C 2/C
;
_chemical_formula_sum "Si O2"
_cell_formula_units_Z 56
_cell_length_a 11.119620
_cell_length_b 16.755343
_cell_length_c 20.973546
_cell_angle_alpha 90.000000
_cell_angle_beta 139.355343
_cell_angle_gamma 90.000000
_cell_volume 2545.306501
_symmetry_space_group_name_H-M "C 2/C"
_symmetry_group_IT_number 15
_symmetry_cell_setting 'monoclinic'
loop_
_space_group_symop_operation_xyz
x,y,z
-x,y,1/2-z
-x,-y,-z
x,-y,1/2+z
1/2+x,1/2+y,z
1/2-x,1/2+y,1/2-z
1/2-x,1/2-y,-z
1/2+x,1/2-y,1/2+z
loop_
_atom_site_type_symbol
_atom_site_label
_atom_site_fract_x
_atom_site_fract_y
_atom_site_fract_z
Si Si1 0.459519 0.892834 0.531026
Si Si2 0.949698 0.342072 0.660585
Si Si3 0.375056 0.682321 0.819542
Si Si4 0.067197 0.223159 0.016263
Si Si5 0.413357 0.469255 0.145843
Si Si6 0.521490 0.218924 0.881526
Si Si7 0.288896 0.369403 0.569286
O O1 0.504754 0.902379 0.625121
O O2 0.359399 0.807615 0.481178
O O3 0.309488 0.954537 0.442918
O O4 0.652887 0.893905 0.572109
O O5 0.729071 0.339338 0.570874
O O6 0.000000 0.377816 0.750000
O O7 0.043288 0.254709 0.690040
O O8 0.393896 0.697017 0.902742
O O9 0.474459 0.598841 0.845098
O O10 0.158135 0.675514 0.717604
O O11 0.012097 0.230522 0.067259
O O12 0.500000 0.477165 0.250000
O O13 0.428985 0.555772 0.116591
O O14 0.600261 0.288186 0.866523
O O15 0.669695 0.149257 0.957193
#
# Coordination Sequence:
#
# PCOD8132047 Si02
#       7
#     8   8   8   8   8   8   8
#     4  10  20  37  60  92 132 166 207 261 318 372
#     4  11  18  33  62  97 122 161 221 272 306 358
#     4  11  20  35  66  95 124 165 215 268 322 365
#     4  10  18  35  61  93 119 163 218 269 306 367
#     4  12  22  36  63  96 129 163 210 269 325 372
#     4  10  22  43  64  87 129 175 211 261 315 375
#     4  10  24  41  59  87 131 173 209 255 318 387
#
# _framework density 22.001280999999999
#
# number of rings (size 3 to 8) (size 9 to 14) (size 15 to 20)
#    0.000    1.429    4.286    3.429    0.000    3.429 
#    0.000    5.714    0.000    0.000    0.000    0.000 
#    0.000    0.000    0.000    0.000    0.000    0.000 
#
# Total GULP energy -346960.604962 kJ/mol
# GULP energy per Si atom -12391.450177 kJ/mol
# Density = 2.195120 g / cm^3
# Si number density = 22.001281 Si / 1000 Ang^3
#
#
#
# Elastic Constant Matrix: (Units=GPa)
#
#
# Indices 1 2 3 4 5 6 
#
# 1 54.1399 26.8074 40.4637 0.0000 -5.0937 0.0000
# 2 26.8074 103.0104 44.7964 0.0000 -6.8836 0.0000
# 3 40.4637 44.7964 126.8474 0.0000 -7.2219 0.0000
# 4 0.0000 0.0000 0.0000 27.1828 0.0000 -0.1455
# 5 -5.0937 -6.8836 -7.2219 0.0000 30.5251 0.0000
# 6 0.0000 0.0000 0.0000 -0.1455 0.0000 13.7084
#
#
#
# Elastic Compliance Matrix: (Units=1/GPa)
#
#
# Indices 1 2 3 4 5 6 
#
# 1 0.025460 -0.003563 -0.006758 0.000000 0.001846 0.000000
# 2 -0.003563 0.012050 -0.003039 0.000000 0.001404 0.000000
# 3 -0.006758 -0.003039 0.011160 0.000000 0.000827 0.000000
# 4 0.000000 0.000000 0.000000 0.036790 0.000000 0.000390
# 5 0.001846 0.001404 0.000827 0.000000 0.033580 0.000000
# 6 0.000000 0.000000 0.000000 0.000390 0.000000 0.072952
#
#
# Mechanical properties :
#
#
# Convention : Reuss Voigt Hill
#
# Bulk Modulus (GPa) = 45.56034 56.45920 51.00977
# Shear Modulus (GPa) = 22.12106 25.74529 23.93317
#
# Velocity S-wave (km/s) = 3.17431 3.42449 3.30177
# Velocity P-wave (km/s) = 5.84705 6.43068 6.14580
#
# Compressibility (1/GPa) = 0.02194891
#
# Stress axis : x y z
#
# Youngs Moduli (GPa) = 39.27789 82.98423 89.60902
#
# Poissons Ratio (x) = 0.29570 0.60558
# Poissons Ratio (y) = 0.13996 0.27232
# Poissons Ratio (z) = 0.26544 0.25219
#
# Static dielectric constant tensor:
#      x y z
#    x 3.908700 0.000000 -0.025270 
#    y 0.000000 3.832170 0.000000 
#    z -0.025270 0.000000 4.143170 
# 
# 
# High freq. dielectric constant tensor:
#      x y z
#    x 1.847230 0.000000 0.004580 
#    y 0.000000 1.836390 0.000000 
#    z 0.004580 0.000000 1.876360 
# 
# From -- ./inp_files/270468.got.cif
#   From: 2010.06.25/outbox.cif.g09.slc.cpg/sg15_136_cif.got.tgz:270468.got - 2010.06.28 07:06:18.
