data_PCOD8132424
_publ_section_title
;
Structure prediction by ZEFSAII (Michael W. Deem and Ramdas Pophale) SiO2 
 PCOD8132424
Probable space group: C 2/C
;
_chemical_formula_sum "Si O2"
_cell_formula_units_Z 48
_cell_length_a 9.838702
_cell_length_b 26.768042
_cell_length_c 9.313748
_cell_angle_alpha 90.000000
_cell_angle_beta 82.556665
_cell_angle_gamma 90.000000
_cell_volume 2432.225243
_symmetry_space_group_name_H-M "C 2/C"
_symmetry_group_IT_number 15
_symmetry_cell_setting 'monoclinic'
loop_
_space_group_symop_operation_xyz
x,y,z
-x,y,1/2-z
-x,-y,-z
x,-y,1/2+z
1/2+x,1/2+y,z
1/2-x,1/2+y,1/2-z
1/2-x,1/2-y,-z
1/2+x,1/2-y,1/2+z
loop_
_atom_site_type_symbol
_atom_site_label
_atom_site_fract_x
_atom_site_fract_y
_atom_site_fract_z
Si Si1 0.720142 0.638736 0.875229
Si Si2 0.461566 0.204585 0.918135
Si Si3 0.271695 0.154449 0.539040
Si Si4 0.492129 0.317171 0.583138
Si Si5 0.420898 0.064964 0.393242
Si Si6 0.888158 0.545186 0.877332
O O1 0.714802 0.655725 0.709606
O O2 0.755570 0.580131 0.878650
O O3 0.823768 0.672333 0.958654
O O4 0.573146 0.644037 0.971345
O O5 0.500000 0.195902 0.750000
O O6 0.584952 0.183758 0.998512
O O7 0.440998 0.262848 0.954675
O O8 0.302035 0.098270 0.480375
O O9 0.165309 0.181283 0.446743
O O10 0.500000 0.331637 0.750000
O O11 0.500000 0.091409 0.250000
O O12 0.547641 0.051635 0.476516
O O13 0.348703 0.012714 0.354321
O O14 0.000000 0.565671 0.750000
#
# Coordination Sequence:
#
# PCOD8132424 Si02
#       6
#     8   8   8   8   8   8
#     4  11  20  39  62  83 114 156 193 227 286 349
#     4   9  19  38  62  84 110 149 198 239 280 335
#     4  11  21  39  60  86 115 155 191 230 285 349
#     4  11  25  38  54  85 122 152 189 242 287 333
#     4  10  21  33  60  93 117 139 189 242 288 327
#     4  10  18  37  61  89 114 146 187 239 283 342
#
# _framework density 19.735014
#
# number of rings (size 3 to 8) (size 9 to 14) (size 15 to 20)
#    0.000    1.667    3.333    2.000    2.333    0.000 
#    0.000    4.167    0.000    0.000    0.000    0.000 
#    0.000    0.000    0.000    0.000    0.000    0.000 
#
# Total GULP energy -297564.163203 kJ/mol
# GULP energy per Si atom -12398.506800 kJ/mol
# Density = 1.969010 g / cm^3
# Si number density = 19.735014 Si / 1000 Ang^3
#
#
#
# Elastic Constant Matrix: (Units=GPa)
#
#
# Indices 1 2 3 4 5 6 
#
# 1 76.6571 19.6769 34.1014 0.0000 9.3544 0.0000
# 2 19.6769 82.6847 22.9416 0.0000 -5.5549 0.0000
# 3 34.1014 22.9416 104.1524 0.0000 0.1908 0.0000
# 4 0.0000 0.0000 0.0000 24.4795 0.0000 -2.9739
# 5 9.3544 -5.5549 0.1908 0.0000 34.0239 0.0000
# 6 0.0000 0.0000 0.0000 -2.9739 0.0000 19.6266
#
#
#
# Elastic Compliance Matrix: (Units=1/GPa)
#
#
# Indices 1 2 3 4 5 6 
#
# 1 0.016526 -0.002950 -0.004752 0.000000 -0.004999 0.000000
# 2 -0.002950 0.013563 -0.002027 0.000000 0.003037 0.000000
# 3 -0.004752 -0.002027 0.011602 0.000000 0.000911 0.000000
# 4 0.000000 0.000000 0.000000 0.041617 0.000000 0.006306
# 5 -0.004999 0.003037 0.000911 0.000000 0.031256 0.000000
# 6 0.000000 0.000000 0.000000 0.006306 0.000000 0.051907
#
#
# Mechanical properties :
#
#
# Convention : Reuss Voigt Hill
#
# Bulk Modulus (GPa) = 44.97921 46.32599 45.65260
# Shear Modulus (GPa) = 25.86119 28.07762 26.96940
#
# Velocity S-wave (km/s) = 3.62390 3.77600 3.70073
# Velocity P-wave (km/s) = 6.35227 6.52196 6.43767
#
# Compressibility (1/GPa) = 0.02223249
#
# Stress axis : x y z
#
# Youngs Moduli (GPa) = 60.50943 73.73197 86.19168
#
# Poissons Ratio (x) = 0.21752 0.40959
# Poissons Ratio (y) = 0.17851 0.17471
# Poissons Ratio (z) = 0.28754 0.14946
#
# Static dielectric constant tensor:
#      x y z
#    x 3.374330 0.000000 0.145130 
#    y 0.000000 3.721330 0.000000 
#    z 0.145130 0.000000 3.590360 
# 
# 
# High freq. dielectric constant tensor:
#      x y z
#    x 1.741350 0.000000 0.005330 
#    y 0.000000 1.768940 0.000000 
#    z 0.005330 0.000000 1.771890 
# 
# From -- ./inp_files/26109.got.cif
#   From: 2010.06.25/outbox.cif.g09.slc.cpg/sg15_14_cif.got.tgz:26109.got - 2010.06.28 07:06:18.
