data_PCOD8132569
_publ_section_title
;
Structure prediction by ZEFSAII (Michael W. Deem and Ramdas Pophale) SiO2 
 PCOD8132569
Probable space group: C 2/C
;
_chemical_formula_sum "Si O2"
_cell_formula_units_Z 64
_cell_length_a 13.851529
_cell_length_b 11.737891
_cell_length_c 29.996390
_cell_angle_alpha 90.000000
_cell_angle_beta 136.620358
_cell_angle_gamma 90.000000
_cell_volume 3349.697556
_symmetry_space_group_name_H-M "C 2/C"
_symmetry_group_IT_number 15
_symmetry_cell_setting 'monoclinic'
loop_
_space_group_symop_operation_xyz
x,y,z
-x,y,1/2-z
-x,-y,-z
x,-y,1/2+z
1/2+x,1/2+y,z
1/2-x,1/2+y,1/2-z
1/2-x,1/2-y,-z
1/2+x,1/2-y,1/2+z
loop_
_atom_site_type_symbol
_atom_site_label
_atom_site_fract_x
_atom_site_fract_y
_atom_site_fract_z
Si Si1 0.687482 0.300429 0.894443
Si Si2 0.458222 0.926991 0.121128
Si Si3 0.330874 0.177460 0.697486
Si Si4 0.239235 0.138017 0.759803
Si Si5 0.460990 0.907221 0.024098
Si Si6 0.249330 0.708994 0.640825
Si Si7 0.965032 0.981177 0.187886
Si Si8 0.132970 0.444055 0.824769
O O1 0.600028 0.201314 0.889761
O O2 0.734233 0.262488 0.860408
O O3 0.593059 0.413238 0.859767
O O4 0.831263 0.327865 0.967584
O O5 0.625037 0.937505 0.183927
O O6 0.422471 0.966247 0.058600
O O7 0.397929 0.015292 0.135687
O O8 0.500000 0.182690 0.750000
O O9 0.271125 0.212292 0.725913
O O10 0.285614 0.046257 0.673327
O O11 0.214205 0.217217 0.794274
O O12 0.103587 0.058258 0.707941
O O13 0.590665 0.823701 0.076637
O O14 0.500000 0.000000 0.000000
O O15 0.352308 0.620889 0.650603
O O16 0.269108 0.837334 0.631477
O O17 0.000000 0.021166 0.250000
O O18 0.000000 0.406815 0.750000
#
# Coordination Sequence:
#
# PCOD8132569 Si02
#       8
#     8   8   8   8   8   8   8   8
#     4  11  21  40  65  85 125 162 206 258 290 363
#     4  10  22  40  63  92 118 166 204 245 315 368
#     4  10  19  38  59  95 126 152 200 254 311 368
#     4  10  19  37  58  92 124 156 201 244 319 369
#     4  11  23  44  62  85 123 169 219 249 295 353
#     4  10  22  40  57  88 126 163 206 252 305 366
#     4  10  21  36  57  91 124 156 203 255 305 361
#     4  10  18  38  63  87 131 154 187 261 320 364
#
# _framework density 19.106202
#
# number of rings (size 3 to 8) (size 9 to 14) (size 15 to 20)
#    0.000    1.750    5.000    1.875    0.000    2.000 
#    9.000    4.375    0.000    0.000    0.000    0.000 
#    0.000    0.000    0.000    0.000    0.000    0.000 
#
# Total GULP energy -396660.923211 kJ/mol
# GULP energy per Si atom -12395.653850 kJ/mol
# Density = 1.906272 g / cm^3
# Si number density = 19.106202 Si / 1000 Ang^3
#
#
#
# Elastic Constant Matrix: (Units=GPa)
#
#
# Indices 1 2 3 4 5 6 
#
# 1 121.3935 43.8289 51.8752 0.0000 -12.8896 0.0000
# 2 43.8289 93.3711 44.9150 0.0000 5.0383 0.0000
# 3 51.8752 44.9150 117.5619 0.0000 -2.1131 0.0000
# 4 0.0000 0.0000 0.0000 21.8844 0.0000 -2.2058
# 5 -12.8896 5.0383 -2.1131 0.0000 40.2870 0.0000
# 6 0.0000 0.0000 0.0000 -2.2058 0.0000 17.6974
#
#
#
# Elastic Compliance Matrix: (Units=1/GPa)
#
#
# Indices 1 2 3 4 5 6 
#
# 1 0.011607 -0.003965 -0.003534 0.000000 0.004024 0.000000
# 2 -0.003965 0.014624 -0.003897 0.000000 -0.003302 0.000000
# 3 -0.003534 -0.003897 0.011554 0.000000 -0.000037 0.000000
# 4 0.000000 0.000000 0.000000 0.046276 0.000000 0.005768
# 5 0.004024 -0.003302 -0.000037 0.000000 0.026520 0.000000
# 6 0.000000 0.000000 0.000000 0.005768 0.000000 0.057224
#
#
# Mechanical properties :
#
#
# Convention : Reuss Voigt Hill
#
# Bulk Modulus (GPa) = 66.70302 68.17385 67.43843
# Shear Modulus (GPa) = 25.56292 28.75425 27.15859
#
# Velocity S-wave (km/s) = 3.66175 3.88360 3.77431
# Velocity P-wave (km/s) = 7.27086 7.47454 7.37341
#
# Compressibility (1/GPa) = 0.01499183
#
# Stress axis : x y z
#
# Youngs Moduli (GPa) = 86.15505 68.38092 86.55145
#
# Poissons Ratio (x) = 0.27115 0.30590
# Poissons Ratio (y) = 0.34164 0.33727
# Poissons Ratio (z) = 0.30450 0.26646
#
# Static dielectric constant tensor:
#      x y z
#    x 3.770600 0.000000 -0.190700 
#    y 0.000000 3.327230 0.000000 
#    z -0.190700 0.000000 3.579950 
# 
# 
# High freq. dielectric constant tensor:
#      x y z
#    x 1.746610 0.000000 -0.007210 
#    y 0.000000 1.730120 0.000000 
#    z -0.007210 0.000000 1.734470 
# 
# From -- ./inp_files/313607.got.cif
#   From: 2010.06.25/outbox.cif.g09.slc.cpg/sg15_157_cif.got.tgz:313607.got - 2010.06.28 07:06:18.
