data_PCOD8132739
_publ_section_title
;
Structure prediction by ZEFSAII (Michael W. Deem and Ramdas Pophale) SiO2 
 PCOD8132739
Probable space group: C 2/C
;
_chemical_formula_sum "Si O2"
_cell_formula_units_Z 48
_cell_length_a 5.778009
_cell_length_b 26.447484
_cell_length_c 13.755391
_cell_angle_alpha 90.000000
_cell_angle_beta 87.206833
_cell_angle_gamma 90.000000
_cell_volume 2099.516293
_symmetry_space_group_name_H-M "C 2/C"
_symmetry_group_IT_number 15
_symmetry_cell_setting 'monoclinic'
loop_
_space_group_symop_operation_xyz
x,y,z
-x,y,1/2-z
-x,-y,-z
x,-y,1/2+z
1/2+x,1/2+y,z
1/2-x,1/2+y,1/2-z
1/2-x,1/2-y,-z
1/2+x,1/2-y,1/2+z
loop_
_atom_site_type_symbol
_atom_site_label
_atom_site_fract_x
_atom_site_fract_y
_atom_site_fract_z
Si Si1 0.607119 0.103679 0.149819
Si Si2 0.635291 0.697099 0.397829
Si Si3 0.898547 0.945025 0.490554
Si Si4 0.134193 0.690377 0.896524
Si Si5 0.754864 0.591093 0.699562
Si Si6 0.751422 0.861055 0.990669
O O1 0.500000 0.080175 0.250000
O O2 0.718798 0.158758 0.173000
O O3 0.798201 0.066640 0.100036
O O4 0.418830 0.106012 0.070182
O O5 0.735091 0.692811 0.504202
O O6 0.636725 0.753069 0.351547
O O7 0.372576 0.678189 0.414034
O O8 0.720613 0.940041 0.403310
O O9 0.084400 0.901508 0.460080
O O10 0.000000 0.000000 0.500000
O O11 0.253277 0.651762 0.819362
O O12 0.873228 0.670648 0.921455
O O13 0.500000 0.575988 0.750000
O O14 0.000000 0.577488 0.750000
#
# Coordination Sequence:
#
# PCOD8132739 Si02
#       6
#     8   8   8   8   8   8
#     4  10  22  42  67  98 135 177 237 306 359 427
#     4   9  19  34  66  94 136 181 239 272 363 423
#     4  11  25  48  71  98 135 188 238 305 373 433
#     4  10  19  38  61  98 133 192 226 287 346 442
#     4  12  26  47  72 105 151 189 242 304 367 436
#     4  10  18  40  67  88 140 175 235 294 362 417
#
# _framework density 22.862410000000001
#
# number of rings (size 3 to 8) (size 9 to 14) (size 15 to 20)
#    0.000    1.667    5.000    1.500    0.000    4.000 
#    6.000    0.000    0.000    0.000    0.000    0.000 
#    0.000    0.000    0.000    0.000    0.000    0.000 
#
# Total GULP energy -297370.403989 kJ/mol
# GULP energy per Si atom -12390.433500 kJ/mol
# Density = 2.281037 g / cm^3
# Si number density = 22.862410 Si / 1000 Ang^3
#
#
#
# Elastic Constant Matrix: (Units=GPa)
#
#
# Indices 1 2 3 4 5 6 
#
# 1 113.4827 39.0196 35.7121 0.0000 -8.3536 0.0000
# 2 39.0196 138.5217 43.4133 0.0000 5.9546 0.0000
# 3 35.7121 43.4133 95.5533 0.0000 -11.9695 0.0000
# 4 0.0000 0.0000 0.0000 18.4839 0.0000 -2.5604
# 5 -8.3536 5.9546 -11.9695 0.0000 29.0920 0.0000
# 6 0.0000 0.0000 0.0000 -2.5604 0.0000 19.3478
#
#
#
# Elastic Compliance Matrix: (Units=1/GPa)
#
#
# Indices 1 2 3 4 5 6 
#
# 1 0.010596 -0.002266 -0.002627 0.000000 0.002426 0.000000
# 2 -0.002266 0.009249 -0.003874 0.000000 -0.004138 0.000000
# 3 -0.002627 -0.003874 0.013930 0.000000 0.005770 0.000000
# 4 0.000000 0.000000 0.000000 0.055111 0.000000 0.007293
# 5 0.002426 -0.004138 0.005770 0.000000 0.038291 0.000000
# 6 0.000000 0.000000 0.000000 0.007293 0.000000 0.052651
#
#
# Mechanical properties :
#
#
# Convention : Reuss Voigt Hill
#
# Bulk Modulus (GPa) = 61.56731 64.87198 63.21964
# Shear Modulus (GPa) = 24.65781 28.67890 26.66836
#
# Velocity S-wave (km/s) = 3.28766 3.54561 3.41907
# Velocity P-wave (km/s) = 6.43425 6.72297 6.58020
#
# Compressibility (1/GPa) = 0.01624239
#
# Stress axis : x y z
#
# Youngs Moduli (GPa) = 94.37330 108.11709 71.78804
#
# Poissons Ratio (x) = 0.24497 0.18859
# Poissons Ratio (y) = 0.21383 0.27809
# Poissons Ratio (z) = 0.24792 0.41882
#
# Static dielectric constant tensor:
#      x y z
#    x 4.498590 0.000000 -0.042120 
#    y 0.000000 4.086130 0.000000 
#    z -0.042120 0.000000 3.865600 
# 
# 
# High freq. dielectric constant tensor:
#      x y z
#    x 1.911800 0.000000 -0.000460 
#    y 0.000000 1.885760 0.000000 
#    z -0.000460 0.000000 1.884380 
# 
# From -- ./inp_files/130053.got.cif
#   From: 2010.06.25/outbox.cif.g09.slc.cpg/sg15_66_cif.got.tgz:130053.got - 2010.06.28 07:06:18.
