data_PCOD8132793
_publ_section_title
;
Structure prediction by ZEFSAII (Michael W. Deem and Ramdas Pophale) SiO2 
 PCOD8132793
Probable space group: C 2/C
;
_chemical_formula_sum "Si O2"
_cell_formula_units_Z 56
_cell_length_a 17.398523
_cell_length_b 9.172203
_cell_length_c 17.864262
_cell_angle_alpha 90.000000
_cell_angle_beta 60.858669
_cell_angle_gamma 90.000000
_cell_volume 2489.974126
_symmetry_space_group_name_H-M "C 2/C"
_symmetry_group_IT_number 15
_symmetry_cell_setting 'monoclinic'
loop_
_space_group_symop_operation_xyz
x,y,z
-x,y,1/2-z
-x,-y,-z
x,-y,1/2+z
1/2+x,1/2+y,z
1/2-x,1/2+y,1/2-z
1/2-x,1/2-y,-z
1/2+x,1/2-y,1/2+z
loop_
_atom_site_type_symbol
_atom_site_label
_atom_site_fract_x
_atom_site_fract_y
_atom_site_fract_z
Si Si1 0.814435 0.875000 0.121130
Si Si2 0.913579 0.531181 0.904689
Si Si3 0.716971 0.497288 0.020664
Si Si4 0.931732 0.781181 0.404689
Si Si5 0.145677 0.776770 0.669801
Si Si6 0.065477 0.973230 0.830199
Si Si7 0.987635 0.747288 0.979336
O O1 0.728479 0.777550 0.180240
O O2 0.841281 0.972451 0.180240
O O3 0.893754 0.768200 0.062817
O O4 0.793430 0.981801 0.062817
O O5 0.946107 0.375000 0.857787
O O6 0.907138 0.638076 0.836693
O O7 0.982310 0.599111 0.932645
O O8 0.820354 0.494983 0.990164
O O9 0.664955 0.349112 0.067356
O O10 0.675877 0.635606 0.082474
O O11 0.939482 0.744983 0.490164
O O12 0.006169 0.888075 0.336693
O O13 0.082043 0.875001 0.750000
O O14 0.008351 0.885605 0.917526
#
# Coordination Sequence:
#
# PCOD8132793 Si02
#       7
#     8   8   8   8   8   8   8
#     4  10  18  42  69  92 124 174 226 260 315 416
#     4  11  22  38  66 100 132 174 225 274 325 403
#     4  11  19  41  68  96 131 178 224 263 330 411
#     4  11  22  38  66 100 132 174 225 274 325 403
#     4  11  23  41  67  97 137 177 218 276 342 395
#     4  11  23  41  67  97 137 177 218 276 342 395
#     4  11  19  41  68  96 131 178 224 263 330 411
#
# _framework density 22.490192
#
# number of rings (size 3 to 8) (size 9 to 14) (size 15 to 20)
#    0.000    1.143    5.714    2.571    0.000    2.286 
#    2.571    2.857    0.000    0.000    0.000    0.000 
#    0.000    0.000    0.000    0.000    0.000    0.000 
#
# Total GULP energy -347161.088265 kJ/mol
# GULP energy per Si atom -12398.610295 kJ/mol
# Density = 2.243900 g / cm^3
# Si number density = 22.490192 Si / 1000 Ang^3
#
#
#
# Elastic Constant Matrix: (Units=GPa)
#
#
# Indices 1 2 3 4 5 6 
#
# 1 100.3065 50.2428 26.7420 0.0000 -1.7971 0.0000
# 2 50.2428 174.1389 48.1240 0.0000 -0.0928 0.0000
# 3 26.7420 48.1240 78.0549 0.0000 0.8229 0.0000
# 4 0.0000 0.0000 0.0000 24.6717 0.0000 -0.9186
# 5 -1.7971 -0.0928 0.8229 0.0000 16.3727 0.0000
# 6 0.0000 0.0000 0.0000 -0.9186 0.0000 45.6545
#
#
#
# Elastic Compliance Matrix: (Units=1/GPa)
#
#
# Indices 1 2 3 4 5 6 
#
# 1 0.012044 -0.002808 -0.002410 0.000000 0.001427 0.000000
# 2 -0.002808 0.007578 -0.003709 0.000000 -0.000079 0.000000
# 3 -0.002410 -0.003709 0.015935 0.000000 -0.001086 0.000000
# 4 0.000000 0.000000 0.000000 0.040563 0.000000 0.000816
# 5 0.001427 -0.000079 -0.001086 0.000000 0.061288 0.000000
# 6 0.000000 0.000000 0.000000 0.000816 0.000000 0.021920
#
#
# Mechanical properties :
#
#
# Convention : Reuss Voigt Hill
#
# Bulk Modulus (GPa) = 56.48859 66.96867 61.72863
# Shear Modulus (GPa) = 27.30991 32.49921 29.90456
#
# Velocity S-wave (km/s) = 3.48847 3.80549 3.65042
# Velocity P-wave (km/s) = 6.43408 7.01074 6.72859
#
# Compressibility (1/GPa) = 0.01770269
#
# Stress axis : x y z
#
# Youngs Moduli (GPa) = 83.02777 131.96552 62.75321
#
# Poissons Ratio (x) = 0.37059 0.15124
# Poissons Ratio (y) = 0.23316 0.23275
# Poissons Ratio (z) = 0.20010 0.48947
#
# Static dielectric constant tensor:
#      x y z
#    x 4.422240 0.000000 -0.036710 
#    y 0.000000 4.240610 0.000000 
#    z -0.036710 0.000000 3.583580 
# 
# 
# High freq. dielectric constant tensor:
#      x y z
#    x 1.895030 0.000000 -0.002230 
#    y 0.000000 1.894050 0.000000 
#    z -0.002230 0.000000 1.844190 
# 
# From -- ./inp_files/191028.got.cif
#   From: 2010.06.25/outbox.cif.g09.slc.cpg/sg15_96_cif.got.tgz:191028.got - 2010.06.28 07:06:18.
