data_PCOD8132905
_publ_section_title
;
Structure prediction by ZEFSAII (Michael W. Deem and Ramdas Pophale) SiO2 
 PCOD8132905
Probable space group: C 2/C
;
_chemical_formula_sum "Si O2"
_cell_formula_units_Z 52
_cell_length_a 19.137913
_cell_length_b 8.442605
_cell_length_c 25.418777
_cell_angle_alpha 90.000000
_cell_angle_beta 141.157319
_cell_angle_gamma 90.000000
_cell_volume 2575.851348
_symmetry_space_group_name_H-M "C 2/C"
_symmetry_group_IT_number 15
_symmetry_cell_setting 'monoclinic'
loop_
_space_group_symop_operation_xyz
x,y,z
-x,y,1/2-z
-x,-y,-z
x,-y,1/2+z
1/2+x,1/2+y,z
1/2-x,1/2+y,1/2-z
1/2-x,1/2-y,-z
1/2+x,1/2-y,1/2+z
loop_
_atom_site_type_symbol
_atom_site_label
_atom_site_fract_x
_atom_site_fract_y
_atom_site_fract_z
Si Si1 0.171835 0.384400 0.810237
Si Si2 0.192104 0.197026 0.717371
Si Si3 0.066649 0.384612 0.181286
Si Si4 0.510200 0.468085 0.649461
Si Si5 0.409194 0.428939 0.987928
Si Si6 0.000000 0.845609 0.250000
Si Si7 0.988155 0.395572 0.941396
O O1 0.207782 0.303385 0.777304
O O2 0.079857 0.519803 0.743536
O O3 0.282834 0.466067 0.897550
O O4 0.112348 0.259124 0.813543
O O5 0.310873 0.139247 0.769651
O O6 0.124191 0.037690 0.692121
O O7 0.128814 0.299607 0.634798
O O8 0.992578 0.487912 0.096984
O O9 0.011233 0.218048 0.161037
O O10 0.417684 0.494876 0.550612
O O11 0.480688 0.550758 0.686888
O O12 0.500000 0.500000 0.000000
O O13 0.417598 0.238597 0.998643
O O14 0.000000 0.500000 0.000000
#
# Coordination Sequence:
#
# PCOD8132905 Si02
#       7
#     8   8   8   8   8   4   8
#     4  10  21  37  60  82 115 158 199 239 284 358
#     4   9  18  33  54  84 117 152 190 242 307 353
#     4  11  20  34  59  87 114 149 194 248 301 349
#     4  10  21  37  57  82 119 153 194 243 288 352
#     4  11  21  36  60  92 121 148 187 249 311 343
#     4  10  24  44  58  78 114 170 208 226 278 346
#     4  10  19  30  50  83 122 149 181 233 296 361
#
# _framework density 20.187501999999999
#
# number of rings (size 3 to 8) (size 9 to 14) (size 15 to 20)
#    0.000    1.846    0.000    7.385    0.000    2.462 
#    0.000    0.000    0.000    2.769    0.000    0.000 
#    0.000    0.000    0.000    0.000    0.000    0.000 
#
# Total GULP energy -322271.085041 kJ/mol
# GULP energy per Si atom -12395.041732 kJ/mol
# Density = 2.014155 g / cm^3
# Si number density = 20.187502 Si / 1000 Ang^3
#
#
#
# Elastic Constant Matrix: (Units=GPa)
#
#
# Indices 1 2 3 4 5 6 
#
# 1 68.7999 35.3323 38.3739 0.0000 -15.8801 0.0000
# 2 35.3323 152.1178 51.8694 0.0000 -17.2062 0.0001
# 3 38.3739 51.8694 132.7439 0.0000 -21.0633 0.0000
# 4 0.0000 0.0000 0.0000 35.0322 0.0000 -2.7511
# 5 -15.8801 -17.2062 -21.0633 0.0000 23.5453 0.0000
# 6 0.0000 0.0001 0.0000 -2.7511 0.0000 19.2384
#
#
#
# Elastic Compliance Matrix: (Units=1/GPa)
#
#
# Indices 1 2 3 4 5 6 
#
# 1 0.019622 -0.002454 -0.003378 0.000000 0.008420 0.000000
# 2 -0.002454 0.008128 -0.002082 0.000000 0.002422 0.000000
# 3 -0.003378 -0.002082 0.010163 0.000000 0.005292 0.000000
# 4 0.000000 0.000000 0.000000 0.028869 0.000000 0.004128
# 5 0.008420 0.002422 0.005292 0.000000 0.054654 0.000000
# 6 0.000000 0.000000 0.000000 0.004128 0.000000 0.052570
#
#
# Mechanical properties :
#
#
# Convention : Reuss Voigt Hill
#
# Bulk Modulus (GPa) = 45.27776 67.20141 56.23958
# Shear Modulus (GPa) = 25.35558 30.76892 28.06225
#
# Velocity S-wave (km/s) = 3.54786 3.90828 3.73242
# Velocity P-wave (km/s) = 6.26581 7.32988 6.81863
#
# Compressibility (1/GPa) = 0.02208590
#
# Stress axis : x y z
#
# Youngs Moduli (GPa) = 50.96244 123.03592 98.39509
#
# Poissons Ratio (x) = 0.30188 0.33235
# Poissons Ratio (y) = 0.12504 0.20489
# Poissons Ratio (z) = 0.17214 0.25620
#
# Static dielectric constant tensor:
#      x y z
#    x 3.245490 0.000000 -0.195510 
#    y 0.000000 4.268930 0.000000 
#    z -0.195510 0.000000 3.893430 
# 
# 
# High freq. dielectric constant tensor:
#      x y z
#    x 1.743090 0.000000 -0.015090 
#    y 0.000000 1.809350 0.000000 
#    z -0.015090 0.000000 1.798640 
# 
# From -- ./inp_files/279520.got.cif
#   From: 2010.06.25/outbox.cif.g09.slc.cpg/sg15_140_cif.got.tgz:279520.got - 2010.06.28 07:06:18.
