data_PCOD8132893
_publ_section_title
;
Structure prediction by ZEFSAII (Michael W. Deem and Ramdas Pophale) SiO2 
 PCOD8132893
Probable space group: C 2/C
;
_chemical_formula_sum "Si O2"
_cell_formula_units_Z 52
_cell_length_a 12.137458
_cell_length_b 24.079463
_cell_length_c 12.300325
_cell_angle_alpha 90.000000
_cell_angle_beta 45.033902
_cell_angle_gamma 90.000000
_cell_volume 2543.507057
_symmetry_space_group_name_H-M "C 2/C"
_symmetry_group_IT_number 15
_symmetry_cell_setting 'monoclinic'
loop_
_space_group_symop_operation_xyz
x,y,z
-x,y,1/2-z
-x,-y,-z
x,-y,1/2+z
1/2+x,1/2+y,z
1/2-x,1/2+y,1/2-z
1/2-x,1/2-y,-z
1/2+x,1/2-y,1/2+z
loop_
_atom_site_type_symbol
_atom_site_label
_atom_site_fract_x
_atom_site_fract_y
_atom_site_fract_z
Si Si1 0.320231 0.186104 0.558407
Si Si2 0.634524 0.044192 0.498569
Si Si3 0.140403 0.425442 0.579338
Si Si4 0.686160 0.455850 0.836324
Si Si5 0.500000 0.747776 0.750000
Si Si6 0.353399 0.430168 0.038208
Si Si7 0.091465 0.642759 0.787347
O O1 0.300557 0.121353 0.543908
O O2 0.438002 0.215729 0.393496
O O3 0.403959 0.187241 0.618144
O O4 0.147580 0.211743 0.686049
O O5 0.676104 0.056717 0.344653
O O6 0.784275 0.053021 0.469949
O O7 0.493691 0.084228 0.628523
O O8 0.583388 0.980050 0.552489
O O9 0.280632 0.436247 0.564690
O O10 0.000000 0.402358 0.750000
O O11 0.662426 0.522281 0.857716
O O12 0.537647 0.421203 0.896235
O O13 0.269625 0.373542 0.135273
O O14 0.000000 0.671269 0.750000
#
# Coordination Sequence:
#
# PCOD8132893 Si02
#       7
#     8   8   8   8   4   8   8
#     4  11  23  44  66  88 118 150 204 260 320 357
#     4  10  19  33  53  84 128 163 198 237 281 366
#     4  11  21  33  57  88 116 162 206 240 298 368
#     4  10  19  30  48  77 118 162 204 238 281 341
#     4  10  26  46  66  90 114 152 200 280 314 346
#     4   9  19  32  46  78 121 158 197 241 284 343
#     4  10  21  38  63  90 123 163 194 238 302 370
#
# _framework density 20.444212
#
# number of rings (size 3 to 8) (size 9 to 14) (size 15 to 20)
#    0.000    1.846    0.769    4.615    2.154    1.846 
#    2.769    0.769    0.000    0.000    0.000    0.000 
#    0.000    0.000    0.000    0.000    0.000    0.000 
#
# Total GULP energy -322333.563810 kJ/mol
# GULP energy per Si atom -12397.444762 kJ/mol
# Density = 2.039768 g / cm^3
# Si number density = 20.444212 Si / 1000 Ang^3
#
#
#
# Elastic Constant Matrix: (Units=GPa)
#
#
# Indices 1 2 3 4 5 6 
#
# 1 119.0859 44.0966 50.3351 0.0000 0.0835 0.0000
# 2 44.0966 68.0019 27.7191 0.0000 6.1101 0.0000
# 3 50.3351 27.7191 94.0706 0.0000 6.3282 0.0000
# 4 0.0000 0.0000 0.0000 17.0658 0.0000 5.3729
# 5 0.0835 6.1101 6.3282 0.0000 36.0421 0.0000
# 6 0.0000 0.0000 0.0000 5.3729 0.0000 25.3611
#
#
#
# Elastic Compliance Matrix: (Units=1/GPa)
#
#
# Indices 1 2 3 4 5 6 
#
# 1 0.012984 -0.006491 -0.005168 0.000000 0.001978 0.000000
# 2 -0.006491 0.020100 -0.002248 0.000000 -0.002998 0.000000
# 3 -0.005168 -0.002248 0.014199 0.000000 -0.002100 0.000000
# 4 0.000000 0.000000 0.000000 0.062784 0.000000 -0.013301
# 5 0.001978 -0.002998 -0.002100 0.000000 0.028618 0.000000
# 6 0.000000 0.000000 0.000000 -0.013301 0.000000 0.042248
#
#
# Mechanical properties :
#
#
# Convention : Reuss Voigt Hill
#
# Bulk Modulus (GPa) = 51.36112 58.38445 54.87279
# Shear Modulus (GPa) = 23.23029 26.29431 24.76230
#
# Velocity S-wave (km/s) = 3.37453 3.59018 3.48402
# Velocity P-wave (km/s) = 6.35298 6.76800 6.56377
#
# Compressibility (1/GPa) = 0.01946998
#
# Stress axis : x y z
#
# Youngs Moduli (GPa) = 77.01999 49.75098 70.42659
#
# Poissons Ratio (x) = 0.32291 0.36395
# Poissons Ratio (y) = 0.49991 0.15833
# Poissons Ratio (z) = 0.39802 0.11185
#
# Static dielectric constant tensor:
#      x y z
#    x 3.909960 0.000000 0.098620 
#    y 0.000000 3.290500 0.000000 
#    z 0.098620 0.000000 3.687630 
# 
# 
# High freq. dielectric constant tensor:
#      x y z
#    x 1.819150 0.000000 0.003300 
#    y 0.000000 1.748770 0.000000 
#    z 0.003300 0.000000 1.800110 
# 
# From -- ./inp_files/33519.got.cif
#   From: 2010.06.25/outbox.cif.g09.slc.cpg/sg15_17_cif.got.tgz:33519.got - 2010.06.28 07:06:18.
