data_PCOD8132518
_publ_section_title
;
Structure prediction by ZEFSAII (Michael W. Deem and Ramdas Pophale) SiO2 
 PCOD8132518
Probable space group: C 2/C
;
_chemical_formula_sum "Si O2"
_cell_formula_units_Z 48
_cell_length_a 28.133137
_cell_length_b 9.328745
_cell_length_c 17.242575
_cell_angle_alpha 90.000000
_cell_angle_beta 147.321758
_cell_angle_gamma 90.000000
_cell_volume 2443.281463
_symmetry_space_group_name_H-M "C 2/C"
_symmetry_group_IT_number 15
_symmetry_cell_setting 'monoclinic'
loop_
_space_group_symop_operation_xyz
x,y,z
-x,y,1/2-z
-x,-y,-z
x,-y,1/2+z
1/2+x,1/2+y,z
1/2-x,1/2+y,1/2-z
1/2-x,1/2-y,-z
1/2+x,1/2-y,1/2+z
loop_
_atom_site_type_symbol
_atom_site_label
_atom_site_fract_x
_atom_site_fract_y
_atom_site_fract_z
Si Si1 0.242544 0.092839 0.645069
Si Si2 0.588945 0.516767 0.670893
Si Si3 0.914015 0.830767 0.681044
Si Si4 0.826238 0.149892 0.340743
Si Si5 0.076990 0.586067 0.693259
Si Si6 0.005070 0.709927 0.068231
O O1 0.170344 0.152938 0.488049
O O2 0.261051 0.217437 0.733629
O O3 0.329114 0.054004 0.715795
O O4 0.211194 0.945565 0.641318
O O5 0.500000 0.500000 0.500000
O O6 0.589071 0.441388 0.753335
O O7 0.667857 0.451488 0.727942
O O8 0.592159 0.688387 0.690644
O O9 0.914384 0.668607 0.713909
O O10 0.000000 0.863087 0.750000
O O11 0.921861 0.213753 0.496042
O O12 0.019735 0.682820 0.555879
O O13 0.027119 0.437513 0.642139
#
# Coordination Sequence:
#
# PCOD8132518 Si02
#       6
#     8   8   8   8   8   8
#     4  11  24  40  64  94 129 159 218 260 322 365
#     4  10  18  38  60  88 121 160 208 253 307 373
#     4  12  23  38  64  93 123 171 209 259 313 376
#     4  10  22  39  63  92 123 168 208 263 310 387
#     4  10  21  38  62  92 127 162 203 269 301 371
#     4   9  19  38  64  86 121 164 212 242 320 367
#
# _framework density 19.645710999999999
#
# number of rings (size 3 to 8) (size 9 to 14) (size 15 to 20)
#    0.000    1.667    5.000    2.500    2.333    2.667 
#    0.000    5.000    0.000    0.000    0.000    0.000 
#    0.000    0.000    0.000    0.000    0.000    0.000 
#
# Total GULP energy -297539.814514 kJ/mol
# GULP energy per Si atom -12397.492271 kJ/mol
# Density = 1.960100 g / cm^3
# Si number density = 19.645711 Si / 1000 Ang^3
#
#
#
# Elastic Constant Matrix: (Units=GPa)
#
#
# Indices 1 2 3 4 5 6 
#
# 1 68.3220 21.1780 23.9029 0.0000 4.9025 0.0000
# 2 21.1780 103.9475 48.2775 0.0000 14.3166 0.0000
# 3 23.9029 48.2775 86.5930 0.0000 1.9844 0.0000
# 4 0.0000 0.0000 0.0000 35.3498 0.0000 -4.1838
# 5 4.9025 14.3166 1.9844 0.0000 18.4612 0.0000
# 6 0.0000 0.0000 0.0000 -4.1838 0.0000 67.0684
#
#
#
# Elastic Compliance Matrix: (Units=1/GPa)
#
#
# Indices 1 2 3 4 5 6 
#
# 1 0.016566 -0.001159 -0.003856 0.000000 -0.003086 0.000000
# 2 -0.001159 0.014884 -0.007740 0.000000 -0.010403 0.000000
# 3 -0.003856 -0.007740 0.016808 0.000000 0.005219 0.000000
# 4 0.000000 0.000000 0.000000 0.028499 0.000000 0.001778
# 5 -0.003086 -0.010403 0.005219 0.000000 0.062493 0.000000
# 6 0.000000 0.000000 0.000000 0.001778 0.000000 0.015021
#
#
# Mechanical properties :
#
#
# Convention : Reuss Voigt Hill
#
# Bulk Modulus (GPa) = 43.95894 49.50882 46.73388
# Shear Modulus (GPa) = 26.68603 35.20949 30.94776
#
# Velocity S-wave (km/s) = 3.68960 4.23806 3.97330
# Velocity P-wave (km/s) = 6.36987 7.01454 6.69996
#
# Compressibility (1/GPa) = 0.02274850
#
# Stress axis : x y z
#
# Youngs Moduli (GPa) = 60.36323 67.18727 59.49540
#
# Poissons Ratio (x) = 0.07790 0.22941
# Poissons Ratio (y) = 0.06998 0.46047
# Poissons Ratio (z) = 0.23275 0.52000
#
# Static dielectric constant tensor:
#      x y z
#    x 3.471840 0.000000 0.116410 
#    y 0.000000 4.213920 0.000000 
#    z 0.116410 0.000000 3.498200 
# 
# 
# High freq. dielectric constant tensor:
#      x y z
#    x 1.750950 0.000000 0.006830 
#    y 0.000000 1.784830 0.000000 
#    z 0.006830 0.000000 1.746310 
# 
# From -- ./inp_files/177018.got.cif
#   From: 2010.06.25/outbox.cif.g09.slc.cpg/sg15_89_cif.got.tgz:177018.got - 2010.06.28 07:06:18.
