data_PCOD8132084
_publ_section_title
;
Structure prediction by ZEFSAII (Michael W. Deem and Ramdas Pophale) SiO2 
 PCOD8132084
Probable space group: C 2/C
;
_chemical_formula_sum "Si O2"
_cell_formula_units_Z 44
_cell_length_a 10.901913
_cell_length_b 14.355874
_cell_length_c 19.372430
_cell_angle_alpha 90.000000
_cell_angle_beta 138.110255
_cell_angle_gamma 90.000000
_cell_volume 2024.404936
_symmetry_space_group_name_H-M "C 2/C"
_symmetry_group_IT_number 15
_symmetry_cell_setting 'monoclinic'
loop_
_space_group_symop_operation_xyz
x,y,z
-x,y,1/2-z
-x,-y,-z
x,-y,1/2+z
1/2+x,1/2+y,z
1/2-x,1/2+y,1/2-z
1/2-x,1/2-y,-z
1/2+x,1/2-y,1/2+z
loop_
_atom_site_type_symbol
_atom_site_label
_atom_site_fract_x
_atom_site_fract_y
_atom_site_fract_z
Si Si1 0.317554 0.998101 0.632300
Si Si2 0.368796 0.622771 0.338696
Si Si3 0.491752 0.161408 0.124599
Si Si4 0.607947 0.182253 0.571739
Si Si5 0.500000 0.306850 0.250000
Si Si6 0.758274 0.640574 0.496842
O O1 0.500000 0.019932 0.750000
O O2 0.257550 0.094628 0.572398
O O3 0.163955 0.961649 0.621236
O O4 0.357168 0.922432 0.589288
O O5 0.205280 0.628383 0.214353
O O6 0.383873 0.717821 0.388700
O O7 0.564515 0.606506 0.381424
O O8 0.470352 0.243401 0.170507
O O9 0.431470 0.198059 0.025167
O O10 0.444501 0.115526 0.532818
O O11 0.808718 0.133807 0.671913
O O12 0.750000 0.750000 0.500000
#
# Coordination Sequence:
#
# PCOD8132084 Si02
#       6
#     8   8   8   8   4   8
#     4  10  19  38  62  85 112 164 212 241 285 367
#     4   9  19  38  59  89 120 162 206 238 293 376
#     4  10  18  35  64  84 116 159 206 251 292 351
#     4  10  20  35  57  92 121 158 196 261 301 346
#     4  10  18  36  58  88 122 154 220 244 292 372
#     4  10  22  39  53  87 127 151 197 253 309 362
#
# _framework density 21.734783
#
# number of rings (size 3 to 8) (size 9 to 14) (size 15 to 20)
#    0.000    2.182    4.545    1.091    0.000    1.455 
#   19.636    3.636    0.000    0.000    0.000    0.000 
#    0.000    0.000    0.000    0.000    0.000    0.000 
#
# Total GULP energy -272544.628019 kJ/mol
# GULP energy per Si atom -12388.392183 kJ/mol
# Density = 2.168531 g / cm^3
# Si number density = 21.734783 Si / 1000 Ang^3
#
#
#
# Elastic Constant Matrix: (Units=GPa)
#
#
# Indices 1 2 3 4 5 6 
#
# 1 111.0667 13.3282 73.1586 0.0000 47.1783 0.0000
# 2 13.3282 44.3932 21.9682 0.0000 7.2957 0.0000
# 3 73.1586 21.9682 117.5024 0.0001 20.0722 0.0000
# 4 0.0000 0.0000 0.0001 25.7567 0.0000 -10.4590
# 5 47.1783 7.2957 20.0722 0.0000 54.1267 0.0000
# 6 0.0000 0.0000 0.0000 -10.4590 0.0000 20.7588
#
#
#
# Elastic Compliance Matrix: (Units=1/GPa)
#
#
# Indices 1 2 3 4 5 6 
#
# 1 0.024038 0.001665 -0.012449 0.000000 -0.016560 0.000000
# 2 0.001665 0.025091 -0.005234 0.000000 -0.002892 0.000000
# 3 -0.012449 -0.005234 0.016298 0.000000 0.005512 0.000000
# 4 0.000000 0.000000 0.000000 0.048811 0.000000 0.024593
# 5 -0.016560 -0.002892 0.005512 0.000000 0.031255 0.000000
# 6 0.000000 0.000000 0.000000 0.024593 0.000000 0.060563
#
#
# Mechanical properties :
#
#
# Convention : Reuss Voigt Hill
#
# Bulk Modulus (GPa) = 29.94678 54.43027 42.18852
# Shear Modulus (GPa) = 20.06234 31.09558 25.57896
#
# Velocity S-wave (km/s) = 3.04147 3.78654 3.43427
# Velocity P-wave (km/s) = 5.11295 6.64940 5.93114
#
# Compressibility (1/GPa) = 0.03339258
#
# Stress axis : x y z
#
# Youngs Moduli (GPa) = 41.60060 39.85444 61.35661
#
# Poissons Ratio (x) = -0.06636 0.76382
# Poissons Ratio (y) = -0.06926 0.32112
# Poissons Ratio (z) = 0.51788 0.20858
#
# Static dielectric constant tensor:
#      x y z
#    x 4.772020 0.000000 0.948660 
#    y 0.000000 3.555900 0.000000 
#    z 0.948660 0.000000 4.399220 
# 
# 
# High freq. dielectric constant tensor:
#      x y z
#    x 1.852220 0.000000 0.032870 
#    y 0.000000 1.813270 0.000000 
#    z 0.032870 0.000000 1.866110 
# 
# From -- ./inp_files/238882.got.cif
#   From: 2010.06.25/outbox.cif.g09.slc.cpg/sg15_120_cif.got.tgz:238882.got - 2010.06.28 07:06:18.
