data_PCOD8132816
_publ_section_title
;
Structure prediction by ZEFSAII (Michael W. Deem and Ramdas Pophale) SiO2 
 PCOD8132816
Probable space group: C 2/C
;
_chemical_formula_sum "Si O2"
_cell_formula_units_Z 56
_cell_length_a 32.538376
_cell_length_b 14.776947
_cell_length_c 9.433755
_cell_angle_alpha 90.000000
_cell_angle_beta 45.703419
_cell_angle_gamma 90.000000
_cell_volume 3246.512494
_symmetry_space_group_name_H-M "C 2/C"
_symmetry_group_IT_number 15
_symmetry_cell_setting 'monoclinic'
loop_
_space_group_symop_operation_xyz
x,y,z
-x,y,1/2-z
-x,-y,-z
x,-y,1/2+z
1/2+x,1/2+y,z
1/2-x,1/2+y,1/2-z
1/2-x,1/2-y,-z
1/2+x,1/2-y,1/2+z
loop_
_atom_site_type_symbol
_atom_site_label
_atom_site_fract_x
_atom_site_fract_y
_atom_site_fract_z
Si Si1 0.128775 0.160670 0.991856
Si Si2 0.662090 0.223765 0.658056
Si Si3 0.025916 0.099385 0.421716
Si Si4 0.731025 0.606734 0.108282
Si Si5 0.315497 0.493466 0.523175
Si Si6 0.902794 0.150542 0.734341
Si Si7 0.563338 0.271683 0.066182
O O1 0.147332 0.250103 0.032015
O O2 0.068002 0.117301 0.188599
O O3 0.129853 0.190139 0.824495
O O4 0.175094 0.081827 0.903801
O O5 0.689660 0.310150 0.670310
O O6 0.702674 0.136733 0.564765
O O7 0.601557 0.201550 0.882293
O O8 0.056095 0.133534 0.495552
O O9 0.969135 0.157000 0.531552
O O10 0.000000 0.000000 0.500000
O O11 0.719845 0.578531 0.298102
O O12 0.720501 0.522180 0.028942
O O13 0.376719 0.450060 0.326866
O O14 0.898089 0.210464 0.887066
O O15 0.500000 0.230444 0.250000
#
# Coordination Sequence:
#
# PCOD8132816 Si02
#       7
#     8   8   8   8   8   8   8
#     4  10  20  30  44  67  96 133 165 201 240 278
#     4   9  19  36  49  66  99 136 162 195 252 300
#     4  10  19  27  41  64 100 137 165 188 227 280
#     4  10  20  34  51  68  96 132 166 206 246 286
#     4  11  19  30  47  69  91 125 170 207 239 274
#     4  11  19  27  43  67  98 124 166 205 223 273
#     4   9  19  31  47  70  97 132 164 195 235 292
#
# _framework density 17.249278
#
# number of rings (size 3 to 8) (size 9 to 14) (size 15 to 20)
#    0.000    2.000    4.286    0.429    2.000    1.143 
#    0.000    2.143    0.000    0.000    0.000    1.000 
#    0.000    0.000    0.000    0.000    0.000    0.000 
#
# Total GULP energy -346937.882838 kJ/mol
# GULP energy per Si atom -12390.638673 kJ/mol
# Density = 1.721002 g / cm^3
# Si number density = 17.249278 Si / 1000 Ang^3
#
#
#
# Elastic Constant Matrix: (Units=GPa)
#
#
# Indices 1 2 3 4 5 6 
#
# 1 93.3696 23.5175 45.9015 0.0000 12.1535 0.0000
# 2 23.5175 27.1010 24.4509 0.0000 -3.1743 0.0000
# 3 45.9015 24.4509 87.9830 0.0000 0.4541 0.0000
# 4 0.0000 0.0000 0.0000 18.3984 0.0000 -7.0157
# 5 12.1535 -3.1743 0.4541 0.0000 33.1349 0.0000
# 6 0.0000 0.0000 0.0000 -7.0157 0.0000 22.2771
#
#
#
# Elastic Compliance Matrix: (Units=1/GPa)
#
#
# Indices 1 2 3 4 5 6 
#
# 1 0.017244 -0.010314 -0.006093 0.000000 -0.007230 0.000000
# 2 -0.010314 0.056226 -0.010293 0.000000 0.009310 0.000000
# 3 -0.006093 -0.010293 0.017400 0.000000 0.001010 0.000000
# 4 0.000000 0.000000 0.000000 0.061770 0.000000 0.019453
# 5 -0.007230 0.009310 0.001010 0.000000 0.033709 0.000000
# 6 0.000000 0.000000 0.000000 0.019453 0.000000 0.051016
#
#
# Mechanical properties :
#
#
# Convention : Reuss Voigt Hill
#
# Bulk Modulus (GPa) = 26.68732 44.02148 35.35440
# Shear Modulus (GPa) = 16.48783 22.40100 19.44441
#
# Velocity S-wave (km/s) = 3.09505 3.60761 3.36111
# Velocity P-wave (km/s) = 5.31766 6.55204 5.96686
#
# Compressibility (1/GPa) = 0.03747098
#
# Stress axis : x y z
#
# Youngs Moduli (GPa) = 57.99015 17.78549 57.47215
#
# Poissons Ratio (x) = 0.18344 0.35018
# Poissons Ratio (y) = 0.59810 0.59154
# Poissons Ratio (z) = 0.35333 0.18306
#
# Static dielectric constant tensor:
#      x y z
#    x 3.346290 0.000000 0.004170 
#    y 0.000000 2.633660 0.000000 
#    z 0.004170 0.000000 3.395700 
# 
# 
# High freq. dielectric constant tensor:
#      x y z
#    x 1.668180 0.000000 0.008690 
#    y 0.000000 1.589050 0.000000 
#    z 0.008690 0.000000 1.676170 
# 
# From -- ./inp_files/62262.got.cif
#   From: 2010.06.25/outbox.cif.g09.slc.cpg/sg15_32_cif.got.tgz:62262.got - 2010.06.28 07:06:18.
