data_PCOD8132776
_publ_section_title
;
Structure prediction by ZEFSAII (Michael W. Deem and Ramdas Pophale) SiO2 
 PCOD8132776
Probable space group: C 2/C
;
_chemical_formula_sum "Si O2"
_cell_formula_units_Z 44
_cell_length_a 21.146922
_cell_length_b 17.886506
_cell_length_c 13.312072
_cell_angle_alpha 90.000000
_cell_angle_beta 23.685429
_cell_angle_gamma 90.000000
_cell_volume 2022.722354
_symmetry_space_group_name_H-M "C 2/C"
_symmetry_group_IT_number 15
_symmetry_cell_setting 'monoclinic'
loop_
_space_group_symop_operation_xyz
x,y,z
-x,y,1/2-z
-x,-y,-z
x,-y,1/2+z
1/2+x,1/2+y,z
1/2-x,1/2+y,1/2-z
1/2-x,1/2-y,-z
1/2+x,1/2-y,1/2+z
loop_
_atom_site_type_symbol
_atom_site_label
_atom_site_fract_x
_atom_site_fract_y
_atom_site_fract_z
Si Si1 0.248836 0.447290 0.500902
Si Si2 0.292708 0.924049 0.724899
Si Si3 0.538715 0.533489 0.050304
Si Si4 0.500000 0.041260 0.750000
Si Si5 0.375830 0.676789 0.670465
Si Si6 0.400789 0.721789 0.995196
O O1 0.147257 0.423107 0.746714
O O2 0.393815 0.501611 0.328937
O O3 0.303983 0.372007 0.365956
O O4 0.142938 0.490901 0.576986
O O5 0.435336 0.909982 0.438389
O O6 0.158442 0.862629 0.906822
O O7 0.211899 0.005021 0.827996
O O8 0.500000 0.500000 0.000000
O O9 0.540428 0.623892 0.035512
O O10 0.495276 0.734329 0.554037
O O11 0.245450 0.721922 0.797693
O O12 0.500000 0.732077 0.750000
#
# Coordination Sequence:
#
# PCOD8132776 Si02
#       6
#     8   8   8   4   8   8
#     4  11  22  40  66  97 124 165 222 268 328 379
#     4  12  22  40  67  93 124 173 219 268 328 380
#     4  10  18  41  67  87 122 171 211 264 318 385
#     4  12  24  38  62  96 134 156 218 288 314 378
#     4  11  23  38  66  96 134 167 209 273 325 385
#     4  12  23  39  62  96 130 170 214 264 327 386
#
# _framework density 21.752862
#
# number of rings (size 3 to 8) (size 9 to 14) (size 15 to 20)
#    0.000    0.727    9.091    1.636    1.273    0.000 
#    3.273    0.000    4.000    2.182    0.000    0.000 
#    0.000    0.000    0.000    0.000    0.000    0.000 
#
# Total GULP energy -272624.109541 kJ/mol
# GULP energy per Si atom -12392.004979 kJ/mol
# Density = 2.170335 g / cm^3
# Si number density = 21.752862 Si / 1000 Ang^3
#
#
#
# Elastic Constant Matrix: (Units=GPa)
#
#
# Indices 1 2 3 4 5 6 
#
# 1 51.1210 34.6484 37.0612 -0.0029 -1.7914 0.0002
# 2 34.6484 81.1020 26.2089 -0.0072 -16.4982 0.0038
# 3 37.0612 26.2089 84.7413 -0.0066 7.2102 0.0047
# 4 -0.0029 -0.0072 -0.0066 26.6287 0.0031 -10.8335
# 5 -1.7914 -16.4982 7.2102 0.0031 48.3820 -0.0002
# 6 0.0002 0.0038 0.0047 -10.8335 -0.0002 20.0109
#
#
#
# Elastic Compliance Matrix: (Units=1/GPa)
#
#
# Indices 1 2 3 4 5 6 
#
# 1 0.036331 -0.011758 -0.012181 0.000000 -0.000849 0.000005
# 2 -0.011758 0.019037 -0.001277 0.000002 0.006246 -0.000002
# 3 -0.012181 -0.001277 0.017824 0.000002 -0.003543 -0.000003
# 4 0.000000 0.000002 0.000002 0.048161 -0.000003 0.026073
# 5 -0.000849 0.006246 -0.003543 -0.000003 0.023295 -0.000001
# 6 0.000005 -0.000002 -0.000003 0.026073 -0.000001 0.064089
#
#
# Mechanical properties :
#
#
# Convention : Reuss Voigt Hill
#
# Bulk Modulus (GPa) = 43.93417 45.86682 44.90050
# Shear Modulus (GPa) = 18.74377 26.94072 22.84224
#
# Velocity S-wave (km/s) = 2.93860 3.52304 3.24401
# Velocity P-wave (km/s) = 5.63513 6.13842 5.89215
#
# Compressibility (1/GPa) = 0.02276133
#
# Stress axis : x y z
#
# Youngs Moduli (GPa) = 27.52433 52.53008 56.10382
#
# Poissons Ratio (x) = 0.61765 0.68338
# Poissons Ratio (y) = 0.32363 0.07164
# Poissons Ratio (z) = 0.33526 0.06708
#
# Static dielectric constant tensor:
#      x y z
#    x 4.140720 0.000000 0.224920 
#    y 0.000000 3.740350 0.000020 
#    z 0.224920 0.000020 4.735240 
# 
# 
# High freq. dielectric constant tensor:
#      x y z
#    x 1.865820 0.000000 -0.004340 
#    y 0.000000 1.826600 0.000000 
#    z -0.004340 0.000000 1.842410 
# 
# From -- ./inp_files/174173.got.cif
#   From: 2010.06.25/outbox.cif.g09.slc.cpg/sg15_88_cif.got.tgz:174173.got - 2010.06.28 07:06:18.
