data_PCOD8132369
_publ_section_title
;
Structure prediction by ZEFSAII (Michael W. Deem and Ramdas Pophale) SiO2 
 PCOD8132369
Probable space group: C 2/C
;
_chemical_formula_sum "Si O2"
_cell_formula_units_Z 48
_cell_length_a 14.845423
_cell_length_b 11.116630
_cell_length_c 14.390245
_cell_angle_alpha 90.000000
_cell_angle_beta 67.197152
_cell_angle_gamma 90.000000
_cell_volume 2189.229525
_symmetry_space_group_name_H-M "C 2/C"
_symmetry_group_IT_number 15
_symmetry_cell_setting 'monoclinic'
loop_
_space_group_symop_operation_xyz
x,y,z
-x,y,1/2-z
-x,-y,-z
x,-y,1/2+z
1/2+x,1/2+y,z
1/2-x,1/2+y,1/2-z
1/2-x,1/2-y,-z
1/2+x,1/2-y,1/2+z
loop_
_atom_site_type_symbol
_atom_site_label
_atom_site_fract_x
_atom_site_fract_y
_atom_site_fract_z
Si Si1 0.297641 0.408481 0.570809
Si Si2 0.426576 0.789945 0.363312
Si Si3 0.086951 0.439935 0.643978
Si Si4 0.925151 0.049334 0.657863
Si Si5 0.027505 0.263675 0.519654
Si Si6 0.126317 0.962830 0.622565
O O1 0.185727 0.371146 0.638791
O O2 0.338424 0.504617 0.627647
O O3 0.365899 0.292539 0.541231
O O4 0.292651 0.471188 0.471098
O O5 0.500000 0.768517 0.250000
O O6 0.477726 0.787401 0.442199
O O7 0.348616 0.680054 0.379897
O O8 0.378505 0.920851 0.374571
O O9 0.047786 0.390545 0.561622
O O10 0.000000 0.419834 0.750000
O O11 0.958702 0.183331 0.615179
O O12 0.884352 0.039636 0.778939
O O13 0.021505 0.965059 0.609257
#
# Coordination Sequence:
#
# PCOD8132369 Si02
#       6
#     8   8   8   8   8   8
#     4  11  21  42  66  99 122 164 224 267 312 378
#     4  11  20  42  66  90 132 174 206 255 326 387
#     4  11  28  43  59  91 141 174 203 260 335 389
#     4  10  19  37  71 100 122 155 217 277 312 363
#     4  11  21  43  70  93 126 169 217 270 318 374
#     4  10  18  36  71  99 122 157 217 267 318 361
#
# _framework density 21.925521
#
# number of rings (size 3 to 8) (size 9 to 14) (size 15 to 20)
#    0.000    1.333    5.000    2.000    4.667    0.667 
#    9.000    0.000    0.000    0.000    0.000    0.000 
#    0.000    0.000    0.000    0.000    0.000    0.000 
#
# Total GULP energy -297473.980045 kJ/mol
# GULP energy per Si atom -12394.749169 kJ/mol
# Density = 2.187562 g / cm^3
# Si number density = 21.925521 Si / 1000 Ang^3
#
#
#
# Elastic Constant Matrix: (Units=GPa)
#
#
# Indices 1 2 3 4 5 6 
#
# 1 73.8661 2.0133 59.0274 0.0000 -2.3217 0.0000
# 2 2.0133 44.3859 12.3952 0.0000 0.0355 0.0000
# 3 59.0274 12.3952 95.0389 0.0000 -0.3561 0.0000
# 4 0.0000 0.0000 0.0000 -90.1318 0.0000 52.1591
# 5 -2.3217 0.0355 -0.3561 0.0000 31.3868 0.0000
# 6 0.0000 0.0000 0.0000 52.1591 0.0000 10.6765
#
#
#
# Elastic Compliance Matrix: (Units=1/GPa)
#
#
# Indices 1 2 3 4 5 6 
#
# 1 0.027541 0.003657 -0.017575 0.000000 0.001834 0.000000
# 2 0.003657 0.023867 -0.005384 0.000000 0.000182 0.000000
# 3 -0.017575 -0.005384 0.022136 0.000000 -0.001043 0.000000
# 4 0.000000 0.000000 0.000000 -0.002899 0.000000 0.014163
# 5 0.001834 0.000182 -0.001043 0.000000 0.031984 0.000000
# 6 0.000000 0.000000 0.000000 0.014163 0.000000 0.024473
#
#
# Mechanical properties :
#
#
# Convention : Reuss Voigt Hill
#
# Bulk Modulus (GPa) = 28.62002 40.01808 34.31905
# Shear Modulus (GPa) = 28.19254 -0.29003 13.95126
#
# Velocity S-wave (km/s) = 3.58974 -0.36410 2.52524
# Velocity P-wave (km/s) = 5.50121 4.25614 4.91823
#
# Compressibility (1/GPa) = 0.03494058
#
# Stress axis : x y z
#
# Youngs Moduli (GPa) = 36.31011 41.89876 45.17532
#
# Poissons Ratio (x) = -0.15324 0.79397
# Poissons Ratio (y) = -0.13280 0.24321
# Poissons Ratio (z) = 0.63816 0.22557
#
# Static dielectric constant tensor:
#      x y z
#    x 3.642430 0.000000 0.130100 
#    y 0.000000 4.098250 0.000000 
#    z 0.130100 0.000000 4.055440 
# 
# 
# High freq. dielectric constant tensor:
#      x y z
#    x 1.835080 0.000000 0.012660 
#    y 0.000000 1.863160 0.000000 
#    z 0.012660 0.000000 1.868740 
# 
# From -- ./inp_files/152463.got.cif
#   From: 2010.06.25/outbox.cif.g09.slc.cpg/sg15_77_cif.got.tgz:152463.got - 2010.06.28 07:06:18.
