data_PCOD8132394
_publ_section_title
;
Structure prediction by ZEFSAII (Michael W. Deem and Ramdas Pophale) SiO2 
 PCOD8132394
Probable space group: C 2/C
;
_chemical_formula_sum "Si O2"
_cell_formula_units_Z 48
_cell_length_a 23.183448
_cell_length_b 9.558231
_cell_length_c 13.220695
_cell_angle_alpha 90.000000
_cell_angle_beta 71.026713
_cell_angle_gamma 90.000000
_cell_volume 2770.445228
_symmetry_space_group_name_H-M "C 2/C"
_symmetry_group_IT_number 15
_symmetry_cell_setting 'monoclinic'
loop_
_space_group_symop_operation_xyz
x,y,z
-x,y,1/2-z
-x,-y,-z
x,-y,1/2+z
1/2+x,1/2+y,z
1/2-x,1/2+y,1/2-z
1/2-x,1/2-y,-z
1/2+x,1/2-y,1/2+z
loop_
_atom_site_type_symbol
_atom_site_label
_atom_site_fract_x
_atom_site_fract_y
_atom_site_fract_z
Si Si1 0.938772 0.202099 0.154561
Si Si2 0.076469 0.201730 0.099514
Si Si3 0.816403 0.402840 0.500308
Si Si4 0.253454 0.330845 0.154808
Si Si5 0.135983 0.021045 0.435626
Si Si6 0.166582 0.317101 0.392677
O O1 0.925888 0.196927 0.279742
O O2 0.915288 0.054820 0.120392
O O3 0.899094 0.328755 0.127718
O O4 0.009725 0.225194 0.089867
O O5 0.117966 0.328714 0.037509
O O6 0.104456 0.053491 0.048904
O O7 0.788658 0.408589 0.403786
O O8 0.770429 0.322760 0.602281
O O9 0.825048 0.560393 0.532377
O O10 0.313814 0.420041 0.141966
O O11 0.219796 0.314312 0.279619
O O12 0.167448 0.168075 0.452292
#
# Coordination Sequence:
#
# PCOD8132394 Si02
#       6
#     8   8   8   8   8   8
#     4   9  20  35  57  77 102 139 185 215 263 313
#     4  10  18  37  59  73 104 143 180 217 260 325
#     4  10  20  33  56  77 103 144 173 214 265 316
#     4  10  19  35  53  76 109 140 177 206 263 330
#     4   9  20  33  54  81 103 140 175 222 259 312
#     4  10  20  34  51  83 106 132 178 220 264 307
#
# _framework density 17.325734000000001
#
# number of rings (size 3 to 8) (size 9 to 14) (size 15 to 20)
#    1.000    1.333    1.667    1.500    0.000    1.333 
#    0.000    3.333    0.000    2.000    0.000    0.000 
#    0.000    0.000    0.000    0.000    0.000    0.000 
#
# Total GULP energy -297442.848327 kJ/mol
# GULP energy per Si atom -12393.452014 kJ/mol
# Density = 1.728630 g / cm^3
# Si number density = 17.325734 Si / 1000 Ang^3
#
#
#
# Elastic Constant Matrix: (Units=GPa)
#
#
# Indices 1 2 3 4 5 6 
#
# 1 72.6238 -1.6141 12.0307 0.0000 -14.9263 0.0000
# 2 -1.6141 63.3907 22.0815 0.0000 -9.2210 0.0000
# 3 12.0307 22.0815 57.0766 0.0000 -21.9229 0.0000
# 4 0.0000 0.0000 0.0000 21.9803 0.0000 4.9806
# 5 -14.9263 -9.2210 -21.9229 0.0000 23.1841 0.0000
# 6 0.0000 0.0000 0.0000 4.9806 0.0000 28.0620
#
#
#
# Elastic Compliance Matrix: (Units=1/GPa)
#
#
# Indices 1 2 3 4 5 6 
#
# 1 0.016115 0.001995 0.000190 0.000000 0.011349 0.000000
# 2 0.001995 0.018491 -0.006684 0.000000 0.002319 0.000000
# 3 0.000190 -0.006684 0.029981 0.000000 0.025814 0.000000
# 4 0.000000 0.000000 0.000000 0.047402 0.000000 -0.008413
# 5 0.011349 0.002319 0.025814 0.000000 0.075772 0.000000
# 6 0.000000 0.000000 0.000000 -0.008413 0.000000 0.037129
#
#
# Mechanical properties :
#
#
# Convention : Reuss Voigt Hill
#
# Bulk Modulus (GPa) = 17.98867 28.67635 23.33251
# Shear Modulus (GPa) = 19.80852 25.35147 22.57999
#
# Velocity S-wave (km/s) = 3.38494 3.82936 3.61399
# Velocity P-wave (km/s) = 5.06777 6.01160 5.55975
#
# Compressibility (1/GPa) = 0.05559054
#
# Stress axis : x y z
#
# Youngs Moduli (GPa) = 62.05464 54.07897 33.35428
#
# Poissons Ratio (x) = -0.10788 -0.00635
# Poissons Ratio (y) = -0.12378 0.22293
# Poissons Ratio (z) = -0.01182 0.36145
#
# Static dielectric constant tensor:
#      x y z
#    x 3.450300 0.000000 -0.171330 
#    y 0.000000 3.073180 0.000000 
#    z -0.171330 0.000000 3.064320 
# 
# 
# High freq. dielectric constant tensor:
#      x y z
#    x 1.677440 0.000000 -0.011740 
#    y 0.000000 1.654590 0.000000 
#    z -0.011740 0.000000 1.661790 
# 
# From -- ./inp_files/171315.got.cif
#   From: 2010.06.25/outbox.cif.g09.slc.cpg/sg15_86_cif.got.tgz:171315.got - 2010.06.28 07:06:18.
