data_PCOD8132229
_publ_section_title
;
Structure prediction by ZEFSAII (Michael W. Deem and Ramdas Pophale) SiO2 
 PCOD8132229
Probable space group: C 2/C
;
_chemical_formula_sum "Si O2"
_cell_formula_units_Z 64
_cell_length_a 29.415879
_cell_length_b 8.403008
_cell_length_c 24.602900
_cell_angle_alpha 90.000000
_cell_angle_beta 152.488574
_cell_angle_gamma 90.000000
_cell_volume 2809.149417
_symmetry_space_group_name_H-M "C 2/C"
_symmetry_group_IT_number 15
_symmetry_cell_setting 'monoclinic'
loop_
_space_group_symop_operation_xyz
x,y,z
-x,y,1/2-z
-x,-y,-z
x,-y,1/2+z
1/2+x,1/2+y,z
1/2-x,1/2+y,1/2-z
1/2-x,1/2-y,-z
1/2+x,1/2-y,1/2+z
loop_
_atom_site_type_symbol
_atom_site_label
_atom_site_fract_x
_atom_site_fract_y
_atom_site_fract_z
Si Si1 0.837186 0.212996 0.949251
Si Si2 0.594893 0.819823 0.905157
Si Si3 0.613551 0.712203 0.805776
Si Si4 0.000227 0.663261 0.693259
Si Si5 0.767075 0.047545 0.648228
Si Si6 0.283647 0.706613 0.775009
Si Si7 0.612464 0.968131 0.135479
Si Si8 0.329243 0.970764 0.184496
O O1 0.769380 0.369689 0.881185
O O2 0.842433 0.153337 0.892291
O O3 0.784448 0.079633 0.930480
O O4 0.945727 0.239770 0.087871
O O5 0.638586 0.741278 0.895949
O O6 0.503846 0.711924 0.828738
O O7 0.555263 0.997504 0.852311
O O8 0.676709 0.832068 0.038480
O O9 0.658172 0.552114 0.825038
O O10 0.667814 0.845588 0.827390
O O11 0.000000 0.761115 0.750000
O O12 0.113830 0.634796 0.799400
O O13 0.817778 0.108180 0.757870
O O14 0.311266 0.889471 0.795723
O O15 0.165111 0.679411 0.659435
O O16 0.609575 0.935477 0.195963
O O17 0.500000 0.000000 0.000000
#
# Coordination Sequence:
#
# PCOD8132229 Si02
#       8
#     8   8   8   8   8   8   8   8
#     4  10  23  38  56  89 124 151 192 261 301 359
#     4   9  19  35  58  87 116 151 201 245 292 368
#     4  10  18  36  60  85 114 152 200 242 294 371
#     4  10  18  37  62  85 112 158 201 240 293 376
#     4  11  21  35  62  85 119 157 196 250 310 356
#     4  11  22  39  62  92 126 160 218 260 312 383
#     4  11  23  40  66  90 123 171 212 265 318 376
#     4  10  20  36  60  87 117 154 202 243 308 368
#
# _framework density 22.782696999999999
#
# number of rings (size 3 to 8) (size 9 to 14) (size 15 to 20)
#    0.000    1.750    5.000    1.125    3.500    0.500 
#    0.000    1.875   13.750    0.000    0.000    0.000 
#    0.000    0.000    0.000    0.000    0.000    0.000 
#
# Total GULP energy -396520.004651 kJ/mol
# GULP energy per Si atom -12391.250145 kJ/mol
# Density = 2.273084 g / cm^3
# Si number density = 22.782697 Si / 1000 Ang^3
#
#
#
# Elastic Constant Matrix: (Units=GPa)
#
#
# Indices 1 2 3 4 5 6 
#
# 1 99.5723 18.4737 9.2778 0.0000 -13.4962 0.0000
# 2 18.4737 35.6805 5.3299 0.0000 7.2060 0.0000
# 3 9.2778 5.3299 69.5865 0.0000 -1.5158 0.0000
# 4 0.0000 0.0000 0.0000 22.5859 0.0000 5.2425
# 5 -13.4962 7.2060 -1.5158 0.0000 35.3218 0.0000
# 6 0.0000 0.0000 0.0000 5.2425 0.0000 32.9713
#
#
#
# Elastic Compliance Matrix: (Units=1/GPa)
#
#
# Indices 1 2 3 4 5 6 
#
# 1 0.012369 -0.007520 -0.000938 0.000000 0.006220 0.000000
# 2 -0.007520 0.034199 -0.001833 0.000000 -0.009929 0.000000
# 3 -0.000938 -0.001833 0.014650 0.000000 0.000644 0.000000
# 4 0.000000 0.000000 0.000000 0.045972 0.000000 -0.007310
# 5 0.006220 -0.009929 0.000644 0.000000 0.032741 0.000000
# 6 0.000000 0.000000 0.000000 -0.007310 0.000000 0.031492
#
#
# Mechanical properties :
#
#
# Convention : Reuss Voigt Hill
#
# Bulk Modulus (GPa) = 24.60850 30.11135 27.35993
# Shear Modulus (GPa) = 24.32507 29.62631 26.97569
#
# Velocity S-wave (km/s) = 3.27111 3.61000 3.44473
# Velocity P-wave (km/s) = 5.00917 5.53368 5.27794
#
# Compressibility (1/GPa) = 0.04063636
#
# Stress axis : x y z
#
# Youngs Moduli (GPa) = 80.85025 29.24054 68.25912
#
# Poissons Ratio (x) = 0.21989 0.06400
# Poissons Ratio (y) = 0.60799 0.12513
# Poissons Ratio (z) = 0.07581 0.05360
#
# Static dielectric constant tensor:
#      x y z
#    x 4.392690 0.000000 -0.095310 
#    y 0.000000 3.854080 0.000000 
#    z -0.095310 0.000000 4.029330 
# 
# 
# High freq. dielectric constant tensor:
#      x y z
#    x 1.916420 0.000000 -0.010190 
#    y 0.000000 1.866070 0.000000 
#    z -0.010190 0.000000 1.883900 
# 
# From -- ./inp_files/284466.got.cif
#   From: 2010.06.25/outbox.cif.g09.slc.cpg/sg15_143_cif.got.tgz:284466.got - 2010.06.28 07:06:18.
