data_PCOD8132781
_publ_section_title
;
Structure prediction by ZEFSAII (Michael W. Deem and Ramdas Pophale) SiO2 
 PCOD8132781
Probable space group: C 2/C
;
_chemical_formula_sum "Si O2"
_cell_formula_units_Z 56
_cell_length_a 24.670908
_cell_length_b 13.753710
_cell_length_c 8.281121
_cell_angle_alpha 90.000000
_cell_angle_beta 75.700932
_cell_angle_gamma 90.000000
_cell_volume 2722.869049
_symmetry_space_group_name_H-M "C 2/C"
_symmetry_group_IT_number 15
_symmetry_cell_setting 'monoclinic'
loop_
_space_group_symop_operation_xyz
x,y,z
-x,y,1/2-z
-x,-y,-z
x,-y,1/2+z
1/2+x,1/2+y,z
1/2-x,1/2+y,1/2-z
1/2-x,1/2-y,-z
1/2+x,1/2-y,1/2+z
loop_
_atom_site_type_symbol
_atom_site_label
_atom_site_fract_x
_atom_site_fract_y
_atom_site_fract_z
Si Si1 0.256069 0.535738 0.456205
Si Si2 0.433673 0.098599 0.091145
Si Si3 0.424185 0.590590 0.026300
Si Si4 0.814059 0.597333 0.270253
Si Si5 0.000000 0.447475 0.250000
Si Si6 0.665538 0.435428 0.328940
Si Si7 0.886875 0.764341 0.302421
Si Si8 0.000000 0.041366 0.250000
O O1 0.233521 0.608703 0.333554
O O2 0.205304 0.484108 0.588640
O O3 0.292554 0.449361 0.351241
O O4 0.297284 0.595364 0.543735
O O5 0.369207 0.062919 0.131186
O O6 0.464807 0.012976 0.156938
O O7 0.437276 0.198910 0.191947
O O8 0.458935 0.117104 0.893179
O O9 0.367940 0.535428 0.118929
O O10 0.465832 0.608223 0.147576
O O11 0.405558 0.694305 0.963295
O O12 0.455107 0.527102 0.868971
O O13 0.829666 0.698529 0.352352
O O14 0.622203 0.350776 0.318974
#
# Coordination Sequence:
#
# PCOD8132781 Si02
#       8
#     8   8   8   8   4   8   8   4
#     4  10  20  37  65  84 119 178 207 242 335 375
#     4   9  21  37  67  91 124 160 208 265 306 388
#     4  11  20  41  61  90 122 170 208 268 320 378
#     4   9  21  38  61  91 122 160 206 267 302 386
#     4  10  18  41  71  88 122 172 196 246 350 374
#     4  11  20  38  61  85 126 168 208 257 313 379
#     4  10  22  37  62  90 133 152 212 272 309 363
#     4  10  22  35  71  80 112 176 210 240 328 396
#
# _framework density 20.566541999999998
#
# number of rings (size 3 to 8) (size 9 to 14) (size 15 to 20)
#    0.857    1.143    2.857    0.857    0.000    1.714 
#    0.000    0.714   18.857    0.000    0.000    0.000 
#    0.000    0.000    0.000    0.000    0.000    0.000 
#
# Total GULP energy -346928.233407 kJ/mol
# GULP energy per Si atom -12390.294050 kJ/mol
# Density = 2.051973 g / cm^3
# Si number density = 20.566542 Si / 1000 Ang^3
#
#
#
# Elastic Constant Matrix: (Units=GPa)
#
#
# Indices 1 2 3 4 5 6 
#
# 1 104.3942 37.1180 48.4890 0.0000 19.0340 0.0000
# 2 37.1180 77.2757 34.9358 0.0000 11.6737 0.0000
# 3 48.4890 34.9358 105.9129 0.0000 2.3220 0.0000
# 4 0.0000 0.0000 0.0000 52.2588 0.0000 -14.8448
# 5 19.0340 11.6737 2.3220 0.0000 52.7868 0.0000
# 6 0.0000 0.0000 0.0000 -14.8448 0.0000 62.2538
#
#
#
# Elastic Compliance Matrix: (Units=1/GPa)
#
#
# Indices 1 2 3 4 5 6 
#
# 1 0.014025 -0.003845 -0.005066 0.000000 -0.003984 0.000000
# 2 -0.003845 0.016803 -0.003735 0.000000 -0.002165 0.000000
# 3 -0.005066 -0.003735 0.012947 0.000000 0.002083 0.000000
# 4 0.000000 0.000000 0.000000 0.020526 0.000000 0.004895
# 5 -0.003984 -0.002165 0.002083 0.000000 0.020768 0.000000
# 6 0.000000 0.000000 0.000000 0.004895 0.000000 0.017230
#
#
# Mechanical properties :
#
#
# Convention : Reuss Voigt Hill
#
# Bulk Modulus (GPa) = 54.09756 58.74095 56.41925
# Shear Modulus (GPa) = 37.38257 44.59586 40.98922
#
# Velocity S-wave (km/s) = 4.26800 4.66163 4.46915
# Velocity P-wave (km/s) = 7.11678 7.58932 7.35685
#
# Compressibility (1/GPa) = 0.01848512
#
# Stress axis : x y z
#
# Youngs Moduli (GPa) = 71.29907 59.51284 77.23736
#
# Poissons Ratio (x) = 0.22882 0.39125
# Poissons Ratio (y) = 0.27414 0.28847
# Poissons Ratio (z) = 0.36117 0.22227
#
# Static dielectric constant tensor:
#      x y z
#    x 3.964180 0.000000 0.009460 
#    y 0.000000 3.286650 0.000000 
#    z 0.009460 0.000000 3.953660 
# 
# 
# High freq. dielectric constant tensor:
#      x y z
#    x 1.820300 0.000000 0.003190 
#    y 0.000000 1.759460 0.000000 
#    z 0.003190 0.000000 1.809960 
# 
# From -- ./inp_files/61512.got.cif
#   From: 2010.06.25/outbox.cif.g09.slc.cpg/sg15_31_cif.got.tgz:61512.got - 2010.06.28 07:06:18.
