data_PCOD8132709
_publ_section_title
;
Structure prediction by ZEFSAII (Michael W. Deem and Ramdas Pophale) SiO2 
 PCOD8132709
Probable space group: C 2/C
;
_chemical_formula_sum "Si O2"
_cell_formula_units_Z 44
_cell_length_a 10.260816
_cell_length_b 22.163936
_cell_length_c 7.822323
_cell_angle_alpha 90.000000
_cell_angle_beta 112.353689
_cell_angle_gamma 90.000000
_cell_volume 1645.271560
_symmetry_space_group_name_H-M "C 2/C"
_symmetry_group_IT_number 15
_symmetry_cell_setting 'monoclinic'
loop_
_space_group_symop_operation_xyz
x,y,z
-x,y,1/2-z
-x,-y,-z
x,-y,1/2+z
1/2+x,1/2+y,z
1/2-x,1/2+y,1/2-z
1/2-x,1/2-y,-z
1/2+x,1/2-y,1/2+z
loop_
_atom_site_type_symbol
_atom_site_label
_atom_site_fract_x
_atom_site_fract_y
_atom_site_fract_z
Si Si1 0.181223 0.776370 0.134598
Si Si2 0.575008 0.192072 0.490105
Si Si3 0.533923 0.394402 0.075568
Si Si4 0.772187 0.592795 0.124853
Si Si5 0.500000 0.107253 0.750000
Si Si6 0.730340 0.972743 0.236886
O O1 0.291191 0.776593 0.348685
O O2 0.142487 0.844320 0.060279
O O3 0.250000 0.750000 0.000000
O O4 0.040028 0.741427 0.125831
O O5 0.631438 0.152699 0.351248
O O6 0.492831 0.148453 0.578090
O O7 0.500000 0.373595 0.250000
O O8 0.610377 0.460338 0.111411
O O9 0.387715 0.391626 0.898873
O O10 0.819011 0.543326 0.290171
O O11 0.776613 0.553942 0.954672
O O12 0.365524 0.064741 0.682095
#
# Coordination Sequence:
#
# PCOD8132709 Si02
#       6
#     8   8   8   8   4   8
#     4  12  21  41  68  97 131 182 228 284 345 417
#     4  11  22  39  68  96 138 177 227 285 353 401
#     4  10  19  40  65  92 131 175 219 283 350 403
#     4  10  22  41  64  99 133 182 217 292 346 422
#     4  10  18  40  62  96 130 174 220 294 342 408
#     4  10  20  37  67  91 133 176 224 273 356 409
#
# _framework density 26.743303999999998
#
# number of rings (size 3 to 8) (size 9 to 14) (size 15 to 20)
#    0.000    1.455    7.273    0.545    0.000    3.636 
#    0.000    7.273    0.000    0.000    0.000    0.000 
#    0.000    0.000    0.000    0.000    0.000    0.000 
#
# Total GULP energy -272626.991099 kJ/mol
# GULP energy per Si atom -12392.135959 kJ/mol
# Density = 2.668243 g / cm^3
# Si number density = 26.743304 Si / 1000 Ang^3
#
#
#
# Elastic Constant Matrix: (Units=GPa)
#
#
# Indices 1 2 3 4 5 6 
#
# 1 124.0867 40.2144 23.2195 0.0000 18.2560 0.0000
# 2 40.2144 122.7231 19.1909 0.0000 12.3800 0.0000
# 3 23.2195 19.1909 34.5196 0.0000 0.8067 0.0000
# 4 0.0000 0.0000 0.0000 41.1529 0.0000 -2.7840
# 5 18.2560 12.3800 0.8067 0.0000 32.1725 0.0000
# 6 0.0000 0.0000 0.0000 -2.7840 0.0000 47.9237
#
#
#
# Elastic Compliance Matrix: (Units=1/GPa)
#
#
# Indices 1 2 3 4 5 6 
#
# 1 0.010558 -0.002034 -0.005853 0.000000 -0.005062 0.000000
# 2 -0.002034 0.009683 -0.003957 0.000000 -0.002473 0.000000
# 3 -0.005853 -0.003957 0.035013 0.000000 0.003966 0.000000
# 4 0.000000 0.000000 0.000000 0.024396 0.000000 0.001417
# 5 -0.005062 -0.002473 0.003966 0.000000 0.034807 0.000000
# 6 0.000000 0.000000 0.000000 0.001417 0.000000 0.020949
#
#
# Mechanical properties :
#
#
# Convention : Reuss Voigt Hill
#
# Bulk Modulus (GPa) = 31.67934 49.61987 40.64961
# Shear Modulus (GPa) = 29.47844 37.49680 33.48762
#
# Velocity S-wave (km/s) = 3.32365 3.74853 3.54246
# Velocity P-wave (km/s) = 5.15755 6.10980 5.65376
#
# Compressibility (1/GPa) = 0.03156631
#
# Stress axis : x y z
#
# Youngs Moduli (GPa) = 94.71606 103.27197 28.56060
#
# Poissons Ratio (x) = 0.21004 0.16716
# Poissons Ratio (y) = 0.19264 0.11303
# Poissons Ratio (z) = 0.55435 0.40869
#
# Static dielectric constant tensor:
#      x y z
#    x 5.344350 0.000000 -0.023940 
#    y 0.000000 5.129110 0.000000 
#    z -0.023940 0.000000 4.379650 
# 
# 
# High freq. dielectric constant tensor:
#      x y z
#    x 2.096650 0.000000 -0.004550 
#    y 0.000000 2.082460 0.000000 
#    z -0.004550 0.000000 2.044710 
# 
# From -- ./inp_files/30924.got.cif
#   From: 2010.06.25/outbox.cif.g09.slc.cpg/sg15_16_cif.got.tgz:30924.got - 2010.06.28 07:06:18.
