data_PCOD8132802
_publ_section_title
;
Structure prediction by ZEFSAII (Michael W. Deem and Ramdas Pophale) SiO2 
 PCOD8132802
Probable space group: C 2/C
;
_chemical_formula_sum "Si O2"
_cell_formula_units_Z 52
_cell_length_a 21.518790
_cell_length_b 11.553694
_cell_length_c 10.202631
_cell_angle_alpha 90.000000
_cell_angle_beta 118.950554
_cell_angle_gamma 90.000000
_cell_volume 2219.615185
_symmetry_space_group_name_H-M "C 2/C"
_symmetry_group_IT_number 15
_symmetry_cell_setting 'monoclinic'
loop_
_space_group_symop_operation_xyz
x,y,z
-x,y,1/2-z
-x,-y,-z
x,-y,1/2+z
1/2+x,1/2+y,z
1/2-x,1/2+y,1/2-z
1/2-x,1/2-y,-z
1/2+x,1/2-y,1/2+z
loop_
_atom_site_type_symbol
_atom_site_label
_atom_site_fract_x
_atom_site_fract_y
_atom_site_fract_z
Si Si1 0.581336 0.051717 0.833680
Si Si2 0.691489 0.615656 0.193787
Si Si3 0.547128 0.190116 0.191703
Si Si4 0.000000 0.886896 0.750000
Si Si5 0.342473 0.791522 0.897759
Si Si6 0.151239 0.937998 0.940248
Si Si7 0.570227 0.780640 0.116770
O O1 0.500000 0.094557 0.750000
O O2 0.614520 0.126666 0.748265
O O3 0.585195 0.915611 0.807917
O O4 0.622320 0.089795 0.008247
O O5 0.765567 0.682337 0.263029
O O6 0.693486 0.521391 0.080280
O O7 0.682124 0.552284 0.324814
O O8 0.629107 0.706870 0.098232
O O9 0.500000 0.264852 0.250000
O O10 0.608855 0.255847 0.174614
O O11 0.484616 0.147335 0.029707
O O12 0.022652 0.809088 0.650582
O O13 0.932955 0.967493 0.642169
O O14 0.339174 0.695454 0.006798
#
# Coordination Sequence:
#
# PCOD8132802 Si02
#       7
#     8   8   8   4   8   8   8
#     4  11  20  38  70  98 129 174 234 275 339 407
#     4  11  28  43  73 101 140 189 232 278 356 423
#     4  11  25  38  67 105 135 177 229 292 343 402
#     4  10  18  42  76  84 130 182 230 282 322 408
#     4  12  24  47  70  95 146 184 223 286 353 426
#     4  11  24  48  71 106 135 186 240 281 349 415
#     4  11  19  42  62  99 131 178 224 280 338 403
#
# _framework density 23.427484
#
# number of rings (size 3 to 8) (size 9 to 14) (size 15 to 20)
#    0.000    0.923    6.923    0.923    4.308    3.692 
#    1.385    1.538    0.000    0.000    0.000    0.000 
#    0.000    0.000    0.000    0.000    0.000    0.000 
#
# Total GULP energy -322192.050378 kJ/mol
# GULP energy per Si atom -12392.001938 kJ/mol
# Density = 2.337416 g / cm^3
# Si number density = 23.427484 Si / 1000 Ang^3
#
#
#
# Elastic Constant Matrix: (Units=GPa)
#
#
# Indices 1 2 3 4 5 6 
#
# 1 106.7827 4.5574 36.5842 0.0000 9.5208 0.0000
# 2 4.5574 41.6353 12.3551 0.0000 4.3475 0.0000
# 3 36.5842 12.3551 68.9068 0.0000 9.2759 0.0000
# 4 0.0000 0.0000 0.0000 30.9793 0.0000 1.3054
# 5 9.5208 4.3475 9.2759 0.0000 37.0382 0.0000
# 6 0.0000 0.0000 0.0000 1.3054 0.0000 19.1952
#
#
#
# Elastic Compliance Matrix: (Units=1/GPa)
#
#
# Indices 1 2 3 4 5 6 
#
# 1 0.011544 0.000691 -0.006046 0.000000 -0.001534 0.000000
# 2 0.000691 0.025539 -0.004676 0.000000 -0.002004 0.000000
# 3 -0.006046 -0.004676 0.018915 0.000000 -0.002634 0.000000
# 4 0.000000 0.000000 0.000000 0.032372 0.000000 -0.002202
# 5 -0.001534 -0.002004 -0.002634 0.000000 0.028288 0.000000
# 6 0.000000 0.000000 0.000000 -0.002202 0.000000 0.052246
#
#
# Mechanical properties :
#
#
# Convention : Reuss Voigt Hill
#
# Bulk Modulus (GPa) = 27.82773 36.03535 31.93154
# Shear Modulus (GPa) = 24.88224 28.36442 26.62333
#
# Velocity S-wave (km/s) = 3.26252 3.48333 3.37473
# Velocity P-wave (km/s) = 5.10843 5.62078 5.37072
#
# Compressibility (1/GPa) = 0.03593538
#
# Stress axis : x y z
#
# Youngs Moduli (GPa) = 86.62871 39.15516 52.86708
#
# Poissons Ratio (x) = -0.02705 0.31964
# Poissons Ratio (y) = -0.05984 0.24722
# Poissons Ratio (z) = 0.52376 0.18310
#
# Static dielectric constant tensor:
#      x y z
#    x 4.428320 0.000000 -0.143850 
#    y 0.000000 3.720300 0.000000 
#    z -0.143850 0.000000 4.387020 
# 
# 
# High freq. dielectric constant tensor:
#      x y z
#    x 1.926240 0.000000 -0.005820 
#    y 0.000000 1.890090 0.000000 
#    z -0.005820 0.000000 1.930660 
# 
# From -- ./inp_files/111734.got.cif
#   From: 2010.06.25/outbox.cif.g09.slc.cpg/sg15_56_cif.got.tgz:111734.got - 2010.06.28 07:06:18.
