data_PCOD8132967
_publ_section_title
;
Structure prediction by ZEFSAII (Michael W. Deem and Ramdas Pophale) SiO2 
 PCOD8132967
Probable space group: C 2/C
;
_chemical_formula_sum "Si O2"
_cell_formula_units_Z 56
_cell_length_a 20.815432
_cell_length_b 28.010953
_cell_length_c 5.104197
_cell_angle_alpha 90.000000
_cell_angle_beta 96.757329
_cell_angle_gamma 90.000000
_cell_volume 2955.380137
_symmetry_space_group_name_H-M "C 2/C"
_symmetry_group_IT_number 15
_symmetry_cell_setting 'monoclinic'
loop_
_space_group_symop_operation_xyz
x,y,z
-x,y,1/2-z
-x,-y,-z
x,-y,1/2+z
1/2+x,1/2+y,z
1/2-x,1/2+y,1/2-z
1/2-x,1/2-y,-z
1/2+x,1/2-y,1/2+z
loop_
_atom_site_type_symbol
_atom_site_label
_atom_site_fract_x
_atom_site_fract_y
_atom_site_fract_z
Si Si1 0.863403 0.972786 0.338247
Si Si2 0.280293 0.133099 0.845631
Si Si3 0.291510 0.806750 0.832090
Si Si4 0.709585 0.973081 0.225481
Si Si5 0.042088 0.808251 0.516302
Si Si6 0.347452 0.721587 0.125651
Si Si7 0.866259 0.866929 0.263163
O O1 0.886313 0.918227 0.389142
O O2 0.891675 0.004303 0.587596
O O3 0.786314 0.974921 0.288151
O O4 0.287392 0.156086 0.566031
O O5 0.205217 0.129270 0.897354
O O6 0.314722 0.165889 0.081847
O O7 0.312936 0.080976 0.847624
O O8 0.221018 0.782441 0.755501
O O9 0.343711 0.765483 0.919781
O O10 0.681492 0.007690 0.986300
O O11 0.095699 0.768900 0.633715
O O12 0.081890 0.854556 0.437149
O O13 0.000000 0.822694 0.750000
O O14 0.000000 0.788102 0.250000
O O15 0.367090 0.673005 0.988246
#
# Coordination Sequence:
#
# PCOD8132967 Si02
#       7
#     8   8   8   8   8   8   8
#     4   9  19  30  48  72  91 120 159 210 265 305
#     4  10  19  31  49  76 102 135 164 208 257 290
#     4  10  21  32  53  76 107 125 162 209 255 307
#     4   9  16  27  43  66  99 132 169 199 232 295
#     4  12  24  37  54  74  95 128 173 212 251 306
#     4  10  22  36  54  77  99 131 164 205 261 302
#     4  10  21  35  55  71 101 125 169 214 258 306
#
# _framework density 18.948492000000002
#
# number of rings (size 3 to 8) (size 9 to 14) (size 15 to 20)
#    0.000    2.000    2.857    0.857    4.000    5.143 
#    0.000    0.000    0.000    2.571    0.000    0.000 
#    0.000    0.000    0.000    0.000    0.000   50.000 
#
# Total GULP energy -347069.300559 kJ/mol
# GULP energy per Si atom -12395.332163 kJ/mol
# Density = 1.890536 g / cm^3
# Si number density = 18.948492 Si / 1000 Ang^3
#
#
#
# Elastic Constant Matrix: (Units=GPa)
#
#
# Indices 1 2 3 4 5 6 
#
# 1 36.0211 23.3714 19.2997 0.0000 7.3701 0.0000
# 2 23.3714 98.5704 32.6928 0.0000 27.1656 0.0000
# 3 19.2997 32.6928 102.7769 0.0000 10.9404 0.0000
# 4 0.0000 0.0000 0.0000 35.0994 0.0000 -1.9985
# 5 7.3701 27.1656 10.9404 0.0000 17.9278 0.0000
# 6 0.0000 0.0000 0.0000 -1.9985 0.0000 4.3006
#
#
#
# Elastic Compliance Matrix: (Units=1/GPa)
#
#
# Indices 1 2 3 4 5 6 
#
# 1 0.034502 -0.006131 -0.004286 0.000000 -0.002278 0.000000
# 2 -0.006131 0.019370 -0.002304 0.000000 -0.025424 0.000000
# 3 -0.004286 -0.002304 0.011452 0.000000 -0.001736 0.000000
# 4 0.000000 0.000000 0.000000 0.029265 0.000000 0.013599
# 5 -0.002278 -0.025424 -0.001736 0.000000 0.096299 0.000000
# 6 0.000000 0.000000 0.000000 0.013599 0.000000 0.238844
#
#
# Mechanical properties :
#
#
# Convention : Reuss Voigt Hill
#
# Bulk Modulus (GPa) = 25.07415 43.12180 34.09797
# Shear Modulus (GPa) = 10.67308 22.26587 16.46948
#
# Velocity S-wave (km/s) = 2.37590 3.43165 2.95137
# Velocity P-wave (km/s) = 4.55939 6.20552 5.44502
#
# Compressibility (1/GPa) = 0.03988172
#
# Stress axis : x y z
#
# Youngs Moduli (GPa) = 28.98377 51.62742 87.31916
#
# Poissons Ratio (x) = 0.31654 0.37426
# Poissons Ratio (y) = 0.17771 0.20115
# Poissons Ratio (z) = 0.12423 0.11893
#
# Static dielectric constant tensor:
#      x y z
#    x 3.099720 0.000000 0.036790 
#    y 0.000000 3.531030 0.000000 
#    z 0.036790 0.000000 3.646540 
# 
# 
# High freq. dielectric constant tensor:
#      x y z
#    x 1.662630 0.000000 -0.008910 
#    y 0.000000 1.730340 0.000000 
#    z -0.008910 0.000000 1.753750 
# 
# From -- ./inp_files/13674.got.cif
#   From: 2010.06.25/outbox.cif.g09.slc.cpg/sg15_7_cif.got.tgz:13674.got - 2010.06.28 07:06:18.
