data_PCOD8132513
_publ_section_title
;
Structure prediction by ZEFSAII (Michael W. Deem and Ramdas Pophale) SiO2 
 PCOD8132513
Probable space group: C 2/C
;
_chemical_formula_sum "Si O2"
_cell_formula_units_Z 44
_cell_length_a 14.445440
_cell_length_b 12.628129
_cell_length_c 20.018330
_cell_angle_alpha 90.000000
_cell_angle_beta 36.901695
_cell_angle_gamma 90.000000
_cell_volume 2192.653735
_symmetry_space_group_name_H-M "C 2/C"
_symmetry_group_IT_number 15
_symmetry_cell_setting 'monoclinic'
loop_
_space_group_symop_operation_xyz
x,y,z
-x,y,1/2-z
-x,-y,-z
x,-y,1/2+z
1/2+x,1/2+y,z
1/2-x,1/2+y,1/2-z
1/2-x,1/2-y,-z
1/2+x,1/2-y,1/2+z
loop_
_atom_site_type_symbol
_atom_site_label
_atom_site_fract_x
_atom_site_fract_y
_atom_site_fract_z
Si Si1 0.500000 0.220250 0.250000
Si Si2 0.261950 0.840333 0.048269
Si Si3 0.500644 0.107900 0.824380
Si Si4 0.689437 0.421325 0.571274
Si Si5 0.633865 0.664084 0.250048
Si Si6 0.925969 0.397264 0.659007
O O1 0.649621 0.297370 0.170747
O O2 0.508524 0.147100 0.309451
O O3 0.201309 0.952691 0.056077
O O4 0.250000 0.750000 0.000000
O O5 0.439305 0.859628 0.970954
O O6 0.500000 0.060275 0.750000
O O7 0.606957 0.211289 0.759766
O O8 0.578769 0.024370 0.830361
O O9 0.327451 0.134175 0.950093
O O10 0.525048 0.389882 0.634635
O O11 0.694891 0.383611 0.645189
O O12 0.760101 0.644188 0.234055
#
# Coordination Sequence:
#
# PCOD8132513 Si02
#       6
#     4   8   8   8   8   8
#     4  10  18  38  60  84 124 164 200 258 302 362
#     4   9  20  37  61  84 119 160 198 250 311 353
#     4  11  22  42  65  85 129 169 197 251 316 365
#     4  10  22  40  62  87 127 160 209 250 302 370
#     4  11  23  38  64  95 118 165 207 253 303 365
#     4  10  23  38  61  92 120 159 211 250 306 366
#
# _framework density 20.067007
#
# number of rings (size 3 to 8) (size 9 to 14) (size 15 to 20)
#    0.000    1.818    2.727    1.636    0.000    8.727 
#    0.000    0.909    0.000    0.000    0.000    0.000 
#    0.000    0.000    0.000    0.000    0.000    0.000 
#
# Total GULP energy -272631.950071 kJ/mol
# GULP energy per Si atom -12392.361367 kJ/mol
# Density = 2.002133 g / cm^3
# Si number density = 20.067007 Si / 1000 Ang^3
#
#
#
# Elastic Constant Matrix: (Units=GPa)
#
#
# Indices 1 2 3 4 5 6 
#
# 1 97.5810 33.5214 40.6407 0.0000 -28.2540 0.0000
# 2 33.5214 124.9644 38.8086 0.0000 -10.6225 0.0000
# 3 40.6407 38.8086 118.6289 0.0002 -11.1741 0.0002
# 4 0.0000 0.0000 0.0002 32.9797 0.0002 -1.4672
# 5 -28.2540 -10.6225 -11.1741 0.0002 28.3683 -0.0001
# 6 0.0000 0.0000 0.0002 -1.4672 -0.0001 17.5362
#
#
#
# Elastic Compliance Matrix: (Units=1/GPa)
#
#
# Indices 1 2 3 4 5 6 
#
# 1 0.016655 -0.002110 -0.003663 0.000000 0.014355 0.000000
# 2 -0.002110 0.009318 -0.002279 0.000000 0.000490 0.000000
# 3 -0.003663 -0.002279 0.010392 0.000000 -0.000409 0.000000
# 4 0.000000 0.000000 0.000000 0.030435 0.000000 0.002546
# 5 0.014355 0.000490 -0.000409 0.000000 0.049570 0.000000
# 6 0.000000 0.000000 0.000000 0.002546 0.000000 0.057238
#
#
# Mechanical properties :
#
#
# Convention : Reuss Voigt Hill
#
# Bulk Modulus (GPa) = 49.35971 63.01284 56.18628
# Shear Modulus (GPa) = 25.44986 30.99043 28.22014
#
# Velocity S-wave (km/s) = 3.56510 3.93408 3.75413
# Velocity P-wave (km/s) = 6.44961 7.21841 6.84481
#
# Compressibility (1/GPa) = 0.02025944
#
# Stress axis : x y z
#
# Youngs Moduli (GPa) = 60.04331 107.32254 96.22951
#
# Poissons Ratio (x) = 0.22642 0.35252
# Poissons Ratio (y) = 0.12667 0.21934
# Poissons Ratio (z) = 0.21996 0.24462
#
# Static dielectric constant tensor:
#      x y z
#    x 3.209120 0.000000 -0.198320 
#    y 0.000000 3.811270 0.000000 
#    z -0.198320 0.000000 4.327210 
# 
# 
# High freq. dielectric constant tensor:
#      x y z
#    x 1.741310 0.000000 -0.014910 
#    y 0.000000 1.803750 0.000000 
#    z -0.014910 0.000000 1.802470 
# 
# From -- ./inp_files/243603.got.cif
#   From: 2010.06.25/outbox.cif.g09.slc.cpg/sg15_122_cif.got.tgz:243603.got - 2010.06.28 07:06:18.
