data_PCOD8132315
_publ_section_title
;
Structure prediction by ZEFSAII (Michael W. Deem and Ramdas Pophale) SiO2 
 PCOD8132315
Probable space group: C 2/C
;
_chemical_formula_sum "Si O2"
_cell_formula_units_Z 44
_cell_length_a 19.269579
_cell_length_b 8.669305
_cell_length_c 15.240770
_cell_angle_alpha 90.000000
_cell_angle_beta 127.748121
_cell_angle_gamma 90.000000
_cell_volume 2013.170034
_symmetry_space_group_name_H-M "C 2/C"
_symmetry_group_IT_number 15
_symmetry_cell_setting 'monoclinic'
loop_
_space_group_symop_operation_xyz
x,y,z
-x,y,1/2-z
-x,-y,-z
x,-y,1/2+z
1/2+x,1/2+y,z
1/2-x,1/2+y,1/2-z
1/2-x,1/2-y,-z
1/2+x,1/2-y,1/2+z
loop_
_atom_site_type_symbol
_atom_site_label
_atom_site_fract_x
_atom_site_fract_y
_atom_site_fract_z
Si Si1 0.193763 0.860552 0.669748
Si Si2 0.557922 0.998587 0.416163
Si Si3 0.633659 0.984161 0.159941
Si Si4 0.405389 0.660591 0.583708
Si Si5 0.500000 0.236770 0.750000
Si Si6 0.586375 0.489800 0.229659
O O1 0.171303 0.689925 0.686706
O O2 0.157307 0.889845 0.544034
O O3 0.156490 0.993693 0.706421
O O4 0.297590 0.892665 0.747393
O O5 0.610199 0.958663 0.544298
O O6 0.593694 0.156419 0.402757
O O7 0.452752 0.997994 0.348256
O O8 0.573839 0.865296 0.357099
O O9 0.372280 0.581570 0.648616
O O10 0.504533 0.613164 0.635239
O O11 0.448344 0.338646 0.780027
#
# Coordination Sequence:
#
# PCOD8132315 Si02
#       6
#     8   8   8   8   4   8
#     4  11  22  42  58  93 124 160 201 257 299 358
#     4  10  20  42  61  89 118 164 201 249 302 372
#     4  10  24  39  63  88 124 160 205 246 309 357
#     4   9  21  38  65  89 119 163 200 245 311 355
#     4  10  18  36  64  86 120 152 210 246 294 356
#     4  10  21  38  62  95 119 159 206 249 300 367
#
# _framework density 21.856076999999999
#
# number of rings (size 3 to 8) (size 9 to 14) (size 15 to 20)
#    0.000    2.182    1.818    1.636    2.545    2.909 
#    3.273    3.636    0.000    0.000    0.000    0.000 
#    0.000    0.000    0.000    0.000    0.000    0.000 
#
# Total GULP energy -272767.610069 kJ/mol
# GULP energy per Si atom -12398.527730 kJ/mol
# Density = 2.180633 g / cm^3
# Si number density = 21.856077 Si / 1000 Ang^3
#
#
#
# Elastic Constant Matrix: (Units=GPa)
#
#
# Indices 1 2 3 4 5 6 
#
# 1 26.9046 8.1193 32.2843 0.0000 5.6002 0.0000
# 2 8.1193 70.1277 41.2651 0.0000 -15.1124 0.0000
# 3 32.2843 41.2651 143.0282 0.0000 -2.9764 0.0000
# 4 0.0000 0.0000 0.0000 20.5065 0.0000 3.4208
# 5 5.6002 -15.1124 -2.9764 0.0000 26.4453 0.0000
# 6 0.0000 0.0000 0.0000 3.4208 0.0000 20.4022
#
#
#
# Elastic Compliance Matrix: (Units=1/GPa)
#
#
# Indices 1 2 3 4 5 6 
#
# 1 0.055460 -0.002408 -0.012125 0.000000 -0.014485 0.000000
# 2 -0.002408 0.019898 -0.004962 0.000000 0.011322 0.000000
# 3 -0.012125 -0.004962 0.011181 0.000000 0.000991 0.000000
# 4 0.000000 0.000000 0.000000 0.050168 0.000000 -0.008412
# 5 -0.014485 0.011322 0.000991 0.000000 0.047463 0.000000
# 6 0.000000 0.000000 0.000000 -0.008412 0.000000 0.050425
#
#
# Mechanical properties :
#
#
# Convention : Reuss Voigt Hill
#
# Bulk Modulus (GPa) = 21.03088 44.82199 32.92644
# Shear Modulus (GPa) = 17.27515 24.03026 20.65270
#
# Velocity S-wave (km/s) = 2.81446 3.31943 3.07732
# Velocity P-wave (km/s) = 4.49499 5.93665 5.26540
#
# Compressibility (1/GPa) = 0.04754914
#
# Stress axis : x y z
#
# Youngs Moduli (GPa) = 18.03111 50.25632 89.44049
#
# Poissons Ratio (x) = 0.12101 1.08448
# Poissons Ratio (y) = 0.04342 0.44377
# Poissons Ratio (z) = 0.21863 0.24936
#
# Static dielectric constant tensor:
#      x y z
#    x 3.631910 0.000000 -0.092580 
#    y 0.000000 3.978260 0.000000 
#    z -0.092580 0.000000 3.986030 
# 
# 
# High freq. dielectric constant tensor:
#      x y z
#    x 1.837320 0.000000 -0.014860 
#    y 0.000000 1.868690 0.000000 
#    z -0.014860 0.000000 1.861840 
# 
# From -- ./inp_files/218721.got.cif
#   From: 2010.06.25/outbox.cif.g09.slc.cpg/sg15_110_cif.got.tgz:218721.got - 2010.06.28 07:06:18.
