data_PCOD8132290
_publ_section_title
;
Structure prediction by ZEFSAII (Michael W. Deem and Ramdas Pophale) SiO2 
 PCOD8132290
Probable space group: C 2/C
;
_chemical_formula_sum "Si O2"
_cell_formula_units_Z 56
_cell_length_a 9.166976
_cell_length_b 16.002041
_cell_length_c 17.064579
_cell_angle_alpha 90.000000
_cell_angle_beta 106.428376
_cell_angle_gamma 90.000000
_cell_volume 2401.012722
_symmetry_space_group_name_H-M "C 2/C"
_symmetry_group_IT_number 15
_symmetry_cell_setting 'monoclinic'
loop_
_space_group_symop_operation_xyz
x,y,z
-x,y,1/2-z
-x,-y,-z
x,-y,1/2+z
1/2+x,1/2+y,z
1/2-x,1/2+y,1/2-z
1/2-x,1/2-y,-z
1/2+x,1/2-y,1/2+z
loop_
_atom_site_type_symbol
_atom_site_label
_atom_site_fract_x
_atom_site_fract_y
_atom_site_fract_z
Si Si1 0.667668 0.227087 0.306135
Si Si2 0.876863 0.905347 0.914063
Si Si3 0.902695 0.488395 0.806307
Si Si4 0.906727 0.129291 0.594260
Si Si5 0.824650 0.558780 0.571820
Si Si6 0.809312 0.052758 0.104982
Si Si7 0.739854 0.641286 0.701295
O O1 0.500000 0.204504 0.250000
O O2 0.748124 0.142424 0.345747
O O3 0.672675 0.288749 0.381961
O O4 0.760059 0.270449 0.248365
O O5 0.022037 0.910612 0.878121
O O6 0.816815 0.998450 0.923687
O O7 0.924255 0.860067 0.002682
O O8 0.775289 0.425644 0.824832
O O9 0.818099 0.569693 0.763375
O O10 0.000000 0.446895 0.750000
O O11 0.015815 0.511379 0.894955
O O12 0.063266 0.119511 0.664944
O O13 0.805834 0.048010 0.597144
O O14 0.798560 0.589733 0.479875
O O15 0.819958 0.640508 0.627904
#
# Coordination Sequence:
#
# PCOD8132290 Si02
#       7
#     8   8   8   8   8   8   8
#     4  10  22  35  61  94 142 182 223 270 353 412
#     4  11  21  36  62 100 135 165 232 287 340 389
#     4  10  22  35  61  96 129 166 221 278 340 399
#     4  10  18  36  62  96 128 180 226 270 331 426
#     4  10  20  37  63  95 130 171 224 284 335 411
#     4  11  19  37  65  98 127 169 233 283 339 399
#     4  10  18  37  60  92 124 180 227 265 325 418
#
# _framework density 23.323492000000002
#
# number of rings (size 3 to 8) (size 9 to 14) (size 15 to 20)
#    0.000    1.714    4.286    1.714    0.000    1.714 
#    0.000    0.000    0.000   21.429    0.000    0.000 
#    0.000    0.143    0.000    0.000    0.000    0.000 
#
# Total GULP energy -347014.178031 kJ/mol
# GULP energy per Si atom -12393.363501 kJ/mol
# Density = 2.327041 g / cm^3
# Si number density = 23.323492 Si / 1000 Ang^3
#
#
#
# Elastic Constant Matrix: (Units=GPa)
#
#
# Indices 1 2 3 4 5 6 
#
# 1 122.6290 16.4349 53.0628 0.0000 -17.8363 0.0000
# 2 16.4349 55.7366 29.1954 0.0000 -12.9046 0.0000
# 3 53.0628 29.1954 109.0666 0.0000 0.6581 0.0000
# 4 0.0000 0.0000 0.0000 21.5012 0.0000 6.0846
# 5 -17.8363 -12.9046 0.6581 0.0000 41.0481 0.0000
# 6 0.0000 0.0000 0.0000 6.0846 0.0000 19.3964
#
#
#
# Elastic Compliance Matrix: (Units=1/GPa)
#
#
# Indices 1 2 3 4 5 6 
#
# 1 0.011300 0.000918 -0.005776 0.000000 0.005292 0.000000
# 2 0.000918 0.022930 -0.006631 0.000000 0.007714 0.000000
# 3 -0.005776 -0.006631 0.013783 0.000000 -0.004815 0.000000
# 4 0.000000 0.000000 0.000000 0.051040 0.000000 -0.016011
# 5 0.005292 0.007714 -0.004815 0.000000 0.029163 0.000000
# 6 0.000000 0.000000 0.000000 -0.016011 0.000000 0.056579
#
#
# Mechanical properties :
#
#
# Convention : Reuss Voigt Hill
#
# Bulk Modulus (GPa) = 39.94210 53.86872 46.90541
# Shear Modulus (GPa) = 23.13548 28.97176 26.05362
#
# Velocity S-wave (km/s) = 3.15292 3.52827 3.34586
# Velocity P-wave (km/s) = 5.51516 6.30434 5.92291
#
# Compressibility (1/GPa) = 0.02503624
#
# Stress axis : x y z
#
# Youngs Moduli (GPa) = 88.49233 43.61021 72.55403
#
# Poissons Ratio (x) = -0.04005 0.41904
# Poissons Ratio (y) = -0.08127 0.48114
# Poissons Ratio (z) = 0.51110 0.28920
#
# Static dielectric constant tensor:
#      x y z
#    x 4.415480 0.000000 -0.252850 
#    y 0.000000 3.764830 0.000000 
#    z -0.252850 0.000000 4.740460 
# 
# 
# High freq. dielectric constant tensor:
#      x y z
#    x 1.922500 0.000000 0.005810 
#    y 0.000000 1.874760 0.000000 
#    z 0.005810 0.000000 1.942610 
# 
# From -- ./inp_files/191015.got.cif
#   From: 2010.06.25/outbox.cif.g09.slc.cpg/sg15_96_cif.got.tgz:191015.got - 2010.06.28 07:06:18.
