data_PCOD8132188
_publ_section_title
;
Structure prediction by ZEFSAII (Michael W. Deem and Ramdas Pophale) SiO2 
 PCOD8132188
Probable space group: C 2/C
;
_chemical_formula_sum "Si O2"
_cell_formula_units_Z 36
_cell_length_a 12.261883
_cell_length_b 12.958280
_cell_length_c 16.671252
_cell_angle_alpha 90.000000
_cell_angle_beta 131.731249
_cell_angle_gamma 90.000000
_cell_volume 1976.841211
_symmetry_space_group_name_H-M "C 2/C"
_symmetry_group_IT_number 15
_symmetry_cell_setting 'monoclinic'
loop_
_space_group_symop_operation_xyz
x,y,z
-x,y,1/2-z
-x,-y,-z
x,-y,1/2+z
1/2+x,1/2+y,z
1/2-x,1/2+y,1/2-z
1/2-x,1/2-y,-z
1/2+x,1/2-y,1/2+z
loop_
_atom_site_type_symbol
_atom_site_label
_atom_site_fract_x
_atom_site_fract_y
_atom_site_fract_z
Si Si1 0.000000 0.261891 0.250000
Si Si2 0.692211 0.789306 0.633507
Si Si3 0.378240 0.912267 0.056557
Si Si4 0.155891 0.054694 0.574129
Si Si5 0.907061 0.571222 0.281356
O O1 0.132760 0.194145 0.281480
O O2 0.062524 0.330490 0.351287
O O3 0.627992 0.862327 0.533271
O O4 0.639679 0.672098 0.596664
O O5 0.638970 0.825989 0.694430
O O6 0.219376 0.947196 0.013846
O O7 0.491174 0.006382 0.108200
O O8 0.266804 0.995742 0.687493
O O9 0.000000 0.000000 0.500000
O O10 0.000000 0.606173 0.250000
#
# Coordination Sequence:
#
# PCOD8132188 Si02
#       5
#     4   8   8   8   8
#     4  10  18  36  58  88 108 142 186 254 274 316
#     4  11  22  34  63  86 109 148 200 229 279 342
#     4  10  19  39  57  83 116 148 193 230 288 329
#     4  10  21  36  59  85 113 150 188 238 279 329
#     4  10  21  40  56  79 124 155 176 230 298 334
#
# _framework density 18.210871000000001
#
# number of rings (size 3 to 8) (size 9 to 14) (size 15 to 20)
#    0.000    1.778    5.556    3.333    6.222    0.000 
#    0.000    6.667    0.000    0.000    0.000    0.000 
#    0.000    0.000    0.000    0.000    0.000    0.000 
#
# Total GULP energy -223144.792005 kJ/mol
# GULP energy per Si atom -12396.932889 kJ/mol
# Density = 1.816942 g / cm^3
# Si number density = 18.210871 Si / 1000 Ang^3
#
#
#
# Elastic Constant Matrix: (Units=GPa)
#
#
# Indices 1 2 3 4 5 6 
#
# 1 119.5098 71.4298 66.1215 0.0000 10.8739 0.0000
# 2 71.4298 100.5121 35.4660 0.0000 6.1083 0.0000
# 3 66.1215 35.4660 69.2102 0.0000 11.8779 0.0000
# 4 0.0000 0.0000 0.0000 22.2286 0.0000 0.5539
# 5 10.8739 6.1083 11.8779 0.0000 31.2094 0.0000
# 6 0.0000 0.0000 0.0000 0.5539 0.0000 38.4258
#
#
#
# Elastic Compliance Matrix: (Units=1/GPa)
#
#
# Indices 1 2 3 4 5 6 
#
# 1 0.025504 -0.011630 -0.018479 0.000000 0.000423 0.000000
# 2 -0.011630 0.017448 0.002204 0.000000 -0.000202 0.000000
# 3 -0.018479 0.002204 0.032035 0.000000 -0.006185 0.000000
# 4 0.000000 0.000000 0.000000 0.045003 0.000000 -0.000649
# 5 0.000423 -0.000202 -0.006185 0.000000 0.034288 0.000000
# 6 0.000000 0.000000 0.000000 -0.000649 0.000000 0.026034
#
#
# Mechanical properties :
#
#
# Convention : Reuss Voigt Hill
#
# Bulk Modulus (GPa) = 52.14202 70.58520 61.36361
# Shear Modulus (GPa) = 20.61748 26.12040 23.36894
#
# Velocity S-wave (km/s) = 3.36840 3.79136 3.58612
# Velocity P-wave (km/s) = 6.61987 7.61643 7.13557
#
# Compressibility (1/GPa) = 0.01917839
#
# Stress axis : x y z
#
# Youngs Moduli (GPa) = 39.20979 57.31161 31.21633
#
# Poissons Ratio (x) = 0.66653 0.57683
# Poissons Ratio (y) = 0.45601 -0.06881
# Poissons Ratio (z) = 0.72454 -0.12633
#
# Static dielectric constant tensor:
#      x y z
#    x 3.607500 0.000000 0.302200 
#    y 0.000000 3.281780 0.000000 
#    z 0.302200 0.000000 3.000450 
# 
# 
# High freq. dielectric constant tensor:
#      x y z
#    x 1.709040 0.000000 0.008780 
#    y 0.000000 1.693640 0.000000 
#    z 0.008780 0.000000 1.705890 
# 
# From -- ./inp_files/84353.got.cif
#   From: 2010.06.25/outbox.cif.g09.slc.cpg/sg15_43_cif.got.tgz:84353.got - 2010.06.28 07:06:18.
