data_PCOD8132730
_publ_section_title
;
Structure prediction by ZEFSAII (Michael W. Deem and Ramdas Pophale) SiO2 
 PCOD8132730
Probable space group: C 2/C
;
_chemical_formula_sum "Si O2"
_cell_formula_units_Z 52
_cell_length_a 10.875655
_cell_length_b 16.403664
_cell_length_c 19.614695
_cell_angle_alpha 90.000000
_cell_angle_beta 135.300871
_cell_angle_gamma 90.000000
_cell_volume 2461.332399
_symmetry_space_group_name_H-M "C 2/C"
_symmetry_group_IT_number 15
_symmetry_cell_setting 'monoclinic'
loop_
_space_group_symop_operation_xyz
x,y,z
-x,y,1/2-z
-x,-y,-z
x,-y,1/2+z
1/2+x,1/2+y,z
1/2-x,1/2+y,1/2-z
1/2-x,1/2-y,-z
1/2+x,1/2-y,1/2+z
loop_
_atom_site_type_symbol
_atom_site_label
_atom_site_fract_x
_atom_site_fract_y
_atom_site_fract_z
Si Si1 0.492868 0.469909 0.391186
Si Si2 0.006135 0.589477 0.148956
Si Si3 0.660364 0.143230 0.080476
Si Si4 0.711807 0.613828 0.135860
Si Si5 0.000000 0.040566 0.250000
Si Si6 0.608946 0.328994 0.057572
Si Si7 0.337116 0.064515 0.558383
O O1 0.371241 0.523272 0.394143
O O2 0.446123 0.483347 0.292899
O O3 0.463308 0.375997 0.403129
O O4 0.693026 0.497078 0.479872
O O5 0.005522 0.614328 0.069714
O O6 0.183430 0.626091 0.252415
O O7 0.840346 0.625865 0.122920
O O8 0.999589 0.490061 0.150191
O O9 0.841805 0.099819 0.168931
O O10 0.677668 0.239421 0.099801
O O11 0.602707 0.120022 0.981539
O O12 0.548587 0.675393 0.061144
O O13 0.775328 0.375580 0.093019
#
# Coordination Sequence:
#
# PCOD8132730 Si02
#       7
#     8   8   8   8   4   8   8
#     4  10  18  40  66  82 121 163 207 236 309 367
#     4  11  20  38  63  91 117 164 206 249 288 375
#     4  11  24  38  62  91 133 152 203 258 319 339
#     4  10  20  37  64  88 120 159 209 240 300 368
#     4  10  22  42  60  88 120 170 198 258 294 370
#     4  11  21  41  63  92 120 168 194 260 308 361
#     4  10  20  39  65  90 116 164 208 242 298 375
#
# _framework density 21.126767999999998
#
# number of rings (size 3 to 8) (size 9 to 14) (size 15 to 20)
#    0.000    1.538    4.615    1.846    0.000    0.615 
#    2.769    1.538    0.000    0.000    0.000    0.000 
#    0.000    0.000    0.000    0.000    0.000    0.000 
#
# Total GULP energy -322237.765436 kJ/mol
# GULP energy per Si atom -12393.760209 kJ/mol
# Density = 2.107868 g / cm^3
# Si number density = 21.126768 Si / 1000 Ang^3
#
#
#
# Elastic Constant Matrix: (Units=GPa)
#
#
# Indices 1 2 3 4 5 6 
#
# 1 106.8003 42.0515 24.2885 0.0000 -26.4561 0.0000
# 2 42.0515 105.7600 27.5247 0.0000 -18.2551 0.0000
# 3 24.2885 27.5247 62.3133 0.0000 -3.3477 0.0000
# 4 0.0000 0.0000 0.0000 19.2567 0.0000 -0.7932
# 5 -26.4561 -18.2551 -3.3477 0.0000 20.5411 0.0000
# 6 0.0000 0.0000 0.0000 -0.7932 0.0000 27.1140
#
#
#
# Elastic Compliance Matrix: (Units=1/GPa)
#
#
# Indices 1 2 3 4 5 6 
#
# 1 0.015419 -0.002049 -0.004172 0.000000 0.017358 0.000000
# 2 -0.002049 0.012807 -0.004427 0.000000 0.008021 0.000000
# 3 -0.004172 -0.004427 0.019299 0.000000 -0.006163 0.000000
# 4 0.000000 0.000000 0.000000 0.051993 0.000000 0.001521
# 5 0.017358 0.008021 -0.006163 0.000000 0.077163 0.000000
# 6 0.000000 0.000000 0.000000 0.001521 0.000000 0.036926
#
#
# Mechanical properties :
#
#
# Convention : Reuss Voigt Hill
#
# Bulk Modulus (GPa) = 38.12842 51.40032 44.76437
# Shear Modulus (GPa) = 20.52163 25.44963 22.98563
#
# Velocity S-wave (km/s) = 3.12004 3.47452 3.30204
# Velocity P-wave (km/s) = 5.57370 6.36229 5.98101
#
# Compressibility (1/GPa) = 0.02622715
#
# Stress axis : x y z
#
# Youngs Moduli (GPa) = 64.85673 78.08375 51.81662
#
# Poissons Ratio (x) = 0.15996 0.21620
# Poissons Ratio (y) = 0.13287 0.22942
# Poissons Ratio (z) = 0.27061 0.34571
#
# Static dielectric constant tensor:
#      x y z
#    x 3.990040 0.000000 -0.122130 
#    y 0.000000 3.452210 0.000000 
#    z -0.122130 0.000000 3.923390 
# 
# 
# High freq. dielectric constant tensor:
#      x y z
#    x 1.844850 0.000000 -0.008160 
#    y 0.000000 1.789950 0.000000 
#    z -0.008160 0.000000 1.816910 
# 
# From -- ./inp_files/238829.got.cif
#   From: 2010.06.25/outbox.cif.g09.slc.cpg/sg15_120_cif.got.tgz:238829.got - 2010.06.28 07:06:18.
