data_PCOD8132144
_publ_section_title
;
Structure prediction by ZEFSAII (Michael W. Deem and Ramdas Pophale) SiO2 
 PCOD8132144
Probable space group: C 2/C
;
_chemical_formula_sum "Si O2"
_cell_formula_units_Z 56
_cell_length_a 10.049320
_cell_length_b 13.946197
_cell_length_c 24.582612
_cell_angle_alpha 90.000000
_cell_angle_beta 128.083244
_cell_angle_gamma 90.000000
_cell_volume 2711.807945
_symmetry_space_group_name_H-M "C 2/C"
_symmetry_group_IT_number 15
_symmetry_cell_setting 'monoclinic'
loop_
_space_group_symop_operation_xyz
x,y,z
-x,y,1/2-z
-x,-y,-z
x,-y,1/2+z
1/2+x,1/2+y,z
1/2-x,1/2+y,1/2-z
1/2-x,1/2-y,-z
1/2+x,1/2-y,1/2+z
loop_
_atom_site_type_symbol
_atom_site_label
_atom_site_fract_x
_atom_site_fract_y
_atom_site_fract_z
Si Si1 0.628016 0.749342 0.125979
Si Si2 0.500000 0.014933 0.750000
Si Si3 0.666617 0.596696 0.993500
Si Si4 0.000000 0.180579 0.250000
Si Si5 0.109020 0.663017 0.859639
Si Si6 0.311530 0.142497 0.263488
Si Si7 0.891820 0.745116 0.101328
Si Si8 0.895585 0.888929 0.512082
O O1 0.557103 0.840979 0.142227
O O2 0.761813 0.690829 0.194636
O O3 0.730918 0.777441 0.097801
O O4 0.455248 0.687545 0.072246
O O5 0.605874 0.956738 0.732502
O O6 0.620774 0.077096 0.819220
O O7 0.565328 0.659955 0.923333
O O8 0.569525 0.585119 0.025787
O O9 0.840905 0.653838 0.050377
O O10 0.689860 0.484457 0.981550
O O11 0.092978 0.240839 0.320335
O O12 0.149145 0.118257 0.260197
O O13 0.274311 0.662053 0.938237
O O14 0.440452 0.215991 0.324612
#
# Coordination Sequence:
#
# PCOD8132144 Si02
#       8
#     8   4   8   4   8   8   8   8
#     4  10  21  36  55  85 114 155 200 231 294 348
#     4  11  22  36  66  85 114 156 201 232 302 350
#     4   9  20  31  57  90 109 151 198 238 289 349
#     4   9  22  38  60  87 118 152 203 230 304 348
#     4  10  21  38  58  84 118 159 190 243 291 354
#     4  11  20  38  61  86 115 157 189 249 288 356
#     4  10  18  36  57  84 120 153 192 239 297 347
#     4  10  19  35  56  83 117 149 198 244 282 344
#
# _framework density 20.65043
#
# number of rings (size 3 to 8) (size 9 to 14) (size 15 to 20)
#    0.000    2.000    1.429    2.143    4.000    0.000 
#    0.000    3.571    0.000    0.000    0.000    0.000 
#    0.000    0.000    0.000    0.000    0.000    0.000 
#
# Total GULP energy -346954.875192 kJ/mol
# GULP energy per Si atom -12391.245543 kJ/mol
# Density = 2.060343 g / cm^3
# Si number density = 20.650430 Si / 1000 Ang^3
#
#
#
# Elastic Constant Matrix: (Units=GPa)
#
#
# Indices 1 2 3 4 5 6 
#
# 1 87.4488 28.7439 2.7631 0.0000 -8.5721 0.0000
# 2 28.7439 67.3219 29.7910 0.0000 -8.2689 0.0000
# 3 2.7631 29.7910 132.5781 0.0000 5.8974 0.0000
# 4 0.0000 0.0000 0.0000 20.9172 0.0000 -9.1177
# 5 -8.5721 -8.2689 5.8974 0.0000 25.8958 0.0000
# 6 0.0000 0.0000 0.0000 -9.1177 0.0000 15.4950
#
#
#
# Elastic Compliance Matrix: (Units=1/GPa)
#
#
# Indices 1 2 3 4 5 6 
#
# 1 0.013587 -0.005924 0.000942 0.000000 0.002392 0.000000
# 2 -0.005924 0.020116 -0.004642 0.000000 0.005519 0.000000
# 3 0.000942 -0.004642 0.008706 0.000000 -0.003153 0.000000
# 4 0.000000 0.000000 0.000000 0.064300 0.000000 0.037836
# 5 0.002392 0.005519 -0.003153 0.000000 0.041889 0.000000
# 6 0.000000 0.000000 0.000000 0.037836 0.000000 0.086801
#
#
# Mechanical properties :
#
#
# Convention : Reuss Voigt Hill
#
# Bulk Modulus (GPa) = 43.17805 45.54942 44.36374
# Shear Modulus (GPa) = 19.05723 27.53163 23.29443
#
# Velocity S-wave (km/s) = 3.04114 3.65529 3.36227
# Velocity P-wave (km/s) = 5.76938 6.31824 6.05004
#
# Compressibility (1/GPa) = 0.02315991
#
# Stress axis : x y z
#
# Youngs Moduli (GPa) = 73.59880 49.71287 114.85700
#
# Poissons Ratio (x) = 0.29451 -0.10815
# Poissons Ratio (y) = 0.43601 0.53318
# Poissons Ratio (z) = -0.06930 0.23077
#
# Static dielectric constant tensor:
#      x y z
#    x 3.713910 0.000000 -0.130270 
#    y 0.000000 3.721030 0.000000 
#    z -0.130270 0.000000 3.840840 
# 
# 
# High freq. dielectric constant tensor:
#      x y z
#    x 1.794670 0.000000 -0.004260 
#    y 0.000000 1.784120 0.000000 
#    z -0.004260 0.000000 1.823460 
# 
# From -- ./inp_files/292318.got.cif
#   From: 2010.06.25/outbox.cif.g09.slc.cpg/sg15_147_cif.got.tgz:292318.got - 2010.06.28 07:06:18.
