data_PCOD8132167
_publ_section_title
;
Structure prediction by ZEFSAII (Michael W. Deem and Ramdas Pophale) SiO2 
 PCOD8132167
Probable space group: C 2/C
;
_chemical_formula_sum "Si O2"
_cell_formula_units_Z 60
_cell_length_a 26.878211
_cell_length_b 11.009212
_cell_length_c 15.241819
_cell_angle_alpha 90.000000
_cell_angle_beta 135.680777
_cell_angle_gamma 90.000000
_cell_volume 3151.057961
_symmetry_space_group_name_H-M "C 2/C"
_symmetry_group_IT_number 15
_symmetry_cell_setting 'monoclinic'
loop_
_space_group_symop_operation_xyz
x,y,z
-x,y,1/2-z
-x,-y,-z
x,-y,1/2+z
1/2+x,1/2+y,z
1/2-x,1/2+y,1/2-z
1/2-x,1/2-y,-z
1/2+x,1/2-y,1/2+z
loop_
_atom_site_type_symbol
_atom_site_label
_atom_site_fract_x
_atom_site_fract_y
_atom_site_fract_z
Si Si1 0.348488 0.175885 0.945238
Si Si2 0.842591 0.423812 0.029258
Si Si3 0.678998 0.676407 0.930961
Si Si4 0.005685 0.395288 0.937018
Si Si5 0.775389 0.218251 0.829930
Si Si6 0.220792 0.499402 0.872027
Si Si7 0.000000 0.524001 0.750000
Si Si8 0.129361 0.733615 0.199260
O O1 0.287073 0.253358 0.818151
O O2 0.368793 0.254918 0.056534
O O3 0.415399 0.160756 0.965407
O O4 0.323543 0.043492 0.948746
O O5 0.823101 0.436086 0.106365
O O6 0.928721 0.398359 0.135566
O O7 0.794444 0.315531 0.928885
O O8 0.637100 0.668624 0.787082
O O9 0.750000 0.750000 0.000000
O O10 0.703254 0.544671 0.993848
O O11 0.981515 0.439228 0.809928
O O12 0.954154 0.291777 0.909155
O O13 0.000000 0.500000 0.000000
O O14 0.743774 0.094219 0.827515
O O15 0.846723 0.203531 0.861352
O O16 0.173106 0.392623 0.769197
#
# Coordination Sequence:
#
# PCOD8132167 Si02
#       8
#     8   8   8   8   8   8   4   8
#     4  11  21  36  59  91 114 145 198 235 296 347
#     4  11  21  37  58  86 120 155 187 240 304 347
#     4  10  18  36  58  81 113 154 189 240 279 340
#     4  11  21  35  59  90 121 148 184 255 303 342
#     4  12  23  33  56  90 116 154 191 238 293 343
#     4  11  20  37  54  83 118 146 196 235 283 349
#     4  10  20  36  58  86 120 150 192 242 304 358
#     4  11  19  38  60  84 114 152 194 240 294 345
#
# _framework density 19.041224
#
# number of rings (size 3 to 8) (size 9 to 14) (size 15 to 20)
#    0.000    1.067    6.667    4.400    0.000    0.000 
#    0.000    0.000    0.000    2.400    0.000    0.000 
#    0.000    0.000    0.000    0.000    0.000    0.000 
#
# Total GULP energy -371772.424924 kJ/mol
# GULP energy per Si atom -12392.414164 kJ/mol
# Density = 1.899788 g / cm^3
# Si number density = 19.041224 Si / 1000 Ang^3
#
#
#
# Elastic Constant Matrix: (Units=GPa)
#
#
# Indices 1 2 3 4 5 6 
#
# 1 131.6766 19.6237 20.0031 0.0000 -7.8613 0.0000
# 2 19.6237 34.0224 10.1130 0.0000 -0.5770 0.0000
# 3 20.0031 10.1130 55.0842 0.0000 -3.0742 0.0000
# 4 0.0000 0.0000 0.0000 34.6236 0.0000 -1.2875
# 5 -7.8613 -0.5770 -3.0742 0.0000 30.0401 0.0000
# 6 0.0000 0.0000 0.0000 -1.2875 0.0000 27.8268
#
#
#
# Elastic Compliance Matrix: (Units=1/GPa)
#
#
# Indices 1 2 3 4 5 6 
#
# 1 0.008697 -0.004312 -0.002257 0.000000 0.001962 0.000000
# 2 -0.004312 0.033227 -0.004588 0.000000 -0.000960 0.000000
# 3 -0.002257 -0.004588 0.019892 0.000000 0.001357 0.000000
# 4 0.000000 0.000000 0.000000 0.028932 0.000000 0.001339
# 5 0.001962 -0.000960 0.001357 0.000000 0.033923 0.000000
# 6 0.000000 0.000000 0.000000 0.001339 0.000000 0.035998
#
#
# Mechanical properties :
#
#
# Convention : Reuss Voigt Hill
#
# Bulk Modulus (GPa) = 25.31544 35.58475 30.45010
# Shear Modulus (GPa) = 25.49069 29.90100 27.69585
#
# Velocity S-wave (km/s) = 3.66281 3.96704 3.81796
# Velocity P-wave (km/s) = 5.58678 6.30175 5.95501
#
# Compressibility (1/GPa) = 0.03950158
#
# Stress axis : x y z
#
# Youngs Moduli (GPa) = 114.98206 30.09599 50.27230
#
# Poissons Ratio (x) = 0.12978 0.11347
# Poissons Ratio (y) = 0.49582 0.23064
# Poissons Ratio (z) = 0.25952 0.13808
#
# Static dielectric constant tensor:
#      x y z
#    x 4.229010 0.000000 1.406240 
#    y 0.000000 2.469970 0.000000 
#    z 1.406240 0.000000 10.027260 
# 
# 
# High freq. dielectric constant tensor:
#      x y z
#    x 1.756430 0.000000 -0.017410 
#    y 0.000000 1.690650 0.000000 
#    z -0.017410 0.000000 1.740000 
# 
# From -- ./inp_files/167686.got.cif
#   From: 2010.06.25/outbox.cif.g09.slc.cpg/sg15_84_cif.got.tgz:167686.got - 2010.06.28 07:06:18.
