data_PCOD8132492
_publ_section_title
;
Structure prediction by ZEFSAII (Michael W. Deem and Ramdas Pophale) SiO2 
 PCOD8132492
Probable space group: C 2/C
;
_chemical_formula_sum "Si O2"
_cell_formula_units_Z 48
_cell_length_a 22.503413
_cell_length_b 25.366071
_cell_length_c 12.595398
_cell_angle_alpha 90.000000
_cell_angle_beta 159.156776
_cell_angle_gamma 90.000000
_cell_volume 2558.198243
_symmetry_space_group_name_H-M "C 2/C"
_symmetry_group_IT_number 15
_symmetry_cell_setting 'monoclinic'
loop_
_space_group_symop_operation_xyz
x,y,z
-x,y,1/2-z
-x,-y,-z
x,-y,1/2+z
1/2+x,1/2+y,z
1/2-x,1/2+y,1/2-z
1/2-x,1/2-y,-z
1/2+x,1/2-y,1/2+z
loop_
_atom_site_type_symbol
_atom_site_label
_atom_site_fract_x
_atom_site_fract_y
_atom_site_fract_z
Si Si1 0.393340 0.603055 0.675506
Si Si2 0.942254 0.943275 0.859913
Si Si3 0.827936 0.341198 0.362133
Si Si4 0.178983 0.694021 0.412747
Si Si5 0.835929 0.491041 0.659477
Si Si6 0.000000 0.434862 0.750000
Si Si7 0.500000 0.616060 0.250000
O O1 0.500000 0.615531 0.750000
O O2 0.265980 0.650440 0.484304
O O3 0.287081 0.549186 0.484076
O O4 0.527124 0.598528 0.995263
O O5 0.034725 0.920737 0.910171
O O6 0.750218 0.951833 0.502945
O O7 0.000000 0.000000 0.000000
O O8 0.779479 0.316252 0.394662
O O9 0.977312 0.307421 0.556919
O O10 0.899535 0.399906 0.498109
O O11 0.663467 0.345845 0.013179
O O12 0.250000 0.750000 0.500000
O O13 0.869987 0.469669 0.598379
O O14 0.000000 0.500000 0.000000
#
# Coordination Sequence:
#
# PCOD8132492 Si02
#       7
#     8   8   8   8   8   4   4
#     4  11  23  39  55  87 124 152 201 254 304 360
#     4  10  23  35  55  88 122 166 202 239 299 349
#     4  10  20  38  66  86 115 156 207 253 298 358
#     4  10  21  41  64  89 113 155 207 251 310 368
#     4  11  22  34  57  83 117 163 198 243 293 353
#     4  10  18  38  54  78 120 152 214 240 266 362
#     4  12  20  40  64  86 128 162 204 256 294 356
#
# _framework density 18.763207000000001
#
# number of rings (size 3 to 8) (size 9 to 14) (size 15 to 20)
#    0.000    1.667    5.000    2.000    9.333    0.000 
#    0.000    0.833    0.000    0.000    0.000    0.000 
#    0.000    0.000    0.000    0.000    0.000    0.000 
#
# Total GULP energy -297454.735060 kJ/mol
# GULP energy per Si atom -12393.947294 kJ/mol
# Density = 1.872050 g / cm^3
# Si number density = 18.763207 Si / 1000 Ang^3
#
#
#
# Elastic Constant Matrix: (Units=GPa)
#
#
# Indices 1 2 3 4 5 6 
#
# 1 120.2115 36.3997 34.2357 0.0000 15.0683 0.0000
# 2 36.3997 74.4645 41.0806 0.0000 10.2543 0.0000
# 3 34.2357 41.0806 145.3513 0.0000 4.7062 0.0000
# 4 0.0000 0.0000 0.0000 22.4992 0.0000 12.5501
# 5 15.0683 10.2543 4.7062 0.0000 32.6397 0.0000
# 6 0.0000 0.0000 0.0000 12.5501 0.0000 22.6878
#
#
#
# Elastic Compliance Matrix: (Units=1/GPa)
#
#
# Indices 1 2 3 4 5 6 
#
# 1 0.010259 -0.003888 -0.001209 0.000000 -0.003340 0.000000
# 2 -0.003888 0.018029 -0.004074 0.000000 -0.003282 0.000000
# 3 -0.001209 -0.004074 0.008295 0.000000 0.000642 0.000000
# 4 0.000000 0.000000 0.000000 0.064280 0.000000 -0.035557
# 5 -0.003340 -0.003282 0.000642 0.000000 0.033118 0.000000
# 6 0.000000 0.000000 0.000000 -0.035557 0.000000 0.063745
#
#
# Mechanical properties :
#
#
# Convention : Reuss Voigt Hill
#
# Bulk Modulus (GPa) = 54.81888 62.60659 58.71274
# Shear Modulus (GPa) = 22.50752 30.78611 26.64682
#
# Velocity S-wave (km/s) = 3.46722 4.05504 3.77259
# Velocity P-wave (km/s) = 6.73115 7.44067 7.09478
#
# Compressibility (1/GPa) = 0.01824189
#
# Stress axis : x y z
#
# Youngs Moduli (GPa) = 97.47564 55.46691 120.55049
#
# Poissons Ratio (x) = 0.21563 0.14580
# Poissons Ratio (y) = 0.37894 0.49107
# Poissons Ratio (z) = 0.11790 0.22595
#
# Static dielectric constant tensor:
#      x y z
#    x 5.439580 0.000000 0.813750 
#    y 0.000000 3.310890 0.000000 
#    z 0.813750 0.000000 4.090390 
# 
# 
# High freq. dielectric constant tensor:
#      x y z
#    x 1.721710 0.000000 0.011540 
#    y 0.000000 1.699200 0.000000 
#    z 0.011540 0.000000 1.737450 
# 
# From -- ./inp_files/115073.got.cif
#   From: 2010.06.25/outbox.cif.g09.slc.cpg/sg15_58_cif.got.tgz:115073.got - 2010.06.28 07:06:18.
