data_PCOD8132822
_publ_section_title
;
Structure prediction by ZEFSAII (Michael W. Deem and Ramdas Pophale) SiO2 
 PCOD8132822
Probable space group: C 2/C
;
_chemical_formula_sum "Si O2"
_cell_formula_units_Z 40
_cell_length_a 12.921250
_cell_length_b 30.391384
_cell_length_c 5.280899
_cell_angle_alpha 90.000000
_cell_angle_beta 88.885658
_cell_angle_gamma 90.000000
_cell_volume 2073.388690
_symmetry_space_group_name_H-M "C 2/C"
_symmetry_group_IT_number 15
_symmetry_cell_setting 'monoclinic'
loop_
_space_group_symop_operation_xyz
x,y,z
-x,y,1/2-z
-x,-y,-z
x,-y,1/2+z
1/2+x,1/2+y,z
1/2-x,1/2+y,1/2-z
1/2-x,1/2-y,-z
1/2+x,1/2-y,1/2+z
loop_
_atom_site_type_symbol
_atom_site_label
_atom_site_fract_x
_atom_site_fract_y
_atom_site_fract_z
Si Si1 0.184369 0.905940 0.737369
Si Si2 0.310675 0.985716 0.731047
Si Si3 0.114359 0.050940 0.740209
Si Si4 0.882427 0.761749 0.238558
Si Si5 0.300194 0.303762 0.742676
O O1 0.123487 0.917465 0.483864
O O2 0.216288 0.855505 0.738503
O O3 0.291630 0.933746 0.733577
O O4 0.121037 0.918271 0.992010
O O5 0.199346 0.011976 0.735425
O O6 0.374156 0.999825 0.477659
O O7 0.000000 0.029070 0.750000
O O8 0.812641 0.718197 0.246250
O O9 0.857476 0.792802 0.478105
O O10 0.000000 0.745605 0.250000
O O11 0.867525 0.787999 0.977957
#
# Coordination Sequence:
#
# PCOD8132822 Si02
#       5
#     8   8   8   8   8
#     4  10  19  29  42  61  86 115 152 189 219 261
#     4   8  16  27  38  54  82 117 150 178 217 261
#     4  10  19  28  39  59  90 124 153 183 222 269
#     4  10  21  37  53  70  97 127 155 198 253 293
#     4  10  21  35  52  74  96 123 163 202 237 288
#
# _framework density 19.292089000000001
#
# number of rings (size 3 to 8) (size 9 to 14) (size 15 to 20)
#    0.000    2.400    0.000    2.400    0.000   12.000 
#    0.000    0.000    0.000    0.000    0.000    0.000 
#    0.000   14.400    0.000    0.000    0.000   22.000 
#
# Total GULP energy -247862.812442 kJ/mol
# GULP energy per Si atom -12393.140622 kJ/mol
# Density = 1.924818 g / cm^3
# Si number density = 19.292089 Si / 1000 Ang^3
#
#
#
# Elastic Constant Matrix: (Units=GPa)
#
#
# Indices 1 2 3 4 5 6 
#
# 1 59.7707 20.1696 15.4336 0.0000 4.4315 0.0000
# 2 20.1696 116.6238 21.0525 0.0000 5.8747 0.0000
# 3 15.4336 21.0525 161.0752 0.0000 24.0491 0.0000
# 4 0.0000 0.0000 0.0000 20.7074 0.0000 1.2621
# 5 4.4315 5.8747 24.0491 0.0000 7.7266 0.0000
# 6 0.0000 0.0000 0.0000 1.2621 0.0000 9.1056
#
#
#
# Elastic Compliance Matrix: (Units=1/GPa)
#
#
# Indices 1 2 3 4 5 6 
#
# 1 0.018283 -0.002732 -0.000260 0.000000 -0.007599 0.000000
# 2 -0.002732 0.009331 -0.000248 0.000000 -0.004757 0.000000
# 3 -0.000260 -0.000248 0.011611 0.000000 -0.035801 0.000000
# 4 0.000000 0.000000 0.000000 0.048703 0.000000 -0.006751
# 5 -0.007599 -0.004757 -0.035801 0.000000 0.248827 0.000000
# 6 0.000000 0.000000 0.000000 -0.006751 0.000000 0.110758
#
#
# Mechanical properties :
#
#
# Convention : Reuss Voigt Hill
#
# Bulk Modulus (GPa) = 30.53861 50.08679 40.31270
# Shear Modulus (GPa) = 10.75478 26.22885 18.49182
#
# Velocity S-wave (km/s) = 2.36364 3.69123 3.09935
# Velocity P-wave (km/s) = 4.82836 6.64722 5.80942
#
# Compressibility (1/GPa) = 0.03274543
#
# Stress axis : x y z
#
# Youngs Moduli (GPa) = 54.69507 107.16453 86.12701
#
# Poissons Ratio (x) = 0.29280 0.02241
# Poissons Ratio (y) = 0.14944 0.02132
# Poissons Ratio (z) = 0.01423 0.02653
#
# Static dielectric constant tensor:
#      x y z
#    x 2.996090 0.000000 0.200350 
#    y 0.000000 3.342220 0.000000 
#    z 0.200350 0.000000 4.887410 
# 
# 
# High freq. dielectric constant tensor:
#      x y z
#    x 1.698320 0.000000 0.011630 
#    y 0.000000 1.740270 0.000000 
#    z 0.011630 0.000000 1.794160 
# 
# From -- ./inp_files/4929.got.cif
#   From: 2010.06.25/outbox.cif.g09.slc.cpg/sg15_3_cif.got.tgz:4929.got - 2010.06.28 07:06:18.
