data_PCOD8132861
_publ_section_title
;
Structure prediction by ZEFSAII (Michael W. Deem and Ramdas Pophale) SiO2 
 PCOD8132861
Probable space group: C 2/C
;
_chemical_formula_sum "Si O2"
_cell_formula_units_Z 64
_cell_length_a 8.947349
_cell_length_b 23.301094
_cell_length_c 17.753885
_cell_angle_alpha 90.000000
_cell_angle_beta 75.394464
_cell_angle_gamma 90.000000
_cell_volume 3581.772653
_symmetry_space_group_name_H-M "C 2/C"
_symmetry_group_IT_number 15
_symmetry_cell_setting 'monoclinic'
loop_
_space_group_symop_operation_xyz
x,y,z
-x,y,1/2-z
-x,-y,-z
x,-y,1/2+z
1/2+x,1/2+y,z
1/2-x,1/2+y,1/2-z
1/2-x,1/2-y,-z
1/2+x,1/2-y,1/2+z
loop_
_atom_site_type_symbol
_atom_site_label
_atom_site_fract_x
_atom_site_fract_y
_atom_site_fract_z
Si Si1 0.863213 0.358144 0.327051
Si Si2 0.861058 0.485566 0.326200
Si Si3 0.667303 0.694777 0.348135
Si Si4 0.859253 0.226450 0.715508
Si Si5 0.551225 0.199247 0.082164
Si Si6 0.962676 0.586065 0.165737
Si Si7 0.417188 0.768007 0.447590
Si Si8 0.841394 0.927976 0.728864
O O1 0.820286 0.422414 0.361890
O O2 0.715319 0.332201 0.303761
O O3 0.904329 0.322293 0.395154
O O4 0.000000 0.358423 0.250000
O O5 0.706244 0.515634 0.313109
O O6 0.000000 0.478200 0.250000
O O7 0.938044 0.530680 0.375343
O O8 0.733152 0.732864 0.271365
O O9 0.776438 0.705533 0.406873
O O10 0.494582 0.715360 0.391694
O O11 0.657453 0.628423 0.324759
O O12 0.000000 0.208045 0.750000
O O13 0.925266 0.260233 0.636465
O O14 0.502867 0.134313 0.101744
O O15 0.540278 0.213263 0.995586
O O16 0.779230 0.577605 0.186873
O O17 0.000000 0.602111 0.250000
O O18 0.250000 0.750000 0.500000
O O19 0.000000 0.939441 0.750000
#
# Coordination Sequence:
#
# PCOD8132861 Si02
#       8
#     8   8   8   8   8   8   8   8
#     4  11  21  40  58  81 118 147 189 231 276 345
#     4   8  18  35  57  80 110 144 183 231 280 327
#     4  11  21  36  56  83 118 147 188 226 284 345
#     4  10  20  33  59  84 110 151 181 226 285 335
#     4  11  19  37  56  83 117 146 182 234 284 339
#     4   9  15  34  57  84 106 139 187 231 275 329
#     4  12  26  35  53  87 117 153 184 237 286 324
#     4  10  19  29  58  91 106 138 188 243 279 311
#
# _framework density 17.868248000000001
#
# number of rings (size 3 to 8) (size 9 to 14) (size 15 to 20)
#    0.000    2.000    6.250    0.750    3.500    0.500 
#    0.000    0.625    0.000    0.750    0.000    0.000 
#    0.000    0.000    0.000    0.000    0.000    0.000 
#
# Total GULP energy -396478.167003 kJ/mol
# GULP energy per Si atom -12389.942719 kJ/mol
# Density = 1.782758 g / cm^3
# Si number density = 17.868248 Si / 1000 Ang^3
#
#
#
# Elastic Constant Matrix: (Units=GPa)
#
#
# Indices 1 2 3 4 5 6 
#
# 1 115.8153 54.7191 32.0701 0.0000 -3.4990 0.0000
# 2 54.7191 151.8227 37.3685 0.0000 1.9090 0.0000
# 3 32.0701 37.3685 58.9775 0.0000 6.4814 0.0000
# 4 0.0000 0.0000 0.0000 12.0070 0.0000 -9.8251
# 5 -3.4990 1.9090 6.4814 0.0000 25.8781 0.0000
# 6 0.0000 0.0000 0.0000 -9.8251 0.0000 28.9827
#
#
#
# Elastic Compliance Matrix: (Units=1/GPa)
#
#
# Indices 1 2 3 4 5 6 
#
# 1 0.011429 -0.003018 -0.004624 0.000000 0.002926 0.000000
# 2 -0.003018 0.008612 -0.003806 0.000000 -0.000090 0.000000
# 3 -0.004624 -0.003806 0.022540 0.000000 -0.005990 0.000000
# 4 0.000000 0.000000 0.000000 0.115257 0.000000 0.039072
# 5 0.002926 -0.000090 -0.005990 0.000000 0.040545 0.000000
# 6 0.000000 0.000000 0.000000 0.039072 0.000000 0.047749
#
#
# Mechanical properties :
#
#
# Convention : Reuss Voigt Hill
#
# Bulk Modulus (GPa) = 50.79938 63.88120 57.34029
# Shear Modulus (GPa) = 18.14294 26.87074 22.50684
#
# Velocity S-wave (km/s) = 3.18995 3.88213 3.55293
# Velocity P-wave (km/s) = 6.48532 7.47819 6.99939
#
# Compressibility (1/GPa) = 0.01968528
#
# Stress axis : x y z
#
# Youngs Moduli (GPa) = 87.49540 116.11478 44.36604
#
# Poissons Ratio (x) = 0.35042 0.20516
# Poissons Ratio (y) = 0.26405 0.16885
# Poissons Ratio (z) = 0.40460 0.44191
#
# Static dielectric constant tensor:
#      x y z
#    x 3.446340 0.000000 -0.033720 
#    y 0.000000 3.733660 0.000000 
#    z -0.033720 0.000000 3.071640 
# 
# 
# High freq. dielectric constant tensor:
#      x y z
#    x 1.701450 0.000000 0.001070 
#    y 0.000000 1.692950 0.000000 
#    z 0.001070 0.000000 1.655790 
# 
# From -- ./inp_files/192948.got.cif
#   From: 2010.06.25/outbox.cif.g09.slc.cpg/sg15_97_cif.got.tgz:192948.got - 2010.06.28 07:06:18.
