data_PCOD8132192
_publ_section_title
;
Structure prediction by ZEFSAII (Michael W. Deem and Ramdas Pophale) SiO2 
 PCOD8132192
Probable space group: C 2/C
;
_chemical_formula_sum "Si O2"
_cell_formula_units_Z 60
_cell_length_a 11.851239
_cell_length_b 11.743461
_cell_length_c 29.075366
_cell_angle_alpha 90.000000
_cell_angle_beta 133.936200
_cell_angle_gamma 90.000000
_cell_volume 2913.973712
_symmetry_space_group_name_H-M "C 2/C"
_symmetry_group_IT_number 15
_symmetry_cell_setting 'monoclinic'
loop_
_space_group_symop_operation_xyz
x,y,z
-x,y,1/2-z
-x,-y,-z
x,-y,1/2+z
1/2+x,1/2+y,z
1/2-x,1/2+y,1/2-z
1/2-x,1/2-y,-z
1/2+x,1/2-y,1/2+z
loop_
_atom_site_type_symbol
_atom_site_label
_atom_site_fract_x
_atom_site_fract_y
_atom_site_fract_z
Si Si1 0.377274 0.478331 0.125383
Si Si2 0.234589 0.738341 0.268888
Si Si3 0.616333 0.990919 0.746785
Si Si4 0.051295 0.394393 0.044674
Si Si5 0.204357 0.724724 0.076884
Si Si6 0.866612 0.157331 0.848317
Si Si7 0.478842 0.124128 0.629146
Si Si8 0.500000 0.613762 0.750000
O O1 0.237440 0.384611 0.089516
O O2 0.306270 0.607000 0.102643
O O3 0.488012 0.434565 0.113762
O O4 0.479982 0.469911 0.200787
O O5 0.248875 0.602852 0.275936
O O6 0.125630 0.761082 0.193639
O O7 0.414322 0.774522 0.320559
O O8 0.152701 0.806404 0.287553
O O9 0.500000 0.933544 0.750000
O O10 0.697689 0.097215 0.794714
O O11 0.519085 0.017336 0.673006
O O12 0.011680 0.414965 0.086776
O O13 0.000000 0.500000 0.000000
O O14 0.952444 0.285886 0.998612
O O15 0.140231 0.762455 0.108852
O O16 0.301760 0.830567 0.083841
#
# Coordination Sequence:
#
# PCOD8132192 Si02
#       8
#     8   8   8   8   8   8   8   4
#     4  10  22  40  61  91 126 157 218 263 309 385
#     4  10  21  33  62  90 125 165 197 260 332 371
#     4  11  21  37  59  93 131 154 204 267 322 388
#     4  10  23  41  65  89 121 172 217 257 304 375
#     4  11  23  40  65  87 127 172 210 257 320 371
#     4  10  23  38  59  97 122 164 211 259 320 387
#     4  11  22  40  62  90 128 162 211 259 315 381
#     4  10  18  36  58  90 124 162 202 258 320 382
#
# _framework density 20.590440000000001
#
# number of rings (size 3 to 8) (size 9 to 14) (size 15 to 20)
#    0.000    1.600    3.333    1.200    3.733    2.667 
#    0.000    0.000    5.867    4.800    0.000    0.000 
#    0.000    0.000    0.000    0.000    0.000    0.000 
#
# Total GULP energy -371649.428022 kJ/mol
# GULP energy per Si atom -12388.314267 kJ/mol
# Density = 2.054358 g / cm^3
# Si number density = 20.590440 Si / 1000 Ang^3
#
#
#
# Elastic Constant Matrix: (Units=GPa)
#
#
# Indices 1 2 3 4 5 6 
#
# 1 104.3168 23.2971 29.7192 0.0000 -9.6946 0.0000
# 2 23.2971 75.7926 21.2985 0.0000 -8.5773 0.0000
# 3 29.7192 21.2985 81.5463 0.0000 -11.7328 0.0000
# 4 0.0000 0.0000 0.0000 17.1414 0.0000 7.2793
# 5 -9.6946 -8.5773 -11.7328 0.0000 34.8813 0.0000
# 6 0.0000 0.0000 0.0000 7.2793 0.0000 30.6825
#
#
#
# Elastic Compliance Matrix: (Units=1/GPa)
#
#
# Indices 1 2 3 4 5 6 
#
# 1 0.011172 -0.002359 -0.003249 0.000000 0.001432 0.000000
# 2 -0.002359 0.014925 -0.002737 0.000000 0.002094 0.000000
# 3 -0.003249 -0.002737 0.014644 0.000000 0.003350 0.000000
# 4 0.000000 0.000000 0.000000 0.064874 0.000000 -0.015391
# 5 0.001432 0.002094 0.003350 0.000000 0.030708 0.000000
# 6 0.000000 0.000000 0.000000 -0.015391 0.000000 0.036243
#
#
# Mechanical properties :
#
#
# Convention : Reuss Voigt Hill
#
# Bulk Modulus (GPa) = 41.58010 45.58726 43.58368
# Shear Modulus (GPa) = 25.34543 29.03044 27.18793
#
# Velocity S-wave (km/s) = 3.51227 3.75894 3.63769
# Velocity P-wave (km/s) = 6.05688 6.40527 6.23351
#
# Compressibility (1/GPa) = 0.02404997
#
# Stress axis : x y z
#
# Youngs Moduli (GPa) = 89.51116 67.00118 68.28705
#
# Poissons Ratio (x) = 0.15804 0.22189
# Poissons Ratio (y) = 0.21114 0.18692
# Poissons Ratio (z) = 0.29086 0.18340
#
# Static dielectric constant tensor:
#      x y z
#    x 3.913680 0.000000 0.226980 
#    y 0.000000 3.557570 0.000000 
#    z 0.226980 0.000000 3.965220 
# 
# 
# High freq. dielectric constant tensor:
#      x y z
#    x 1.813720 0.000000 0.006100 
#    y 0.000000 1.789460 0.000000 
#    z 0.006100 0.000000 1.797360 
# 
# From -- ./inp_files/268785.got.cif
#   From: 2010.06.25/outbox.cif.g09.slc.cpg/sg15_135_cif.got.tgz:268785.got - 2010.06.28 07:06:18.
