data_PCOD8132376
_publ_section_title
;
Structure prediction by ZEFSAII (Michael W. Deem and Ramdas Pophale) SiO2 
 PCOD8132376
Probable space group: C 2/C
;
_chemical_formula_sum "Si O2"
_cell_formula_units_Z 52
_cell_length_a 29.209783
_cell_length_b 5.263424
_cell_length_c 15.794971
_cell_angle_alpha 90.000000
_cell_angle_beta 100.360289
_cell_angle_gamma 90.000000
_cell_volume 2388.782341
_symmetry_space_group_name_H-M "C 2/C"
_symmetry_group_IT_number 15
_symmetry_cell_setting 'monoclinic'
loop_
_space_group_symop_operation_xyz
x,y,z
-x,y,1/2-z
-x,-y,-z
x,-y,1/2+z
1/2+x,1/2+y,z
1/2-x,1/2+y,1/2-z
1/2-x,1/2-y,-z
1/2+x,1/2-y,1/2+z
loop_
_atom_site_type_symbol
_atom_site_label
_atom_site_fract_x
_atom_site_fract_y
_atom_site_fract_z
Si Si1 0.824647 0.959398 0.972478
Si Si2 0.331211 0.953832 0.086245
Si Si3 0.570519 0.121968 0.358970
Si Si4 0.753754 0.505626 0.194551
Si Si5 0.924703 0.930586 0.982599
Si Si6 0.500000 0.395315 0.250000
Si Si7 0.503092 0.750197 0.411867
O O1 0.784917 0.961748 0.889754
O O2 0.821496 0.691709 0.021175
O O3 0.872740 0.997077 0.933767
O O4 0.817732 0.193956 0.034525
O O5 0.302870 0.978673 0.163399
O O6 0.385528 0.934627 0.136094
O O7 0.587702 0.343346 0.426286
O O8 0.548813 0.233253 0.264680
O O9 0.523389 0.011573 0.385597
O O10 0.755665 0.754083 0.253888
O O11 0.951010 0.718317 0.933675
O O12 0.960839 0.163748 0.001801
O O13 0.499575 0.555620 0.334255
#
# Coordination Sequence:
#
# PCOD8132376 Si02
#       7
#     8   8   8   8   8   4   8
#     4  11  22  44  68  97 123 172 224 258 325 389
#     4  11  23  43  72  92 127 174 221 266 313 397
#     4  10  20  37  57  87 121 162 213 250 315 368
#     4  12  26  45  66 100 135 163 208 276 339 386
#     4   9  20  34  61  86 111 158 209 263 289 362
#     4  10  22  34  52  86 124 170 200 246 318 380
#     4  10  18  37  55  82 123 155 207 251 306 357
#
# _framework density 21.768411
#
# number of rings (size 3 to 8) (size 9 to 14) (size 15 to 20)
#    0.000    1.538    1.538    3.692    0.000    1.231 
#    5.538    0.000    0.000    0.000    0.000    0.000 
#    0.000    0.000    0.000    0.000    0.000    0.000 
#
# Total GULP energy -322098.115062 kJ/mol
# GULP energy per Si atom -12388.389041 kJ/mol
# Density = 2.171887 g / cm^3
# Si number density = 21.768411 Si / 1000 Ang^3
#
#
#
# Elastic Constant Matrix: (Units=GPa)
#
#
# Indices 1 2 3 4 5 6 
#
# 1 116.3696 13.1446 39.5228 0.0000 -11.8731 0.0000
# 2 13.1446 102.4459 25.1329 0.0000 -2.5440 0.0000
# 3 39.5228 25.1329 76.7795 0.0000 5.7788 0.0000
# 4 0.0000 0.0000 0.0000 37.9899 0.0000 -7.6650
# 5 -11.8731 -2.5440 5.7788 0.0000 35.8881 0.0000
# 6 0.0000 0.0000 0.0000 -7.6650 0.0000 36.6922
#
#
#
# Elastic Compliance Matrix: (Units=1/GPa)
#
#
# Indices 1 2 3 4 5 6 
#
# 1 0.011139 0.000196 -0.006151 0.000000 0.004689 0.000000
# 2 0.000196 0.010680 -0.003704 0.000000 0.001418 0.000000
# 3 -0.006151 -0.003704 0.017791 0.000000 -0.005162 0.000000
# 4 0.000000 0.000000 0.000000 0.027481 0.000000 0.005741
# 5 0.004689 0.001418 -0.005162 0.000000 0.030348 0.000000
# 6 0.000000 0.000000 0.000000 0.005741 0.000000 0.028453
#
#
# Mechanical properties :
#
#
# Convention : Reuss Voigt Hill
#
# Bulk Modulus (GPa) = 49.27738 50.13284 49.70511
# Shear Modulus (GPa) = 32.90064 36.63370 34.76717
#
# Velocity S-wave (km/s) = 3.89188 4.10675 4.00076
# Velocity P-wave (km/s) = 6.54843 6.75035 6.65016
#
# Compressibility (1/GPa) = 0.02029329
#
# Stress axis : x y z
#
# Youngs Moduli (GPa) = 89.77771 93.63369 56.20688
#
# Poissons Ratio (x) = -0.01838 0.34572
# Poissons Ratio (y) = -0.01762 0.20817
# Poissons Ratio (z) = 0.55221 0.34679
#
# Static dielectric constant tensor:
#      x y z
#    x 4.410900 0.000000 0.147680 
#    y 0.000000 3.966620 0.000000 
#    z 0.147680 0.000000 4.004460 
# 
# 
# High freq. dielectric constant tensor:
#      x y z
#    x 1.867140 0.000000 0.009410 
#    y 0.000000 1.858110 0.000000 
#    z 0.009410 0.000000 1.841460 
# 
# From -- ./inp_files/220952.got.cif
#   From: 2010.06.25/outbox.cif.g09.slc.cpg/sg15_111_cif.got.tgz:220952.got - 2010.06.28 07:06:18.
