data_PCOD8132189
_publ_section_title
;
Structure prediction by ZEFSAII (Michael W. Deem and Ramdas Pophale) SiO2 
 PCOD8132189
Probable space group: C 2/C
;
_chemical_formula_sum "Si O2"
_cell_formula_units_Z 64
_cell_length_a 17.430919
_cell_length_b 9.577241
_cell_length_c 28.519997
_cell_angle_alpha 90.000000
_cell_angle_beta 42.363618
_cell_angle_gamma 90.000000
_cell_volume 3208.209153
_symmetry_space_group_name_H-M "C 2/C"
_symmetry_group_IT_number 15
_symmetry_cell_setting 'monoclinic'
loop_
_space_group_symop_operation_xyz
x,y,z
-x,y,1/2-z
-x,-y,-z
x,-y,1/2+z
1/2+x,1/2+y,z
1/2-x,1/2+y,1/2-z
1/2-x,1/2-y,-z
1/2+x,1/2-y,1/2+z
loop_
_atom_site_type_symbol
_atom_site_label
_atom_site_fract_x
_atom_site_fract_y
_atom_site_fract_z
Si Si1 0.346217 0.710219 0.602830
Si Si2 0.666123 0.394614 0.913488
Si Si3 0.095041 0.536541 0.169307
Si Si4 0.859649 0.061193 0.432107
Si Si5 0.390366 0.018569 0.440791
Si Si6 0.938818 0.192466 0.945426
Si Si7 0.119633 0.213576 0.173100
Si Si8 0.979990 0.264713 0.448640
O O1 0.335013 0.543884 0.610442
O O2 0.429500 0.743768 0.608969
O O3 0.225330 0.792114 0.662584
O O4 0.397849 0.759084 0.530151
O O5 0.797970 0.364094 0.865944
O O6 0.608976 0.280120 0.904615
O O7 0.594198 0.399856 0.994146
O O8 0.056370 0.565335 0.133411
O O9 0.123129 0.372541 0.154328
O O10 0.000000 0.573863 0.250000
O O11 0.859206 0.105751 0.378320
O O12 0.934576 0.167830 0.427748
O O13 0.730232 0.060927 0.510072
O O14 0.915545 0.906381 0.411197
O O15 0.365818 0.165022 0.478174
O O16 0.480122 0.922931 0.428715
O O17 0.000000 0.172664 0.250000
#
# Coordination Sequence:
#
# PCOD8132189 Si02
#       8
#     8   8   8   8   8   8   8   8
#     4  10  18  36  58  88 118 151 190 242 303 352
#     4  10  19  35  59  87 115 154 194 235 302 357
#     4  10  21  38  61  85 119 157 198 239 298 362
#     4  12  19  37  60  89 114 148 200 249 285 349
#     4  12  23  35  58  95 116 150 200 253 295 341
#     4  11  22  35  59  89 121 150 189 253 303 345
#     4  10  21  37  62  86 114 156 202 246 291 356
#     4  11  19  34  60  89 112 146 195 247 290 341
#
# _framework density 19.948823000000001
#
# number of rings (size 3 to 8) (size 9 to 14) (size 15 to 20)
#    0.000    1.250    6.250    2.250    0.000    2.000 
#    0.000    1.875    0.000    0.000    0.000    0.000 
#    0.000    0.000    0.000    0.000    0.000    0.000 
#
# Total GULP energy -396625.457200 kJ/mol
# GULP energy per Si atom -12394.545537 kJ/mol
# Density = 1.990342 g / cm^3
# Si number density = 19.948823 Si / 1000 Ang^3
#
#
#
# Elastic Constant Matrix: (Units=GPa)
#
#
# Indices 1 2 3 4 5 6 
#
# 1 108.4211 37.3857 43.2282 0.0000 -17.0252 0.0003
# 2 37.3857 88.3681 15.4496 0.0000 -3.5616 0.0005
# 3 43.2282 15.4496 90.1800 0.0000 -13.7461 0.0000
# 4 0.0000 0.0000 0.0000 6.4755 0.0000 -1.9622
# 5 -17.0252 -3.5616 -13.7461 0.0000 24.0003 0.0000
# 6 0.0003 0.0005 0.0000 -1.9622 0.0000 30.7506
#
#
#
# Elastic Compliance Matrix: (Units=1/GPa)
#
#
# Indices 1 2 3 4 5 6 
#
# 1 0.013768 -0.004726 -0.004830 0.000000 0.006299 0.000000
# 2 -0.004726 0.013297 -0.000244 0.000000 -0.001519 0.000000
# 3 -0.004830 -0.000244 0.014154 0.000000 0.004644 0.000000
# 4 0.000000 0.000000 0.000000 0.157472 0.000000 0.010048
# 5 0.006299 -0.001519 0.004644 0.000000 0.048569 0.000000
# 6 0.000000 0.000000 0.000000 0.010048 0.000000 0.033161
#
#
# Mechanical properties :
#
#
# Convention : Reuss Voigt Hill
#
# Bulk Modulus (GPa) = 46.25676 53.23291 49.74483
# Shear Modulus (GPa) = 16.27456 24.97233 20.62344
#
# Velocity S-wave (km/s) = 2.85935 3.54194 3.21879
# Velocity P-wave (km/s) = 5.84288 6.59317 6.22933
#
# Compressibility (1/GPa) = 0.02161846
#
# Stress axis : x y z
#
# Youngs Moduli (GPa) = 72.63290 75.20296 70.65222
#
# Poissons Ratio (x) = 0.35544 0.34124
# Poissons Ratio (y) = 0.34330 0.01724
# Poissons Ratio (z) = 0.35080 0.01835
#
# Static dielectric constant tensor:
#      x y z
#    x 4.088580 0.000000 -0.261160 
#    y 0.000000 3.563690 0.000000 
#    z -0.261160 0.000000 3.275580 
# 
# 
# High freq. dielectric constant tensor:
#      x y z
#    x 1.794010 0.000000 -0.013710 
#    y 0.000000 1.768120 0.000000 
#    z -0.013710 0.000000 1.729580 
# 
# From -- ./inp_files/315687.got.cif
#   From: 2010.06.25/outbox.cif.g09.slc.cpg/sg15_158_cif.got.tgz:315687.got - 2010.06.28 07:06:18.
