data_PCOD8132862
_publ_section_title
;
Structure prediction by ZEFSAII (Michael W. Deem and Ramdas Pophale) SiO2 
 PCOD8132862
Probable space group: C 2/C
;
_chemical_formula_sum "Si O2"
_cell_formula_units_Z 56
_cell_length_a 13.838149
_cell_length_b 26.523899
_cell_length_c 16.962675
_cell_angle_alpha 90.000000
_cell_angle_beta 33.529619
_cell_angle_gamma 90.000000
_cell_volume 3439.047788
_symmetry_space_group_name_H-M "C 2/C"
_symmetry_group_IT_number 15
_symmetry_cell_setting 'monoclinic'
loop_
_space_group_symop_operation_xyz
x,y,z
-x,y,1/2-z
-x,-y,-z
x,-y,1/2+z
1/2+x,1/2+y,z
1/2-x,1/2+y,1/2-z
1/2-x,1/2-y,-z
1/2+x,1/2-y,1/2+z
loop_
_atom_site_type_symbol
_atom_site_label
_atom_site_fract_x
_atom_site_fract_y
_atom_site_fract_z
Si Si1 0.881616 0.813453 0.251485
Si Si2 0.346253 0.872425 0.798296
Si Si3 0.861596 0.471275 0.282180
Si Si4 0.352666 0.450547 0.483464
Si Si5 0.768527 0.077767 0.775921
Si Si6 0.942924 0.439617 0.937758
Si Si7 0.809271 0.770226 0.543650
O O1 0.798792 0.864804 0.278928
O O2 0.716096 0.776606 0.379867
O O3 0.000000 0.820621 0.250000
O O4 0.994831 0.790756 0.101452
O O5 0.500000 0.893871 0.750000
O O6 0.172006 0.904148 0.937517
O O7 0.431444 0.889281 0.656478
O O8 0.315585 0.813398 0.833432
O O9 0.706363 0.496861 0.437805
O O10 0.784189 0.426976 0.280280
O O11 0.000000 0.447944 0.250000
O O12 0.950512 0.512617 0.165517
O O13 0.557305 0.454761 0.324966
O O14 0.244080 0.435807 0.479509
O O15 0.607656 0.055513 0.936283
O O16 0.750000 0.750000 0.500000
#
# Coordination Sequence:
#
# PCOD8132862 Si02
#       7
#     8   8   8   8   8   8   8
#     4  10  21  29  44  70  99 126 154 185 227 280
#     4   9  16  28  43  60  96 134 151 173 221 282
#     4   9  20  36  47  65  93 130 157 194 243 279
#     4   9  17  31  47  68  93 123 156 188 228 281
#     4  12  19  29  49  73  94 119 166 199 223 273
#     4   9  19  29  48  69  97 125 152 189 239 280
#     4  10  19  30  41  63 102 133 156 176 226 282
#
# _framework density 16.283577000000001
#
# number of rings (size 3 to 8) (size 9 to 14) (size 15 to 20)
#    0.000    2.286    1.429    5.143    8.000    0.000 
#    0.000    0.000    0.000    0.000    0.000    1.000 
#    0.000    0.000    0.000    0.000    0.000    0.000 
#
# Total GULP energy -346891.014811 kJ/mol
# GULP energy per Si atom -12388.964815 kJ/mol
# Density = 1.624651 g / cm^3
# Si number density = 16.283577 Si / 1000 Ang^3
#
#
#
# Elastic Constant Matrix: (Units=GPa)
#
#
# Indices 1 2 3 4 5 6 
#
# 1 40.6269 32.1024 11.0593 -0.0209 6.2711 0.0067
# 2 32.1024 66.5902 26.9212 -0.0146 5.9787 0.0016
# 3 11.0593 26.9212 84.0764 -0.0232 4.6669 0.0088
# 4 -0.0209 -0.0146 -0.0232 18.7633 0.0186 4.0297
# 5 6.2711 5.9787 4.6669 0.0186 14.9138 -0.0062
# 6 0.0067 0.0016 0.0088 4.0297 -0.0062 16.7941
#
#
#
# Elastic Compliance Matrix: (Units=1/GPa)
#
#
# Indices 1 2 3 4 5 6 
#
# 1 0.041204 -0.019533 0.001386 0.000049 -0.009929 -0.000031
# 2 -0.019533 0.026928 -0.006014 -0.000010 -0.000700 0.000011
# 3 0.001386 -0.006014 0.013775 0.000019 -0.002482 -0.000013
# 4 0.000049 -0.000010 0.000019 0.056191 -0.000098 -0.013483
# 5 -0.009929 -0.000700 -0.002482 -0.000098 0.072284 0.000056
# 6 -0.000031 0.000011 -0.000013 -0.013483 0.000056 0.062780
#
#
# Mechanical properties :
#
#
# Convention : Reuss Voigt Hill
#
# Bulk Modulus (GPa) = 29.77552 36.82879 33.30216
# Shear Modulus (GPa) = 15.02944 18.17493 16.60218
#
# Velocity S-wave (km/s) = 3.04136 3.34451 3.19653
# Velocity P-wave (km/s) = 5.53701 6.13030 5.84119
#
# Compressibility (1/GPa) = 0.03358463
#
# Stress axis : x y z
#
# Youngs Moduli (GPa) = 24.26953 37.13616 72.59416
#
# Poissons Ratio (x) = 0.72537 -0.10058
# Poissons Ratio (y) = 0.47405 0.43659
# Poissons Ratio (z) = -0.03363 0.22334
#
# Static dielectric constant tensor:
#      x y z
#    x 2.658960 -0.000010 0.078870 
#    y -0.000010 2.972820 0.000040 
#    z 0.078870 0.000040 3.493200 
# 
# 
# High freq. dielectric constant tensor:
#      x y z
#    x 1.557200 0.000000 0.002250 
#    y 0.000000 1.612820 0.000000 
#    z 0.002250 0.000000 1.652840 
# 
# From -- ./inp_files/63782.got.cif
#   From: 2010.06.25/outbox.cif.g09.slc.cpg/sg15_32_cif.got.tgz:63782.got - 2010.06.28 07:06:18.
