data_PCOD8132677
_publ_section_title
;
Structure prediction by ZEFSAII (Michael W. Deem and Ramdas Pophale) SiO2 
 PCOD8132677
Probable space group: C 2/C
;
_chemical_formula_sum "Si O2"
_cell_formula_units_Z 60
_cell_length_a 14.465851
_cell_length_b 15.900213
_cell_length_c 13.515080
_cell_angle_alpha 90.000000
_cell_angle_beta 105.907851
_cell_angle_gamma 90.000000
_cell_volume 2989.557184
_symmetry_space_group_name_H-M "C 2/C"
_symmetry_group_IT_number 15
_symmetry_cell_setting 'monoclinic'
loop_
_space_group_symop_operation_xyz
x,y,z
-x,y,1/2-z
-x,-y,-z
x,-y,1/2+z
1/2+x,1/2+y,z
1/2-x,1/2+y,1/2-z
1/2-x,1/2-y,-z
1/2+x,1/2-y,1/2+z
loop_
_atom_site_type_symbol
_atom_site_label
_atom_site_fract_x
_atom_site_fract_y
_atom_site_fract_z
Si Si1 0.640209 0.272407 0.439104
Si Si2 0.532345 0.687302 0.104817
Si Si3 0.674149 0.274414 0.897428
Si Si4 0.500000 0.987196 0.250000
Si Si5 0.730421 0.417057 0.377073
Si Si6 0.342966 0.094223 0.112352
Si Si7 0.376180 0.843428 0.275878
Si Si8 0.193509 0.087022 0.248041
O O1 0.750000 0.250000 0.500000
O O2 0.567347 0.293392 0.505359
O O3 0.638191 0.358622 0.375076
O O4 0.609759 0.187666 0.374288
O O5 0.417181 0.677169 0.079361
O O6 0.552921 0.769111 0.174554
O O7 0.588284 0.606602 0.168716
O O8 0.655952 0.182700 0.843573
O O9 0.720551 0.336980 0.829668
O O10 0.750000 0.250000 0.000000
O O11 0.430682 0.931397 0.296977
O O12 0.437249 0.038963 0.154142
O O13 0.790505 0.435424 0.495532
O O14 0.788762 0.353534 0.324583
O O15 0.694762 0.500313 0.310279
O O16 0.270466 0.083203 0.182655
#
# Coordination Sequence:
#
# PCOD8132677 Si02
#       8
#     8   8   8   4   8   8   8   8
#     4  10  18  39  69  92 124 177 213 262 330 401
#     4  11  20  43  70  92 130 173 222 268 336 390
#     4  11  26  42  68  96 131 173 225 276 334 399
#     4  12  24  36  64 106 138 162 218 284 338 406
#     4  11  22  39  69  94 130 177 221 267 327 401
#     4  11  23  40  63  99 140 171 218 273 338 400
#     4  11  20  40  66  97 131 172 210 273 341 394
#     4  11  22  39  66  98 130 174 217 276 325 389
#
# _framework density 20.069861
#
# number of rings (size 3 to 8) (size 9 to 14) (size 15 to 20)
#    0.000    1.067    8.000    2.000    1.867    1.600 
#    0.000    0.667    5.867    0.000    0.000    0.000 
#    0.000    0.000    0.000    0.000    0.000    0.000 
#
# Total GULP energy -371708.478769 kJ/mol
# GULP energy per Si atom -12390.282626 kJ/mol
# Density = 2.002418 g / cm^3
# Si number density = 20.069861 Si / 1000 Ang^3
#
#
#
# Elastic Constant Matrix: (Units=GPa)
#
#
# Indices 1 2 3 4 5 6 
#
# 1 96.6112 40.3543 73.5302 0.0000 -7.9187 0.0000
# 2 40.3543 136.5634 63.7410 0.0000 3.1663 0.0000
# 3 73.5302 63.7410 112.8724 0.0000 -14.1205 0.0000
# 4 0.0000 0.0000 0.0000 23.2553 0.0000 -7.9256
# 5 -7.9187 3.1663 -14.1205 0.0000 30.7220 0.0000
# 6 0.0000 0.0000 0.0000 -7.9256 0.0000 30.4415
#
#
#
# Elastic Compliance Matrix: (Units=1/GPa)
#
#
# Indices 1 2 3 4 5 6 
#
# 1 0.020566 0.000355 -0.013729 0.000000 -0.001046 0.000000
# 2 0.000355 0.010392 -0.006602 0.000000 -0.004014 0.000000
# 3 -0.013729 -0.006602 0.022466 0.000000 0.007467 0.000000
# 4 0.000000 0.000000 0.000000 0.047188 0.000000 0.012286
# 5 -0.001046 -0.004014 0.007467 0.000000 0.036126 0.000000
# 6 0.000000 0.000000 0.000000 0.012286 0.000000 0.036049
#
#
# Mechanical properties :
#
#
# Convention : Reuss Voigt Hill
#
# Bulk Modulus (GPa) = 74.22876 77.92201 76.07539
# Shear Modulus (GPa) = 23.01723 28.11186 25.56454
#
# Velocity S-wave (km/s) = 3.39020 3.74665 3.57287
# Velocity P-wave (km/s) = 7.23810 7.59119 7.41675
#
# Compressibility (1/GPa) = 0.01347187
#
# Stress axis : x y z
#
# Youngs Moduli (GPa) = 48.62495 96.22483 44.51256
#
# Poissons Ratio (x) = -0.03416 0.61110
# Poissons Ratio (y) = -0.01726 0.29388
# Poissons Ratio (z) = 0.66755 0.63529
#
# Static dielectric constant tensor:
#      x y z
#    x 3.720970 0.000000 0.049660 
#    y 0.000000 4.213140 0.000000 
#    z 0.049660 0.000000 4.075840 
# 
# 
# High freq. dielectric constant tensor:
#      x y z
#    x 1.776450 0.000000 -0.026780 
#    y 0.000000 1.789680 0.000000 
#    z -0.026780 0.000000 1.777530 
# 
# From -- ./inp_files/154012.got.cif
#   From: 2010.06.25/outbox.cif.g09.slc.cpg/sg15_78_cif.got.tgz:154012.got - 2010.06.28 07:06:18.
