data_PCOD8132945
_publ_section_title
;
Structure prediction by ZEFSAII (Michael W. Deem and Ramdas Pophale) SiO2 
 PCOD8132945
Probable space group: C 2/C
;
_chemical_formula_sum "Si O2"
_cell_formula_units_Z 64
_cell_length_a 18.207971
_cell_length_b 5.301324
_cell_length_c 31.919589
_cell_angle_alpha 90.000000
_cell_angle_beta 74.727742
_cell_angle_gamma 90.000000
_cell_volume 2972.273357
_symmetry_space_group_name_H-M "C 2/C"
_symmetry_group_IT_number 15
_symmetry_cell_setting 'monoclinic'
loop_
_space_group_symop_operation_xyz
x,y,z
-x,y,1/2-z
-x,-y,-z
x,-y,1/2+z
1/2+x,1/2+y,z
1/2-x,1/2+y,1/2-z
1/2-x,1/2-y,-z
1/2+x,1/2-y,1/2+z
loop_
_atom_site_type_symbol
_atom_site_label
_atom_site_fract_x
_atom_site_fract_y
_atom_site_fract_z
Si Si1 0.941129 0.500020 0.448883
Si Si2 0.621590 0.499481 0.666888
Si Si3 0.183437 0.499486 0.766623
Si Si4 0.643800 0.499481 0.754837
Si Si5 0.706999 0.000502 0.163961
Si Si6 0.112244 0.500047 0.454270
Si Si7 0.360232 0.500009 0.096340
Si Si8 0.969284 0.999980 0.398316
O O1 0.881064 0.500010 0.496265
O O2 0.929025 0.752820 0.423717
O O3 0.024977 0.500275 0.454704
O O4 0.929060 0.247035 0.423762
O O5 0.593552 0.499469 0.720115
O O6 0.669640 0.750215 0.649410
O O7 0.546227 0.499774 0.649348
O O8 0.669497 0.248492 0.649410
O O9 0.266477 0.499481 0.775672
O O10 0.133533 0.748972 0.785075
O O11 0.195155 0.499536 0.715131
O O12 0.133528 0.250009 0.785069
O O13 0.796645 0.000187 0.141627
O O14 0.151261 0.752426 0.430539
O O15 0.151193 0.247553 0.430561
O O16 0.440761 0.499901 0.107905
#
# Coordination Sequence:
#
# PCOD8132945 Si02
#       8
#     8   8   8   8   8   8   8   8
#     4   9  17  30  49  70  89 115 155 195 225 261
#     4  10  19  31  48  69  95 124 151 185 228 272
#     4   8  14  25  42  64  87 114 151 187 215 252
#     4   8  14  25  42  64  87 114 151 187 215 252
#     4  10  19  31  48  69  95 124 151 185 228 272
#     4   9  17  30  49  70  89 115 155 195 225 261
#     4  10  19  31  49  71  93 118 151 191 230 270
#     4  10  19  31  49  71  93 118 151 191 230 270
#
# _framework density 21.532342
#
# number of rings (size 3 to 8) (size 9 to 14) (size 15 to 20)
#    0.000    2.750    0.000    2.250    0.000    3.000 
#    0.000    0.000    0.000   15.750    0.000    0.000 
#    0.000   26.000    0.000    0.000    0.000    4.000 
#
# Total GULP energy -396520.539407 kJ/mol
# GULP energy per Si atom -12391.266856 kJ/mol
# Density = 2.148333 g / cm^3
# Si number density = 21.532342 Si / 1000 Ang^3
#
#
#
# Elastic Constant Matrix: (Units=GPa)
#
#
# Indices 1 2 3 4 5 6 
#
# 1 34.3841 12.1648 6.0027 0.0051 2.7240 -0.0022
# 2 12.1648 208.2106 1.7183 0.0175 3.5060 -0.0192
# 3 6.0027 1.7183 8.2158 0.0096 11.4131 -0.0103
# 4 0.0051 0.0175 0.0096 14.2377 -0.0005 1.0883
# 5 2.7240 3.5060 11.4131 -0.0005 27.5956 0.0009
# 6 -0.0022 -0.0192 -0.0103 1.0883 0.0009 13.2412
#
#
#
# Elastic Compliance Matrix: (Units=1/GPa)
#
#
# Indices 1 2 3 4 5 6 
#
# 1 0.037477 -0.002065 -0.052121 0.000028 0.018119 -0.000041
# 2 -0.002065 0.004927 0.002502 -0.000008 -0.001457 0.000009
# 3 -0.052121 0.002502 0.358598 -0.000253 -0.143483 0.000303
# 4 0.000028 -0.000008 -0.000253 0.070680 0.000104 -0.005809
# 5 0.018119 -0.001457 -0.143483 0.000104 0.093976 -0.000125
# 6 -0.000041 0.000009 0.000303 -0.005809 -0.000125 0.076000
#
#
# Mechanical properties :
#
#
# Convention : Reuss Voigt Hill
#
# Bulk Modulus (GPa) = 3.35982 32.28689 17.82335
# Shear Modulus (GPa) = 5.92250 26.40987 16.16618
#
# Velocity S-wave (km/s) = 1.66027 3.50597 2.74302
# Velocity P-wave (km/s) = 2.28890 5.60502 4.28108
#
# Compressibility (1/GPa) = 0.29763516
#
# Stress axis : x y z
#
# Youngs Moduli (GPa) = 26.68280 202.94912 2.78864
#
# Poissons Ratio (x) = 0.41901 0.14535
# Poissons Ratio (y) = 0.05509 -0.00698
# Poissons Ratio (z) = 1.39073 -0.50777
#
# Static dielectric constant tensor:
#      x y z
#    x 3.273430 -0.000010 0.231140 
#    y -0.000010 5.138280 -0.000030 
#    z 0.231140 -0.000030 3.651940 
# 
# 
# High freq. dielectric constant tensor:
#      x y z
#    x 1.787590 0.000000 0.023860 
#    y 0.000000 1.886010 0.000000 
#    z 0.023860 0.000000 1.821330 
# 
# From -- ./inp_files/315085.got.cif
#   From: 2010.06.25/outbox.cif.g09.slc.cpg/sg15_158_cif.got.tgz:315085.got - 2010.06.28 07:06:18.
