data_PCOD8132752
_publ_section_title
;
Structure prediction by ZEFSAII (Michael W. Deem and Ramdas Pophale) SiO2 
 PCOD8132752
Probable space group: C 2/C
;
_chemical_formula_sum "Si O2"
_cell_formula_units_Z 52
_cell_length_a 7.806827
_cell_length_b 31.016147
_cell_length_c 14.163587
_cell_angle_alpha 90.000000
_cell_angle_beta 41.807700
_cell_angle_gamma 90.000000
_cell_volume 2286.242197
_symmetry_space_group_name_H-M "C 2/C"
_symmetry_group_IT_number 15
_symmetry_cell_setting 'monoclinic'
loop_
_space_group_symop_operation_xyz
x,y,z
-x,y,1/2-z
-x,-y,-z
x,-y,1/2+z
1/2+x,1/2+y,z
1/2-x,1/2+y,1/2-z
1/2-x,1/2-y,-z
1/2+x,1/2-y,1/2+z
loop_
_atom_site_type_symbol
_atom_site_label
_atom_site_fract_x
_atom_site_fract_y
_atom_site_fract_z
Si Si1 0.017612 0.564050 0.073562
Si Si2 0.000000 0.494356 0.750000
Si Si3 0.336913 0.064862 0.690966
Si Si4 0.493563 0.273146 0.357207
Si Si5 0.500000 0.206971 0.750000
Si Si6 0.500000 0.603382 0.250000
Si Si7 0.742042 0.365637 0.467929
Si Si8 0.422171 0.370468 0.421171
O O1 0.124153 0.534845 0.116123
O O2 0.711468 0.570853 0.206990
O O3 0.111772 0.544588 0.934317
O O4 0.132663 0.612366 0.035142
O O5 0.793517 0.525202 0.781548
O O6 0.587036 0.092048 0.618850
O O7 0.094933 0.096359 0.789859
O O8 0.500000 0.253260 0.250000
O O9 0.250000 0.250000 0.500000
O O10 0.439566 0.323725 0.368871
O O11 0.759687 0.264901 0.307898
O O12 0.592023 0.177123 0.624140
O O13 0.369791 0.634977 0.380406
O O14 0.502376 0.368449 0.496899
#
# Coordination Sequence:
#
# PCOD8132752 Si02
#       8
#     8   4   8   8   4   4   8   8
#     4  11  25  40  60  95 135 183 225 298 347 404
#     4  12  23  42  58  96 139 178 233 294 350 395
#     4  11  20  41  67  95 123 183 238 282 338 414
#     4  11  25  47  74 112 143 183 237 296 356 442
#     4  10  21  44  77  98 146 188 234 282 356 430
#     4  10  24  40  59  98 139 168 237 286 348 399
#     4  10  18  40  68  99 125 182 227 281 342 412
#     4  11  21  44  74  94 131 181 239 278 349 424
#
# _framework density 22.744748000000001
#
# number of rings (size 3 to 8) (size 9 to 14) (size 15 to 20)
#    0.000    1.231    4.615    2.769    2.154    1.231 
#   15.231    0.769    0.000    0.000    0.000    0.000 
#    0.000    0.000    0.000    0.000    0.000    0.000 
#
# Total GULP energy -322271.441110 kJ/mol
# GULP energy per Si atom -12395.055427 kJ/mol
# Density = 2.269298 g / cm^3
# Si number density = 22.744748 Si / 1000 Ang^3
#
#
#
# Elastic Constant Matrix: (Units=GPa)
#
#
# Indices 1 2 3 4 5 6 
#
# 1 133.1938 40.3977 64.8173 0.0000 0.1396 0.0000
# 2 40.3977 54.5103 45.7942 0.0000 -3.4041 0.0000
# 3 64.8173 45.7942 140.8835 0.0000 9.0420 0.0000
# 4 0.0000 0.0000 0.0000 25.8379 0.0000 -5.3011
# 5 0.1396 -3.4041 9.0420 0.0000 47.8940 0.0000
# 6 0.0000 0.0000 0.0000 -5.3011 0.0000 14.9431
#
#
#
# Elastic Compliance Matrix: (Units=1/GPa)
#
#
# Indices 1 2 3 4 5 6 
#
# 1 0.010647 -0.005159 -0.003235 0.000000 0.000213 0.000000
# 2 -0.005159 0.028290 -0.007037 0.000000 0.003354 0.000000
# 3 -0.003235 -0.007037 0.011039 0.000000 -0.002575 0.000000
# 4 0.000000 0.000000 0.000000 0.041741 0.000000 0.014808
# 5 0.000213 0.003354 -0.002575 0.000000 0.021603 0.000000
# 6 0.000000 0.000000 0.000000 0.014808 0.000000 0.072174
#
#
# Mechanical properties :
#
#
# Convention : Reuss Voigt Hill
#
# Bulk Modulus (GPa) = 52.32070 70.06735 61.19402
# Shear Modulus (GPa) = 22.44888 29.57356 26.01122
#
# Velocity S-wave (km/s) = 3.14505 3.60979 3.38541
# Velocity P-wave (km/s) = 6.02012 6.94600 6.49957
#
# Compressibility (1/GPa) = 0.01911290
#
# Stress axis : x y z
#
# Youngs Moduli (GPa) = 93.92586 35.34781 90.58673
#
# Poissons Ratio (x) = 0.18237 0.29304
# Poissons Ratio (y) = 0.48459 0.63749
# Poissons Ratio (z) = 0.30384 0.24876
#
# Static dielectric constant tensor:
#      x y z
#    x 4.337270 0.000000 0.104800 
#    y 0.000000 3.889660 0.000000 
#    z 0.104800 0.000000 4.114320 
# 
# 
# High freq. dielectric constant tensor:
#      x y z
#    x 1.915690 0.000000 0.013810 
#    y 0.000000 1.865360 0.000000 
#    z 0.013810 0.000000 1.891620 
# 
# From -- ./inp_files/139782.got.cif
#   From: 2010.06.25/outbox.cif.g09.slc.cpg/sg15_70_cif.got.tgz:139782.got - 2010.06.28 07:06:18.
