data_PCOD8132174
_publ_section_title
;
Structure prediction by ZEFSAII (Michael W. Deem and Ramdas Pophale) SiO2 
 PCOD8132174
Probable space group: C 2/C
;
_chemical_formula_sum "Si O2"
_cell_formula_units_Z 48
_cell_length_a 16.177162
_cell_length_b 9.282899
_cell_length_c 15.719078
_cell_angle_alpha 90.000000
_cell_angle_beta 74.286231
_cell_angle_gamma 90.000000
_cell_volume 2272.327516
_symmetry_space_group_name_H-M "C 2/C"
_symmetry_group_IT_number 15
_symmetry_cell_setting 'monoclinic'
loop_
_space_group_symop_operation_xyz
x,y,z
-x,y,1/2-z
-x,-y,-z
x,-y,1/2+z
1/2+x,1/2+y,z
1/2-x,1/2+y,1/2-z
1/2-x,1/2-y,-z
1/2+x,1/2-y,1/2+z
loop_
_atom_site_type_symbol
_atom_site_label
_atom_site_fract_x
_atom_site_fract_y
_atom_site_fract_z
Si Si1 0.826712 0.906564 0.255045
Si Si2 0.162404 0.643044 0.687350
Si Si3 0.554588 0.352006 0.835237
Si Si4 0.164688 0.663982 0.131067
Si Si5 0.358369 0.593517 0.398221
Si Si6 0.642138 0.650283 0.477704
O O1 0.745654 0.899236 0.216875
O O2 0.858713 0.748504 0.275134
O O3 0.900220 0.993233 0.186622
O O4 0.805451 0.990201 0.348999
O O5 0.094984 0.721613 0.768799
O O6 0.126870 0.496530 0.654157
O O7 0.185426 0.748755 0.600417
O O8 0.455930 0.377434 0.838238
O O9 0.566124 0.316788 0.932208
O O10 0.267584 0.672928 0.093785
O O11 0.123264 0.738554 0.059731
O O12 0.358200 0.517547 0.489984
#
# Coordination Sequence:
#
# PCOD8132174 Si02
#       6
#     8   8   8   8   8   8
#     4  10  18  36  58  84 111 152 199 233 280 344
#     4  11  19  36  57  86 115 148 197 240 285 337
#     4  11  21  40  61  87 115 156 196 241 288 345
#     4  10  20  35  57  90 114 150 193 249 288 332
#     4  10  23  37  60  85 119 154 190 238 293 352
#     4  10  20  38  59  83 122 153 192 235 295 352
#
# _framework density 21.123716999999999
#
# number of rings (size 3 to 8) (size 9 to 14) (size 15 to 20)
#    0.000    1.667    3.333    3.500    0.000    0.667 
#    0.000    7.500    0.000    0.000    0.000    0.000 
#    0.000    0.000    0.000    0.000    0.000    0.000 
#
# Total GULP energy -297380.401677 kJ/mol
# GULP energy per Si atom -12390.850070 kJ/mol
# Density = 2.107564 g / cm^3
# Si number density = 21.123717 Si / 1000 Ang^3
#
#
#
# Elastic Constant Matrix: (Units=GPa)
#
#
# Indices 1 2 3 4 5 6 
#
# 1 78.0706 30.5804 23.5761 0.0000 11.3216 0.0000
# 2 30.5804 171.6351 52.6738 0.0000 17.0972 0.0000
# 3 23.5761 52.6738 83.2373 0.0000 21.7728 0.0000
# 4 0.0000 0.0000 0.0000 29.7679 0.0000 2.0942
# 5 11.3216 17.0972 21.7728 0.0000 22.1624 0.0000
# 6 0.0000 0.0000 0.0000 2.0942 0.0000 25.3226
#
#
#
# Elastic Compliance Matrix: (Units=1/GPa)
#
#
# Indices 1 2 3 4 5 6 
#
# 1 0.014657 -0.001557 -0.002048 0.000000 -0.004274 0.000000
# 2 -0.001557 0.007431 -0.003997 0.000000 -0.001010 0.000000
# 3 -0.002048 -0.003997 0.018900 0.000000 -0.014438 0.000000
# 4 0.000000 0.000000 0.000000 0.033790 0.000000 -0.002794
# 5 -0.004274 -0.001010 -0.014438 0.000000 0.062268 0.000000
# 6 0.000000 0.000000 0.000000 -0.002794 0.000000 0.039722
#
#
# Mechanical properties :
#
#
# Convention : Reuss Voigt Hill
#
# Bulk Modulus (GPa) = 38.78453 60.73376 49.75914
# Shear Modulus (GPa) = 24.92927 30.52476 27.72701
#
# Velocity S-wave (km/s) = 3.43907 3.80550 3.62691
# Velocity P-wave (km/s) = 5.84552 6.93707 6.41456
#
# Compressibility (1/GPa) = 0.02578348
#
# Stress axis : x y z
#
# Youngs Moduli (GPa) = 68.22589 134.56935 52.91003
#
# Poissons Ratio (x) = 0.20955 0.10836
# Poissons Ratio (y) = 0.10624 0.21149
# Poissons Ratio (z) = 0.13973 0.53790
#
# Static dielectric constant tensor:
#      x y z
#    x 3.626210 0.000000 0.351470 
#    y 0.000000 4.253110 0.000000 
#    z 0.351470 0.000000 3.940170 
# 
# 
# High freq. dielectric constant tensor:
#      x y z
#    x 1.802740 0.000000 0.033330 
#    y 0.000000 1.835770 0.000000 
#    z 0.033330 0.000000 1.825530 
# 
# From -- ./inp_files/208541.got.cif
#   From: 2010.06.25/outbox.cif.g09.slc.cpg/sg15_105_cif.got.tgz:208541.got - 2010.06.28 07:06:18.
