data_PCOD8132434
_publ_section_title
;
Structure prediction by ZEFSAII (Michael W. Deem and Ramdas Pophale) SiO2 
 PCOD8132434
Probable space group: C 2/C
;
_chemical_formula_sum "Si O2"
_cell_formula_units_Z 60
_cell_length_a 12.977983
_cell_length_b 28.152908
_cell_length_c 7.941398
_cell_angle_alpha 90.000000
_cell_angle_beta 115.125871
_cell_angle_gamma 90.000000
_cell_volume 2626.981180
_symmetry_space_group_name_H-M "C 2/C"
_symmetry_group_IT_number 15
_symmetry_cell_setting 'monoclinic'
loop_
_space_group_symop_operation_xyz
x,y,z
-x,y,1/2-z
-x,-y,-z
x,-y,1/2+z
1/2+x,1/2+y,z
1/2-x,1/2+y,1/2-z
1/2-x,1/2-y,-z
1/2+x,1/2-y,1/2+z
loop_
_atom_site_type_symbol
_atom_site_label
_atom_site_fract_x
_atom_site_fract_y
_atom_site_fract_z
Si Si1 0.234373 0.952060 0.264693
Si Si2 0.371076 0.022824 0.165960
Si Si3 0.558045 0.295177 0.110395
Si Si4 0.013763 0.689536 0.059422
Si Si5 0.276589 0.848243 0.345772
Si Si6 0.303811 0.879722 0.746520
Si Si7 0.054668 0.117944 0.122383
Si Si8 0.000000 0.060084 0.750000
O O1 0.341533 0.959179 0.461043
O O2 0.234171 0.895983 0.218651
O O3 0.111665 0.968721 0.260100
O O4 0.271924 0.984020 0.133395
O O5 0.500000 0.002536 0.250000
O O6 0.362750 0.068309 0.283472
O O7 0.500000 0.299767 0.250000
O O8 0.545157 0.242584 0.024282
O O9 0.690598 0.306810 0.231734
O O10 0.498238 0.329796 0.935329
O O11 0.116273 0.654066 0.086128
O O12 0.000000 0.686974 0.250000
O O13 0.901848 0.670766 0.884035
O O14 0.273926 0.858491 0.542644
O O15 0.186244 0.881565 0.764107
O O16 0.000000 0.092956 0.250000
O O17 0.039550 0.090555 0.936539
#
# Coordination Sequence:
#
# PCOD8132434 Si02
#       8
#     8   8   8   8   8   8   8   4
#     4  11  23  41  68  94 135 179 217 288 337 403
#     4  11  23  41  66  97 130 173 225 280 340 405
#     4  11  19  36  63  94 131 172 218 274 331 400
#     4   9  21  30  63 100 125 174 228 269 329 414
#     4  10  18  37  62  91 131 174 213 274 338 388
#     4  10  19  40  59  93 134 169 219 278 334 398
#     4  12  23  40  70  95 130 182 221 273 337 399
#     4  12  22  50  64  98 142 174 226 280 338 398
#
# _framework density 22.839905999999999
#
# number of rings (size 3 to 8) (size 9 to 14) (size 15 to 20)
#    0.000    1.333    6.000    2.400    1.867    3.200 
#    1.200    0.667    0.000    0.000    0.000    0.000 
#    0.000    0.000    0.000    0.000    0.000    0.000 
#
# Total GULP energy -371851.093299 kJ/mol
# GULP energy per Si atom -12395.036443 kJ/mol
# Density = 2.278792 g / cm^3
# Si number density = 22.839906 Si / 1000 Ang^3
#
#
#
# Elastic Constant Matrix: (Units=GPa)
#
#
# Indices 1 2 3 4 5 6 
#
# 1 168.6962 47.4359 37.1130 0.0000 31.4718 0.0000
# 2 47.4359 81.5144 11.4193 0.0000 7.3589 0.0000
# 3 37.1130 11.4193 34.5357 0.0000 9.4406 0.0000
# 4 0.0000 0.0000 0.0000 11.2759 0.0000 9.1910
# 5 31.4718 7.3589 9.4406 0.0000 35.2454 0.0000
# 6 0.0000 0.0000 0.0000 9.1910 0.0000 36.4649
#
#
#
# Elastic Compliance Matrix: (Units=1/GPa)
#
#
# Indices 1 2 3 4 5 6 
#
# 1 0.009873 -0.004144 -0.007624 0.000000 -0.005908 0.000000
# 2 -0.004144 0.014694 -0.000624 0.000000 0.000799 0.000000
# 3 -0.007624 -0.000624 0.038260 0.000000 -0.003310 0.000000
# 4 0.000000 0.000000 0.000000 0.111615 0.000000 -0.028133
# 5 -0.005908 0.000799 -0.003310 0.000000 0.034368 0.000000
# 6 0.000000 0.000000 0.000000 -0.028133 0.000000 0.034515
#
#
# Mechanical properties :
#
#
# Convention : Reuss Voigt Hill
#
# Bulk Modulus (GPa) = 26.28632 52.96474 39.62553
# Shear Modulus (GPa) = 17.80693 29.18244 23.49468
#
# Velocity S-wave (km/s) = 2.79523 3.57836 3.21077
# Velocity P-wave (km/s) = 4.68527 6.34924 5.57963
#
# Compressibility (1/GPa) = 0.03804260
#
# Stress axis : x y z
#
# Youngs Moduli (GPa) = 101.29125 68.05301 26.13707
#
# Poissons Ratio (x) = 0.28199 0.19927
# Poissons Ratio (y) = 0.41972 0.01632
# Poissons Ratio (z) = 0.77225 0.04248
#
# Static dielectric constant tensor:
#      x y z
#    x 4.287100 0.000000 0.318060 
#    y 0.000000 4.339520 0.000000 
#    z 0.318060 0.000000 3.762030 
# 
# 
# High freq. dielectric constant tensor:
#      x y z
#    x 1.905690 0.000000 0.027310 
#    y 0.000000 1.889500 0.000000 
#    z 0.027310 0.000000 1.878800 
# 
# From -- ./inp_files/35741.got.cif
#   From: 2010.06.25/outbox.cif.g09.slc.cpg/sg15_18_cif.got.tgz:35741.got - 2010.06.28 07:06:18.
