data_PCOD8132068
_publ_section_title
;
Structure prediction by ZEFSAII (Michael W. Deem and Ramdas Pophale) SiO2 
 PCOD8132068
Probable space group: C 2/C
;
_chemical_formula_sum "Si O2"
_cell_formula_units_Z 48
_cell_length_a 14.981787
_cell_length_b 10.770398
_cell_length_c 16.502779
_cell_angle_alpha 90.000000
_cell_angle_beta 121.114762
_cell_angle_gamma 90.000000
_cell_volume 2279.786542
_symmetry_space_group_name_H-M "C 2/C"
_symmetry_group_IT_number 15
_symmetry_cell_setting 'monoclinic'
loop_
_space_group_symop_operation_xyz
x,y,z
-x,y,1/2-z
-x,-y,-z
x,-y,1/2+z
1/2+x,1/2+y,z
1/2-x,1/2+y,1/2-z
1/2-x,1/2-y,-z
1/2+x,1/2-y,1/2+z
loop_
_atom_site_type_symbol
_atom_site_label
_atom_site_fract_x
_atom_site_fract_y
_atom_site_fract_z
Si Si1 0.660641 0.055709 0.589535
Si Si2 0.095814 0.680680 0.132319
Si Si3 0.500000 0.659235 0.250000
Si Si4 0.627504 0.543882 0.889350
Si Si5 0.081829 0.190093 0.017650
Si Si6 0.171446 0.751159 0.720534
Si Si7 0.000000 0.252130 0.750000
O O1 0.761222 0.000047 0.591649
O O2 0.615975 0.166470 0.511505
O O3 0.688193 0.113864 0.691440
O O4 0.580519 0.943183 0.570247
O O5 0.219381 0.696779 0.198140
O O6 0.043048 0.798778 0.060066
O O7 0.043590 0.664515 0.196779
O O8 0.452005 0.570274 0.157907
O O9 0.410721 0.748187 0.244359
O O10 0.633100 0.583930 0.986146
O O11 0.594964 0.665537 0.823457
O O12 0.117902 0.160178 0.125922
#
# Coordination Sequence:
#
# PCOD8132068 Si02
#       7
#     8   8   4   8   8   8   4
#     4  10  20  36  59  86 118 151 193 241 293 345
#     4  11  19  37  61  87 119 161 189 245 297 341
#     4  11  22  39  60  86 116 167 190 239 298 352
#     4  10  18  35  63  82 114 151 203 243 281 338
#     4   9  22  36  60  89 120 144 204 245 289 340
#     4  10  23  38  58  86 124 149 199 243 290 351
#     4   9  18  31  56  90 108 149 204 235 282 338
#
# _framework density 21.054601999999999
#
# number of rings (size 3 to 8) (size 9 to 14) (size 15 to 20)
#    1.000    1.000    3.333    1.000    0.000    1.333 
#    0.000    0.833    0.000    0.000    0.000    0.000 
#    0.000    0.000    0.000    0.000    0.000    0.000 
#
# Total GULP energy -297325.257688 kJ/mol
# GULP energy per Si atom -12388.552404 kJ/mol
# Density = 2.100668 g / cm^3
# Si number density = 21.054602 Si / 1000 Ang^3
#
#
#
# Elastic Constant Matrix: (Units=GPa)
#
#
# Indices 1 2 3 4 5 6 
#
# 1 125.6744 15.4328 20.5979 0.0000 7.2158 0.0000
# 2 15.4328 30.5862 -11.9269 0.0000 0.0027 0.0000
# 3 20.5979 -11.9269 76.1731 0.0000 8.6724 0.0000
# 4 0.0000 0.0000 0.0000 22.5826 0.0000 -3.6871
# 5 7.2158 0.0027 8.6724 0.0000 17.0649 0.0000
# 6 0.0000 0.0000 0.0000 -3.6871 0.0000 26.4524
#
#
#
# Elastic Compliance Matrix: (Units=1/GPa)
#
#
# Indices 1 2 3 4 5 6 
#
# 1 0.009347 -0.005962 -0.003196 0.000000 -0.002327 0.000000
# 2 -0.005962 0.038764 0.007850 0.000000 -0.001474 0.000000
# 3 -0.003196 0.007850 0.015993 0.000000 -0.006777 0.000000
# 4 0.000000 0.000000 0.000000 0.045313 0.000000 0.006316
# 5 -0.002327 -0.001474 -0.006777 0.000000 0.063028 0.000000
# 6 0.000000 0.000000 0.000000 0.006316 0.000000 0.038684
#
#
# Mechanical properties :
#
#
# Convention : Reuss Voigt Hill
#
# Bulk Modulus (GPa) = 16.26379 31.18236 23.72307
# Shear Modulus (GPa) = 21.34552 27.10866 24.22709
#
# Velocity S-wave (km/s) = 3.18750 3.59212 3.39585
# Velocity P-wave (km/s) = 4.61392 5.66099 5.16406
#
# Compressibility (1/GPa) = 0.06148630
#
# Stress axis : x y z
#
# Youngs Moduli (GPa) = 106.99026 25.79726 62.52775
#
# Poissons Ratio (x) = 0.15380 0.19984
# Poissons Ratio (y) = 0.63788 -0.49081
# Poissons Ratio (z) = 0.34194 -0.20250
#
# Static dielectric constant tensor:
#      x y z
#    x 3.618010 0.000000 0.108950 
#    y 0.000000 3.436440 0.000000 
#    z 0.108950 0.000000 3.811990 
# 
# 
# High freq. dielectric constant tensor:
#      x y z
#    x 1.822560 0.000000 0.011310 
#    y 0.000000 1.790640 0.000000 
#    z 0.011310 0.000000 1.820120 
# 
# From -- ./inp_files/243157.got.cif
#   From: 2010.06.25/outbox.cif.g09.slc.cpg/sg15_122_cif.got.tgz:243157.got - 2010.06.28 07:06:18.
