data_PCOD8132352
_publ_section_title
;
Structure prediction by ZEFSAII (Michael W. Deem and Ramdas Pophale) SiO2 
 PCOD8132352
Probable space group: C 2/C
;
_chemical_formula_sum "Si O2"
_cell_formula_units_Z 64
_cell_length_a 13.688115
_cell_length_b 14.978535
_cell_length_c 21.675260
_cell_angle_alpha 90.000000
_cell_angle_beta 135.704794
_cell_angle_gamma 90.000000
_cell_volume 3103.514617
_symmetry_space_group_name_H-M "C 2/C"
_symmetry_group_IT_number 15
_symmetry_cell_setting 'monoclinic'
loop_
_space_group_symop_operation_xyz
x,y,z
-x,y,1/2-z
-x,-y,-z
x,-y,1/2+z
1/2+x,1/2+y,z
1/2-x,1/2+y,1/2-z
1/2-x,1/2-y,-z
1/2+x,1/2-y,1/2+z
loop_
_atom_site_type_symbol
_atom_site_label
_atom_site_fract_x
_atom_site_fract_y
_atom_site_fract_z
Si Si1 0.319818 0.368022 0.483470
Si Si2 0.925155 0.685297 0.104919
Si Si3 0.646318 0.980562 0.851735
Si Si4 0.223194 0.714940 0.588795
Si Si5 0.184923 0.331081 0.545019
Si Si6 0.302165 0.104302 0.312114
Si Si7 0.130890 0.882373 0.623303
Si Si8 0.080195 0.437477 0.083773
O O1 0.190059 0.425215 0.399926
O O2 0.304555 0.355557 0.550136
O O3 0.318927 0.274610 0.447269
O O4 0.471152 0.412547 0.540175
O O5 0.856393 0.591180 0.093947
O O6 0.881058 0.758718 0.137467
O O7 0.091296 0.672470 0.174449
O O8 0.874136 0.717422 0.015490
O O9 0.500000 0.986619 0.750000
O O10 0.767096 0.955964 0.858519
O O11 0.162699 0.785270 0.610016
O O12 0.212625 0.615880 0.613543
O O13 0.223116 0.374084 0.627866
O O14 0.035546 0.364072 0.449128
O O15 0.158953 0.115886 0.209901
O O16 0.362839 0.001769 0.335935
O O17 0.000000 0.500000 0.000000
#
# Coordination Sequence:
#
# PCOD8132352 Si02
#       8
#     8   8   8   8   8   8   8   8
#     4  11  23  42  63  90 131 174 215 267 328 387
#     4  10  19  37  65  96 124 167 212 272 329 389
#     4  11  23  40  67  97 129 168 222 268 329 398
#     4  10  20  36  66  94 126 166 217 268 334 387
#     4  10  22  40  64  91 122 174 220 262 319 390
#     4  11  21  38  67  95 131 167 219 275 325 394
#     4  11  23  42  63  95 137 166 211 275 335 387
#     4  10  18  36  66  94 120 165 221 264 320 393
#
# _framework density 20.621780000000001
#
# number of rings (size 3 to 8) (size 9 to 14) (size 15 to 20)
#    0.000    1.500    5.000    1.125    1.750    0.500 
#    6.750    0.000    2.750    0.000    0.000    0.000 
#    0.000    0.000    0.000    0.000    0.000    0.000 
#
# Total GULP energy -396605.478631 kJ/mol
# GULP energy per Si atom -12393.921207 kJ/mol
# Density = 2.057484 g / cm^3
# Si number density = 20.621780 Si / 1000 Ang^3
#
#
#
# Elastic Constant Matrix: (Units=GPa)
#
#
# Indices 1 2 3 4 5 6 
#
# 1 70.4861 23.8006 21.9297 0.0000 -0.6348 0.0000
# 2 23.8006 107.0012 38.2043 0.0000 -0.2705 0.0000
# 3 21.9297 38.2043 88.4602 0.0000 -8.1074 0.0000
# 4 0.0000 0.0000 0.0000 19.4232 0.0000 1.7316
# 5 -0.6348 -0.2705 -8.1074 0.0000 29.0347 0.0000
# 6 0.0000 0.0000 0.0000 1.7316 0.0000 35.6004
#
#
#
# Elastic Compliance Matrix: (Units=1/GPa)
#
#
# Indices 1 2 3 4 5 6 
#
# 1 0.015935 -0.002506 -0.002913 0.000000 -0.000488 0.000000
# 2 -0.002506 0.011489 -0.004450 0.000000 -0.001190 0.000000
# 3 -0.002913 -0.004450 0.014305 0.000000 0.003889 0.000000
# 4 0.000000 0.000000 0.000000 0.051709 0.000000 -0.002515
# 5 -0.000488 -0.001190 0.003889 0.000000 0.035506 0.000000
# 6 0.000000 0.000000 0.000000 -0.002515 0.000000 0.028212
#
#
# Mechanical properties :
#
#
# Convention : Reuss Voigt Hill
#
# Bulk Modulus (GPa) = 45.47100 48.20185 46.83643
# Shear Modulus (GPa) = 27.14101 28.94583 28.04342
#
# Velocity S-wave (km/s) = 3.63179 3.75060 3.69167
# Velocity P-wave (km/s) = 6.29955 6.49469 6.39787
#
# Compressibility (1/GPa) = 0.02199204
#
# Stress axis : x y z
#
# Youngs Moduli (GPa) = 62.75422 87.04144 69.90627
#
# Poissons Ratio (x) = 0.21810 0.20364
# Poissons Ratio (y) = 0.15724 0.31106
# Poissons Ratio (z) = 0.18280 0.38731
#
# Static dielectric constant tensor:
#      x y z
#    x 3.951260 0.000000 0.036240 
#    y 0.000000 3.978650 0.000000 
#    z 0.036240 0.000000 3.575920 
# 
# 
# High freq. dielectric constant tensor:
#      x y z
#    x 1.816650 0.000000 -0.005450 
#    y 0.000000 1.801470 0.000000 
#    z -0.005450 0.000000 1.779210 
# 
# From -- ./inp_files/274351.got.cif
#   From: 2010.06.25/outbox.cif.g09.slc.cpg/sg15_138_cif.got.tgz:274351.got - 2010.06.28 07:06:18.
