data_PCOD8132838
_publ_section_title
;
Structure prediction by ZEFSAII (Michael W. Deem and Ramdas Pophale) SiO2 
 PCOD8132838
Probable space group: C 2/C
;
_chemical_formula_sum "Si O2"
_cell_formula_units_Z 64
_cell_length_a 31.078558
_cell_length_b 26.773126
_cell_length_c 5.247170
_cell_angle_alpha 90.000000
_cell_angle_beta 78.967218
_cell_angle_gamma 90.000000
_cell_volume 4285.320211
_symmetry_space_group_name_H-M "C 2/C"
_symmetry_group_IT_number 15
_symmetry_cell_setting 'monoclinic'
loop_
_space_group_symop_operation_xyz
x,y,z
-x,y,1/2-z
-x,-y,-z
x,-y,1/2+z
1/2+x,1/2+y,z
1/2-x,1/2+y,1/2-z
1/2-x,1/2-y,-z
1/2+x,1/2-y,1/2+z
loop_
_atom_site_type_symbol
_atom_site_label
_atom_site_fract_x
_atom_site_fract_y
_atom_site_fract_z
Si Si1 0.862572 0.763902 0.368762
Si Si2 0.950222 0.874339 0.822570
Si Si3 0.571979 0.518421 0.219578
Si Si4 0.449897 0.687704 0.822810
Si Si5 0.831507 0.024154 0.876537
Si Si6 0.694642 0.363382 0.066383
Si Si7 0.180621 0.268482 0.081801
Si Si8 0.737807 0.669838 0.016619
O O1 0.915405 0.767652 0.322826
O O2 0.841569 0.819434 0.392651
O O3 0.846994 0.731456 0.626943
O O4 0.850971 0.733450 0.127200
O O5 0.919685 0.922433 0.817736
O O6 0.940052 0.834766 0.612641
O O7 0.000000 0.893310 0.750000
O O8 0.940922 0.852292 0.110975
O O9 0.545673 0.504863 0.508944
O O10 0.617726 0.489950 0.205980
O O11 0.500000 0.707795 0.750000
O O12 0.808672 0.002980 0.644946
O O13 0.829474 0.083740 0.901536
O O14 0.724879 0.361155 0.781480
O O15 0.726182 0.360581 0.275618
O O16 0.210197 0.318472 0.037294
O O17 0.211941 0.221249 0.041869
#
# Coordination Sequence:
#
# PCOD8132838 Si02
#       8
#     8   8   8   8   8   8   8   8
#     4  10  19  28  48  65  81 106 134 166 203 274
#     4  10  21  34  47  58  74 102 140 178 228 268
#     4  10  21  32  44  58  71 100 122 185 220 256
#     4  10  21  34  47  63  83 108 138 178 212 259
#     4  10  21  31  41  58  81 105 139 179 208 246
#     4  10  19  29  44  64  78 113 135 161 219 258
#     4   9  17  30  44  70  84 101 123 158 211 250
#     4   9  17  30  46  62  90 101 122 161 203 274
#
# _framework density 14.934708000000001
#
# number of rings (size 3 to 8) (size 9 to 14) (size 15 to 20)
#    0.000    2.250    0.000    3.000    7.000    3.500 
#    0.000    0.000    0.000    0.000    0.000    0.000 
#    0.000    0.000    0.000    0.000    0.000    0.000 
#
# Total GULP energy -396671.368689 kJ/mol
# GULP energy per Si atom -12395.980272 kJ/mol
# Density = 1.490072 g / cm^3
# Si number density = 14.934708 Si / 1000 Ang^3
#
#
#
# Elastic Constant Matrix: (Units=GPa)
#
#
# Indices 1 2 3 4 5 6 
#
# 1 76.3788 25.8781 28.7237 0.0000 6.1079 0.0000
# 2 25.8781 27.0593 10.3487 0.0000 -0.0698 0.0000
# 3 28.7237 10.3487 108.1996 0.0000 21.8147 0.0000
# 4 0.0000 0.0000 0.0000 16.7452 0.0000 0.7195
# 5 6.1079 -0.0698 21.8147 0.0000 17.6307 0.0000
# 6 0.0000 0.0000 0.0000 0.7195 0.0000 20.1882
#
#
#
# Elastic Compliance Matrix: (Units=1/GPa)
#
#
# Indices 1 2 3 4 5 6 
#
# 1 0.020899 -0.018838 -0.003027 0.000000 -0.003570 0.000000
# 2 -0.018838 0.055864 -0.002268 0.000000 0.009554 0.000000
# 3 -0.003027 -0.002268 0.013394 0.000000 -0.015534 0.000000
# 4 0.000000 0.000000 0.000000 0.059810 0.000000 -0.002132
# 5 -0.003570 0.009554 -0.015534 0.000000 0.077214 0.000000
# 6 0.000000 0.000000 0.000000 -0.002132 0.000000 0.049610
#
#
# Mechanical properties :
#
#
# Convention : Reuss Voigt Hill
#
# Bulk Modulus (GPa) = 23.87144 37.94874 30.91009
# Shear Modulus (GPa) = 14.74834 20.69197 17.72016
#
# Velocity S-wave (km/s) = 3.14589 3.72626 3.44831
# Velocity P-wave (km/s) = 5.40501 6.63161 6.04948
#
# Compressibility (1/GPa) = 0.04189106
#
# Stress axis : x y z
#
# Youngs Moduli (GPa) = 47.84918 17.90058 74.65836
#
# Poissons Ratio (x) = 0.33722 0.22595
# Poissons Ratio (y) = 0.90140 0.16934
# Poissons Ratio (z) = 0.14482 0.04060
#
# Static dielectric constant tensor:
#      x y z
#    x 2.840060 0.000000 0.294320 
#    y 0.000000 2.520290 0.000000 
#    z 0.294320 0.000000 4.267190 
# 
# 
# High freq. dielectric constant tensor:
#      x y z
#    x 1.543180 0.000000 0.014880 
#    y 0.000000 1.516000 0.000000 
#    z 0.014880 0.000000 1.605810 
# 
# From -- ./inp_files/16390.got.cif
#   From: 2010.06.25/outbox.cif.g09.slc.cpg/sg15_9_cif.got.tgz:16390.got - 2010.06.28 07:06:18.
