data_PCOD8132235
_publ_section_title
;
Structure prediction by ZEFSAII (Michael W. Deem and Ramdas Pophale) SiO2 
 PCOD8132235
Probable space group: C 2/C
;
_chemical_formula_sum "Si O2"
_cell_formula_units_Z 60
_cell_length_a 14.384257
_cell_length_b 17.983290
_cell_length_c 11.686073
_cell_angle_alpha 90.000000
_cell_angle_beta 75.433956
_cell_angle_gamma 90.000000
_cell_volume 2925.748525
_symmetry_space_group_name_H-M "C 2/C"
_symmetry_group_IT_number 15
_symmetry_cell_setting 'monoclinic'
loop_
_space_group_symop_operation_xyz
x,y,z
-x,y,1/2-z
-x,-y,-z
x,-y,1/2+z
1/2+x,1/2+y,z
1/2-x,1/2+y,1/2-z
1/2-x,1/2-y,-z
1/2+x,1/2-y,1/2+z
loop_
_atom_site_type_symbol
_atom_site_label
_atom_site_fract_x
_atom_site_fract_y
_atom_site_fract_z
Si Si1 0.398672 0.633583 0.329886
Si Si2 0.103346 0.376523 0.682655
Si Si3 0.133159 0.396697 0.412266
Si Si4 0.500000 0.733955 0.750000
Si Si5 0.712939 0.948607 0.849406
Si Si6 0.421482 0.863850 0.446784
Si Si7 0.898353 0.790477 0.067358
Si Si8 0.682631 0.786526 0.219204
O O1 0.500000 0.606646 0.250000
O O2 0.325324 0.565454 0.338186
O O3 0.411817 0.653065 0.459294
O O4 0.360303 0.703934 0.269351
O O5 0.139296 0.399271 0.546780
O O6 0.184058 0.404032 0.744634
O O7 0.000000 0.413246 0.750000
O O8 0.092197 0.286627 0.692035
O O9 0.194953 0.463890 0.339640
O O10 0.179419 0.320156 0.348205
O O11 0.023138 0.404866 0.406223
O O12 0.534401 0.683403 0.846760
O O13 0.653707 0.921102 0.977192
O O14 0.433847 0.792410 0.525407
O O15 0.386218 0.839884 0.333381
O O16 0.786921 0.786142 0.131952
#
# Coordination Sequence:
#
# PCOD8132235 Si02
#       8
#     8   8   8   4   8   8   8   8
#     4  11  23  41  68  93 125 177 230 262 308 380
#     4  10  21  37  57  87 135 164 198 260 332 382
#     4  12  25  36  63  96 134 168 215 255 328 400
#     4  10  18  36  60  86 128 164 208 260 332 370
#     4  12  23  40  62  93 132 176 209 264 325 383
#     4  11  18  39  61  94 129 170 201 262 325 382
#     4  11  19  39  66  91 135 170 208 273 327 370
#     4  11  22  38  64  98 130 162 221 268 313 383
#
# _framework density 20.507572
#
# number of rings (size 3 to 8) (size 9 to 14) (size 15 to 20)
#    0.400    0.533    6.667    3.200    1.867    0.000 
#    2.400    1.333    1.467    1.600    0.000    0.000 
#    0.000    0.000    0.000    0.000    0.000    0.000 
#
# Total GULP energy -372031.196116 kJ/mol
# GULP energy per Si atom -12401.039871 kJ/mol
# Density = 2.046090 g / cm^3
# Si number density = 20.507572 Si / 1000 Ang^3
#
#
#
# Elastic Constant Matrix: (Units=GPa)
#
#
# Indices 1 2 3 4 5 6 
#
# 1 121.0091 46.1572 53.8043 0.0000 -8.1009 0.0000
# 2 46.1572 61.9054 31.3556 0.0000 -1.8922 0.0000
# 3 53.8043 31.3556 98.8583 0.0000 3.3017 0.0000
# 4 0.0000 0.0000 0.0000 6.7663 0.0000 -1.3530
# 5 -8.1009 -1.8922 3.3017 0.0000 36.9040 0.0000
# 6 0.0000 0.0000 0.0000 -1.3530 0.0000 27.7515
#
#
#
# Elastic Compliance Matrix: (Units=1/GPa)
#
#
# Indices 1 2 3 4 5 6 
#
# 1 0.013591 -0.007436 -0.005141 0.000000 0.003062 0.000000
# 2 -0.007436 0.023401 -0.003371 0.000000 -0.000131 0.000000
# 3 -0.005141 -0.003371 0.014068 0.000000 -0.002560 0.000000
# 4 0.000000 0.000000 0.000000 0.149247 0.000000 0.007276
# 5 0.003062 -0.000131 -0.002560 0.000000 0.027992 0.000000
# 6 0.000000 0.000000 0.000000 0.007276 0.000000 0.036389
#
#
# Mechanical properties :
#
#
# Convention : Reuss Voigt Hill
#
# Bulk Modulus (GPa) = 52.17824 60.48965 56.33394
# Shear Modulus (GPa) = 16.50319 24.31473 20.40896
#
# Velocity S-wave (km/s) = 2.83986 3.44706 3.15809
# Velocity P-wave (km/s) = 6.02094 6.73819 6.38964
#
# Compressibility (1/GPa) = 0.01916508
#
# Stress axis : x y z
#
# Youngs Moduli (GPa) = 73.57854 42.73236 71.08336
#
# Poissons Ratio (x) = 0.31776 0.36541
# Poissons Ratio (y) = 0.54714 0.23961
# Poissons Ratio (z) = 0.37824 0.14405
#
# Static dielectric constant tensor:
#      x y z
#    x 3.664150 0.000000 0.100280 
#    y 0.000000 3.403110 0.000000 
#    z 0.100280 0.000000 3.825020 
# 
# 
# High freq. dielectric constant tensor:
#      x y z
#    x 1.795100 0.000000 0.007270 
#    y 0.000000 1.760150 0.000000 
#    z 0.007270 0.000000 1.807930 
# 
# From -- ./inp_files/98758.got.cif
#   From: 2010.06.25/outbox.cif.g09.slc.cpg/sg15_50_cif.got.tgz:98758.got - 2010.06.28 07:06:18.
