data_PCOD8132275
_publ_section_title
;
Structure prediction by ZEFSAII (Michael W. Deem and Ramdas Pophale) SiO2 
 PCOD8132275
Probable space group: C 2/C
;
_chemical_formula_sum "Si O2"
_cell_formula_units_Z 56
_cell_length_a 21.030765
_cell_length_b 32.987703
_cell_length_c 8.802453
_cell_angle_alpha 90.000000
_cell_angle_beta 153.057011
_cell_angle_gamma 90.000000
_cell_volume 2766.995591
_symmetry_space_group_name_H-M "C 2/C"
_symmetry_group_IT_number 15
_symmetry_cell_setting 'monoclinic'
loop_
_space_group_symop_operation_xyz
x,y,z
-x,y,1/2-z
-x,-y,-z
x,-y,1/2+z
1/2+x,1/2+y,z
1/2-x,1/2+y,1/2-z
1/2-x,1/2-y,-z
1/2+x,1/2-y,1/2+z
loop_
_atom_site_type_symbol
_atom_site_label
_atom_site_fract_x
_atom_site_fract_y
_atom_site_fract_z
Si Si1 0.500000 0.335198 0.750000
Si Si2 0.000000 0.674047 0.250000
Si Si3 0.763485 0.048812 0.018414
Si Si4 0.934753 0.381753 0.340515
Si Si5 0.851026 0.026424 0.884426
Si Si6 0.030456 0.098034 0.557451
Si Si7 0.761368 0.706695 0.946768
Si Si8 0.208112 0.364253 0.764442
O O1 0.528519 0.364119 0.665924
O O2 0.370305 0.305645 0.438177
O O3 0.081029 0.644700 0.540525
O O4 0.104526 0.703035 0.378720
O O5 0.899258 0.075572 0.354636
O O6 0.762795 0.006296 0.103923
O O7 0.623579 0.073066 0.761160
O O8 0.758951 0.039440 0.831105
O O9 0.095066 0.388302 0.628137
O O10 0.846091 0.358478 0.021810
O O11 0.882257 0.067260 0.860581
O O12 0.000000 0.006357 0.250000
O O13 0.142061 0.112834 0.921094
O O14 0.750000 0.750000 0.000000
O O15 0.774170 0.679106 0.121964
#
# Coordination Sequence:
#
# PCOD8132275 Si02
#       8
#     4   4   8   8   8   8   8   8
#     4  10  18  36  64  94 118 164 210 240 302 368
#     4  10  22  42  68  90 122 168 210 240 316 378
#     4  11  22  35  59  86 116 156 209 252 310 356
#     4  10  22  39  63  85 117 163 211 245 300 371
#     4  10  21  34  54  85 121 153 199 255 322 343
#     4  10  18  36  62  84 119 156 202 255 294 366
#     4  10  22  41  66  96 131 161 197 256 310 366
#     4   9  22  40  61  87 121 157 204 249 305 359
#
# _framework density 20.238557
#
# number of rings (size 3 to 8) (size 9 to 14) (size 15 to 20)
#    0.000    2.000    2.143    2.571    8.000    2.286 
#    0.000    6.429    0.000    0.000    0.000    0.000 
#    0.000    0.000    0.000    0.000    0.000    0.000 
#
# Total GULP energy -347138.286254 kJ/mol
# GULP energy per Si atom -12397.795938 kJ/mol
# Density = 2.019249 g / cm^3
# Si number density = 20.238557 Si / 1000 Ang^3
#
#
#
# Elastic Constant Matrix: (Units=GPa)
#
#
# Indices 1 2 3 4 5 6 
#
# 1 73.0552 46.4175 30.9041 0.0000 -8.7535 0.0000
# 2 46.4175 127.4018 54.9461 0.0000 3.2069 0.0000
# 3 30.9041 54.9461 98.6209 0.0000 -8.9929 0.0000
# 4 0.0000 0.0000 0.0000 27.3872 0.0000 0.1718
# 5 -8.7535 3.2069 -8.9929 0.0000 28.2552 0.0000
# 6 0.0000 0.0000 0.0000 0.1718 0.0000 24.5689
#
#
#
# Elastic Compliance Matrix: (Units=1/GPa)
#
#
# Indices 1 2 3 4 5 6 
#
# 1 0.019263 -0.006326 -0.001959 0.000000 0.006062 0.000000
# 2 -0.006326 0.012679 -0.005553 0.000000 -0.005166 0.000000
# 3 -0.001959 -0.005553 0.014263 0.000000 0.004563 0.000000
# 4 0.000000 0.000000 0.000000 0.036515 0.000000 -0.000255
# 5 0.006062 -0.005166 0.004563 0.000000 0.039308 0.000000
# 6 0.000000 0.000000 0.000000 -0.000255 0.000000 0.040704
#
#
# Mechanical properties :
#
#
# Convention : Reuss Voigt Hill
#
# Bulk Modulus (GPa) = 53.96721 62.62369 58.29545
# Shear Modulus (GPa) = 25.43447 27.16292 26.29869
#
# Velocity S-wave (km/s) = 3.54889 3.66749 3.60868
# Velocity P-wave (km/s) = 6.59669 6.99600 6.79927
#
# Compressibility (1/GPa) = 0.01852977
#
# Stress axis : x y z
#
# Youngs Moduli (GPa) = 51.91402 78.87212 70.10926
#
# Poissons Ratio (x) = 0.49893 0.13734
# Poissons Ratio (y) = 0.32840 0.38930
# Poissons Ratio (z) = 0.10170 0.43795
#
# Static dielectric constant tensor:
#      x y z
#    x 3.593410 0.000000 -0.129400 
#    y 0.000000 3.923560 0.000000 
#    z -0.129400 0.000000 3.923230 
# 
# 
# High freq. dielectric constant tensor:
#      x y z
#    x 1.788230 0.000000 -0.009520 
#    y 0.000000 1.775740 0.000000 
#    z -0.009520 0.000000 1.793230 
# 
# From -- ./inp_files/59387.got.cif
#   From: 2010.06.25/outbox.cif.g09.slc.cpg/sg15_30_cif.got.tgz:59387.got - 2010.06.28 07:06:18.
