data_PCOD8132335
_publ_section_title
;
Structure prediction by ZEFSAII (Michael W. Deem and Ramdas Pophale) SiO2 
 PCOD8132335
Probable space group: C 2/C
;
_chemical_formula_sum "Si O2"
_cell_formula_units_Z 44
_cell_length_a 7.161417
_cell_length_b 17.197426
_cell_length_c 15.235133
_cell_angle_alpha 90.000000
_cell_angle_beta 96.883690
_cell_angle_gamma 90.000000
_cell_volume 1862.802072
_symmetry_space_group_name_H-M "C 2/C"
_symmetry_group_IT_number 15
_symmetry_cell_setting 'monoclinic'
loop_
_space_group_symop_operation_xyz
x,y,z
-x,y,1/2-z
-x,-y,-z
x,-y,1/2+z
1/2+x,1/2+y,z
1/2-x,1/2+y,1/2-z
1/2-x,1/2-y,-z
1/2+x,1/2-y,1/2+z
loop_
_atom_site_type_symbol
_atom_site_label
_atom_site_fract_x
_atom_site_fract_y
_atom_site_fract_z
Si Si1 0.924763 0.270567 0.392366
Si Si2 0.185204 0.589517 0.871163
Si Si3 0.293335 0.524860 0.517035
Si Si4 0.939102 0.819708 0.060332
Si Si5 0.000000 0.849909 0.750000
Si Si6 0.297280 0.497969 0.718706
O O1 0.996221 0.246164 0.493525
O O2 0.697016 0.280394 0.373857
O O3 0.013457 0.351744 0.367865
O O4 0.997543 0.202448 0.335124
O O5 0.380148 0.638375 0.888060
O O6 0.160631 0.542205 0.778728
O O7 0.156411 0.525170 0.946832
O O8 0.500000 0.500000 0.500000
O O9 0.297443 0.618111 0.503756
O O10 0.238255 0.508693 0.614828
O O11 0.813516 0.904979 0.738350
O O12 0.500000 0.536813 0.750000
#
# Coordination Sequence:
#
# PCOD8132335 Si02
#       6
#     8   8   8   8   4   8
#     4  11  24  36  62  92 130 163 205 264 328 368
#     4  11  22  39  67  90 121 168 220 261 306 383
#     4  10  18  36  65  87 120 166 218 253 311 382
#     4  10  21  40  59  89 124 164 208 257 320 381
#     4  10  20  38  58  90 132 168 204 258 330 376
#     4  10  19  36  66  89 119 174 214 253 317 376
#
# _framework density 23.620331
#
# number of rings (size 3 to 8) (size 9 to 14) (size 15 to 20)
#    0.545    1.091    3.636    3.818    2.545    0.727 
#    0.000    0.000    0.000    4.364    0.000    0.000 
#    0.000    0.000    0.000    0.000    0.000    0.000 
#
# Total GULP energy -272561.402358 kJ/mol
# GULP energy per Si atom -12389.154653 kJ/mol
# Density = 2.356657 g / cm^3
# Si number density = 23.620331 Si / 1000 Ang^3
#
#
#
# Elastic Constant Matrix: (Units=GPa)
#
#
# Indices 1 2 3 4 5 6 
#
# 1 63.2922 23.4868 37.0719 0.0000 -6.9556 0.0000
# 2 23.4868 109.2459 56.1806 0.0000 -23.4657 0.0000
# 3 37.0719 56.1806 172.8453 0.0000 -31.0272 0.0000
# 4 0.0000 0.0000 0.0000 53.8991 0.0000 -6.5186
# 5 -6.9556 -23.4657 -31.0272 0.0000 18.7001 0.0000
# 6 0.0000 0.0000 0.0000 -6.5186 0.0000 25.8873
#
#
#
# Elastic Compliance Matrix: (Units=1/GPa)
#
#
# Indices 1 2 3 4 5 6 
#
# 1 0.018611 -0.002678 -0.003535 0.000000 -0.002303 0.000000
# 2 -0.002678 0.013314 -0.001329 0.000000 0.013506 0.000000
# 3 -0.003535 -0.001329 0.009172 0.000000 0.012236 0.000000
# 4 0.000000 0.000000 0.000000 0.019136 0.000000 0.004819
# 5 -0.002303 0.013506 0.012236 0.000000 0.089870 0.000000
# 6 0.000000 0.000000 0.000000 0.004819 0.000000 0.039842
#
#
# Mechanical properties :
#
#
# Convention : Reuss Voigt Hill
#
# Bulk Modulus (GPa) = 38.44067 64.31800 51.37934
# Shear Modulus (GPa) = 23.39750 34.94024 29.16887
#
# Velocity S-wave (km/s) = 3.15074 3.85027 3.51793
# Velocity P-wave (km/s) = 5.43562 6.85967 6.18874
#
# Compressibility (1/GPa) = 0.02601412
#
# Stress axis : x y z
#
# Youngs Moduli (GPa) = 53.73240 75.11037 109.02833
#
# Poissons Ratio (x) = 0.20115 0.38536
# Poissons Ratio (y) = 0.14390 0.14485
# Poissons Ratio (z) = 0.18992 0.09979
#
# Static dielectric constant tensor:
#      x y z
#    x 3.906870 0.000000 -0.246260 
#    y 0.000000 4.754030 0.000000 
#    z -0.246260 0.000000 4.356120 
# 
# 
# High freq. dielectric constant tensor:
#      x y z
#    x 1.913650 0.000000 -0.024350 
#    y 0.000000 1.949760 0.000000 
#    z -0.024350 0.000000 1.930650 
# 
# From -- ./inp_files/134397.got.cif
#   From: 2010.06.25/outbox.cif.g09.slc.cpg/sg15_68_cif.got.tgz:134397.got - 2010.06.28 07:06:18.
