data_PCOD8132402
_publ_section_title
;
Structure prediction by ZEFSAII (Michael W. Deem and Ramdas Pophale) SiO2 
 PCOD8132402
Probable space group: C 2/C
;
_chemical_formula_sum "Si O2"
_cell_formula_units_Z 60
_cell_length_a 25.017395
_cell_length_b 10.491349
_cell_length_c 18.825505
_cell_angle_alpha 90.000000
_cell_angle_beta 146.837024
_cell_angle_gamma 90.000000
_cell_volume 2702.870048
_symmetry_space_group_name_H-M "C 2/C"
_symmetry_group_IT_number 15
_symmetry_cell_setting 'monoclinic'
loop_
_space_group_symop_operation_xyz
x,y,z
-x,y,1/2-z
-x,-y,-z
x,-y,1/2+z
1/2+x,1/2+y,z
1/2-x,1/2+y,1/2-z
1/2-x,1/2-y,-z
1/2+x,1/2-y,1/2+z
loop_
_atom_site_type_symbol
_atom_site_label
_atom_site_fract_x
_atom_site_fract_y
_atom_site_fract_z
Si Si1 0.529848 0.069431 0.857532
Si Si2 0.592645 0.328590 0.235170
Si Si3 0.481537 0.424759 0.907108
Si Si4 0.349334 0.078992 0.762429
Si Si5 0.077651 0.257740 0.048758
Si Si6 0.730624 0.194021 0.301873
Si Si7 0.837169 0.767483 0.427765
Si Si8 0.000000 0.677092 0.250000
O O1 0.500000 0.135749 0.750000
O O2 0.438436 0.088756 0.807411
O O3 0.551197 0.917212 0.865872
O O4 0.627354 0.138731 0.993504
O O5 0.572565 0.480499 0.208707
O O6 0.702181 0.298345 0.330667
O O7 0.576175 0.271511 0.295472
O O8 0.526718 0.248968 0.104486
O O9 0.417088 0.307799 0.865539
O O10 0.500000 0.500000 0.000000
O O11 0.578619 0.375420 0.976166
O O12 0.389007 0.100953 0.888643
O O13 0.261073 0.177589 0.645616
O O14 0.303009 0.940910 0.706821
O O15 0.152431 0.192395 0.076926
O O16 0.680212 0.232275 0.172743
#
# Coordination Sequence:
#
# PCOD8132402 Si02
#       8
#     8   8   8   8   8   8   8   4
#     4  10  22  41  60  82 125 163 211 250 296 354
#     4  11  21  40  61  82 130 161 200 250 301 368
#     4  10  18  37  59  85 123 155 185 250 309 362
#     4  11  21  36  62  94 119 154 208 250 315 361
#     4  10  22  34  61  95 119 152 200 254 316 362
#     4  11  21  35  64  95 120 157 194 257 316 366
#     4  11  22  38  63  93 124 157 204 256 311 360
#     4  10  24  42  60  90 116 174 206 248 298 366
#
# _framework density 22.198626999999998
#
# number of rings (size 3 to 8) (size 9 to 14) (size 15 to 20)
#    0.400    1.067    5.333    1.600    3.733    1.600 
#    1.200    0.667    0.000    0.000    0.000    0.000 
#    0.000    0.000    0.000    0.000    0.000    0.000 
#
# Total GULP energy -371694.990683 kJ/mol
# GULP energy per Si atom -12389.833023 kJ/mol
# Density = 2.214810 g / cm^3
# Si number density = 22.198627 Si / 1000 Ang^3
#
#
#
# Elastic Constant Matrix: (Units=GPa)
#
#
# Indices 1 2 3 4 5 6 
#
# 1 113.8468 21.9336 29.0884 0.0000 8.3559 0.0000
# 2 21.9336 69.2851 7.3275 0.0000 2.2771 0.0000
# 3 29.0884 7.3275 15.6137 0.0000 15.1756 0.0000
# 4 0.0000 0.0000 0.0000 24.0997 0.0000 -2.0236
# 5 8.3559 2.2771 15.1756 0.0000 26.4647 0.0000
# 6 0.0000 0.0000 0.0000 -2.0236 0.0000 35.7215
#
#
#
# Elastic Compliance Matrix: (Units=1/GPa)
#
#
# Indices 1 2 3 4 5 6 
#
# 1 0.038767 -0.000028 -0.136257 0.000000 0.065896 0.000000
# 2 -0.000028 0.015664 -0.013549 0.000000 0.006430 0.000000
# 3 -0.136257 -0.013549 0.635487 0.000000 -0.320219 0.000000
# 4 0.000000 0.000000 0.000000 0.041693 0.000000 0.002362
# 5 0.065896 0.006430 -0.320219 0.000000 0.200049 0.000000
# 6 0.000000 0.000000 0.000000 0.002362 0.000000 0.028128
#
#
# Mechanical properties :
#
#
# Convention : Reuss Voigt Hill
#
# Bulk Modulus (GPa) = 2.56246 35.04942 18.80594
# Shear Modulus (GPa) = 3.59832 26.61691 15.10761
#
# Velocity S-wave (km/s) = 1.27455 3.46646 2.61159
# Velocity P-wave (km/s) = 1.82286 5.64315 4.19332
#
# Compressibility (1/GPa) = 0.39025020
#
# Stress axis : x y z
#
# Youngs Moduli (GPa) = 25.79513 63.84265 1.57360
#
# Poissons Ratio (x) = 0.00178 0.21441
# Poissons Ratio (y) = 0.00072 0.02132
# Poissons Ratio (z) = 3.51477 0.86499
#
# Static dielectric constant tensor:
#      x y z
#    x 4.401410 0.000000 0.255170 
#    y 0.000000 5.018130 0.000000 
#    z 0.255170 0.000000 3.660360 
# 
# 
# High freq. dielectric constant tensor:
#      x y z
#    x 1.880310 0.000000 0.016870 
#    y 0.000000 1.883380 0.000000 
#    z 0.016870 0.000000 1.829670 
# 
# From -- ./inp_files/219329.got.cif
#   From: 2010.06.25/outbox.cif.g09.slc.cpg/sg15_110_cif.got.tgz:219329.got - 2010.06.28 07:06:18.
