data_PCOD8132062
_publ_section_title
;
Structure prediction by ZEFSAII (Michael W. Deem and Ramdas Pophale) SiO2 
 PCOD8132062
Probable space group: C 2/C
;
_chemical_formula_sum "Si O2"
_cell_formula_units_Z 60
_cell_length_a 21.753711
_cell_length_b 17.166793
_cell_length_c 10.025115
_cell_angle_alpha 90.000000
_cell_angle_beta 125.606697
_cell_angle_gamma 90.000000
_cell_volume 3043.826606
_symmetry_space_group_name_H-M "C 2/C"
_symmetry_group_IT_number 15
_symmetry_cell_setting 'monoclinic'
loop_
_space_group_symop_operation_xyz
x,y,z
-x,y,1/2-z
-x,-y,-z
x,-y,1/2+z
1/2+x,1/2+y,z
1/2-x,1/2+y,1/2-z
1/2-x,1/2-y,-z
1/2+x,1/2-y,1/2+z
loop_
_atom_site_type_symbol
_atom_site_label
_atom_site_fract_x
_atom_site_fract_y
_atom_site_fract_z
Si Si1 0.623847 0.495448 0.631045
Si Si2 0.000000 0.544655 0.750000
Si Si3 0.378838 0.726686 0.135629
Si Si4 0.029343 0.743864 0.988671
Si Si5 0.861285 0.383011 0.219920
Si Si6 0.021863 0.395739 0.922546
Si Si7 0.504977 0.390491 0.103279
Si Si8 0.201226 0.937370 0.972836
O O1 0.574890 0.415957 0.562342
O O2 0.571749 0.565891 0.611772
O O3 0.691087 0.483108 0.821456
O O4 0.657444 0.515851 0.530622
O O5 0.072980 0.596461 0.806197
O O6 0.009075 0.489254 0.893394
O O7 0.394153 0.742376 0.997502
O O8 0.458727 0.727355 0.311949
O O9 0.331085 0.797279 0.141317
O O10 0.331659 0.648556 0.088176
O O11 0.023594 0.798870 0.111874
O O12 0.027942 0.652243 0.030959
O O13 0.892421 0.384300 0.412785
O O14 0.790085 0.440009 0.119619
O O15 0.000000 0.358747 0.750000
O O16 0.500000 0.414940 0.250000
#
# Coordination Sequence:
#
# PCOD8132062 Si02
#       8
#     8   4   8   8   8   8   8   8
#     4  11  24  37  58  92 124 167 210 247 308 359
#     4  10  22  42  60  92 114 148 210 258 310 372
#     4  10  21  37  61  91 116 163 211 248 294 373
#     4  10  18  35  62  89 122 158 204 252 298 352
#     4  11  23  40  68  86 121 159 207 256 317 362
#     4   9  21  37  61  89 118 146 199 258 309 362
#     4  11  20  34  60  85 125 167 207 245 292 361
#     4  12  24  42  59  92 131 167 203 258 310 376
#
# _framework density 19.712028
#
# number of rings (size 3 to 8) (size 9 to 14) (size 15 to 20)
#    0.400    1.067    4.000    2.800    1.867    0.000 
#    0.000    0.000    0.000    0.800    0.000    0.000 
#    0.000    0.000    0.000    0.000    0.000    0.000 
#
# Total GULP energy -371664.642348 kJ/mol
# GULP energy per Si atom -12388.821412 kJ/mol
# Density = 1.966716 g / cm^3
# Si number density = 19.712028 Si / 1000 Ang^3
#
#
#
# Elastic Constant Matrix: (Units=GPa)
#
#
# Indices 1 2 3 4 5 6 
#
# 1 50.6922 10.3608 25.6066 0.0000 7.2329 0.0000
# 2 10.3608 80.0892 16.5342 0.0000 1.7653 0.0000
# 3 25.6066 16.5342 112.9599 0.0000 1.3199 0.0000
# 4 0.0000 0.0000 0.0000 24.6022 0.0000 -9.5858
# 5 7.2329 1.7653 1.3199 0.0000 27.2225 0.0000
# 6 0.0000 0.0000 0.0000 -9.5858 0.0000 3.5980
#
#
#
# Elastic Compliance Matrix: (Units=1/GPa)
#
#
# Indices 1 2 3 4 5 6 
#
# 1 0.023462 -0.001879 -0.004975 0.000000 -0.005871 0.000000
# 2 -0.001879 0.013041 -0.001480 0.000000 -0.000275 0.000000
# 3 -0.004975 -0.001480 0.010186 0.000000 0.000924 0.000000
# 4 0.000000 0.000000 0.000000 -1.067657 0.000000 -2.844494
# 5 -0.005871 -0.000275 0.000924 0.000000 0.038267 0.000000
# 6 0.000000 0.000000 0.000000 -2.844494 0.000000 -7.300474
#
#
# Mechanical properties :
#
#
# Convention : Reuss Voigt Hill
#
# Bulk Modulus (GPa) = 33.30897 38.74938 36.02918
# Shear Modulus (GPa) = -0.60558 23.83385 11.61414
#
# Velocity S-wave (km/s) = -0.55487 3.48099 2.42996
# Velocity P-wave (km/s) = 4.06497 5.98805 5.11765
#
# Compressibility (1/GPa) = 0.03002194
#
# Stress axis : x y z
#
# Youngs Moduli (GPa) = 42.62300 76.68323 98.17181
#
# Poissons Ratio (x) = 0.14406 0.48839
# Poissons Ratio (y) = 0.08007 0.14527
# Poissons Ratio (z) = 0.21204 0.11347
#
# Static dielectric constant tensor:
#      x y z
#    x 3.341490 0.000000 -0.123130 
#    y 0.000000 3.582740 0.000000 
#    z -0.123130 0.000000 3.665580 
# 
# 
# High freq. dielectric constant tensor:
#      x y z
#    x 1.743010 0.000000 -0.017120 
#    y 0.000000 1.776440 0.000000 
#    z -0.017120 0.000000 1.768270 
# 
# From -- ./inp_files/57028.got.cif
#   From: 2010.06.25/outbox.cif.g09.slc.cpg/sg15_29_cif.got.tgz:57028.got - 2010.06.28 07:06:18.
