data_PCOD8132370
_publ_section_title
;
Structure prediction by ZEFSAII (Michael W. Deem and Ramdas Pophale) SiO2 
 PCOD8132370
Probable space group: C 2/C
;
_chemical_formula_sum "Si O2"
_cell_formula_units_Z 60
_cell_length_a 21.012421
_cell_length_b 16.314217
_cell_length_c 9.877210
_cell_angle_alpha 90.000000
_cell_angle_beta 58.660905
_cell_angle_gamma 90.000000
_cell_volume 2891.927792
_symmetry_space_group_name_H-M "C 2/C"
_symmetry_group_IT_number 15
_symmetry_cell_setting 'monoclinic'
loop_
_space_group_symop_operation_xyz
x,y,z
-x,y,1/2-z
-x,-y,-z
x,-y,1/2+z
1/2+x,1/2+y,z
1/2-x,1/2+y,1/2-z
1/2-x,1/2-y,-z
1/2+x,1/2-y,1/2+z
loop_
_atom_site_type_symbol
_atom_site_label
_atom_site_fract_x
_atom_site_fract_y
_atom_site_fract_z
Si Si1 0.946313 0.499380 0.932943
Si Si2 0.689824 0.586396 0.752849
Si Si3 0.062977 0.189250 0.991734
Si Si4 0.087328 0.666106 0.641732
Si Si5 0.137554 0.958685 0.036868
Si Si6 0.439796 0.291093 0.434380
Si Si7 0.849409 0.352723 0.129753
Si Si8 0.000000 0.943393 0.750000
O O1 0.899933 0.583652 0.960406
O O2 0.000000 0.476362 0.750000
O O3 0.883244 0.433407 0.026604
O O4 0.000000 0.500000 0.000000
O O5 0.622319 0.652060 0.821140
O O6 0.699336 0.556844 0.586207
O O7 0.761151 0.637467 0.721065
O O8 0.673862 0.513606 0.878361
O O9 0.992508 0.233858 0.002547
O O10 0.109797 0.250373 0.038061
O O11 0.021699 0.111829 0.100830
O O12 0.129641 0.660854 0.736650
O O13 0.000000 0.674332 0.750000
O O14 0.103333 0.877287 0.006178
O O15 0.072028 0.000791 0.197822
O O16 0.500000 0.288280 0.250000
O O17 0.375888 0.222010 0.504689
#
# Coordination Sequence:
#
# PCOD8132370 Si02
#       8
#     8   8   8   8   8   8   8   4
#     4  11  21  40  66  93 122 167 228 279 314 378
#     4  11  27  43  64  98 143 173 217 269 348 402
#     4  11  20  41  67 100 129 171 218 278 329 394
#     4  11  21  40  65  93 124 166 222 268 317 386
#     4  11  23  44  66 101 133 177 222 273 337 399
#     4  12  22  41  71  96 130 171 229 275 327 391
#     4  12  26  43  63  98 134 175 219 274 341 397
#     4  10  18  36  74  94 126 164 224 274 320 392
#
# _framework density 20.747405000000001
#
# number of rings (size 3 to 8) (size 9 to 14) (size 15 to 20)
#    0.000    0.800    6.667    1.200    1.867    4.267 
#    2.400    0.000    0.000    0.000    0.000    0.000 
#    0.000    0.000    0.000    0.000    0.000    0.000 
#
# Total GULP energy -371761.490855 kJ/mol
# GULP energy per Si atom -12392.049695 kJ/mol
# Density = 2.070018 g / cm^3
# Si number density = 20.747405 Si / 1000 Ang^3
#
#
#
# Elastic Constant Matrix: (Units=GPa)
#
#
# Indices 1 2 3 4 5 6 
#
# 1 111.2984 27.4700 36.0655 0.0000 5.2799 0.0000
# 2 27.4700 126.1977 35.3912 0.0000 -7.8352 0.0000
# 3 36.0655 35.3912 64.6430 0.0000 2.3736 0.0000
# 4 0.0000 0.0000 0.0000 51.6070 0.0000 13.8113
# 5 5.2799 -7.8352 2.3736 0.0000 34.9331 0.0000
# 6 0.0000 0.0000 0.0000 13.8113 0.0000 38.5729
#
#
#
# Elastic Compliance Matrix: (Units=1/GPa)
#
#
# Indices 1 2 3 4 5 6 
#
# 1 0.011112 -0.000932 -0.005634 0.000000 -0.001506 0.000000
# 2 -0.000932 0.009654 -0.004862 0.000000 0.002637 0.000000
# 3 -0.005634 -0.004862 0.021337 0.000000 -0.001689 0.000000
# 4 0.000000 0.000000 0.000000 0.021431 0.000000 -0.007673
# 5 -0.001506 0.002637 -0.001689 0.000000 0.029560 0.000000
# 6 0.000000 0.000000 0.000000 -0.007673 0.000000 0.028672
#
#
# Mechanical properties :
#
#
# Convention : Reuss Voigt Hill
#
# Bulk Modulus (GPa) = 51.95814 55.55473 53.75644
# Shear Modulus (GPa) = 33.10410 38.57008 35.83709
#
# Velocity S-wave (km/s) = 3.99880 4.31633 4.16059
# Velocity P-wave (km/s) = 6.81308 7.18858 7.00335
#
# Compressibility (1/GPa) = 0.01924626
#
# Stress axis : x y z
#
# Youngs Moduli (GPa) = 89.99261 103.58077 46.86728
#
# Poissons Ratio (x) = 0.09657 0.26404
# Poissons Ratio (y) = 0.08390 0.22788
# Poissons Ratio (z) = 0.50701 0.50364
#
# Static dielectric constant tensor:
#      x y z
#    x 5.886390 0.000000 0.512050 
#    y 0.000000 5.280810 0.000000 
#    z 0.512050 0.000000 4.007890 
# 
# 
# High freq. dielectric constant tensor:
#      x y z
#    x 1.805400 0.000000 0.013520 
#    y 0.000000 1.825730 0.000000 
#    z 0.013520 0.000000 1.806890 
# 
# From -- ./inp_files/57019.got.cif
#   From: 2010.06.25/outbox.cif.g09.slc.cpg/sg15_29_cif.got.tgz:57019.got - 2010.06.28 07:06:18.
