data_PCOD8132449
_publ_section_title
;
Structure prediction by ZEFSAII (Michael W. Deem and Ramdas Pophale) SiO2 
 PCOD8132449
Probable space group: C 2/C
;
_chemical_formula_sum "Si O2"
_cell_formula_units_Z 64
_cell_length_a 25.835566
_cell_length_b 13.071394
_cell_length_c 11.445784
_cell_angle_alpha 90.000000
_cell_angle_beta 49.013881
_cell_angle_gamma 90.000000
_cell_volume 2917.808165
_symmetry_space_group_name_H-M "C 2/C"
_symmetry_group_IT_number 15
_symmetry_cell_setting 'monoclinic'
loop_
_space_group_symop_operation_xyz
x,y,z
-x,y,1/2-z
-x,-y,-z
x,-y,1/2+z
1/2+x,1/2+y,z
1/2-x,1/2+y,1/2-z
1/2-x,1/2-y,-z
1/2+x,1/2-y,1/2+z
loop_
_atom_site_type_symbol
_atom_site_label
_atom_site_fract_x
_atom_site_fract_y
_atom_site_fract_z
Si Si1 0.524330 0.146320 0.046935
Si Si2 0.951839 0.428124 0.423126
Si Si3 0.394085 0.269731 0.275199
Si Si4 0.674820 0.396880 0.924260
Si Si5 0.678810 0.189881 0.326912
Si Si6 0.962007 0.905893 0.999625
Si Si7 0.400825 0.683958 0.170571
Si Si8 0.852468 0.881981 0.983360
O O1 0.483579 0.102573 0.998029
O O2 0.594295 0.206695 0.903620
O O3 0.466606 0.214675 0.202175
O O4 0.552519 0.051865 0.082225
O O5 0.876801 0.377707 0.519819
O O6 0.000000 0.383929 0.250000
O O7 0.356204 0.310463 0.445481
O O8 0.343189 0.195707 0.277155
O O9 0.406429 0.367996 0.175070
O O10 0.748003 0.361633 0.769137
O O11 0.624249 0.402378 0.885683
O O12 0.685952 0.508352 0.966175
O O13 0.684446 0.302557 0.375986
O O14 0.927451 0.915697 0.923104
O O15 0.021282 0.822380 0.899124
O O16 0.000000 0.000000 0.000000
O O17 0.353720 0.672428 0.354833
#
# Coordination Sequence:
#
# PCOD8132449 Si02
#       8
#     8   8   8   8   8   8   8   8
#     4   9  21  38  63  99 126 159 220 275 333 382
#     4  10  20  40  69  93 124 167 219 274 330 391
#     4   9  21  39  63  91 128 167 217 274 331 395
#     4  12  25  40  64  93 132 176 226 267 328 414
#     4  10  24  45  65  92 130 178 222 272 341 407
#     4  10  18  37  63  96 124 165 211 268 330 387
#     4  11  23  38  63  97 132 165 212 276 328 397
#     4  11  24  42  65  92 134 176 216 278 338 399
#
# _framework density 21.934272
#
# number of rings (size 3 to 8) (size 9 to 14) (size 15 to 20)
#    0.000    1.750    1.250    3.000    3.500    3.000 
#    0.000    2.500    0.000    0.000    0.000    0.000 
#    0.000    0.000    0.000    0.000    0.000    0.000 
#
# Total GULP energy -396553.822408 kJ/mol
# GULP energy per Si atom -12392.306950 kJ/mol
# Density = 2.188435 g / cm^3
# Si number density = 21.934272 Si / 1000 Ang^3
#
#
#
# Elastic Constant Matrix: (Units=GPa)
#
#
# Indices 1 2 3 4 5 6 
#
# 1 49.1679 10.6136 35.1274 0.0000 -4.1964 0.0000
# 2 10.6136 117.7001 48.5368 0.0000 -12.6189 0.0000
# 3 35.1274 48.5368 128.0546 0.0000 -8.5979 0.0000
# 4 0.0000 0.0000 0.0000 32.6481 0.0000 1.0900
# 5 -4.1964 -12.6189 -8.5979 0.0000 21.9352 0.0000
# 6 0.0000 0.0000 0.0000 1.0900 0.0000 22.9841
#
#
#
# Elastic Compliance Matrix: (Units=1/GPa)
#
#
# Indices 1 2 3 4 5 6 
#
# 1 0.025481 0.000938 -0.007171 0.000000 0.002604 0.000000
# 2 0.000938 0.010539 -0.003936 0.000000 0.004699 0.000000
# 3 -0.007171 -0.003936 0.011322 0.000000 0.000802 0.000000
# 4 0.000000 0.000000 0.000000 0.030678 0.000000 -0.001455
# 5 0.002604 0.004699 0.000802 0.000000 0.049104 0.000000
# 6 0.000000 0.000000 0.000000 -0.001455 0.000000 0.043577
#
#
# Mechanical properties :
#
#
# Convention : Reuss Voigt Hill
#
# Bulk Modulus (GPa) = 37.03086 53.71981 45.37533
# Shear Modulus (GPa) = 24.99489 28.88980 26.94235
#
# Velocity S-wave (km/s) = 3.37936 3.63314 3.50854
# Velocity P-wave (km/s) = 5.66975 6.49184 6.09467
#
# Compressibility (1/GPa) = 0.02700450
#
# Stress axis : x y z
#
# Youngs Moduli (GPa) = 39.24457 94.88886 88.32307
#
# Poissons Ratio (x) = -0.08905 0.63335
# Poissons Ratio (y) = -0.03683 0.34768
# Poissons Ratio (z) = 0.28141 0.37352
#
# Static dielectric constant tensor:
#      x y z
#    x 1.882930 0.000000 0.287250 
#    y 0.000000 2.639510 0.000000 
#    z 0.287250 0.000000 3.711100 
# 
# 
# High freq. dielectric constant tensor:
#      x y z
#    x 1.848290 0.000000 0.014860 
#    y 0.000000 1.869130 0.000000 
#    z 0.014860 0.000000 1.847830 
# 
# From -- ./inp_files/123492.got.cif
#   From: 2010.06.25/outbox.cif.g09.slc.cpg/sg15_62_cif.got.tgz:123492.got - 2010.06.28 07:06:18.
