data_PCOD8132733
_publ_section_title
;
Structure prediction by ZEFSAII (Michael W. Deem and Ramdas Pophale) SiO2 
 PCOD8132733
Probable space group: C 2/C
;
_chemical_formula_sum "Si O2"
_cell_formula_units_Z 60
_cell_length_a 20.807466
_cell_length_b 9.564027
_cell_length_c 13.889843
_cell_angle_alpha 90.000000
_cell_angle_beta 84.912912
_cell_angle_gamma 90.000000
_cell_volume 2753.235063
_symmetry_space_group_name_H-M "C 2/C"
_symmetry_group_IT_number 15
_symmetry_cell_setting 'monoclinic'
loop_
_space_group_symop_operation_xyz
x,y,z
-x,y,1/2-z
-x,-y,-z
x,-y,1/2+z
1/2+x,1/2+y,z
1/2-x,1/2+y,1/2-z
1/2-x,1/2-y,-z
1/2+x,1/2-y,1/2+z
loop_
_atom_site_type_symbol
_atom_site_label
_atom_site_fract_x
_atom_site_fract_y
_atom_site_fract_z
Si Si1 0.868321 0.503718 0.642292
Si Si2 0.517608 0.828608 0.925485
Si Si3 0.634078 0.156824 0.041578
Si Si4 0.873844 0.925456 0.348878
Si Si5 0.687605 0.301459 0.332278
Si Si6 0.671263 0.086816 0.655393
Si Si7 0.500000 0.333994 0.250000
Si Si8 0.884897 0.809073 0.968458
O O1 0.938313 0.467871 0.586699
O O2 0.838800 0.611259 0.566677
O O3 0.823455 0.366864 0.667399
O O4 0.872207 0.589131 0.741696
O O5 0.443157 0.868340 0.938344
O O6 0.539107 0.759593 0.820950
O O7 0.540551 0.723083 0.009123
O O8 0.646153 0.320324 0.062003
O O9 0.673941 0.073612 0.118564
O O10 0.834831 0.888468 0.258157
O O11 0.949981 0.923276 0.317879
O O12 0.867288 0.082569 0.386966
O O13 0.762254 0.337219 0.331257
O O14 0.652539 0.359821 0.431658
O O15 0.638219 0.161086 0.569072
#
# Coordination Sequence:
#
# PCOD8132733 Si02
#       8
#     8   8   8   8   8   8   4   8
#     4  11  22  43  67 100 129 174 227 282 336 393
#     4  10  20  43  69  97 136 172 216 287 348 397
#     4  11  23  41  71 100 128 176 229 276 340 409
#     4  11  24  43  66  97 133 180 222 272 343 407
#     4  11  24  45  67  89 142 179 215 283 345 396
#     4  12  25  41  69 100 126 178 234 270 334 406
#     4  10  18  40  66  88 130 178 212 258 354 410
#     4  11  25  43  66  99 133 180 223 273 347 397
#
# _framework density 21.792545
#
# number of rings (size 3 to 8) (size 9 to 14) (size 15 to 20)
#    0.000    1.067    6.667    1.600    1.867    3.200 
#    2.400    1.333    0.000    0.000    0.000    0.000 
#    0.000    0.000    0.000    0.000    0.000    0.000 
#
# Total GULP energy -371672.827048 kJ/mol
# GULP energy per Si atom -12389.094235 kJ/mol
# Density = 2.174294 g / cm^3
# Si number density = 21.792545 Si / 1000 Ang^3
#
#
#
# Elastic Constant Matrix: (Units=GPa)
#
#
# Indices 1 2 3 4 5 6 
#
# 1 62.5868 19.4312 12.5679 0.0000 16.8215 0.0000
# 2 19.4312 65.7681 21.7349 0.0000 2.0635 0.0000
# 3 12.5679 21.7349 119.7168 0.0000 19.3767 0.0000
# 4 0.0000 0.0000 0.0000 41.3872 0.0000 0.3346
# 5 16.8215 2.0635 19.3767 0.0000 25.6972 0.0000
# 6 0.0000 0.0000 0.0000 0.3346 0.0000 19.5259
#
#
#
# Elastic Compliance Matrix: (Units=1/GPa)
#
#
# Indices 1 2 3 4 5 6 
#
# 1 0.021614 -0.006339 0.001241 0.000000 -0.014575 0.000000
# 2 -0.006339 0.018059 -0.003474 0.000000 0.005319 0.000000
# 3 0.001241 -0.003474 0.010183 0.000000 -0.008211 0.000000
# 4 0.000000 0.000000 0.000000 0.024165 0.000000 -0.000414
# 5 -0.014575 0.005319 -0.008211 0.000000 0.054220 0.000000
# 6 0.000000 0.000000 0.000000 -0.000414 0.000000 0.051221
#
#
# Mechanical properties :
#
#
# Convention : Reuss Voigt Hill
#
# Bulk Modulus (GPa) = 30.57008 39.50441 35.03725
# Shear Modulus (GPa) = 24.09521 30.27789 27.18655
#
# Velocity S-wave (km/s) = 3.32876 3.73147 3.53585
# Velocity P-wave (km/s) = 5.36958 6.06069 5.72557
#
# Compressibility (1/GPa) = 0.03271172
#
# Stress axis : x y z
#
# Youngs Moduli (GPa) = 46.26627 55.37424 98.20719
#
# Poissons Ratio (x) = 0.35100 -0.12186
# Poissons Ratio (y) = 0.29327 0.34118
# Poissons Ratio (z) = -0.05741 0.19237
#
# Static dielectric constant tensor:
#      x y z
#    x 3.772250 0.000000 0.201780 
#    y 0.000000 3.769890 0.000000 
#    z 0.201780 0.000000 4.165000 
# 
# 
# High freq. dielectric constant tensor:
#      x y z
#    x 1.842000 0.000000 0.019390 
#    y 0.000000 1.841680 0.000000 
#    z 0.019390 0.000000 1.874880 
# 
# From -- ./inp_files/171881.got.cif
#   From: 2010.06.25/outbox.cif.g09.slc.cpg/sg15_86_cif.got.tgz:171881.got - 2010.06.28 07:06:18.
