data_PCOD8132812
_publ_section_title
;
Structure prediction by ZEFSAII (Michael W. Deem and Ramdas Pophale) SiO2 
 PCOD8132812
Probable space group: C 2/C
;
_chemical_formula_sum "Si O2"
_cell_formula_units_Z 60
_cell_length_a 8.719479
_cell_length_b 21.841214
_cell_length_c 15.050327
_cell_angle_alpha 90.000000
_cell_angle_beta 69.850343
_cell_angle_gamma 90.000000
_cell_volume 2690.819108
_symmetry_space_group_name_H-M "C 2/C"
_symmetry_group_IT_number 15
_symmetry_cell_setting 'monoclinic'
loop_
_space_group_symop_operation_xyz
x,y,z
-x,y,1/2-z
-x,-y,-z
x,-y,1/2+z
1/2+x,1/2+y,z
1/2-x,1/2+y,1/2-z
1/2-x,1/2-y,-z
1/2+x,1/2-y,1/2+z
loop_
_atom_site_type_symbol
_atom_site_label
_atom_site_fract_x
_atom_site_fract_y
_atom_site_fract_z
Si Si1 0.356298 0.508347 0.341463
Si Si2 0.767593 0.637277 0.140559
Si Si3 0.269114 0.916780 0.013100
Si Si4 0.503783 0.000633 0.149277
Si Si5 0.281298 0.296778 0.572686
Si Si6 0.393128 0.253890 0.900717
Si Si7 0.000000 0.665619 0.250000
Si Si8 0.966199 0.625935 0.921259
O O1 0.500000 0.484445 0.250000
O O2 0.363048 0.582095 0.345878
O O3 0.365481 0.468496 0.431329
O O4 0.180977 0.489706 0.340371
O O5 0.668207 0.702065 0.167937
O O6 0.885168 0.626656 0.203518
O O7 0.869816 0.638877 0.030694
O O8 0.187868 0.866211 0.966843
O O9 0.415385 0.949406 0.930118
O O10 0.346157 0.882063 0.083648
O O11 0.500000 0.024530 0.250000
O O12 0.594485 0.934834 0.118923
O O13 0.250000 0.250000 0.500000
O O14 0.445485 0.282728 0.590637
O O15 0.121910 0.292622 0.667726
O O16 0.439766 0.184459 0.861244
O O17 0.250000 0.250000 0.000000
#
# Coordination Sequence:
#
# PCOD8132812 Si02
#       8
#     8   8   8   8   8   8   4   8
#     4  11  24  41  63 100 143 175 223 294 353 409
#     4  11  22  43  66 102 137 176 233 291 348 407
#     4  11  21  43  73  96 137 185 229 287 345 416
#     4  11  23  41  70  98 132 187 235 277 342 427
#     4  12  24  46  71 104 138 181 238 290 347 420
#     4  10  23  42  70  98 139 182 225 288 354 412
#     4  12  26  42  78 106 126 188 250 284 340 426
#     4  10  18  44  70  93 135 182 230 278 345 416
#
# _framework density 22.298043
#
# number of rings (size 3 to 8) (size 9 to 14) (size 15 to 20)
#    0.000    1.067    5.333    1.600    5.600    0.000 
#    8.400    1.333    0.000    0.000    0.000    0.000 
#    0.000    0.000    0.000    0.000    0.000    0.000 
#
# Total GULP energy -371679.093771 kJ/mol
# GULP energy per Si atom -12389.303126 kJ/mol
# Density = 2.224729 g / cm^3
# Si number density = 22.298043 Si / 1000 Ang^3
#
#
#
# Elastic Constant Matrix: (Units=GPa)
#
#
# Indices 1 2 3 4 5 6 
#
# 1 64.5759 44.0011 30.7219 0.0000 -6.7661 0.0000
# 2 44.0011 170.4064 42.0521 0.0000 -1.6780 0.0000
# 3 30.7219 42.0521 104.0573 0.0000 -14.3268 0.0000
# 4 0.0000 0.0000 0.0000 60.4692 0.0000 -7.2887
# 5 -6.7661 -1.6780 -14.3268 0.0000 31.6785 0.0000
# 6 0.0000 0.0000 0.0000 -7.2887 0.0000 41.3162
#
#
#
# Elastic Compliance Matrix: (Units=1/GPa)
#
#
# Indices 1 2 3 4 5 6 
#
# 1 0.020569 -0.004298 -0.004012 0.000000 0.002351 0.000000
# 2 -0.004298 0.007441 -0.001930 0.000000 -0.001397 0.000000
# 3 -0.004012 -0.001930 0.012203 0.000000 0.004559 0.000000
# 4 0.000000 0.000000 0.000000 0.016897 0.000000 0.002981
# 5 0.002351 -0.001397 0.004559 0.000000 0.034057 0.000000
# 6 0.000000 0.000000 0.000000 0.002981 0.000000 0.024729
#
#
# Mechanical properties :
#
#
# Convention : Reuss Voigt Hill
#
# Bulk Modulus (GPa) = 50.68067 63.62109 57.15088
# Shear Modulus (GPa) = 34.97612 41.51040 38.24326
#
# Velocity S-wave (km/s) = 3.96482 4.31933 4.14586
# Velocity P-wave (km/s) = 6.61346 7.31229 6.97163
#
# Compressibility (1/GPa) = 0.01973139
#
# Stress axis : x y z
#
# Youngs Moduli (GPa) = 48.61581 134.39535 81.95004
#
# Poissons Ratio (x) = 0.57763 0.32881
# Poissons Ratio (y) = 0.20895 0.15819
# Poissons Ratio (z) = 0.19506 0.25943
#
# Static dielectric constant tensor:
#      x y z
#    x 3.973720 0.000000 0.063330 
#    y 0.000000 4.811730 0.000000 
#    z 0.063330 0.000000 3.992050 
# 
# 
# High freq. dielectric constant tensor:
#      x y z
#    x 1.855690 0.000000 -0.007390 
#    y 0.000000 1.900660 0.000000 
#    z -0.007390 0.000000 1.866740 
# 
# From -- ./inp_files/137795.got.cif
#   From: 2010.06.25/outbox.cif.g09.slc.cpg/sg15_69_cif.got.tgz:137795.got - 2010.06.28 07:06:18.
