data_PCOD8132293
_publ_section_title
;
Structure prediction by ZEFSAII (Michael W. Deem and Ramdas Pophale) SiO2 
 PCOD8132293
Probable space group: C 2/C
;
_chemical_formula_sum "Si O2"
_cell_formula_units_Z 48
_cell_length_a 11.523609
_cell_length_b 14.131805
_cell_length_c 21.732077
_cell_angle_alpha 90.000000
_cell_angle_beta 131.457513
_cell_angle_gamma 90.000000
_cell_volume 2652.334150
_symmetry_space_group_name_H-M "C 2/C"
_symmetry_group_IT_number 15
_symmetry_cell_setting 'monoclinic'
loop_
_space_group_symop_operation_xyz
x,y,z
-x,y,1/2-z
-x,-y,-z
x,-y,1/2+z
1/2+x,1/2+y,z
1/2-x,1/2+y,1/2-z
1/2-x,1/2-y,-z
1/2+x,1/2-y,1/2+z
loop_
_atom_site_type_symbol
_atom_site_label
_atom_site_fract_x
_atom_site_fract_y
_atom_site_fract_z
Si Si1 0.947669 0.189383 0.413468
Si Si2 0.947981 0.564428 0.388403
Si Si3 0.255189 0.159149 0.044368
Si Si4 0.571178 0.887587 0.482561
Si Si5 0.390326 0.480254 0.566322
Si Si6 0.898551 0.893700 0.772239
O O1 0.802212 0.190945 0.408499
O O2 0.891560 0.187928 0.322341
O O3 0.060838 0.278809 0.459639
O O4 0.045168 0.093387 0.462591
O O5 0.993323 0.606222 0.470908
O O6 0.775293 0.584040 0.307313
O O7 0.073093 0.614414 0.387172
O O8 0.969547 0.450718 0.399342
O O9 0.250000 0.250000 0.000000
O O10 0.140808 0.081851 0.973538
O O11 0.742733 0.929075 0.544283
O O12 0.516728 0.485931 0.666822
O O13 0.000000 0.857884 0.750000
#
# Coordination Sequence:
#
# PCOD8132293 Si02
#       6
#     8   8   8   8   8   8
#     4  10  21  36  62  86 115 144 197 237 293 335
#     4  10  20  36  58  84 120 147 191 236 288 341
#     4  11  21  37  60  87 115 154 194 232 287 354
#     4  10  18  36  63  84 106 157 199 232 274 353
#     4   9  21  36  60  83 116 147 193 243 280 330
#     4  10  21  37  58  82 119 149 189 242 291 330
#
# _framework density 18.097266000000001
#
# number of rings (size 3 to 8) (size 9 to 14) (size 15 to 20)
#    1.000    1.000    3.333    1.000    0.000    0.667 
#    3.000    0.000    7.333    0.000    0.000    0.000 
#    0.000    0.000    0.000    0.000    0.000    0.000 
#
# Total GULP energy -297333.398828 kJ/mol
# GULP energy per Si atom -12388.891618 kJ/mol
# Density = 1.805608 g / cm^3
# Si number density = 18.097266 Si / 1000 Ang^3
#
#
#
# Elastic Constant Matrix: (Units=GPa)
#
#
# Indices 1 2 3 4 5 6 
#
# 1 103.2102 30.0966 39.7682 0.0000 -6.9537 0.0000
# 2 30.0966 117.1827 42.6313 0.0000 1.0081 0.0000
# 3 39.7682 42.6313 88.6167 0.0000 9.6050 0.0000
# 4 0.0000 0.0000 0.0000 8.3696 0.0000 -4.8170
# 5 -6.9537 1.0081 9.6050 0.0000 31.6144 0.0000
# 6 0.0000 0.0000 0.0000 -4.8170 0.0000 21.2867
#
#
#
# Elastic Compliance Matrix: (Units=1/GPa)
#
#
# Indices 1 2 3 4 5 6 
#
# 1 0.012461 -0.001247 -0.005474 0.000000 0.004444 0.000000
# 2 -0.001247 0.010515 -0.004584 0.000000 0.000783 0.000000
# 3 -0.005474 -0.004584 0.016608 0.000000 -0.006103 0.000000
# 4 0.000000 0.000000 0.000000 0.137370 0.000000 0.031086
# 5 0.004444 0.000783 -0.006103 0.000000 0.034438 0.000000
# 6 0.000000 0.000000 0.000000 0.031086 0.000000 0.054012
#
#
# Mechanical properties :
#
#
# Convention : Reuss Voigt Hill
#
# Bulk Modulus (GPa) = 58.91237 59.33351 59.12294
# Shear Modulus (GPa) = 17.02584 25.35505 21.19044
#
# Velocity S-wave (km/s) = 3.07057 3.74711 3.42558
# Velocity P-wave (km/s) = 6.72273 7.18180 6.95605
#
# Compressibility (1/GPa) = 0.01697436
#
# Stress axis : x y z
#
# Youngs Moduli (GPa) = 80.24913 95.10412 60.21358
#
# Poissons Ratio (x) = 0.11863 0.32959
# Poissons Ratio (y) = 0.10010 0.27599
# Poissons Ratio (z) = 0.43926 0.43591
#
# Static dielectric constant tensor:
#      x y z
#    x 3.526110 0.000000 0.016320 
#    y 0.000000 3.262780 0.000000 
#    z 0.016320 0.000000 3.078210 
# 
# 
# High freq. dielectric constant tensor:
#      x y z
#    x 1.718200 0.000000 0.005330 
#    y 0.000000 1.688820 0.000000 
#    z 0.005330 0.000000 1.676910 
# 
# From -- ./inp_files/269601.got.cif
#   From: 2010.06.25/outbox.cif.g09.slc.cpg/sg15_135_cif.got.tgz:269601.got - 2010.06.28 07:06:18.
