data_PCOD8132727
_publ_section_title
;
Structure prediction by ZEFSAII (Michael W. Deem and Ramdas Pophale) SiO2 
 PCOD8132727
Probable space group: C 2/C
;
_chemical_formula_sum "Si O2"
_cell_formula_units_Z 64
_cell_length_a 29.496426
_cell_length_b 14.910491
_cell_length_c 8.905068
_cell_angle_alpha 90.000000
_cell_angle_beta 132.251625
_cell_angle_gamma 90.000000
_cell_volume 2898.992621
_symmetry_space_group_name_H-M "C 2/C"
_symmetry_group_IT_number 15
_symmetry_cell_setting 'monoclinic'
loop_
_space_group_symop_operation_xyz
x,y,z
-x,y,1/2-z
-x,-y,-z
x,-y,1/2+z
1/2+x,1/2+y,z
1/2-x,1/2+y,1/2-z
1/2-x,1/2-y,-z
1/2+x,1/2-y,1/2+z
loop_
_atom_site_type_symbol
_atom_site_label
_atom_site_fract_x
_atom_site_fract_y
_atom_site_fract_z
Si Si1 0.785679 0.898258 0.418252
Si Si2 0.954160 0.529517 0.773504
Si Si3 0.442425 0.527951 0.537626
Si Si4 0.424377 0.378392 0.701762
Si Si5 0.211229 0.740482 0.564809
Si Si6 0.046040 0.300016 0.076069
Si Si7 0.085668 0.662125 0.343389
Si Si8 0.806146 0.921395 0.802217
O O1 0.852805 0.858567 0.541908
O O2 0.738990 0.826643 0.248676
O O3 0.774232 0.911160 0.569557
O O4 0.776622 0.992049 0.313878
O O5 0.919846 0.619007 0.757356
O O6 0.909226 0.447188 0.625239
O O7 0.000000 0.563291 0.750000
O O8 0.000000 0.500000 0.000000
O O9 0.500000 0.576008 0.750000
O O10 0.443531 0.420229 0.581775
O O11 0.444497 0.541810 0.362828
O O12 0.379600 0.571018 0.457521
O O13 0.455658 0.286979 0.822091
O O14 0.250000 0.750000 0.500000
O O15 0.143057 0.702255 0.379814
O O16 0.209680 0.838499 0.629453
O O17 0.082390 0.289231 0.999621
O O18 0.975190 0.320051 0.886408
#
# Coordination Sequence:
#
# PCOD8132727 Si02
#       8
#     8   8   8   8   8   8   8   8
#     4  10  22  46  65  96 133 179 232 280 347 394
#     4  10  18  40  65  95 138 169 208 281 349 408
#     4  10  21  38  63  97 134 169 214 267 347 400
#     4  10  22  39  63  97 132 178 218 279 331 406
#     4  12  26  46  68  99 135 183 242 284 342 418
#     4  10  21  40  69 102 134 173 229 274 359 419
#     4  10  21  42  68  95 135 182 214 285 350 412
#     4  10  22  43  71  90 136 178 219 296 336 406
#
# _framework density 22.076633999999999
#
# number of rings (size 3 to 8) (size 9 to 14) (size 15 to 20)
#    0.000    1.750    2.500    3.000    3.500    1.500 
#   15.750    0.000    0.000    0.000    0.000    0.000 
#    0.000    0.000    0.000    0.000    0.000    0.000 
#
# Total GULP energy -396594.514310 kJ/mol
# GULP energy per Si atom -12393.578572 kJ/mol
# Density = 2.202639 g / cm^3
# Si number density = 22.076634 Si / 1000 Ang^3
#
#
#
# Elastic Constant Matrix: (Units=GPa)
#
#
# Indices 1 2 3 4 5 6 
#
# 1 72.5683 29.3313 26.7274 0.0000 -4.9406 0.0000
# 2 29.3313 147.9804 38.3413 0.0000 -8.0578 0.0000
# 3 26.7274 38.3413 77.1180 0.0000 -6.3632 0.0000
# 4 0.0000 0.0000 0.0000 37.3165 0.0000 -7.8642
# 5 -4.9406 -8.0578 -6.3632 0.0000 34.0031 0.0000
# 6 0.0000 0.0000 0.0000 -7.8642 0.0000 24.8336
#
#
#
# Elastic Compliance Matrix: (Units=1/GPa)
#
#
# Indices 1 2 3 4 5 6 
#
# 1 0.016347 -0.001995 -0.004588 0.000000 0.001044 0.000000
# 2 -0.001995 0.008044 -0.003224 0.000000 0.001013 0.000000
# 3 -0.004588 -0.003224 0.016294 0.000000 0.001619 0.000000
# 4 0.000000 0.000000 0.000000 0.028714 0.000000 0.009093
# 5 0.001044 0.001013 0.001619 0.000000 0.030104 0.000000
# 6 0.000000 0.000000 0.000000 0.009093 0.000000 0.043148
#
#
# Mechanical properties :
#
#
# Convention : Reuss Voigt Hill
#
# Bulk Modulus (GPa) = 47.45806 54.05186 50.75496
# Shear Modulus (GPa) = 29.53572 32.78175 31.15874
#
# Velocity S-wave (km/s) = 3.66166 3.85763 3.76092
# Velocity P-wave (km/s) = 6.27859 6.66173 6.47299
#
# Compressibility (1/GPa) = 0.02107124
#
# Stress axis : x y z
#
# Youngs Moduli (GPa) = 61.17291 124.32330 61.37354
#
# Poissons Ratio (x) = 0.24798 0.28156
# Poissons Ratio (y) = 0.12202 0.19788
# Poissons Ratio (z) = 0.28064 0.40084
#
# Static dielectric constant tensor:
#      x y z
#    x 3.926670 0.000000 -0.126330 
#    y 0.000000 3.888300 0.000000 
#    z -0.126330 0.000000 4.032120 
# 
# 
# High freq. dielectric constant tensor:
#      x y z
#    x 1.862290 0.000000 -0.011590 
#    y 0.000000 1.876420 0.000000 
#    z -0.011590 0.000000 1.861510 
# 
# From -- ./inp_files/70150.got.cif
#   From: 2010.06.25/outbox.cif.g09.slc.cpg/sg15_36_cif.got.tgz:70150.got - 2010.06.28 07:06:18.
