data_PCOD8132241
_publ_section_title
;
Structure prediction by ZEFSAII (Michael W. Deem and Ramdas Pophale) SiO2 
 PCOD8132241
Probable space group: C 2/C
;
_chemical_formula_sum "Si O2"
_cell_formula_units_Z 56
_cell_length_a 26.692602
_cell_length_b 11.741098
_cell_length_c 14.534282
_cell_angle_alpha 90.000000
_cell_angle_beta 37.323430
_cell_angle_gamma 90.000000
_cell_volume 2761.789327
_symmetry_space_group_name_H-M "C 2/C"
_symmetry_group_IT_number 15
_symmetry_cell_setting 'monoclinic'
loop_
_space_group_symop_operation_xyz
x,y,z
-x,y,1/2-z
-x,-y,-z
x,-y,1/2+z
1/2+x,1/2+y,z
1/2-x,1/2+y,1/2-z
1/2-x,1/2-y,-z
1/2+x,1/2-y,1/2+z
loop_
_atom_site_type_symbol
_atom_site_label
_atom_site_fract_x
_atom_site_fract_y
_atom_site_fract_z
Si Si1 0.856537 0.979251 0.609135
Si Si2 0.793928 0.505370 0.412500
Si Si3 0.305696 0.870096 0.717352
Si Si4 0.821383 0.149784 0.811131
Si Si5 0.973933 0.091622 0.690040
Si Si6 0.633661 0.389512 0.588418
Si Si7 0.903970 0.633041 0.887253
O O1 0.832624 0.030306 0.741725
O O2 0.863827 0.078301 0.522573
O O3 0.787642 0.888414 0.680555
O O4 0.944738 0.916165 0.492255
O O5 0.831528 0.537527 0.257566
O O6 0.755236 0.625375 0.507823
O O7 0.722474 0.411001 0.505413
O O8 0.863820 0.458926 0.377633
O O9 0.304318 0.745206 0.761891
O O10 0.368676 0.880422 0.541349
O O11 0.906128 0.174983 0.743277
O O12 0.000000 0.145226 0.750000
O O13 0.935591 0.965559 0.760464
O O14 0.610889 0.257974 0.632606
O O15 0.000000 0.604813 0.750000
#
# Coordination Sequence:
#
# PCOD8132241 Si02
#       7
#     8   8   8   8   8   8   8
#     4  10  18  36  60  91 120 148 199 252 298 357
#     4  10  23  41  59  90 125 158 200 251 304 364
#     4  11  24  40  63  89 119 163 206 245 309 366
#     4  11  20  38  63  87 125 159 196 246 307 362
#     4   9  19  34  59  93 125 148 195 258 305 347
#     4   9  19  37  63  89 119 152 196 254 302 351
#     4  12  23  40  63  84 121 164 207 249 298 360
#
# _framework density 20.276709
#
# number of rings (size 3 to 8) (size 9 to 14) (size 15 to 20)
#    0.000    1.714    2.857    3.429    0.000    0.571 
#    0.000    2.143    0.000    0.000    0.000    0.000 
#    0.000    0.000    0.000    0.000    0.000    0.000 
#
# Total GULP energy -347227.574962 kJ/mol
# GULP energy per Si atom -12400.984820 kJ/mol
# Density = 2.023056 g / cm^3
# Si number density = 20.276709 Si / 1000 Ang^3
#
#
#
# Elastic Constant Matrix: (Units=GPa)
#
#
# Indices 1 2 3 4 5 6 
#
# 1 127.5363 39.5080 47.0329 0.0000 -15.4583 0.0000
# 2 39.5080 45.6697 24.1345 0.0000 -10.1124 0.0000
# 3 47.0329 24.1345 116.1175 0.0000 -7.8848 0.0000
# 4 0.0000 0.0000 0.0000 18.8699 0.0000 5.3480
# 5 -15.4583 -10.1124 -7.8848 0.0000 35.5532 0.0000
# 6 0.0000 0.0000 0.0000 5.3480 0.0000 32.6178
#
#
#
# Elastic Compliance Matrix: (Units=1/GPa)
#
#
# Indices 1 2 3 4 5 6 
#
# 1 0.011678 -0.008096 -0.002902 0.000000 0.002131 0.000000
# 2 -0.008096 0.031518 -0.002946 0.000000 0.004791 0.000000
# 3 -0.002902 -0.002946 0.010414 0.000000 0.000210 0.000000
# 4 0.000000 0.000000 0.000000 0.055577 0.000000 -0.009112
# 5 0.002131 0.004791 0.000210 0.000000 0.030463 0.000000
# 6 0.000000 0.000000 0.000000 -0.009112 0.000000 0.032152
#
#
# Mechanical properties :
#
#
# Convention : Reuss Voigt Hill
#
# Bulk Modulus (GPa) = 38.88047 56.74159 47.81103
# Shear Modulus (GPa) = 24.00786 29.31807 26.66297
#
# Velocity S-wave (km/s) = 3.44468 3.80662 3.63017
# Velocity P-wave (km/s) = 5.91926 6.88221 6.41882
#
# Compressibility (1/GPa) = 0.02571986
#
# Stress axis : x y z
#
# Youngs Moduli (GPa) = 85.63367 31.72772 96.02293
#
# Poissons Ratio (x) = 0.25688 0.27870
# Poissons Ratio (y) = 0.69333 0.28290
# Poissons Ratio (z) = 0.24855 0.09347
#
# Static dielectric constant tensor:
#      x y z
#    x 3.903440 0.000000 0.042180 
#    y 0.000000 3.311740 0.000000 
#    z 0.042180 0.000000 3.769750 
# 
# 
# High freq. dielectric constant tensor:
#      x y z
#    x 1.806600 0.000000 0.007140 
#    y 0.000000 1.760010 0.000000 
#    z 0.007140 0.000000 1.794870 
# 
# From -- ./inp_files/177555.got.cif
#   From: 2010.06.25/outbox.cif.g09.slc.cpg/sg15_89_cif.got.tgz:177555.got - 2010.06.28 07:06:18.
