data_PCOD8132745
_publ_section_title
;
Structure prediction by ZEFSAII (Michael W. Deem and Ramdas Pophale) SiO2 
 PCOD8132745
Probable space group: C 2/C
;
_chemical_formula_sum "Si O2"
_cell_formula_units_Z 52
_cell_length_a 31.096059
_cell_length_b 15.974619
_cell_length_c 16.065791
_cell_angle_alpha 90.000000
_cell_angle_beta 18.698589
_cell_angle_gamma 90.000000
_cell_volume 2558.512185
_symmetry_space_group_name_H-M "C 2/C"
_symmetry_group_IT_number 15
_symmetry_cell_setting 'monoclinic'
loop_
_space_group_symop_operation_xyz
x,y,z
-x,y,1/2-z
-x,-y,-z
x,-y,1/2+z
1/2+x,1/2+y,z
1/2-x,1/2+y,1/2-z
1/2-x,1/2-y,-z
1/2+x,1/2-y,1/2+z
loop_
_atom_site_type_symbol
_atom_site_label
_atom_site_fract_x
_atom_site_fract_y
_atom_site_fract_z
Si Si1 0.500000 0.055532 0.250000
Si Si2 0.875399 0.011348 0.787081
Si Si3 0.399118 0.646391 0.360518
Si Si4 0.209377 0.553358 0.454105
Si Si5 0.974284 0.868218 0.390132
Si Si6 0.403550 0.816095 0.060215
Si Si7 0.609938 0.208455 0.731870
O O1 0.531798 0.108877 0.109937
O O2 0.372759 0.997756 0.463489
O O3 0.869053 0.937822 0.866269
O O4 0.743576 0.006480 0.970684
O O5 0.894768 0.100671 0.797498
O O6 0.000000 0.000000 0.500000
O O7 0.500000 0.626505 0.250000
O O8 0.468300 0.716943 0.173373
O O9 0.257673 0.681967 0.653863
O O10 0.122093 0.630782 0.647407
O O11 0.342614 0.586408 0.165952
O O12 0.000000 0.898272 0.250000
O O13 0.960141 0.769270 0.418854
O O14 0.455491 0.821424 0.061074
O O15 0.750000 0.250000 0.500000
#
# Coordination Sequence:
#
# PCOD8132745 Si02
#       7
#     4   8   8   8   8   8   8
#     4  12  30  42  64  96 140 174 212 280 330 396
#     4  10  21  38  64  98 128 165 222 276 316 382
#     4  11  22  38  71 103 126 171 228 268 319 393
#     4  11  23  43  64  97 131 172 222 267 328 391
#     4  11  22  40  70  94 129 170 214 272 328 383
#     4  11  23  46  63  91 137 174 209 267 341 377
#     4  10  18  40  68  88 126 174 210 264 323 384
#
# _framework density 20.324313
#
# number of rings (size 3 to 8) (size 9 to 14) (size 15 to 20)
#    0.000    1.231    6.923    1.385    7.538    0.615 
#    0.000    2.308    0.000    0.000    0.000    0.000 
#    0.000    0.000    0.000    0.000    0.000    0.000 
#
# Total GULP energy -322278.967127 kJ/mol
# GULP energy per Si atom -12395.344889 kJ/mol
# Density = 2.027805 g / cm^3
# Si number density = 20.324313 Si / 1000 Ang^3
#
#
#
# Elastic Constant Matrix: (Units=GPa)
#
#
# Indices 1 2 3 4 5 6 
#
# 1 108.6747 37.9433 25.7270 -0.0001 6.1180 0.0001
# 2 37.9433 105.9272 21.8413 0.0000 -3.8277 0.0001
# 3 25.7270 21.8413 34.8599 0.0000 10.6392 0.0001
# 4 -0.0001 0.0000 0.0000 28.1629 0.0001 4.4106
# 5 6.1180 -3.8277 10.6392 0.0001 35.8529 -0.0001
# 6 0.0001 0.0001 0.0001 4.4106 -0.0001 37.5885
#
#
#
# Elastic Compliance Matrix: (Units=1/GPa)
#
#
# Indices 1 2 3 4 5 6 
#
# 1 0.011833 -0.002832 -0.006873 0.000000 -0.000282 0.000000
# 2 -0.002832 0.011931 -0.006511 0.000000 0.003689 0.000000
# 3 -0.006873 -0.006511 0.041446 0.000000 -0.011821 0.000000
# 4 0.000000 0.000000 0.000000 0.036172 0.000000 -0.004244
# 5 -0.000282 0.003689 -0.011821 0.000000 0.031842 0.000000
# 6 0.000000 0.000000 0.000000 -0.004244 0.000000 0.027102
#
#
# Mechanical properties :
#
#
# Convention : Reuss Voigt Hill
#
# Bulk Modulus (GPa) = 30.50795 46.72055 38.61425
# Shear Modulus (GPa) = 24.54794 31.25089 27.89942
#
# Velocity S-wave (km/s) = 3.47913 3.92549 3.70903
# Velocity P-wave (km/s) = 5.58411 6.60177 6.11415
#
# Compressibility (1/GPa) = 0.03277834
#
# Stress axis : x y z
#
# Youngs Moduli (GPa) = 84.50652 83.81781 24.12797
#
# Poissons Ratio (x) = 0.23736 0.16583
# Poissons Ratio (y) = 0.23931 0.15710
# Poissons Ratio (z) = 0.58080 0.54574
#
# Static dielectric constant tensor:
#      x y z
#    x 4.198580 0.000000 0.224210 
#    y 0.000000 3.862070 0.000000 
#    z 0.224210 0.000000 3.502900 
# 
# 
# High freq. dielectric constant tensor:
#      x y z
#    x 1.806070 0.000000 0.022410 
#    y 0.000000 1.801480 0.000000 
#    z 0.022410 0.000000 1.760360 
# 
# From -- ./inp_files/182843.got.cif
#   From: 2010.06.25/outbox.cif.g09.slc.cpg/sg15_92_cif.got.tgz:182843.got - 2010.06.28 07:06:18.
