data_PCOD8132372
_publ_section_title
;
Structure prediction by ZEFSAII (Michael W. Deem and Ramdas Pophale) SiO2 
 PCOD8132372
Probable space group: C 2/C
;
_chemical_formula_sum "Si O2"
_cell_formula_units_Z 60
_cell_length_a 5.330468
_cell_length_b 32.086751
_cell_length_c 17.624908
_cell_angle_alpha 90.000000
_cell_angle_beta 107.315224
_cell_angle_gamma 90.000000
_cell_volume 2877.905732
_symmetry_space_group_name_H-M "C 2/C"
_symmetry_group_IT_number 15
_symmetry_cell_setting 'monoclinic'
loop_
_space_group_symop_operation_xyz
x,y,z
-x,y,1/2-z
-x,-y,-z
x,-y,1/2+z
1/2+x,1/2+y,z
1/2-x,1/2+y,1/2-z
1/2-x,1/2-y,-z
1/2+x,1/2-y,1/2+z
loop_
_atom_site_type_symbol
_atom_site_label
_atom_site_fract_x
_atom_site_fract_y
_atom_site_fract_z
Si Si1 0.295800 0.272478 0.797698
Si Si2 0.652148 0.422060 0.617261
Si Si3 0.406675 0.665429 0.436650
Si Si4 0.297340 0.825348 0.297390
Si Si5 0.310427 0.946008 0.009028
Si Si6 0.451255 0.009697 0.375866
Si Si7 0.500000 0.532382 0.250000
Si Si8 0.502753 0.143746 0.526935
O O1 0.500000 0.285748 0.750000
O O2 0.378950 0.293155 0.884505
O O3 0.309479 0.223610 0.814635
O O4 0.000000 0.286342 0.750000
O O5 0.689081 0.372570 0.626160
O O6 0.489340 0.430060 0.524013
O O7 0.502209 0.437110 0.678506
O O8 0.917994 0.447379 0.638385
O O9 0.207518 0.666764 0.489758
O O10 0.709317 0.662145 0.490689
O O11 0.500000 0.838063 0.250000
O O12 0.394335 0.849793 0.379501
O O13 0.000000 0.838999 0.250000
O O14 0.501973 0.906382 0.012217
O O15 0.363787 0.968872 0.095158
O O16 0.321780 0.981751 0.945683
O O17 0.243995 0.001195 0.288949
#
# Coordination Sequence:
#
# PCOD8132372 Si02
#       8
#     8   8   8   8   8   8   4   8
#     4  10  22  39  60  90 127 165 200 239 301 369
#     4  10  20  35  55  79 115 151 191 242 302 352
#     4  11  23  37  62  92 121 155 204 249 299 358
#     4  10  22  42  64  87 122 164 198 246 313 360
#     4   9  20  35  57  79 106 151 195 241 294 351
#     4  10  18  37  54  77 111 149 193 237 300 348
#     4  10  22  32  50  82 110 148 188 242 292 358
#     4  11  22  41  61  93 119 153 209 252 296 361
#
# _framework density 20.848492
#
# number of rings (size 3 to 8) (size 9 to 14) (size 15 to 20)
#    0.000    1.867    1.333    2.400    0.933    2.133 
#    1.200    1.333    0.000    0.000    0.000    0.000 
#    0.000    0.000    0.000    0.000    0.000    0.000 
#
# Total GULP energy -371771.810769 kJ/mol
# GULP energy per Si atom -12392.393692 kJ/mol
# Density = 2.080104 g / cm^3
# Si number density = 20.848492 Si / 1000 Ang^3
#
#
#
# Elastic Constant Matrix: (Units=GPa)
#
#
# Indices 1 2 3 4 5 6 
#
# 1 131.3071 14.2846 51.1876 0.0000 13.9977 0.0000
# 2 14.2846 41.6689 38.6824 0.0000 11.1955 0.0000
# 3 51.1876 38.6824 129.1393 0.0000 21.8569 0.0000
# 4 0.0000 0.0000 0.0000 21.5567 0.0000 -2.7860
# 5 13.9977 11.1955 21.8569 0.0000 36.7466 0.0000
# 6 0.0000 0.0000 0.0000 -2.7860 0.0000 16.5475
#
#
#
# Elastic Compliance Matrix: (Units=1/GPa)
#
#
# Indices 1 2 3 4 5 6 
#
# 1 0.009087 0.000555 -0.003507 0.000000 -0.001545 0.000000
# 2 0.000555 0.034015 -0.009584 0.000000 -0.004874 0.000000
# 3 -0.003507 -0.009584 0.012547 0.000000 -0.003207 0.000000
# 4 0.000000 0.000000 0.000000 0.047421 0.000000 0.007984
# 5 -0.001545 -0.004874 -0.003207 0.000000 0.031195 0.000000
# 6 0.000000 0.000000 0.000000 0.007984 0.000000 0.061776
#
#
# Mechanical properties :
#
#
# Convention : Reuss Voigt Hill
#
# Bulk Modulus (GPa) = 32.70279 56.71385 44.70832
# Shear Modulus (GPa) = 21.61648 28.16755 24.89201
#
# Velocity S-wave (km/s) = 3.22349 3.67966 3.45910
# Velocity P-wave (km/s) = 5.43824 6.73165 6.11922
#
# Compressibility (1/GPa) = 0.03057843
#
# Stress axis : x y z
#
# Youngs Moduli (GPa) = 110.04667 29.39872 79.69901
#
# Poissons Ratio (x) = -0.01633 0.27949
# Poissons Ratio (y) = -0.06111 0.76384
# Poissons Ratio (z) = 0.38591 0.28176
#
# Static dielectric constant tensor:
#      x y z
#    x 3.926910 0.000000 0.222350 
#    y 0.000000 3.732450 0.000000 
#    z 0.222350 0.000000 3.953580 
# 
# 
# High freq. dielectric constant tensor:
#      x y z
#    x 1.823610 0.000000 0.014060 
#    y 0.000000 1.798370 0.000000 
#    z 0.014060 0.000000 1.815260 
# 
# From -- ./inp_files/186766.got.cif
#   From: 2010.06.25/outbox.cif.g09.slc.cpg/sg15_94_cif.got.tgz:186766.got - 2010.06.28 07:06:18.
