data_PCOD8132444
_publ_section_title
;
Structure prediction by ZEFSAII (Michael W. Deem and Ramdas Pophale) SiO2 
 PCOD8132444
Probable space group: C 2/C
;
_chemical_formula_sum "Si O2"
_cell_formula_units_Z 40
_cell_length_a 5.252716
_cell_length_b 26.335864
_cell_length_c 16.764851
_cell_angle_alpha 90.000000
_cell_angle_beta 59.929254
_cell_angle_gamma 90.000000
_cell_volume 2007.020358
_symmetry_space_group_name_H-M "C 2/C"
_symmetry_group_IT_number 15
_symmetry_cell_setting 'monoclinic'
loop_
_space_group_symop_operation_xyz
x,y,z
-x,y,1/2-z
-x,-y,-z
x,-y,1/2+z
1/2+x,1/2+y,z
1/2-x,1/2+y,1/2-z
1/2-x,1/2-y,-z
1/2+x,1/2-y,1/2+z
loop_
_atom_site_type_symbol
_atom_site_label
_atom_site_fract_x
_atom_site_fract_y
_atom_site_fract_z
Si Si1 0.680181 0.361965 0.993856
Si Si2 0.576856 0.079718 0.324299
Si Si3 0.742579 0.301133 0.551432
Si Si4 0.000000 0.171214 0.250000
Si Si5 0.000000 0.997060 0.250000
Si Si6 0.835818 0.100692 0.700123
O O1 0.507127 0.382357 0.095978
O O2 0.438454 0.340867 0.971654
O O3 0.816267 0.410719 0.927492
O O4 0.927306 0.321178 0.982461
O O5 0.500000 0.057138 0.250000
O O6 0.721444 0.134516 0.284067
O O7 0.778109 0.035468 0.331160
O O8 0.750000 0.250000 0.500000
O O9 0.562758 0.293262 0.662924
O O10 0.848272 0.960791 0.207346
O O11 0.500000 0.119520 0.750000
O O12 0.000000 0.126610 0.750000
#
# Coordination Sequence:
#
# PCOD8132444 Si02
#       6
#     8   8   8   4   4   8
#     4  11  23  41  68  91 124 172 207 261 319 371
#     4  10  18  37  63  89 124 164 214 253 309 360
#     4  11  23  42  65  98 125 157 216 258 317 383
#     4   9  20  38  60  90 128 162 198 266 308 365
#     4   9  22  36  60  94 130 164 210 260 298 375
#     4  10  22  43  60  86 134 166 209 254 308 375
#
# _framework density 19.930042
#
# number of rings (size 3 to 8) (size 9 to 14) (size 15 to 20)
#    0.600    1.200    2.000    2.400    0.000    0.800 
#    5.400    2.000    0.000    0.000    0.000    0.000 
#    0.000    0.000    0.000    0.000    0.000    0.000 
#
# Total GULP energy -247795.206533 kJ/mol
# GULP energy per Si atom -12389.760327 kJ/mol
# Density = 1.988468 g / cm^3
# Si number density = 19.930042 Si / 1000 Ang^3
#
#
#
# Elastic Constant Matrix: (Units=GPa)
#
#
# Indices 1 2 3 4 5 6 
#
# 1 94.4391 7.0962 44.0183 0.0000 -0.8989 0.0000
# 2 7.0962 57.3921 50.4295 0.0000 -1.9307 0.0000
# 3 44.0183 50.4295 197.7706 0.0000 -6.8027 0.0000
# 4 0.0000 0.0000 0.0000 63.2085 0.0000 12.3456
# 5 -0.8989 -1.9307 -6.8027 0.0000 32.2557 0.0000
# 6 0.0000 0.0000 0.0000 12.3456 0.0000 14.7427
#
#
#
# Elastic Compliance Matrix: (Units=1/GPa)
#
#
# Indices 1 2 3 4 5 6 
#
# 1 0.011870 0.001099 -0.002930 0.000000 -0.000221 0.000000
# 2 0.001099 0.022558 -0.005993 0.000000 0.000117 0.000000
# 3 -0.002930 -0.005993 0.007274 0.000000 0.001094 0.000000
# 4 0.000000 0.000000 0.000000 0.018914 0.000000 -0.015839
# 5 -0.000221 0.000117 0.001094 0.000000 0.031234 0.000000
# 6 0.000000 0.000000 0.000000 -0.015839 0.000000 0.081094
#
#
# Mechanical properties :
#
#
# Convention : Reuss Voigt Hill
#
# Bulk Modulus (GPa) = 38.37995 61.40997 49.89496
# Shear Modulus (GPa) = 25.34541 38.57857 31.96199
#
# Velocity S-wave (km/s) = 3.56999 4.40443 4.00898
# Velocity P-wave (km/s) = 6.02430 7.53293 6.82046
#
# Compressibility (1/GPa) = 0.02605527
#
# Stress axis : x y z
#
# Youngs Moduli (GPa) = 84.24801 44.33086 137.47333
#
# Poissons Ratio (x) = -0.04873 0.40277
# Poissons Ratio (y) = -0.09261 0.82383
# Poissons Ratio (z) = 0.24683 0.26566
#
# Static dielectric constant tensor:
#      x y z
#    x 3.725750 0.000000 -0.187680 
#    y 0.000000 3.353190 0.000000 
#    z -0.187680 0.000000 3.607590 
# 
# 
# High freq. dielectric constant tensor:
#      x y z
#    x 1.791080 0.000000 -0.001040 
#    y 0.000000 1.753200 0.000000 
#    z -0.001040 0.000000 1.778410 
# 
# From -- ./inp_files/129699.got.cif
#   From: 2010.06.25/outbox.cif.g09.slc.cpg/sg15_65_cif.got.tgz:129699.got - 2010.06.28 07:06:18.
