data_PCOD8132609
_publ_section_title
;
Structure prediction by ZEFSAII (Michael W. Deem and Ramdas Pophale) SiO2 
 PCOD8132609
Probable space group: C 2/C
;
_chemical_formula_sum "Si O2"
_cell_formula_units_Z 52
_cell_length_a 13.477850
_cell_length_b 11.744578
_cell_length_c 16.605056
_cell_angle_alpha 90.000000
_cell_angle_beta 104.638457
_cell_angle_gamma 90.000000
_cell_volume 2543.122043
_symmetry_space_group_name_H-M "C 2/C"
_symmetry_group_IT_number 15
_symmetry_cell_setting 'monoclinic'
loop_
_space_group_symop_operation_xyz
x,y,z
-x,y,1/2-z
-x,-y,-z
x,-y,1/2+z
1/2+x,1/2+y,z
1/2-x,1/2+y,1/2-z
1/2-x,1/2-y,-z
1/2+x,1/2-y,1/2+z
loop_
_atom_site_type_symbol
_atom_site_label
_atom_site_fract_x
_atom_site_fract_y
_atom_site_fract_z
Si Si1 0.171868 0.385555 0.126079
Si Si2 0.167181 0.818560 0.033796
Si Si3 0.451263 0.081948 0.324744
Si Si4 0.950335 0.737706 0.031748
Si Si5 0.682364 0.292309 0.216256
Si Si6 0.500000 0.440662 0.250000
Si Si7 0.132679 0.973265 0.416009
O O1 0.080994 0.465009 0.139217
O O2 0.129904 0.298570 0.051775
O O3 0.218580 0.309994 0.207917
O O4 0.256812 0.464147 0.101974
O O5 0.210345 0.837101 0.132670
O O6 0.250000 0.750000 0.000000
O O7 0.061854 0.748593 0.014498
O O8 0.140871 0.940559 0.990988
O O9 0.500000 0.049285 0.250000
O O10 0.539266 0.143812 0.395701
O O11 0.349504 0.159692 0.293088
O O12 0.908856 0.852998 0.061841
O O13 0.585509 0.359882 0.229703
O O14 0.551935 0.517400 0.330855
#
# Coordination Sequence:
#
# PCOD8132609 Si02
#       7
#     8   8   8   8   8   4   8
#     4  11  25  38  62  99 120 160 219 268 318 384
#     4  11  24  42  63  92 133 171 208 270 330 372
#     4  11  21  41  64  84 127 173 204 266 329 378
#     4  11  23  41  64  91 129 166 220 258 320 400
#     4  10  21  41  61  87 125 165 216 259 320 390
#     4  10  18  38  66  90 116 162 230 254 306 394
#     4  11  21  41  66  92 124 170 213 263 320 386
#
# _framework density 20.447308
#
# number of rings (size 3 to 8) (size 9 to 14) (size 15 to 20)
#    0.000    1.231    3.846    4.154    0.000    3.692 
#    5.538    0.000    0.000    0.000    0.000    0.000 
#    0.000    0.000    0.000    0.000    0.000    0.000 
#
# Total GULP energy -322460.514518 kJ/mol
# GULP energy per Si atom -12402.327481 kJ/mol
# Density = 2.040077 g / cm^3
# Si number density = 20.447308 Si / 1000 Ang^3
#
#
#
# Elastic Constant Matrix: (Units=GPa)
#
#
# Indices 1 2 3 4 5 6 
#
# 1 85.0563 19.2986 52.8058 0.0000 -7.9898 0.0000
# 2 19.2986 54.6673 41.7098 0.0000 2.4020 0.0000
# 3 52.8058 41.7098 171.5522 0.0000 8.9034 0.0000
# 4 0.0000 0.0000 0.0000 29.3957 0.0000 3.8159
# 5 -7.9898 2.4020 8.9034 0.0000 41.2994 0.0000
# 6 0.0000 0.0000 0.0000 3.8159 0.0000 24.0830
#
#
#
# Elastic Compliance Matrix: (Units=1/GPa)
#
#
# Indices 1 2 3 4 5 6 
#
# 1 0.015378 -0.002253 -0.004396 0.000000 0.004054 0.000000
# 2 -0.002253 0.022789 -0.004810 0.000000 -0.000724 0.000000
# 3 -0.004396 -0.004810 0.008476 0.000000 -0.002398 0.000000
# 4 0.000000 0.000000 0.000000 0.034733 0.000000 -0.005503
# 5 0.004054 -0.000724 -0.002398 0.000000 0.025557 0.000000
# 6 0.000000 0.000000 0.000000 -0.005503 0.000000 0.042395
#
#
# Mechanical properties :
#
#
# Convention : Reuss Voigt Hill
#
# Bulk Modulus (GPa) = 42.14750 59.87824 51.01287
# Shear Modulus (GPa) = 27.75389 32.11972 29.93680
#
# Velocity S-wave (km/s) = 3.68820 3.96770 3.83050
# Velocity P-wave (km/s) = 6.22853 7.09492 6.67580
#
# Compressibility (1/GPa) = 0.02372620
#
# Stress axis : x y z
#
# Youngs Moduli (GPa) = 65.02709 43.88026 117.97686
#
# Poissons Ratio (x) = 0.09885 0.51866
# Poissons Ratio (y) = 0.14648 0.56745
# Poissons Ratio (z) = 0.28588 0.21106
#
# Static dielectric constant tensor:
#      x y z
#    x 3.734110 0.000000 -0.000940 
#    y 0.000000 3.459030 0.000000 
#    z -0.000940 0.000000 4.307940 
# 
# 
# High freq. dielectric constant tensor:
#      x y z
#    x 1.800650 0.000000 -0.005400 
#    y 0.000000 1.777260 0.000000 
#    z -0.005400 0.000000 1.821880 
# 
# From -- ./inp_files/152706.got.cif
#   From: 2010.06.25/outbox.cif.g09.slc.cpg/sg15_77_cif.got.tgz:152706.got - 2010.06.28 07:06:18.
