data_PCOD8132597
_publ_section_title
;
Structure prediction by ZEFSAII (Michael W. Deem and Ramdas Pophale) SiO2 
 PCOD8132597
Probable space group: C 2/C
;
_chemical_formula_sum "Si O2"
_cell_formula_units_Z 36
_cell_length_a 15.262556
_cell_length_b 13.459517
_cell_length_c 12.693407
_cell_angle_alpha 90.000000
_cell_angle_beta 139.991516
_cell_angle_gamma 90.000000
_cell_volume 1676.405493
_symmetry_space_group_name_H-M "C 2/C"
_symmetry_group_IT_number 15
_symmetry_cell_setting 'monoclinic'
loop_
_space_group_symop_operation_xyz
x,y,z
-x,y,1/2-z
-x,-y,-z
x,-y,1/2+z
1/2+x,1/2+y,z
1/2-x,1/2+y,1/2-z
1/2-x,1/2-y,-z
1/2+x,1/2-y,1/2+z
loop_
_atom_site_type_symbol
_atom_site_label
_atom_site_fract_x
_atom_site_fract_y
_atom_site_fract_z
Si Si1 0.000000 0.125983 0.250000
Si Si2 0.150620 0.334003 0.866412
Si Si3 0.717790 0.049770 0.988237
Si Si4 0.141865 0.331808 0.617023
Si Si5 0.125489 0.703280 0.734185
O O1 0.124092 0.055925 0.401927
O O2 0.058660 0.195360 0.213120
O O3 0.170417 0.436917 0.945155
O O4 0.176784 0.359143 0.768329
O O5 0.000000 0.293069 0.750000
O O6 0.250000 0.250000 0.000000
O O7 0.629460 0.119801 0.828871
O O8 0.696799 0.083818 0.089170
O O9 0.221066 0.227806 0.663668
O O10 0.977194 0.327365 0.454091
#
# Coordination Sequence:
#
# PCOD8132597 Si02
#       5
#     4   8   8   8   8
#     4  10  18  38  66 104 138 154 208 292 322 380
#     4  12  29  48  63  94 139 180 223 271 323 400
#     4  11  23  41  71 102 132 169 226 277 321 395
#     4  11  22  40  70  97 129 180 210 275 342 377
#     4  11  18  39  68 106 131 159 222 276 329 392
#
# _framework density 21.474516999999999
#
# number of rings (size 3 to 8) (size 9 to 14) (size 15 to 20)
#    0.000    0.889    4.444    4.000    1.556    5.333 
#    0.000    2.222    0.000    0.000    0.000    0.000 
#    0.000    0.000    0.000    0.000    0.000    0.000 
#
# Total GULP energy -223156.801586 kJ/mol
# GULP energy per Si atom -12397.600088 kJ/mol
# Density = 2.142564 g / cm^3
# Si number density = 21.474517 Si / 1000 Ang^3
#
#
#
# Elastic Constant Matrix: (Units=GPa)
#
#
# Indices 1 2 3 4 5 6 
#
# 1 83.5558 46.4284 58.6599 0.0000 -0.4770 0.0000
# 2 46.4284 118.3284 60.2464 0.0000 3.1818 0.0000
# 3 58.6599 60.2464 152.5136 0.0000 11.7008 0.0000
# 4 0.0000 0.0000 0.0000 29.2268 0.0000 6.4019
# 5 -0.4770 3.1818 11.7008 0.0000 53.2850 0.0000
# 6 0.0000 0.0000 0.0000 6.4019 0.0000 20.3981
#
#
#
# Elastic Compliance Matrix: (Units=1/GPa)
#
#
# Indices 1 2 3 4 5 6 
#
# 1 0.018227 -0.004460 -0.005372 0.000000 0.001609 0.000000
# 2 -0.004460 0.011674 -0.002888 0.000000 -0.000103 0.000000
# 3 -0.005372 -0.002888 0.009922 0.000000 -0.002054 0.000000
# 4 0.000000 0.000000 0.000000 0.036741 0.000000 -0.011531
# 5 0.001609 -0.000103 -0.002054 0.000000 0.019239 0.000000
# 6 0.000000 0.000000 0.000000 -0.011531 0.000000 0.052643
#
#
# Mechanical properties :
#
#
# Convention : Reuss Voigt Hill
#
# Bulk Modulus (GPa) = 69.53072 76.11859 72.82465
# Shear Modulus (GPa) = 27.98299 33.18620 30.58459
#
# Velocity S-wave (km/s) = 3.61373 3.93539 3.77799
# Velocity P-wave (km/s) = 7.06121 7.49484 7.28125
#
# Compressibility (1/GPa) = 0.01438213
#
# Stress axis : x y z
#
# Youngs Moduli (GPa) = 54.86429 85.65821 100.78965
#
# Poissons Ratio (x) = 0.38201 0.54146
# Poissons Ratio (y) = 0.24468 0.29113
# Poissons Ratio (z) = 0.29474 0.24742
#
# Static dielectric constant tensor:
#      x y z
#    x 4.075600 0.000000 0.458540 
#    y 0.000000 3.634810 0.000000 
#    z 0.458540 0.000000 4.239650 
# 
# 
# High freq. dielectric constant tensor:
#      x y z
#    x 1.840060 0.000000 0.018960 
#    y 0.000000 1.819810 0.000000 
#    z 0.018960 0.000000 1.855340 
# 
# From -- ./inp_files/96781.got.cif
#   From: 2010.06.25/outbox.cif.g09.slc.cpg/sg15_49_cif.got.tgz:96781.got - 2010.06.28 07:06:18.
