data_PCOD8132643
_publ_section_title
;
Structure prediction by ZEFSAII (Michael W. Deem and Ramdas Pophale) SiO2 
 PCOD8132643
Probable space group: C 2/C
;
_chemical_formula_sum "Si O2"
_cell_formula_units_Z 44
_cell_length_a 23.815875
_cell_length_b 13.399715
_cell_length_c 14.631764
_cell_angle_alpha 90.000000
_cell_angle_beta 27.930655
_cell_angle_gamma 90.000000
_cell_volume 2187.147528
_symmetry_space_group_name_H-M "C 2/C"
_symmetry_group_IT_number 15
_symmetry_cell_setting 'monoclinic'
loop_
_space_group_symop_operation_xyz
x,y,z
-x,y,1/2-z
-x,-y,-z
x,-y,1/2+z
1/2+x,1/2+y,z
1/2-x,1/2+y,1/2-z
1/2-x,1/2-y,-z
1/2+x,1/2-y,1/2+z
loop_
_atom_site_type_symbol
_atom_site_label
_atom_site_fract_x
_atom_site_fract_y
_atom_site_fract_z
Si Si1 0.749795 0.527322 0.927470
Si Si2 0.876245 0.248791 0.560438
Si Si3 0.500000 0.402448 0.750000
Si Si4 0.824160 0.610753 0.628193
Si Si5 0.142012 0.575024 0.540766
Si Si6 0.051129 0.606323 0.392247
O O1 0.786961 0.589983 0.785921
O O2 0.798744 0.584757 0.945649
O O3 0.811378 0.416379 0.837172
O O4 0.605175 0.524339 0.135496
O O5 0.960686 0.166267 0.391982
O O6 0.763102 0.200347 0.777208
O O7 0.824558 0.323255 0.558478
O O8 0.953918 0.310901 0.521771
O O9 0.800718 0.517628 0.596064
O O10 0.966213 0.640726 0.429313
O O11 0.000000 0.560775 0.750000
O O12 0.000000 0.500000 0.500000
#
# Coordination Sequence:
#
# PCOD8132643 Si02
#       6
#     8   8   4   8   8   8
#     4  10  21  38  61  85 128 159 201 251 311 359
#     4  11  22  35  61  92 124 156 204 255 312 353
#     4  10  24  36  56 102 124 148 212 264 302 366
#     4  10  22  38  58  95 126 152 210 256 300 366
#     4  12  20  38  67  90 114 171 207 247 307 364
#     4  10  18  39  60  82 123 165 191 250 306 360
#
# _framework density 20.117526999999999
#
# number of rings (size 3 to 8) (size 9 to 14) (size 15 to 20)
#    0.000    1.455    6.364    1.091    2.545    1.455 
#    0.000    6.364    2.000    0.000    0.000    0.000 
#    0.000    0.000    0.000    0.000    0.000    0.000 
#
# Total GULP energy -272632.323765 kJ/mol
# GULP energy per Si atom -12392.378353 kJ/mol
# Density = 2.007174 g / cm^3
# Si number density = 20.117527 Si / 1000 Ang^3
#
#
#
# Elastic Constant Matrix: (Units=GPa)
#
#
# Indices 1 2 3 4 5 6 
#
# 1 58.2533 19.7234 20.9912 0.0000 -12.5175 0.0000
# 2 19.7234 68.4637 60.3063 0.0000 0.1684 0.0000
# 3 20.9912 60.3063 105.6682 0.0000 -30.2102 0.0000
# 4 0.0000 0.0000 0.0000 38.3130 0.0000 -4.9158
# 5 -12.5175 0.1684 -30.2102 0.0000 32.6950 0.0000
# 6 0.0000 0.0000 0.0000 -4.9158 0.0000 19.0804
#
#
#
# Elastic Compliance Matrix: (Units=1/GPa)
#
#
# Indices 1 2 3 4 5 6 
#
# 1 0.022182 -0.012886 0.007331 0.000000 0.015333 0.000000
# 2 -0.012886 0.054111 -0.040515 0.000000 -0.042648 0.000000
# 3 0.007331 -0.040515 0.043477 0.000000 0.043188 0.000000
# 4 0.000000 0.000000 0.000000 0.026993 0.000000 0.006954
# 5 0.015333 -0.042648 0.043188 0.000000 0.076582 0.000000
# 6 0.000000 0.000000 0.000000 0.006954 0.000000 0.054202
#
#
# Mechanical properties :
#
#
# Convention : Reuss Voigt Hill
#
# Bulk Modulus (GPa) = 36.19100 48.26966 42.23033
# Shear Modulus (GPa) = 13.19620 26.77528 19.98574
#
# Velocity S-wave (km/s) = 2.56394 3.65217 3.15532
# Velocity P-wave (km/s) = 5.17628 6.46764 5.85766
#
# Compressibility (1/GPa) = 0.02763118
#
# Stress axis : x y z
#
# Youngs Moduli (GPa) = 45.08104 18.48051 23.00058
#
# Poissons Ratio (x) = 0.23813 -0.16862
# Poissons Ratio (y) = 0.58090 0.93187
# Poissons Ratio (z) = -0.33050 0.74874
#
# Static dielectric constant tensor:
#      x y z
#    x 3.824780 0.000000 -0.416190 
#    y 0.000000 3.663210 0.000000 
#    z -0.416190 0.000000 4.506980 
# 
# 
# High freq. dielectric constant tensor:
#      x y z
#    x 1.784250 0.000000 -0.011170 
#    y 0.000000 1.755860 0.000000 
#    z -0.011170 0.000000 1.780530 
# 
# From -- ./inp_files/123268.got.cif
#   From: 2010.06.25/outbox.cif.g09.slc.cpg/sg15_62_cif.got.tgz:123268.got - 2010.06.28 07:06:18.
