data_PCOD8132101
_publ_section_title
;
Structure prediction by ZEFSAII (Michael W. Deem and Ramdas Pophale) SiO2 
 PCOD8132101
Probable space group: C 2/C
;
_chemical_formula_sum "Si O2"
_cell_formula_units_Z 28
_cell_length_a 19.598797
_cell_length_b 7.189024
_cell_length_c 9.669015
_cell_angle_alpha 90.000000
_cell_angle_beta 130.135682
_cell_angle_gamma 90.000000
_cell_volume 1041.526915
_symmetry_space_group_name_H-M "C 2/C"
_symmetry_group_IT_number 15
_symmetry_cell_setting 'monoclinic'
loop_
_space_group_symop_operation_xyz
x,y,z
-x,y,1/2-z
-x,-y,-z
x,-y,1/2+z
1/2+x,1/2+y,z
1/2-x,1/2+y,1/2-z
1/2-x,1/2-y,-z
1/2+x,1/2-y,1/2+z
loop_
_atom_site_type_symbol
_atom_site_label
_atom_site_fract_x
_atom_site_fract_y
_atom_site_fract_z
Si Si1 0.672717 0.997588 0.836470
Si Si2 0.500000 0.926240 0.250000
Si Si3 0.774410 0.875417 0.733376
Si Si4 0.555581 0.569230 0.447454
O O1 0.571313 0.953265 0.754838
O O2 0.675647 0.192041 0.754367
O O3 0.702557 0.839064 0.764763
O O4 0.735752 0.010133 0.053167
O O5 0.557959 0.793882 0.428814
O O6 0.842851 0.004581 0.909404
O O7 0.500000 0.475678 0.250000
O O8 0.500000 0.500000 0.500000
#
# Coordination Sequence:
#
# PCOD8132101 Si02
#       4
#     8   4   8   8
#     4  11  24  42  69  96 140 172 221 276 334 392
#     4  10  22  42  68  98 136 172 214 286 328 386
#     4  11  22  43  68 102 131 178 219 278 330 396
#     4  10  18  35  66  97 126 168 223 263 310 395
#
# _framework density 26.883607999999999
#
# number of rings (size 3 to 8) (size 9 to 14) (size 15 to 20)
#    0.857    0.571    2.857    5.143    0.000    2.286 
#    0.000    2.857    3.143    1.714    0.000    0.000 
#    0.000    0.000    0.000    0.000    0.000    0.000 
#
# Total GULP energy -173458.085343 kJ/mol
# GULP energy per Si atom -12389.863239 kJ/mol
# Density = 2.682242 g / cm^3
# Si number density = 26.883608 Si / 1000 Ang^3
#
#
#
# Elastic Constant Matrix: (Units=GPa)
#
#
# Indices 1 2 3 4 5 6 
#
# 1 214.2993 6.8194 57.6421 0.0000 -16.2686 0.0000
# 2 6.8194 21.6109 9.1249 0.0000 5.0355 0.0000
# 3 57.6421 9.1249 146.6470 0.0000 -7.3665 0.0000
# 4 0.0000 0.0000 0.0000 22.8622 0.0000 -4.2180
# 5 -16.2686 5.0355 -7.3665 0.0000 53.1361 0.0000
# 6 0.0000 0.0000 0.0000 -4.2180 0.0000 34.8586
#
#
#
# Elastic Compliance Matrix: (Units=1/GPa)
#
#
# Indices 1 2 3 4 5 6 
#
# 1 0.005342 -0.001207 -0.001950 0.000000 0.001479 0.000000
# 2 -0.001207 0.049122 -0.002854 0.000000 -0.005420 0.000000
# 3 -0.001950 -0.002854 0.007801 0.000000 0.000755 0.000000
# 4 0.000000 0.000000 0.000000 0.044739 0.000000 0.005414
# 5 0.001479 -0.005420 0.000755 0.000000 0.019891 0.000000
# 6 0.000000 0.000000 0.000000 0.005414 0.000000 0.029342
#
#
# Mechanical properties :
#
#
# Convention : Reuss Voigt Hill
#
# Bulk Modulus (GPa) = 19.90374 58.85890 39.38132
# Shear Modulus (GPa) = 27.02594 42.76944 34.89769
#
# Velocity S-wave (km/s) = 3.17408 3.99295 3.60683
# Velocity P-wave (km/s) = 4.56648 6.57265 5.65917
#
# Compressibility (1/GPa) = 0.05024180
#
# Stress axis : x y z
#
# Youngs Moduli (GPa) = 187.20783 20.35748 128.18540
#
# Poissons Ratio (x) = 0.02457 0.24999
# Poissons Ratio (y) = 0.22593 0.36590
# Poissons Ratio (z) = 0.36510 0.05811
#
# Static dielectric constant tensor:
#      x y z
#    x 6.161900 0.000000 1.626090 
#    y 0.000000 5.777940 0.000000 
#    z 1.626090 0.000000 7.854730 
# 
# 
# High freq. dielectric constant tensor:
#      x y z
#    x 2.099800 0.000000 -0.004760 
#    y 0.000000 2.038110 0.000000 
#    z -0.004760 0.000000 2.100780 
# 
# From -- ./inp_files/53566.got.cif
#   From: 2010.06.25/outbox.cif.g09.slc.cpg/sg15_27_cif.got.tgz:53566.got - 2010.06.28 07:06:18.
