data_PCOD8132069
_publ_section_title
;
Structure prediction by ZEFSAII (Michael W. Deem and Ramdas Pophale) SiO2 
 PCOD8132069
Probable space group: C 2/C
;
_chemical_formula_sum "Si O2"
_cell_formula_units_Z 56
_cell_length_a 14.258436
_cell_length_b 11.331236
_cell_length_c 26.317473
_cell_angle_alpha 90.000000
_cell_angle_beta 133.366580
_cell_angle_gamma 90.000000
_cell_volume 3091.099804
_symmetry_space_group_name_H-M "C 2/C"
_symmetry_group_IT_number 15
_symmetry_cell_setting 'monoclinic'
loop_
_space_group_symop_operation_xyz
x,y,z
-x,y,1/2-z
-x,-y,-z
x,-y,1/2+z
1/2+x,1/2+y,z
1/2-x,1/2+y,1/2-z
1/2-x,1/2-y,-z
1/2+x,1/2-y,1/2+z
loop_
_atom_site_type_symbol
_atom_site_label
_atom_site_fract_x
_atom_site_fract_y
_atom_site_fract_z
Si Si1 0.363226 0.774466 0.723190
Si Si2 0.860118 0.645424 0.335336
Si Si3 0.368123 0.886316 0.576487
Si Si4 0.965229 0.876144 0.426629
Si Si5 0.664579 0.622974 0.919432
Si Si6 0.822262 0.913152 0.915105
Si Si7 0.358343 0.512019 0.695702
O O1 0.500000 0.820555 0.750000
O O2 0.328256 0.821111 0.765919
O O3 0.242468 0.813261 0.643656
O O4 0.366285 0.633199 0.730302
O O5 0.894607 0.756116 0.384242
O O6 0.743426 0.575713 0.317140
O O7 0.988737 0.562687 0.379482
O O8 0.380035 0.757299 0.609243
O O9 0.304358 0.870942 0.497649
O O10 0.280630 0.963813 0.581534
O O11 0.056826 0.929891 0.416879
O O12 0.052719 0.857022 0.509987
O O13 0.856332 0.973521 0.394588
O O14 0.679736 0.541192 0.876231
O O15 0.500000 0.451475 0.750000
#
# Coordination Sequence:
#
# PCOD8132069 Si02
#       7
#     8   8   8   8   8   8   8
#     4  11  21  37  58  82 108 145 192 234 274 333
#     4  11  23  36  56  83 114 143 184 235 278 338
#     4   9  16  34  57  84 101 136 190 231 267 304
#     4   9  20  36  60  84 113 148 189 225 284 332
#     4   9  17  33  58  79 108 141 182 230 263 330
#     4  10  18  35  63  84 110 147 189 234 271 331
#     4  11  23  38  54  80 114 151 182 224 290 333
#
# _framework density 18.116529
#
# number of rings (size 3 to 8) (size 9 to 14) (size 15 to 20)
#    0.000    2.000    2.857    3.429    4.000    0.571 
#    0.000    2.143    0.000    2.571    0.000    0.000 
#    0.000    0.000    0.000    0.000    0.000    0.000 
#
# Total GULP energy -347000.830088 kJ/mol
# GULP energy per Si atom -12392.886789 kJ/mol
# Density = 1.807530 g / cm^3
# Si number density = 18.116529 Si / 1000 Ang^3
#
#
#
# Elastic Constant Matrix: (Units=GPa)
#
#
# Indices 1 2 3 4 5 6 
#
# 1 136.2270 60.2640 53.9623 0.0000 9.1437 0.0000
# 2 60.2640 56.2641 32.9619 0.0000 4.1411 0.0000
# 3 53.9623 32.9619 84.3653 0.0000 2.8219 0.0000
# 4 0.0000 0.0000 0.0000 21.2414 0.0000 4.9274
# 5 9.1437 4.1411 2.8219 0.0000 34.2056 0.0000
# 6 0.0000 0.0000 0.0000 4.9274 0.0000 37.4666
#
#
#
# Elastic Compliance Matrix: (Units=1/GPa)
#
#
# Indices 1 2 3 4 5 6 
#
# 1 0.015219 -0.013600 -0.004352 0.000000 -0.002063 0.000000
# 2 -0.013600 0.035346 -0.005104 0.000000 -0.000223 0.000000
# 3 -0.004352 -0.005104 0.016617 0.000000 0.000410 0.000000
# 4 0.000000 0.000000 0.000000 0.048559 0.000000 -0.006386
# 5 -0.002063 -0.000223 0.000410 0.000000 0.029780 0.000000
# 6 0.000000 0.000000 0.000000 -0.006386 0.000000 0.027530
#
#
# Mechanical properties :
#
#
# Convention : Reuss Voigt Hill
#
# Bulk Modulus (GPa) = 47.45734 63.47031 55.46382
# Shear Modulus (GPa) = 22.10552 27.22727 24.66640
#
# Velocity S-wave (km/s) = 3.49690 3.88093 3.69391
# Velocity P-wave (km/s) = 6.52357 7.42918 6.99105
#
# Compressibility (1/GPa) = 0.02107156
#
# Stress axis : x y z
#
# Youngs Moduli (GPa) = 65.70533 28.29143 60.17804
#
# Poissons Ratio (x) = 0.38476 0.26191
# Poissons Ratio (y) = 0.89358 0.30713
# Poissons Ratio (z) = 0.28597 0.14439
#
# Static dielectric constant tensor:
#      x y z
#    x 3.559650 0.000000 0.012660 
#    y 0.000000 2.913350 0.000000 
#    z 0.012660 0.000000 3.551750 
# 
# 
# High freq. dielectric constant tensor:
#      x y z
#    x 1.707070 0.000000 -0.005200 
#    y 0.000000 1.646740 0.000000 
#    z -0.005200 0.000000 1.724480 
# 
# From -- ./inp_files/292310.got.cif
#   From: 2010.06.25/outbox.cif.g09.slc.cpg/sg15_147_cif.got.tgz:292310.got - 2010.06.28 07:06:18.
