data_PCOD8132199
_publ_section_title
;
Structure prediction by ZEFSAII (Michael W. Deem and Ramdas Pophale) SiO2 
 PCOD8132199
Probable space group: C 2/C
;
_chemical_formula_sum "Si O2"
_cell_formula_units_Z 40
_cell_length_a 26.070816
_cell_length_b 7.084713
_cell_length_c 14.908178
_cell_angle_alpha 90.000000
_cell_angle_beta 49.557629
_cell_angle_gamma 90.000000
_cell_volume 2095.654437
_symmetry_space_group_name_H-M "C 2/C"
_symmetry_group_IT_number 15
_symmetry_cell_setting 'monoclinic'
loop_
_space_group_symop_operation_xyz
x,y,z
-x,y,1/2-z
-x,-y,-z
x,-y,1/2+z
1/2+x,1/2+y,z
1/2-x,1/2+y,1/2-z
1/2-x,1/2-y,-z
1/2+x,1/2-y,1/2+z
loop_
_atom_site_type_symbol
_atom_site_label
_atom_site_fract_x
_atom_site_fract_y
_atom_site_fract_z
Si Si1 0.557243 0.366037 0.344044
Si Si2 0.796764 0.125216 0.039235
Si Si3 0.655984 0.082232 0.147066
Si Si4 0.417109 0.483754 0.993238
Si Si5 0.881667 0.842264 0.850977
O O1 0.589266 0.190439 0.255498
O O2 0.580018 0.354922 0.421754
O O3 0.476010 0.357479 0.429041
O O4 0.578485 0.566745 0.277478
O O5 0.717025 0.104295 0.150947
O O6 0.815395 0.330533 0.977983
O O7 0.844087 0.090432 0.072769
O O8 0.814052 0.966539 0.943479
O O9 0.635890 0.868820 0.154462
O O10 0.425312 0.354172 0.894264
#
# Coordination Sequence:
#
# PCOD8132199 Si02
#       5
#     8   8   8   8   8
#     4  10  20  39  55  82 115 148 187 229 276 340
#     4   8  19  36  55  80 113 148 175 235 280 325
#     4  10  18  36  59  82 107 147 192 224 278 333
#     4   9  20  40  54  78 122 149 176 236 285 321
#     4   9  19  36  59  80 110 147 185 233 276 333
#
# _framework density 19.087118
#
# number of rings (size 3 to 8) (size 9 to 14) (size 15 to 20)
#    1.200    1.600    0.000    1.200    0.000    0.000 
#   14.400    2.000    0.000    0.000    0.000    0.000 
#    0.000    0.000    0.000    0.000    0.000    0.000 
#
# Total GULP energy -247771.637039 kJ/mol
# GULP energy per Si atom -12388.581852 kJ/mol
# Density = 1.904367 g / cm^3
# Si number density = 19.087118 Si / 1000 Ang^3
#
#
#
# Elastic Constant Matrix: (Units=GPa)
#
#
# Indices 1 2 3 4 5 6 
#
# 1 119.7998 19.8104 15.3422 -0.0058 1.8311 -0.0003
# 2 19.8104 105.0312 13.4137 -0.0156 -2.2649 0.0026
# 3 15.3422 13.4137 49.2645 -0.0016 10.4042 0.0004
# 4 -0.0058 -0.0156 -0.0016 11.4569 -0.0011 -6.5321
# 5 1.8311 -2.2649 10.4042 -0.0011 22.8066 -0.0003
# 6 -0.0003 0.0026 0.0004 -6.5321 -0.0003 15.2349
#
#
#
# Elastic Compliance Matrix: (Units=1/GPa)
#
#
# Indices 1 2 3 4 5 6 
#
# 1 0.008882 -0.001356 -0.002454 0.000003 0.000272 0.000002
# 2 -0.001356 0.010195 -0.002867 0.000016 0.002429 0.000005
# 3 -0.002454 -0.002867 0.024193 -0.000004 -0.011124 -0.000002
# 4 0.000003 0.000016 -0.000004 0.115525 0.000009 0.049533
# 5 0.000272 0.002429 -0.011124 0.000009 0.049141 0.000005
# 6 0.000002 0.000005 -0.000002 0.049533 0.000005 0.086877
#
#
# Mechanical properties :
#
#
# Convention : Reuss Voigt Hill
#
# Bulk Modulus (GPa) = 33.42692 41.24757 37.33724
# Shear Modulus (GPa) = 15.71647 24.93495 20.32571
#
# Velocity S-wave (km/s) = 2.87262 3.61830 3.26681
# Velocity P-wave (km/s) = 5.34354 6.25406 5.81664
#
# Compressibility (1/GPa) = 0.02991601
#
# Stress axis : x y z
#
# Youngs Moduli (GPa) = 112.59209 98.08528 41.33477
#
# Poissons Ratio (x) = 0.13300 0.10144
# Poissons Ratio (y) = 0.15267 0.11849
# Poissons Ratio (z) = 0.27632 0.28118
#
# Static dielectric constant tensor:
#      x y z
#    x 3.605770 0.000000 -0.111010 
#    y 0.000000 3.124280 0.000000 
#    z -0.111010 0.000000 3.276070 
# 
# 
# High freq. dielectric constant tensor:
#      x y z
#    x 1.751260 0.000000 -0.012420 
#    y 0.000000 1.716450 0.000000 
#    z -0.012420 0.000000 1.718370 
# 
# From -- ./inp_files/175314.got.cif
#   From: 2010.06.25/outbox.cif.g09.slc.cpg/sg15_88_cif.got.tgz:175314.got - 2010.06.28 07:06:18.
