data_PCOD8132804
_publ_section_title
;
Structure prediction by ZEFSAII (Michael W. Deem and Ramdas Pophale) SiO2 
 PCOD8132804
Probable space group: C 2/C
;
_chemical_formula_sum "Si O2"
_cell_formula_units_Z 40
_cell_length_a 11.168336
_cell_length_b 13.937808
_cell_length_c 12.377979
_cell_angle_alpha 90.000000
_cell_angle_beta 88.844976
_cell_angle_gamma 90.000000
_cell_volume 1926.390994
_symmetry_space_group_name_H-M "C 2/C"
_symmetry_group_IT_number 15
_symmetry_cell_setting 'monoclinic'
loop_
_space_group_symop_operation_xyz
x,y,z
-x,y,1/2-z
-x,-y,-z
x,-y,1/2+z
1/2+x,1/2+y,z
1/2-x,1/2+y,1/2-z
1/2-x,1/2-y,-z
1/2+x,1/2-y,1/2+z
loop_
_atom_site_type_symbol
_atom_site_label
_atom_site_fract_x
_atom_site_fract_y
_atom_site_fract_z
Si Si1 0.637563 0.828560 0.267603
Si Si2 0.973214 0.139394 0.870196
Si Si3 0.734449 0.048231 0.953711
Si Si4 0.799211 0.298234 0.891935
Si Si5 0.730872 0.646040 0.952892
O O1 0.500000 0.803795 0.250000
O O2 0.649491 0.909715 0.360753
O O3 0.705268 0.729069 0.298604
O O4 0.698698 0.868890 0.159436
O O5 0.871803 0.073761 0.925513
O O6 0.928278 0.250878 0.862951
O O7 0.000000 0.100917 0.750000
O O8 0.089819 0.131012 0.941003
O O9 0.695618 0.089743 0.074453
O O10 0.721251 0.933523 0.962924
O O11 0.750000 0.250000 0.000000
O O12 0.750000 0.750000 0.000000
#
# Coordination Sequence:
#
# PCOD8132804 Si02
#       5
#     8   8   8   8   8
#     4  10  22  42  61  93 129 156 208 257 307 375
#     4  10  18  43  64  92 124 155 207 268 299 362
#     4  10  23  43  65  89 125 172 203 245 322 368
#     4   8  18  38  67  80 120 166 195 241 316 360
#     4  12  26  39  62  96 127 160 213 260 302 361
#
# _framework density 20.764216000000001
#
# number of rings (size 3 to 8) (size 9 to 14) (size 15 to 20)
#    0.000    2.400    4.000    0.600    8.400    2.400 
#    0.000    0.000    0.000    0.000    0.000    0.000 
#    0.000    0.000    0.000    0.000    0.000    0.000 
#
# Total GULP energy -247839.902698 kJ/mol
# GULP energy per Si atom -12391.995135 kJ/mol
# Density = 2.071696 g / cm^3
# Si number density = 20.764216 Si / 1000 Ang^3
#
#
#
# Elastic Constant Matrix: (Units=GPa)
#
#
# Indices 1 2 3 4 5 6 
#
# 1 76.2016 6.0434 19.0436 0.0000 3.7051 0.0000
# 2 6.0434 134.1105 43.8940 0.0000 2.6558 0.0000
# 3 19.0436 43.8940 89.0373 0.0000 1.9507 0.0000
# 4 0.0000 0.0000 0.0000 28.6418 0.0000 -0.8897
# 5 3.7051 2.6558 1.9507 0.0000 33.1765 0.0000
# 6 0.0000 0.0000 0.0000 -0.8897 0.0000 5.5548
#
#
#
# Elastic Compliance Matrix: (Units=1/GPa)
#
#
# Indices 1 2 3 4 5 6 
#
# 1 0.013948 0.000436 -0.003167 0.000000 -0.001406 0.000000
# 2 0.000436 0.008912 -0.004476 0.000000 -0.000499 0.000000
# 3 -0.003167 -0.004476 0.014118 0.000000 -0.000118 0.000000
# 4 0.000000 0.000000 0.000000 0.035089 0.000000 0.005620
# 5 -0.001406 -0.000499 -0.000118 0.000000 0.030346 0.000000
# 6 0.000000 0.000000 0.000000 0.005620 0.000000 0.180925
#
#
# Mechanical properties :
#
#
# Convention : Reuss Voigt Hill
#
# Bulk Modulus (GPa) = 44.31908 48.59013 46.45461
# Shear Modulus (GPa) = 16.37881 28.83252 22.60567
#
# Velocity S-wave (km/s) = 2.81160 3.73039 3.30310
# Velocity P-wave (km/s) = 5.65071 6.48121 6.08016
#
# Compressibility (1/GPa) = 0.02256364
#
# Stress axis : x y z
#
# Youngs Moduli (GPa) = 71.69246 112.21291 70.83299
#
# Poissons Ratio (x) = -0.04893 0.22436
# Poissons Ratio (y) = -0.03126 0.31702
# Poissons Ratio (z) = 0.22708 0.50222
#
# Static dielectric constant tensor:
#      x y z
#    x 3.865180 0.000000 -0.065120 
#    y 0.000000 4.469440 0.000000 
#    z -0.065120 0.000000 4.006870 
# 
# 
# High freq. dielectric constant tensor:
#      x y z
#    x 1.811730 0.000000 -0.003860 
#    y 0.000000 1.788890 0.000000 
#    z -0.003860 0.000000 1.813880 
# 
# From -- ./inp_files/85645.got.cif
#   From: 2010.06.25/outbox.cif.g09.slc.cpg/sg15_43_cif.got.tgz:85645.got - 2010.06.28 07:06:18.
