data_PCOD8132483
_publ_section_title
;
Structure prediction by ZEFSAII (Michael W. Deem and Ramdas Pophale) SiO2 
 PCOD8132483
Probable space group: C 2/C
;
_chemical_formula_sum "Si O2"
_cell_formula_units_Z 56
_cell_length_a 17.220642
_cell_length_b 9.516336
_cell_length_c 18.552648
_cell_angle_alpha 90.000000
_cell_angle_beta 62.076946
_cell_angle_gamma 90.000000
_cell_volume 2686.393017
_symmetry_space_group_name_H-M "C 2/C"
_symmetry_group_IT_number 15
_symmetry_cell_setting 'monoclinic'
loop_
_space_group_symop_operation_xyz
x,y,z
-x,y,1/2-z
-x,-y,-z
x,-y,1/2+z
1/2+x,1/2+y,z
1/2-x,1/2+y,1/2-z
1/2-x,1/2-y,-z
1/2+x,1/2-y,1/2+z
loop_
_atom_site_type_symbol
_atom_site_label
_atom_site_fract_x
_atom_site_fract_y
_atom_site_fract_z
Si Si1 0.863345 0.628011 0.922968
Si Si2 0.037927 0.388682 0.429690
Si Si3 0.861067 0.356712 0.657518
Si Si4 0.727156 0.607992 0.102159
Si Si5 0.011514 0.856388 0.037093
Si Si6 0.420967 0.606862 0.839295
Si Si7 0.900633 0.596600 0.299144
O O1 0.832535 0.780042 0.912335
O O2 0.846296 0.524906 0.862653
O O3 0.965138 0.645535 0.900412
O O4 0.808977 0.568423 0.014868
O O5 0.117212 0.475718 0.359776
O O6 0.068059 0.247736 0.459915
O O7 0.000000 0.500000 0.500000
O O8 0.766721 0.333964 0.660491
O O9 0.856547 0.342576 0.745493
O O10 0.925685 0.237623 0.595581
O O11 0.666198 0.475549 0.146119
O O12 0.057334 0.920513 0.087201
O O13 0.000000 0.000000 0.000000
O O14 0.500000 0.568079 0.750000
O O15 0.402095 0.771450 0.850969
O O16 0.000000 0.539443 0.250000
#
# Coordination Sequence:
#
# PCOD8132483 Si02
#       7
#     8   8   8   8   8   8   8
#     4  11  22  41  66  96 131 170 215 262 329 386
#     4  10  18  37  68  93 123 169 218 251 310 395
#     4  11  22  43  66  95 133 170 220 267 319 385
#     4  11  26  41  64  98 135 166 210 283 320 378
#     4  11  21  38  66  95 128 173 216 264 321 384
#     4  11  24  44  66  93 134 171 214 268 334 388
#     4  11  21  42  69  94 127 177 215 262 324 397
#
# _framework density 20.845796
#
# number of rings (size 3 to 8) (size 9 to 14) (size 15 to 20)
#    0.000    1.143    7.143    1.714    2.000    2.286 
#    2.571    0.000    0.000    0.000    0.000    0.000 
#    0.000    0.000    0.000    0.000    0.000    0.000 
#
# Total GULP energy -346911.230410 kJ/mol
# GULP energy per Si atom -12389.686800 kJ/mol
# Density = 2.079835 g / cm^3
# Si number density = 20.845796 Si / 1000 Ang^3
#
#
#
# Elastic Constant Matrix: (Units=GPa)
#
#
# Indices 1 2 3 4 5 6 
#
# 1 101.6010 10.5653 19.8452 0.0000 21.3484 0.0000
# 2 10.5653 73.2584 30.4550 0.0000 2.3785 0.0001
# 3 19.8452 30.4550 66.9060 0.0000 22.6042 0.0000
# 4 0.0000 0.0000 0.0000 29.0508 0.0000 5.4001
# 5 21.3484 2.3785 22.6042 0.0000 34.9459 0.0000
# 6 0.0000 0.0001 0.0000 5.4001 0.0000 30.1166
#
#
#
# Elastic Compliance Matrix: (Units=1/GPa)
#
#
# Indices 1 2 3 4 5 6 
#
# 1 0.011458 -0.001158 -0.000682 0.000000 -0.006479 0.000000
# 2 -0.001158 0.017629 -0.009616 0.000000 0.005728 0.000000
# 3 -0.000682 -0.009616 0.024523 0.000000 -0.014791 0.000000
# 4 0.000000 0.000000 0.000000 0.035609 0.000000 -0.006385
# 5 -0.006479 0.005728 -0.014791 0.000000 0.041751 0.000000
# 6 0.000000 0.000000 0.000000 -0.006385 0.000000 0.034349
#
#
# Mechanical properties :
#
#
# Convention : Reuss Voigt Hill
#
# Bulk Modulus (GPa) = 32.57730 40.38848 36.48289
# Shear Modulus (GPa) = 25.19339 30.88266 28.03802
#
# Velocity S-wave (km/s) = 3.48021 3.85318 3.67143
# Velocity P-wave (km/s) = 5.64011 6.26202 5.95918
#
# Compressibility (1/GPa) = 0.03069622
#
# Stress axis : x y z
#
# Youngs Moduli (GPa) = 87.27861 56.72462 40.77810
#
# Poissons Ratio (x) = 0.06571 0.02781
# Poissons Ratio (y) = 0.10111 0.39213
# Poissons Ratio (z) = 0.05953 0.54547
#
# Static dielectric constant tensor:
#      x y z
#    x 4.722100 0.000000 -0.793690 
#    y 0.000000 -10.635760 0.000000 
#    z -0.793690 0.000000 3.824070 
# 
# 
# High freq. dielectric constant tensor:
#      x y z
#    x 1.808910 0.000000 0.032310 
#    y 0.000000 1.819740 0.000000 
#    z 0.032310 0.000000 1.802560 
# 
# From -- ./inp_files/247367.got.cif
#   From: 2010.06.25/outbox.cif.g09.slc.cpg/sg15_124_cif.got.tgz:247367.got - 2010.06.28 07:06:18.
