data_PCOD8132273
_publ_section_title
;
Structure prediction by ZEFSAII (Michael W. Deem and Ramdas Pophale) SiO2 
 PCOD8132273
Probable space group: C 2/C
;
_chemical_formula_sum "Si O2"
_cell_formula_units_Z 36
_cell_length_a 14.110760
_cell_length_b 13.347971
_cell_length_c 20.502974
_cell_angle_alpha 90.000000
_cell_angle_beta 152.757279
_cell_angle_gamma 90.000000
_cell_volume 1767.751767
_symmetry_space_group_name_H-M "C 2/C"
_symmetry_group_IT_number 15
_symmetry_cell_setting 'monoclinic'
loop_
_space_group_symop_operation_xyz
x,y,z
-x,y,1/2-z
-x,-y,-z
x,-y,1/2+z
1/2+x,1/2+y,z
1/2-x,1/2+y,1/2-z
1/2-x,1/2-y,-z
1/2+x,1/2-y,1/2+z
loop_
_atom_site_type_symbol
_atom_site_label
_atom_site_fract_x
_atom_site_fract_y
_atom_site_fract_z
Si Si1 0.623445 0.027963 0.886682
Si Si2 0.500000 0.371483 0.750000
Si Si3 0.807943 0.338762 0.268266
Si Si4 0.659977 0.716532 0.540004
Si Si5 0.002034 0.939270 0.322173
O O1 0.500000 0.980173 0.750000
O O2 0.462995 0.073861 0.840305
O O3 0.777983 0.112322 0.953859
O O4 0.762466 0.942279 0.005653
O O5 0.317257 0.302136 0.610457
O O6 0.573209 0.444868 0.735723
O O7 0.680270 0.291233 0.130513
O O8 0.646972 0.384368 0.219891
O O9 0.930069 0.248691 0.378755
O O10 0.000000 0.883623 0.250000
#
# Coordination Sequence:
#
# PCOD8132273 Si02
#       5
#     8   4   8   8   8
#     4  10  20  35  62  91 120 147 198 254 287 344
#     4  10  18  36  62  84 116 150 194 246 272 352
#     4  11  21  38  61  90 116 160 193 248 294 347
#     4  11  20  35  64  91 113 152 205 243 287 342
#     4  10  23  37  56  87 129 152 194 238 304 351
#
# _framework density 20.364851000000002
#
# number of rings (size 3 to 8) (size 9 to 14) (size 15 to 20)
#    0.667    0.889    5.556    2.000    0.000    7.111 
#    0.000    3.333    0.000    0.000    0.000    0.000 
#    0.000    0.000    0.000    0.000    0.000    0.000 
#
# Total GULP energy -223087.858229 kJ/mol
# GULP energy per Si atom -12393.769902 kJ/mol
# Density = 2.031850 g / cm^3
# Si number density = 20.364851 Si / 1000 Ang^3
#
#
#
# Elastic Constant Matrix: (Units=GPa)
#
#
# Indices 1 2 3 4 5 6 
#
# 1 136.1503 30.4197 73.2779 0.0101 -9.0794 0.0049
# 2 30.4197 24.4853 12.8786 0.0460 -1.1614 0.0178
# 3 73.2779 12.8786 133.3740 0.0849 -23.5853 0.0242
# 4 0.0101 0.0460 0.0849 -6.5317 0.0220 -9.4138
# 5 -9.0794 -1.1614 -23.5853 0.0220 27.2888 0.0028
# 6 0.0049 0.0178 0.0242 -9.4138 0.0028 17.1450
#
#
#
# Elastic Compliance Matrix: (Units=1/GPa)
#
#
# Indices 1 2 3 4 5 6 
#
# 1 0.013867 -0.013848 -0.006575 -0.000109 -0.001658 -0.000040
# 2 -0.013848 0.056955 0.002033 0.000273 -0.000427 0.000092
# 3 -0.006575 0.002033 0.012444 0.000124 0.008654 0.000049
# 4 -0.000109 0.000273 0.000124 -0.085464 0.000156 -0.046926
# 5 -0.001658 -0.000427 0.008654 0.000156 0.043555 0.000067
# 6 -0.000040 0.000092 0.000049 -0.046926 0.000067 0.032560
#
#
# Mechanical properties :
#
#
# Convention : Reuss Voigt Hill
#
# Bulk Modulus (GPa) = 21.51157 58.57358 40.04258
# Shear Modulus (GPa) = 39.62248 19.40932 29.51590
#
# Velocity S-wave (km/s) = 4.41572 3.09055 3.81117
# Velocity P-wave (km/s) = 6.04848 6.44669 6.25076
#
# Compressibility (1/GPa) = 0.04648661
#
# Stress axis : x y z
#
# Youngs Moduli (GPa) = 72.11440 17.55776 80.36108
#
# Poissons Ratio (x) = 0.24314 0.52834
# Poissons Ratio (y) = 0.99864 -0.16339
# Poissons Ratio (z) = 0.47412 -0.03570
#
# Static dielectric constant tensor:
#      x y z
#    x 3.504300 0.000010 -0.346780 
#    y 0.000010 3.260940 -0.000050 
#    z -0.346780 -0.000050 4.069740 
# 
# 
# High freq. dielectric constant tensor:
#      x y z
#    x 1.778690 0.000000 -0.031140 
#    y 0.000000 1.750310 0.000000 
#    z -0.031140 0.000000 1.815680 
# 
# From -- ./inp_files/243867.got.cif
#   From: 2010.06.25/outbox.cif.g09.slc.cpg/sg15_122_cif.got.tgz:243867.got - 2010.06.28 07:06:18.
