data_PCOD8132113
_publ_section_title
;
Structure prediction by ZEFSAII (Michael W. Deem and Ramdas Pophale) SiO2 
 PCOD8132113
Probable space group: C 2/C
;
_chemical_formula_sum "Si O2"
_cell_formula_units_Z 64
_cell_length_a 32.887233
_cell_length_b 14.806901
_cell_length_c 8.542836
_cell_angle_alpha 90.000000
_cell_angle_beta 57.243460
_cell_angle_gamma 90.000000
_cell_volume 3498.467379
_symmetry_space_group_name_H-M "C 2/C"
_symmetry_group_IT_number 15
_symmetry_cell_setting 'monoclinic'
loop_
_space_group_symop_operation_xyz
x,y,z
-x,y,1/2-z
-x,-y,-z
x,-y,1/2+z
1/2+x,1/2+y,z
1/2-x,1/2+y,1/2-z
1/2-x,1/2-y,-z
1/2+x,1/2-y,1/2+z
loop_
_atom_site_type_symbol
_atom_site_label
_atom_site_fract_x
_atom_site_fract_y
_atom_site_fract_z
Si Si1 0.696793 0.630753 0.097894
Si Si2 0.103414 0.426084 0.205839
Si Si3 0.258598 0.377407 0.546129
Si Si4 0.993323 0.400082 0.949685
Si Si5 0.909737 0.620905 0.130501
Si Si6 0.791208 0.984512 0.197869
Si Si7 0.809372 0.668542 0.816018
Si Si8 0.322616 0.216085 0.440105
O O1 0.679039 0.561636 0.271265
O O2 0.675333 0.730032 0.161663
O O3 0.677291 0.580543 0.981603
O O4 0.755365 0.640411 0.977869
O O5 0.060717 0.370806 0.385972
O O6 0.099602 0.533525 0.240208
O O7 0.154786 0.397397 0.168182
O O8 0.099485 0.404531 0.030152
O O9 0.263765 0.415111 0.362602
O O10 0.251480 0.461523 0.676824
O O11 0.306022 0.319849 0.501621
O O12 0.210577 0.317868 0.636916
O O13 0.000000 0.393527 0.750000
O O14 0.035464 0.343652 0.951178
O O15 0.000000 0.500000 0.000000
O O16 0.876361 0.703326 0.261275
O O17 0.815694 0.661478 0.615963
#
# Coordination Sequence:
#
# PCOD8132113 Si02
#       8
#     8   8   8   8   8   8   8   8
#     4  10  22  34  52  70 105 134 179 217 255 298
#     4  11  23  34  54  75 104 138 174 208 252 306
#     4  10  22  34  52  70 105 134 179 217 255 298
#     4  10  18  36  54  74 102 131 168 211 250 300
#     4  11  23  34  54  75 104 138 174 208 252 306
#     4  10  20  36  52  70  92 144 174 214 258 308
#     4  11  22  35  49  75 105 136 172 219 257 295
#     4  11  22  35  49  75 105 136 172 219 257 295
#
# _framework density 18.293725999999999
#
# number of rings (size 3 to 8) (size 9 to 14) (size 15 to 20)
#    0.000    1.500    2.500    4.875    7.000    0.000 
#    0.000    0.000    0.000    0.000    0.000    0.000 
#    0.000    6.000    0.000    0.000    0.000    0.000 
#
# Total GULP energy -396429.390158 kJ/mol
# GULP energy per Si atom -12388.418442 kJ/mol
# Density = 1.825209 g / cm^3
# Si number density = 18.293726 Si / 1000 Ang^3
#
#
#
# Elastic Constant Matrix: (Units=GPa)
#
#
# Indices 1 2 3 4 5 6 
#
# 1 75.4753 8.5228 27.3847 0.0000 1.4725 0.0000
# 2 8.5228 38.3008 -8.8154 0.0000 0.1760 0.0000
# 3 27.3847 -8.8154 54.1511 0.0000 13.0121 0.0000
# 4 0.0000 0.0000 0.0000 6.7219 0.0000 -15.3006
# 5 1.4725 0.1760 13.0121 0.0000 38.3176 0.0000
# 6 0.0000 0.0000 0.0000 -15.3006 0.0000 6.0388
#
#
#
# Elastic Compliance Matrix: (Units=1/GPa)
#
#
# Indices 1 2 3 4 5 6 
#
# 1 0.017839 -0.006469 -0.010798 0.000000 0.003011 0.000000
# 2 -0.006469 0.029582 0.008776 0.000000 -0.002867 0.000000
# 3 -0.010798 0.008776 0.027511 0.000000 -0.008968 0.000000
# 4 0.000000 0.000000 0.000000 -0.031206 0.000000 -0.079066
# 5 0.003011 -0.002867 -0.008968 0.000000 0.029040 0.000000
# 6 0.000000 0.000000 0.000000 -0.079066 0.000000 -0.034736
#
#
# Mechanical properties :
#
#
# Convention : Reuss Voigt Hill
#
# Bulk Modulus (GPa) = 17.25615 24.67903 20.96759
# Shear Modulus (GPa) = 67.26943 19.60469 43.43706
#
# Velocity S-wave (km/s) = 6.07056 3.27718 4.87809
# Velocity P-wave (km/s) = 7.65434 5.27632 6.57375
#
# Compressibility (1/GPa) = 0.05795035
#
# Stress axis : x y z
#
# Youngs Moduli (GPa) = 56.05753 33.80478 36.34929
#
# Poissons Ratio (x) = 0.21867 0.39249
# Poissons Ratio (y) = 0.36261 -0.31900
# Poissons Ratio (z) = 0.60530 -0.29667
#
# Static dielectric constant tensor:
#      x y z
#    x 3.537190 0.000000 0.086090 
#    y 0.000000 3.367140 0.000000 
#    z 0.086090 0.000000 3.628460 
# 
# 
# High freq. dielectric constant tensor:
#      x y z
#    x 1.690000 0.000000 0.036840 
#    y 0.000000 1.686320 0.000000 
#    z 0.036840 0.000000 1.711840 
# 
# From -- ./inp_files/69930.got.cif
#   From: 2010.06.25/outbox.cif.g09.slc.cpg/sg15_35_cif.got.tgz:69930.got - 2010.06.28 07:06:18.
