data_PCOD8132157
_publ_section_title
;
Structure prediction by ZEFSAII (Michael W. Deem and Ramdas Pophale) SiO2 
 PCOD8132157
Probable space group: C 2/C
;
_chemical_formula_sum "Si O2"
_cell_formula_units_Z 60
_cell_length_a 13.146321
_cell_length_b 20.114032
_cell_length_c 12.354225
_cell_angle_alpha 90.000000
_cell_angle_beta 108.052320
_cell_angle_gamma 90.000000
_cell_volume 3105.962049
_symmetry_space_group_name_H-M "C 2/C"
_symmetry_group_IT_number 15
_symmetry_cell_setting 'monoclinic'
loop_
_space_group_symop_operation_xyz
x,y,z
-x,y,1/2-z
-x,-y,-z
x,-y,1/2+z
1/2+x,1/2+y,z
1/2-x,1/2+y,1/2-z
1/2-x,1/2-y,-z
1/2+x,1/2-y,1/2+z
loop_
_atom_site_type_symbol
_atom_site_label
_atom_site_fract_x
_atom_site_fract_y
_atom_site_fract_z
Si Si1 0.959431 0.763680 0.086878
Si Si2 0.428037 0.107752 0.084912
Si Si3 0.841614 0.428163 0.783609
Si Si4 0.170205 0.192287 0.777265
Si Si5 0.319035 0.073558 0.823649
Si Si6 0.500000 0.867109 0.250000
Si Si7 0.078258 0.256918 0.431190
Si Si8 0.243543 0.201428 0.338125
O O1 0.953065 0.685364 0.109505
O O2 0.851361 0.796848 0.100145
O O3 0.059188 0.797014 0.180194
O O4 0.977715 0.775883 0.963758
O O5 0.542992 0.071959 0.120116
O O6 0.355892 0.081332 0.159941
O O7 0.366040 0.090688 0.955948
O O8 0.784755 0.497194 0.797718
O O9 0.761120 0.372489 0.801981
O O10 0.214301 0.118674 0.770747
O O11 0.256343 0.246094 0.761581
O O12 0.404119 0.086399 0.756879
O O13 0.537805 0.823600 0.363051
O O14 0.127897 0.206311 0.359401
O O15 0.164876 0.277985 0.548153
#
# Coordination Sequence:
#
# PCOD8132157 Si02
#       8
#     8   8   8   8   8   4   8   8
#     4  10  18  38  63  83 108 155 197 244 283 339
#     4  11  20  38  59  85 117 155 184 231 301 357
#     4  11  21  38  58  79 123 158 182 225 300 364
#     4  10  19  37  61  84 112 149 202 238 282 337
#     4  12  25  35  55  94 120 150 188 243 287 353
#     4  12  20  34  48  88 128 138 174 246 302 328
#     4  10  20  32  56  84 111 148 191 241 285 331
#     4  10  18  36  58  78 109 156 197 228 282 353
#
# _framework density 19.317686999999999
#
# number of rings (size 3 to 8) (size 9 to 14) (size 15 to 20)
#    0.000    1.333    6.667    2.000    0.000    1.600 
#    2.400    0.000    0.000    2.400    0.000    0.000 
#    0.000    0.000    0.000    0.000    0.000    0.000 
#
# Total GULP energy -371875.641937 kJ/mol
# GULP energy per Si atom -12395.854731 kJ/mol
# Density = 1.927372 g / cm^3
# Si number density = 19.317687 Si / 1000 Ang^3
#
#
#
# Elastic Constant Matrix: (Units=GPa)
#
#
# Indices 1 2 3 4 5 6 
#
# 1 70.8726 60.2485 37.3790 0.0000 -37.0585 0.0000
# 2 60.2485 152.8899 29.4187 0.0000 -22.1889 0.0000
# 3 37.3790 29.4187 61.8294 0.0000 -26.9677 0.0000
# 4 0.0000 0.0000 0.0000 17.3226 0.0000 -7.8530
# 5 -37.0585 -22.1889 -26.9677 0.0000 34.4457 0.0000
# 6 0.0000 0.0000 0.0000 -7.8530 0.0000 24.4805
#
#
#
# Elastic Compliance Matrix: (Units=1/GPa)
#
#
# Indices 1 2 3 4 5 6 
#
# 1 0.048139 -0.012086 -0.006315 0.000000 0.039061 0.000000
# 2 -0.012086 0.010440 -0.000606 0.000000 -0.006752 0.000000
# 3 -0.006315 -0.000606 0.026037 0.000000 0.013200 0.000000
# 4 0.000000 0.000000 0.000000 0.067552 0.000000 0.021670
# 5 0.039061 -0.006752 0.013200 0.000000 0.077041 0.000000
# 6 0.000000 0.000000 0.000000 0.021670 0.000000 0.047800
#
#
# Mechanical properties :
#
#
# Convention : Reuss Voigt Hill
#
# Bulk Modulus (GPa) = 21.45784 59.96492 40.71138
# Shear Modulus (GPa) = 15.12599 25.81947 20.47273
#
# Velocity S-wave (km/s) = 2.80127 3.65988 3.25898
# Velocity P-wave (km/s) = 4.64702 6.99775 5.93984
#
# Compressibility (1/GPa) = 0.04660301
#
# Stress axis : x y z
#
# Youngs Moduli (GPa) = 20.77300 95.78583 38.40705
#
# Poissons Ratio (x) = 1.15766 0.24254
# Poissons Ratio (y) = 0.25106 0.02326
# Poissons Ratio (z) = 0.13118 0.05802
#
# Static dielectric constant tensor:
#      x y z
#    x 3.831020 0.000000 -0.641720 
#    y 0.000000 3.366000 0.000000 
#    z -0.641720 0.000000 3.822930 
# 
# 
# High freq. dielectric constant tensor:
#      x y z
#    x 1.741000 0.000000 -0.031020 
#    y 0.000000 1.726780 0.000000 
#    z -0.031020 0.000000 1.758980 
# 
# From -- ./inp_files/99441.got.cif
#   From: 2010.06.25/outbox.cif.g09.slc.cpg/sg15_50_cif.got.tgz:99441.got - 2010.06.28 07:06:18.
