data_PCOD8132723
_publ_section_title
;
Structure prediction by ZEFSAII (Michael W. Deem and Ramdas Pophale) SiO2 
 PCOD8132723
Probable space group: C 2/C
;
_chemical_formula_sum "Si O2"
_cell_formula_units_Z 52
_cell_length_a 14.466052
_cell_length_b 10.311892
_cell_length_c 21.915398
_cell_angle_alpha 90.000000
_cell_angle_beta 54.514691
_cell_angle_gamma 90.000000
_cell_volume 2661.970148
_symmetry_space_group_name_H-M "C 2/C"
_symmetry_group_IT_number 15
_symmetry_cell_setting 'monoclinic'
loop_
_space_group_symop_operation_xyz
x,y,z
-x,y,1/2-z
-x,-y,-z
x,-y,1/2+z
1/2+x,1/2+y,z
1/2-x,1/2+y,1/2-z
1/2-x,1/2-y,-z
1/2+x,1/2-y,1/2+z
loop_
_atom_site_type_symbol
_atom_site_label
_atom_site_fract_x
_atom_site_fract_y
_atom_site_fract_z
Si Si1 0.181883 0.262558 0.330583
Si Si2 0.721055 0.593610 0.959733
Si Si3 0.047045 0.888575 0.437152
Si Si4 0.427492 0.266619 0.894522
Si Si5 0.811219 0.799556 0.536475
Si Si6 0.000000 0.097311 0.250000
Si Si7 0.170866 0.992164 0.275494
O O1 0.219952 0.270163 0.387278
O O2 0.231808 0.386167 0.274995
O O3 0.045242 0.269346 0.382108
O O4 0.222556 0.128616 0.281414
O O5 0.661582 0.669292 0.924974
O O6 0.846157 0.642057 0.927643
O O7 0.730668 0.445227 0.937966
O O8 0.635969 0.612727 0.049207
O O9 0.078142 0.942213 0.359127
O O10 0.946047 0.784135 0.470812
O O11 0.000000 0.000000 0.500000
O O12 0.444972 0.305556 0.818827
O O13 0.750000 0.750000 0.500000
O O14 0.099580 0.010734 0.240851
#
# Coordination Sequence:
#
# PCOD8132723 Si02
#       7
#     8   8   8   8   8   4   8
#     4  11  23  44  61  95 127 165 205 263 322 367
#     4  10  20  40  64  89 113 170 211 248 305 372
#     4  10  18  40  65  82 116 171 212 236 312 379
#     4  10  22  39  64  89 122 160 216 256 302 378
#     4  11  22  38  65  90 126 161 207 258 314 376
#     4  10  22  38  60  90 118 164 202 258 306 378
#     4  11  24  39  65  90 126 164 207 260 310 384
#
# _framework density 19.534403999999999
#
# number of rings (size 3 to 8) (size 9 to 14) (size 15 to 20)
#    0.000    1.538    4.615    2.769    8.615    0.000 
#    2.769    0.769    0.000    0.000    0.000    0.000 
#    0.000    0.000    0.000    0.000    0.000    0.000 
#
# Total GULP energy -322194.516907 kJ/mol
# GULP energy per Si atom -12392.096804 kJ/mol
# Density = 1.948994 g / cm^3
# Si number density = 19.534404 Si / 1000 Ang^3
#
#
#
# Elastic Constant Matrix: (Units=GPa)
#
#
# Indices 1 2 3 4 5 6 
#
# 1 121.5135 43.7207 52.4211 0.0000 13.9596 0.0000
# 2 43.7207 70.3021 38.9722 0.0000 -9.2967 0.0000
# 3 52.4211 38.9722 105.0785 0.0000 5.6300 0.0000
# 4 0.0000 0.0000 0.0000 25.1819 0.0000 4.0598
# 5 13.9596 -9.2967 5.6300 0.0000 39.4218 0.0000
# 6 0.0000 0.0000 0.0000 4.0598 0.0000 24.5851
#
#
#
# Elastic Compliance Matrix: (Units=1/GPa)
#
#
# Indices 1 2 3 4 5 6 
#
# 1 0.012860 -0.006737 -0.003615 0.000000 -0.005626 0.000000
# 2 -0.006737 0.022565 -0.005463 0.000000 0.008487 0.000000
# 3 -0.003615 -0.005463 0.013450 0.000000 -0.001929 0.000000
# 4 0.000000 0.000000 0.000000 0.040797 0.000000 -0.006737
# 5 -0.005626 0.008487 -0.001929 0.000000 0.029636 0.000000
# 6 0.000000 0.000000 0.000000 -0.006737 0.000000 0.041787
#
#
# Mechanical properties :
#
#
# Convention : Reuss Voigt Hill
#
# Bulk Modulus (GPa) = 57.99175 63.01355 60.50265
# Shear Modulus (GPa) = 25.19243 28.62311 26.90777
#
# Velocity S-wave (km/s) = 3.59506 3.83203 3.71543
# Velocity P-wave (km/s) = 6.85449 7.20466 7.03175
#
# Compressibility (1/GPa) = 0.01724383
#
# Stress axis : x y z
#
# Youngs Moduli (GPa) = 77.76346 44.31683 74.35190
#
# Poissons Ratio (x) = 0.29857 0.26879
# Poissons Ratio (y) = 0.52391 0.40616
# Poissons Ratio (z) = 0.28112 0.24209
#
# Static dielectric constant tensor:
#      x y z
#    x 6.153030 0.000000 -0.203790 
#    y 0.000000 4.798580 0.000000 
#    z -0.203790 0.000000 3.656780 
# 
# 
# High freq. dielectric constant tensor:
#      x y z
#    x 1.775300 0.000000 0.011850 
#    y 0.000000 1.728640 0.000000 
#    z 0.011850 0.000000 1.766520 
# 
# From -- ./inp_files/243642.got.cif
#   From: 2010.06.25/outbox.cif.g09.slc.cpg/sg15_122_cif.got.tgz:243642.got - 2010.06.28 07:06:18.
