data_PCOD8132607
_publ_section_title
;
Structure prediction by ZEFSAII (Michael W. Deem and Ramdas Pophale) SiO2 
 PCOD8132607
Probable space group: C 2/C
;
_chemical_formula_sum "Si O2"
_cell_formula_units_Z 48
_cell_length_a 15.122239
_cell_length_b 8.571245
_cell_length_c 24.875114
_cell_angle_alpha 90.000000
_cell_angle_beta 142.080927
_cell_angle_gamma 90.000000
_cell_volume 1981.439353
_symmetry_space_group_name_H-M "C 2/C"
_symmetry_group_IT_number 15
_symmetry_cell_setting 'monoclinic'
loop_
_space_group_symop_operation_xyz
x,y,z
-x,y,1/2-z
-x,-y,-z
x,-y,1/2+z
1/2+x,1/2+y,z
1/2-x,1/2+y,1/2-z
1/2-x,1/2-y,-z
1/2+x,1/2-y,1/2+z
loop_
_atom_site_type_symbol
_atom_site_label
_atom_site_fract_x
_atom_site_fract_y
_atom_site_fract_z
Si Si1 0.954311 0.704847 0.619373
Si Si2 0.475130 0.874839 0.675779
Si Si3 0.792930 0.167657 0.314771
Si Si4 0.803477 0.697959 0.937851
Si Si5 0.567168 0.618691 0.574455
Si Si6 0.715255 0.165473 0.065758
O O1 0.883860 0.814013 0.631643
O O2 0.879725 0.743579 0.526791
O O3 0.922772 0.527006 0.619597
O O4 0.122980 0.744720 0.693152
O O5 0.500000 0.918586 0.750000
O O6 0.623651 0.816483 0.720036
O O7 0.350248 0.745612 0.610791
O O8 0.822887 0.248831 0.385940
O O9 0.845707 0.986061 0.340474
O O10 0.823633 0.514170 0.946888
O O11 0.933387 0.778922 0.034546
O O12 0.500000 0.500000 0.500000
O O13 0.681239 0.739179 0.603336
#
# Coordination Sequence:
#
# PCOD8132607 Si02
#       6
#     8   8   8   8   8   8
#     4  11  23  39  61  91 125 158 202 259 302 365
#     4  10  23  44  61  82 126 173 204 245 317 368
#     4  10  22  42  64  87 126 166 205 248 309 370
#     4  10  21  39  64  91 118 164 202 252 304 372
#     4  10  18  38  66  89 120 163 197 249 309 365
#     4  11  22  37  63  98 122 151 207 256 309 360
#
# _framework density 24.224815
#
# number of rings (size 3 to 8) (size 9 to 14) (size 15 to 20)
#    0.000    1.667    3.333    3.500    2.333    2.000 
#    3.000    9.167    0.000    0.000    0.000    0.000 
#    0.000    0.000    0.000    0.000    0.000    0.000 
#
# Total GULP energy -297590.020930 kJ/mol
# GULP energy per Si atom -12399.584205 kJ/mol
# Density = 2.416968 g / cm^3
# Si number density = 24.224815 Si / 1000 Ang^3
#
#
#
# Elastic Constant Matrix: (Units=GPa)
#
#
# Indices 1 2 3 4 5 6 
#
# 1 98.4359 37.3701 42.1862 0.0000 55.3261 0.0000
# 2 37.3701 138.0561 11.2752 0.0000 25.0839 0.0000
# 3 42.1862 11.2752 62.6646 0.0000 35.7340 0.0000
# 4 0.0000 0.0000 0.0000 22.9868 0.0000 11.0444
# 5 55.3261 25.0839 35.7340 0.0000 45.5307 0.0000
# 6 0.0000 0.0000 0.0000 11.0444 0.0000 32.0959
#
#
#
# Elastic Compliance Matrix: (Units=1/GPa)
#
#
# Indices 1 2 3 4 5 6 
#
# 1 0.032460 -0.001750 0.000733 0.000000 -0.039054 0.000000
# 2 -0.001750 0.008278 0.001949 0.000000 -0.003963 0.000000
# 3 0.000733 0.001949 0.029385 0.000000 -0.025027 0.000000
# 4 0.000000 0.000000 0.000000 0.052120 0.000000 -0.017935
# 5 -0.039054 -0.003963 -0.025027 0.000000 0.091244 0.000000
# 6 0.000000 0.000000 0.000000 -0.017935 0.000000 0.037328
#
#
# Mechanical properties :
#
#
# Convention : Reuss Voigt Hill
#
# Bulk Modulus (GPa) = 13.89161 53.42440 33.65800
# Shear Modulus (GPa) = 18.31852 34.01103 26.16478
#
# Velocity S-wave (km/s) = 2.75287 3.75103 3.29002
# Velocity P-wave (km/s) = 3.98137 6.39232 5.32509
#
# Compressibility (1/GPa) = 0.07198589
#
# Stress axis : x y z
#
# Youngs Moduli (GPa) = 30.80760 120.79976 34.03078
#
# Poissons Ratio (x) = 0.21145 -0.02495
# Poissons Ratio (y) = 0.05393 -0.06632
# Poissons Ratio (z) = -0.02259 -0.23542
#
# Static dielectric constant tensor:
#      x y z
#    x 4.473520 0.000000 0.474550 
#    y 0.000000 4.251560 0.000000 
#    z 0.474550 0.000000 4.303580 
# 
# 
# High freq. dielectric constant tensor:
#      x y z
#    x 1.962950 0.000000 0.028830 
#    y 0.000000 1.961710 0.000000 
#    z 0.028830 0.000000 1.945100 
# 
# From -- ./inp_files/312990.got.cif
#   From: 2010.06.25/outbox.cif.g09.slc.cpg/sg15_157_cif.got.tgz:312990.got - 2010.06.28 07:06:18.
