data_PCOD8132384
_publ_section_title
;
Structure prediction by ZEFSAII (Michael W. Deem and Ramdas Pophale) SiO2 
 PCOD8132384
Probable space group: C 2/C
;
_chemical_formula_sum "Si O2"
_cell_formula_units_Z 40
_cell_length_a 22.646418
_cell_length_b 9.684637
_cell_length_c 14.202883
_cell_angle_alpha 90.000000
_cell_angle_beta 42.507071
_cell_angle_gamma 90.000000
_cell_volume 2104.753331
_symmetry_space_group_name_H-M "C 2/C"
_symmetry_group_IT_number 15
_symmetry_cell_setting 'monoclinic'
loop_
_space_group_symop_operation_xyz
x,y,z
-x,y,1/2-z
-x,-y,-z
x,-y,1/2+z
1/2+x,1/2+y,z
1/2-x,1/2+y,1/2-z
1/2-x,1/2-y,-z
1/2+x,1/2-y,1/2+z
loop_
_atom_site_type_symbol
_atom_site_label
_atom_site_fract_x
_atom_site_fract_y
_atom_site_fract_z
Si Si1 0.352738 0.226296 0.884167
Si Si2 0.287148 0.953907 0.909304
Si Si3 0.323053 0.663518 0.796037
Si Si4 0.150716 0.110293 0.939285
Si Si5 0.531322 0.533519 0.317827
O O1 0.407884 0.328070 0.751460
O O2 0.363807 0.067521 0.837486
O O3 0.250000 0.250000 0.000000
O O4 0.376839 0.254878 0.965483
O O5 0.332159 0.825528 0.805802
O O6 0.207391 0.008338 0.938334
O O7 0.250329 0.908778 0.054252
O O8 0.296289 0.647195 0.717461
O O9 0.416795 0.596890 0.704354
O O10 0.057637 0.045474 0.016419
O O11 0.500000 0.500248 0.250000
#
# Coordination Sequence:
#
# PCOD8132384 Si02
#       5
#     8   8   8   8   8
#     4   9  17  36  57  75 109 151 182 223 278 334
#     4  10  22  37  57  86 114 142 187 244 274 321
#     4  11  21  35  59  87 112 142 194 233 278 327
#     4  10  21  35  62  81 113 157 188 218 288 348
#     4  10  18  37  58  80 115 153 187 223 281 336
#
# _framework density 19.004602999999999
#
# number of rings (size 3 to 8) (size 9 to 14) (size 15 to 20)
#    0.000    2.000    6.000    0.600    2.800    0.000 
#    0.000    4.000    0.000    0.000    0.000    0.000 
#    0.000    0.000    0.000    0.000    0.000    0.000 
#
# Total GULP energy -247820.209211 kJ/mol
# GULP energy per Si atom -12391.010461 kJ/mol
# Density = 1.896135 g / cm^3
# Si number density = 19.004603 Si / 1000 Ang^3
#
#
#
# Elastic Constant Matrix: (Units=GPa)
#
#
# Indices 1 2 3 4 5 6 
#
# 1 60.4007 49.7149 28.6234 0.0000 -6.1186 0.0000
# 2 49.7149 152.5683 45.0220 0.0000 0.9223 0.0000
# 3 28.6234 45.0220 89.4182 0.0000 13.4486 0.0000
# 4 0.0000 0.0000 0.0000 19.4103 0.0000 -4.8272
# 5 -6.1186 0.9223 13.4486 0.0000 29.6072 0.0000
# 6 0.0000 0.0000 0.0000 -4.8272 0.0000 24.8132
#
#
#
# Elastic Compliance Matrix: (Units=1/GPa)
#
#
# Indices 1 2 3 4 5 6 
#
# 1 0.025782 -0.006631 -0.006168 0.000000 0.008336 0.000000
# 2 -0.006631 0.009478 -0.002575 0.000000 -0.000496 0.000000
# 3 -0.006168 -0.002575 0.015707 0.000000 -0.008329 0.000000
# 4 0.000000 0.000000 0.000000 0.054138 0.000000 0.010532
# 5 0.008336 -0.000496 -0.008329 0.000000 0.039297 0.000000
# 6 0.000000 0.000000 0.000000 0.010532 0.000000 0.042350
#
#
# Mechanical properties :
#
#
# Convention : Reuss Voigt Hill
#
# Bulk Modulus (GPa) = 49.45935 61.01199 55.23567
# Shear Modulus (GPa) = 22.29760 26.70129 24.49944
#
# Velocity S-wave (km/s) = 3.42902 3.75239 3.59434
# Velocity P-wave (km/s) = 6.46212 7.13774 6.80832
#
# Compressibility (1/GPa) = 0.02021862
#
# Stress axis : x y z
#
# Youngs Moduli (GPa) = 38.78744 105.50622 63.66631
#
# Poissons Ratio (x) = 0.69965 0.39268
# Poissons Ratio (y) = 0.25721 0.16393
# Poissons Ratio (z) = 0.23923 0.27167
#
# Static dielectric constant tensor:
#      x y z
#    x 3.573600 0.000000 0.000480 
#    y 0.000000 4.105170 0.000000 
#    z 0.000480 0.000000 3.517870 
# 
# 
# High freq. dielectric constant tensor:
#      x y z
#    x 1.730190 0.000000 0.008140 
#    y 0.000000 1.729820 0.000000 
#    z 0.008140 0.000000 1.732570 
# 
# From -- ./inp_files/166856.got.cif
#   From: 2010.06.25/outbox.cif.g09.slc.cpg/sg15_84_cif.got.tgz:166856.got - 2010.06.28 07:06:18.
