data_PCOD8132827
_publ_section_title
;
Structure prediction by ZEFSAII (Michael W. Deem and Ramdas Pophale) SiO2 
 PCOD8132827
Probable space group: C 2/C
;
_chemical_formula_sum "Si O2"
_cell_formula_units_Z 48
_cell_length_a 14.292608
_cell_length_b 26.967899
_cell_length_c 14.199484
_cell_angle_alpha 90.000000
_cell_angle_beta 29.901065
_cell_angle_gamma 90.000000
_cell_volume 2728.347462
_symmetry_space_group_name_H-M "C 2/C"
_symmetry_group_IT_number 15
_symmetry_cell_setting 'monoclinic'
loop_
_space_group_symop_operation_xyz
x,y,z
-x,y,1/2-z
-x,-y,-z
x,-y,1/2+z
1/2+x,1/2+y,z
1/2-x,1/2+y,1/2-z
1/2-x,1/2-y,-z
1/2+x,1/2-y,1/2+z
loop_
_atom_site_type_symbol
_atom_site_label
_atom_site_fract_x
_atom_site_fract_y
_atom_site_fract_z
Si Si1 0.220613 0.148326 0.064734
Si Si2 0.292077 0.672865 0.624050
Si Si3 0.961749 0.734520 0.893913
Si Si4 0.859880 0.068871 0.614192
Si Si5 0.548411 0.944569 0.100150
Si Si6 0.909917 0.994020 0.727645
O O1 0.000000 0.137420 0.250000
O O2 0.296435 0.145637 0.890818
O O3 0.267482 0.202442 0.070081
O O4 0.335728 0.106284 0.018202
O O5 0.449924 0.711728 0.452691
O O6 0.377199 0.629001 0.614148
O O7 0.119586 0.704668 0.816199
O O8 0.000000 0.741328 0.750000
O O9 0.641988 0.054879 0.793034
O O10 0.983390 0.052011 0.416273
O O11 0.939238 0.043052 0.638610
O O12 0.500000 0.957032 0.250000
O O13 0.687795 0.985697 0.935294
O O14 0.000000 0.003663 0.750000
#
# Coordination Sequence:
#
# PCOD8132827 Si02
#       6
#     8   8   8   8   8   8
#     4  11  18  28  47  71 106 147 177 204 253 312
#     4  11  18  31  43  71 103 137 174 211 252 318
#     4  10  19  28  43  67 103 144 175 205 255 309
#     4  11  23  38  55  81 108 141 180 217 266 315
#     4  12  19  35  55  78 111 146 173 216 263 314
#     4  11  23  38  59  79 104 140 181 225 267 314
#
# _framework density 17.593067000000001
#
# number of rings (size 3 to 8) (size 9 to 14) (size 15 to 20)
#    0.000    1.000    5.000    6.000    0.000    0.667 
#    0.000    0.000    0.000    0.000    0.000    1.167 
#    0.000    0.000    0.000    0.000    0.000    0.000 
#
# Total GULP energy -297408.424017 kJ/mol
# GULP energy per Si atom -12392.017667 kJ/mol
# Density = 1.755302 g / cm^3
# Si number density = 17.593067 Si / 1000 Ang^3
#
#
#
# Elastic Constant Matrix: (Units=GPa)
#
#
# Indices 1 2 3 4 5 6 
#
# 1 55.1187 30.9494 30.6449 -0.0495 3.5177 0.0419
# 2 30.9494 106.4563 35.5690 -0.0053 5.8218 -0.0029
# 3 30.6449 35.5690 101.6694 -0.0313 -13.8378 0.0431
# 4 -0.0495 -0.0053 -0.0313 25.8760 0.0381 -3.5563
# 5 3.5177 5.8218 -13.8378 0.0381 19.8207 -0.0391
# 6 0.0419 -0.0029 0.0431 -3.5563 -0.0391 25.2778
#
#
#
# Elastic Compliance Matrix: (Units=1/GPa)
#
#
# Indices 1 2 3 4 5 6 
#
# 1 0.025132 -0.004488 -0.007108 0.000045 -0.008105 -0.000036
# 2 -0.004488 0.012207 -0.003644 -0.000002 -0.005333 0.000007
# 3 -0.007108 -0.003644 0.014995 -0.000015 0.012801 0.000004
# 4 0.000045 -0.000002 -0.000015 0.039408 -0.000083 0.005544
# 5 -0.008105 -0.005333 0.012801 -0.000083 0.062394 0.000076
# 6 -0.000036 0.000007 0.000004 0.005544 0.000076 0.040341
#
#
# Mechanical properties :
#
#
# Convention : Reuss Voigt Hill
#
# Bulk Modulus (GPa) = 45.75699 50.84121 48.29910
# Shear Modulus (GPa) = 21.52916 25.26696 23.39806
#
# Velocity S-wave (km/s) = 3.50198 3.79382 3.65082
# Velocity P-wave (km/s) = 6.51282 6.93916 6.72937
#
# Compressibility (1/GPa) = 0.02185458
#
# Stress axis : x y z
#
# Youngs Moduli (GPa) = 39.78960 81.91698 66.68750
#
# Poissons Ratio (x) = 0.36767 0.47402
# Poissons Ratio (y) = 0.17859 0.24299
# Poissons Ratio (z) = 0.28283 0.29848
#
# Static dielectric constant tensor:
#      x y z
#    x 2.767370 -0.000040 -0.242170 
#    y -0.000040 3.453480 0.000040 
#    z -0.242170 0.000040 3.546250 
# 
# 
# High freq. dielectric constant tensor:
#      x y z
#    x 1.604910 0.000000 -0.032290 
#    y 0.000000 1.688560 0.000000 
#    z -0.032290 0.000000 1.701350 
# 
# From -- ./inp_files/157370.got.cif
#   From: 2010.06.25/outbox.cif.g09.slc.cpg/sg15_79_cif.got.tgz:157370.got - 2010.06.28 07:06:18.
