data_PCOD8132173
_publ_section_title
;
Structure prediction by ZEFSAII (Michael W. Deem and Ramdas Pophale) SiO2 
 PCOD8132173
Probable space group: C 2/C
;
_chemical_formula_sum "Si O2"
_cell_formula_units_Z 64
_cell_length_a 8.827039
_cell_length_b 18.142322
_cell_length_c 19.549344
_cell_angle_alpha 90.000000
_cell_angle_beta 92.381093
_cell_angle_gamma 90.000000
_cell_volume 3127.987224
_symmetry_space_group_name_H-M "C 2/C"
_symmetry_group_IT_number 15
_symmetry_cell_setting 'monoclinic'
loop_
_space_group_symop_operation_xyz
x,y,z
-x,y,1/2-z
-x,-y,-z
x,-y,1/2+z
1/2+x,1/2+y,z
1/2-x,1/2+y,1/2-z
1/2-x,1/2-y,-z
1/2+x,1/2-y,1/2+z
loop_
_atom_site_type_symbol
_atom_site_label
_atom_site_fract_x
_atom_site_fract_y
_atom_site_fract_z
Si Si1 0.676188 0.291047 0.103628
Si Si2 0.325176 0.144843 0.483505
Si Si3 0.180527 0.405122 0.746094
Si Si4 0.834668 0.596017 0.108349
Si Si5 0.348891 0.019543 0.388149
Si Si6 0.154076 0.767349 0.372302
Si Si7 0.821440 0.750385 0.738145
Si Si8 0.670974 0.873984 0.034607
O O1 0.700065 0.212835 0.067525
O O2 0.507343 0.307889 0.127382
O O3 0.785926 0.298895 0.171162
O O4 0.722214 0.352814 0.049381
O O5 0.268805 0.072138 0.442354
O O6 0.500148 0.142869 0.509153
O O7 0.251859 0.426885 0.822552
O O8 0.213818 0.467876 0.690183
O O9 0.256990 0.331080 0.720607
O O10 0.000000 0.391777 0.750000
O O11 0.882693 0.681211 0.120604
O O12 0.974354 0.540178 0.104677
O O13 0.744770 0.595661 0.033915
O O14 0.320229 0.934849 0.405797
O O15 0.240808 0.784021 0.303265
O O16 0.255073 0.798805 0.436631
O O17 0.000000 0.753229 0.750000
#
# Coordination Sequence:
#
# PCOD8132173 Si02
#       8
#     8   8   8   8   8   8   8   8
#     4  11  20  36  58  86 120 153 198 248 303 355
#     4  10  20  34  58  86 119 159 198 248 295 356
#     4   9  17  34  58  83 108 156 200 246 298 355
#     4   9  17  32  56  83 112 150 207 245 289 350
#     4  10  18  36  58  83 121 159 205 247 298 367
#     4  11  21  37  60  88 120 157 196 255 304 359
#     4  11  21  36  59  89 118 147 201 259 299 349
#     4  11  21  35  57  92 123 156 201 258 301 359
#
# _framework density 20.460440999999999
#
# number of rings (size 3 to 8) (size 9 to 14) (size 15 to 20)
#    0.000    1.750    3.750    4.500    0.000    0.000 
#    2.250    7.500    0.000    6.000    0.000    0.000 
#    0.000    0.000    0.000    0.000    0.000    0.000 
#
# Total GULP energy -396491.886849 kJ/mol
# GULP energy per Si atom -12390.371464 kJ/mol
# Density = 2.041387 g / cm^3
# Si number density = 20.460441 Si / 1000 Ang^3
#
#
#
# Elastic Constant Matrix: (Units=GPa)
#
#
# Indices 1 2 3 4 5 6 
#
# 1 79.8741 4.4653 35.4651 0.0000 -7.9150 0.0000
# 2 4.4653 30.2063 20.6068 0.0000 0.7392 0.0000
# 3 35.4651 20.6068 167.9871 0.0000 -9.8734 0.0000
# 4 0.0000 0.0000 0.0000 30.1856 0.0000 -1.4139
# 5 -7.9150 0.7392 -9.8734 0.0000 29.2105 0.0000
# 6 0.0000 0.0000 0.0000 -1.4139 0.0000 12.1201
#
#
#
# Elastic Compliance Matrix: (Units=1/GPa)
#
#
# Indices 1 2 3 4 5 6 
#
# 1 0.014047 -0.000261 -0.002764 0.000000 0.002878 0.000000
# 2 -0.000261 0.036308 -0.004547 0.000000 -0.002527 0.000000
# 3 -0.002764 -0.004547 0.007200 0.000000 0.001800 0.000000
# 4 0.000000 0.000000 0.000000 0.033310 0.000000 0.003886
# 5 0.002878 -0.002527 0.001800 0.000000 0.035686 0.000000
# 6 0.000000 0.000000 0.000000 0.003886 0.000000 0.082961
#
#
# Mechanical properties :
#
#
# Convention : Reuss Voigt Hill
#
# Bulk Modulus (GPa) = 23.57948 44.34909 33.96428
# Shear Modulus (GPa) = 20.93843 28.80525 24.87184
#
# Velocity S-wave (km/s) = 3.20247 3.75620 3.49034
# Velocity P-wave (km/s) = 5.02234 6.36668 5.73405
#
# Compressibility (1/GPa) = 0.04240976
#
# Stress axis : x y z
#
# Youngs Moduli (GPa) = 71.18992 27.54191 138.88841
#
# Poissons Ratio (x) = 0.00719 0.38394
# Poissons Ratio (y) = 0.01859 0.63156
# Poissons Ratio (z) = 0.19679 0.12524
#
# Static dielectric constant tensor:
#      x y z
#    x 3.405770 0.000000 -0.282240 
#    y 0.000000 3.345060 0.000000 
#    z -0.282240 0.000000 4.534210 
# 
# 
# High freq. dielectric constant tensor:
#      x y z
#    x 1.758050 0.000000 -0.014830 
#    y 0.000000 1.763670 0.000000 
#    z -0.014830 0.000000 1.835210 
# 
# From -- ./inp_files/233528.got.cif
#   From: 2010.06.25/outbox.cif.g09.slc.cpg/sg15_117_cif.got.tgz:233528.got - 2010.06.28 07:06:18.
