data_PCOD8132835
_publ_section_title
;
Structure prediction by ZEFSAII (Michael W. Deem and Ramdas Pophale) SiO2 
 PCOD8132835
Probable space group: C 2/C
;
_chemical_formula_sum "Si O2"
_cell_formula_units_Z 60
_cell_length_a 28.376924
_cell_length_b 29.793909
_cell_length_c 8.626626
_cell_angle_alpha 90.000000
_cell_angle_beta 149.296514
_cell_angle_gamma 90.000000
_cell_volume 3724.007348
_symmetry_space_group_name_H-M "C 2/C"
_symmetry_group_IT_number 15
_symmetry_cell_setting 'monoclinic'
loop_
_space_group_symop_operation_xyz
x,y,z
-x,y,1/2-z
-x,-y,-z
x,-y,1/2+z
1/2+x,1/2+y,z
1/2-x,1/2+y,1/2-z
1/2-x,1/2-y,-z
1/2+x,1/2-y,1/2+z
loop_
_atom_site_type_symbol
_atom_site_label
_atom_site_fract_x
_atom_site_fract_y
_atom_site_fract_z
Si Si1 0.628300 0.355330 0.760512
Si Si2 0.896047 0.042049 0.005455
Si Si3 0.957439 0.808548 0.384444
Si Si4 0.500000 0.239691 0.750000
Si Si5 0.595726 0.546327 0.110805
Si Si6 0.282879 0.711015 0.203326
Si Si7 0.665935 0.637486 0.724424
Si Si8 0.697204 0.206824 0.279152
O O1 0.523975 0.335441 0.453715
O O2 0.639647 0.404696 0.718683
O O3 0.705880 0.330866 0.879568
O O4 0.645888 0.349583 0.991737
O O5 0.908380 0.036137 0.221364
O O6 0.000000 0.052055 0.250000
O O7 0.832332 0.083218 0.764270
O O8 0.849561 0.996130 0.808228
O O9 0.013401 0.770767 0.636512
O O10 0.910606 0.843089 0.373934
O O11 0.880934 0.782124 0.066983
O O12 0.410009 0.208747 0.479825
O O13 0.500000 0.546227 0.750000
O O14 0.205692 0.704657 0.116772
O O15 0.250000 0.750000 0.000000
O O16 0.763830 0.660050 0.042654
O O17 0.750000 0.250000 0.500000
#
# Coordination Sequence:
#
# PCOD8132835 Si02
#       8
#     8   8   8   4   8   8   8   8
#     4  11  20  32  49  74 101 136 170 208 257 293
#     4  10  19  28  46  68  96 136 166 206 246 294
#     4  11  19  32  51  69  96 139 177 203 241 311
#     4  12  20  34  58  70  92 136 182 204 252 296
#     4  10  19  30  43  67 101 130 172 204 241 302
#     4  11  22  31  47  71 105 128 166 216 253 286
#     4  10  19  33  50  67  99 133 175 206 242 298
#     4  11  21  36  51  72  97 133 171 213 245 307
#
# _framework density 16.111678000000001
#
# number of rings (size 3 to 8) (size 9 to 14) (size 15 to 20)
#    0.000    1.333    4.000    6.000    0.000    3.200 
#    0.000    0.000    0.000    0.000    0.000    0.000 
#    0.000    9.600    0.000    0.000    0.000    0.000 
#
# Total GULP energy -371647.560454 kJ/mol
# GULP energy per Si atom -12388.252015 kJ/mol
# Density = 1.607501 g / cm^3
# Si number density = 16.111678 Si / 1000 Ang^3
#
#
#
# Elastic Constant Matrix: (Units=GPa)
#
#
# Indices 1 2 3 4 5 6 
#
# 1 77.3727 57.7227 26.7553 0.0000 -4.2717 0.0000
# 2 57.7227 136.8916 56.7569 0.0000 -8.0839 0.0000
# 3 26.7553 56.7569 70.3426 0.0000 -4.1456 0.0000
# 4 0.0000 0.0000 0.0000 23.1341 0.0000 -6.4631
# 5 -4.2717 -8.0839 -4.1456 0.0000 30.1332 0.0000
# 6 0.0000 0.0000 0.0000 -6.4631 0.0000 28.3309
#
#
#
# Elastic Compliance Matrix: (Units=1/GPa)
#
#
# Indices 1 2 3 4 5 6 
#
# 1 0.018925 -0.007480 -0.001132 0.000000 0.000520 0.000000
# 2 -0.007480 0.014025 -0.008380 0.000000 0.001549 0.000000
# 3 -0.001132 -0.008380 0.021440 0.000000 0.000541 0.000000
# 4 0.000000 0.000000 0.000000 0.046169 0.000000 0.010533
# 5 0.000520 0.001549 0.000541 0.000000 0.033750 0.000000
# 6 0.000000 0.000000 0.000000 0.010533 0.000000 0.037700
#
#
# Mechanical properties :
#
#
# Convention : Reuss Voigt Hill
#
# Bulk Modulus (GPa) = 49.00551 63.00851 56.00701
# Shear Modulus (GPa) = 23.49681 25.87776 24.68728
#
# Velocity S-wave (km/s) = 3.82301 4.01203 3.91866
# Velocity P-wave (km/s) = 7.06890 7.78807 7.43718
#
# Compressibility (1/GPa) = 0.02040587
#
# Stress axis : x y z
#
# Youngs Moduli (GPa) = 52.84027 71.30155 46.64142
#
# Poissons Ratio (x) = 0.53332 0.05282
# Poissons Ratio (y) = 0.39523 0.39085
# Poissons Ratio (z) = 0.05984 0.59750
#
# Static dielectric constant tensor:
#      x y z
#    x 3.222820 0.000000 -0.283230 
#    y 0.000000 4.018930 0.000000 
#    z -0.283230 0.000000 2.943540 
# 
# 
# High freq. dielectric constant tensor:
#      x y z
#    x 1.621750 0.000000 -0.039400 
#    y 0.000000 1.616420 0.000000 
#    z -0.039400 0.000000 1.592930 
# 
# From -- ./inp_files/71002.got.cif
#   From: 2010.06.25/outbox.cif.g09.slc.cpg/sg15_36_cif.got.tgz:71002.got - 2010.06.28 07:06:18.
