data_PCOD8132595
_publ_section_title
;
Structure prediction by ZEFSAII (Michael W. Deem and Ramdas Pophale) SiO2 
 PCOD8132595
Probable space group: C 2/C
;
_chemical_formula_sum "Si O2"
_cell_formula_units_Z 56
_cell_length_a 10.927870
_cell_length_b 16.716187
_cell_length_c 23.635746
_cell_angle_alpha 90.000000
_cell_angle_beta 139.648495
_cell_angle_gamma 90.000000
_cell_volume 2795.536260
_symmetry_space_group_name_H-M "C 2/C"
_symmetry_group_IT_number 15
_symmetry_cell_setting 'monoclinic'
loop_
_space_group_symop_operation_xyz
x,y,z
-x,y,1/2-z
-x,-y,-z
x,-y,1/2+z
1/2+x,1/2+y,z
1/2-x,1/2+y,1/2-z
1/2-x,1/2-y,-z
1/2+x,1/2-y,1/2+z
loop_
_atom_site_type_symbol
_atom_site_label
_atom_site_fract_x
_atom_site_fract_y
_atom_site_fract_z
Si Si1 0.773903 0.270221 0.803033
Si Si2 0.024457 0.877264 0.164278
Si Si3 0.357400 0.254944 0.625662
Si Si4 0.502371 0.517695 0.066923
Si Si5 0.207210 0.632653 0.983925
Si Si6 0.221728 0.659256 0.644711
Si Si7 0.795833 0.655019 0.199699
O O1 0.940694 0.206457 0.854880
O O2 0.571101 0.231794 0.716155
O O3 0.764366 0.292498 0.865754
O O4 0.806065 0.345240 0.772391
O O5 0.180539 0.887614 0.268716
O O6 0.817148 0.871639 0.119970
O O7 0.050037 0.945089 0.125752
O O8 0.355040 0.321488 0.576429
O O9 0.272626 0.172681 0.571127
O O10 0.647449 0.590347 0.126251
O O11 0.500000 0.500000 0.000000
O O12 0.287978 0.543451 0.007519
O O13 0.997185 0.635372 0.935173
O O14 0.247061 0.754974 0.660926
O O15 0.000000 0.628254 0.250000
#
# Coordination Sequence:
#
# PCOD8132595 Si02
#       7
#     8   8   8   8   8   8   8
#     4  10  18  38  65  93 118 168 218 255 310 385
#     4  10  21  42  62  90 128 171 214 262 321 386
#     4  10  19  33  65  96 120 155 207 271 306 378
#     4  12  27  42  58  95 138 168 203 277 340 386
#     4  11  20  39  62  93 131 159 206 260 337 376
#     4  10  20  42  74  88 118 178 217 268 314 391
#     4  11  20  43  69  92 125 168 227 263 313 384
#
# _framework density 20.031934
#
# number of rings (size 3 to 8) (size 9 to 14) (size 15 to 20)
#    0.000    1.429    7.143    1.714    0.000    1.714 
#   10.286    1.429    0.000    0.000    0.000    0.000 
#    0.000    0.000    0.000    0.000    0.000    0.000 
#
# Total GULP energy -346952.674234 kJ/mol
# GULP energy per Si atom -12391.166937 kJ/mol
# Density = 1.998634 g / cm^3
# Si number density = 20.031934 Si / 1000 Ang^3
#
#
#
# Elastic Constant Matrix: (Units=GPa)
#
#
# Indices 1 2 3 4 5 6 
#
# 1 137.7104 41.9262 51.0421 0.0000 -6.5881 0.0000
# 2 41.9262 83.3395 45.6386 0.0000 -5.0084 0.0000
# 3 51.0421 45.6386 77.0437 0.0000 -2.9046 0.0000
# 4 0.0000 0.0000 0.0000 33.8859 0.0000 4.3600
# 5 -6.5881 -5.0084 -2.9046 0.0000 42.6658 0.0000
# 6 0.0000 0.0000 0.0000 4.3600 0.0000 19.3645
#
#
#
# Elastic Compliance Matrix: (Units=1/GPa)
#
#
# Indices 1 2 3 4 5 6 
#
# 1 0.009892 -0.002000 -0.005334 0.000000 0.000930 0.000000
# 2 -0.002000 0.018245 -0.009438 0.000000 0.001190 0.000000
# 3 -0.005334 -0.009438 0.022088 0.000000 -0.000428 0.000000
# 4 0.000000 0.000000 0.000000 0.030391 0.000000 -0.006843
# 5 0.000930 0.001190 -0.000428 0.000000 0.023692 0.000000
# 6 0.000000 0.000000 0.000000 -0.006843 0.000000 0.053181
#
#
# Mechanical properties :
#
#
# Convention : Reuss Voigt Hill
#
# Bulk Modulus (GPa) = 59.94583 63.92305 61.93444
# Shear Modulus (GPa) = 25.43305 29.81570 27.62437
#
# Velocity S-wave (km/s) = 3.56705 3.86217 3.71754
# Velocity P-wave (km/s) = 6.85239 7.20197 7.02935
#
# Compressibility (1/GPa) = 0.01668173
#
# Stress axis : x y z
#
# Youngs Moduli (GPa) = 101.09331 54.80869 45.27273
#
# Poissons Ratio (x) = 0.10959 0.24148
# Poissons Ratio (y) = 0.20214 0.42730
# Poissons Ratio (z) = 0.53922 0.51731
#
# Static dielectric constant tensor:
#      x y z
#    x 4.062440 0.000000 -0.072520 
#    y 0.000000 3.336980 0.000000 
#    z -0.072520 0.000000 3.610080 
# 
# 
# High freq. dielectric constant tensor:
#      x y z
#    x 1.804640 0.000000 0.000090 
#    y 0.000000 1.744450 0.000000 
#    z 0.000090 0.000000 1.777700 
# 
# From -- ./inp_files/292909.got.cif
#   From: 2010.06.25/outbox.cif.g09.slc.cpg/sg15_147_cif.got.tgz:292909.got - 2010.06.28 07:06:18.
