data_PCOD8132177
_publ_section_title
;
Structure prediction by ZEFSAII (Michael W. Deem and Ramdas Pophale) SiO2 
 PCOD8132177
Probable space group: C 2/C
;
_chemical_formula_sum "Si O2"
_cell_formula_units_Z 56
_cell_length_a 20.649792
_cell_length_b 26.959321
_cell_length_c 5.021683
_cell_angle_alpha 90.000000
_cell_angle_beta 105.330720
_cell_angle_gamma 90.000000
_cell_volume 2696.113941
_symmetry_space_group_name_H-M "C 2/C"
_symmetry_group_IT_number 15
_symmetry_cell_setting 'monoclinic'
loop_
_space_group_symop_operation_xyz
x,y,z
-x,y,1/2-z
-x,-y,-z
x,-y,1/2+z
1/2+x,1/2+y,z
1/2-x,1/2+y,1/2-z
1/2-x,1/2-y,-z
1/2+x,1/2-y,1/2+z
loop_
_atom_site_type_symbol
_atom_site_label
_atom_site_fract_x
_atom_site_fract_y
_atom_site_fract_z
Si Si1 0.823556 0.467721 0.130299
Si Si2 0.712456 0.396765 0.904013
Si Si3 0.571543 0.357396 0.763326
Si Si4 0.742371 0.663844 0.940260
Si Si5 0.074629 0.622427 0.777134
Si Si6 0.108570 0.684524 0.313241
Si Si7 0.602244 0.295484 0.300789
O O1 0.836989 0.488079 0.438899
O O2 0.873843 0.422515 0.134376
O O3 0.746332 0.449394 0.012395
O O4 0.630943 0.398657 0.836890
O O5 0.734768 0.383151 0.629504
O O6 0.740756 0.355352 0.136001
O O7 0.500000 0.383600 0.750000
O O8 0.565508 0.331359 0.470082
O O9 0.585415 0.313576 0.987015
O O10 0.682561 0.702190 0.934730
O O11 0.812141 0.690993 0.061159
O O12 0.076529 0.646046 0.485737
O O13 0.000000 0.601784 0.750000
O O14 0.093520 0.665654 0.001841
O O15 0.076914 0.739233 0.310998
#
# Coordination Sequence:
#
# PCOD8132177 Si02
#       7
#     8   8   8   8   8   8   8
#     4  12  24  42  68  87 109 141 189 247 298 354
#     4  10  20  38  61  88 113 146 192 237 288 347
#     4  10  21  37  57  85 125 160 192 230 275 333
#     4  10  18  36  58  84 118 153 196 242 279 328
#     4  12  27  42  59  86 117 156 191 235 301 350
#     4  12  21  39  59  82 124 159 196 243 279 329
#     4  10  22  32  57  89 118 162 206 234 267 321
#
# _framework density 20.770638000000002
#
# number of rings (size 3 to 8) (size 9 to 14) (size 15 to 20)
#    0.000    1.143    2.857    3.857    0.000    4.000 
#    0.000    5.714    0.000    0.857    0.000    0.000 
#    0.000    0.000    0.000    0.000    0.000    0.000 
#
# Total GULP energy -347276.759526 kJ/mol
# GULP energy per Si atom -12402.741412 kJ/mol
# Density = 2.072336 g / cm^3
# Si number density = 20.770638 Si / 1000 Ang^3
#
#
#
# Elastic Constant Matrix: (Units=GPa)
#
#
# Indices 1 2 3 4 5 6 
#
# 1 117.5899 21.8550 8.5985 0.0000 4.5864 0.0000
# 2 21.8550 67.2871 11.2421 0.0000 -0.9006 0.0000
# 3 8.5985 11.2421 75.6178 0.0000 -8.7814 0.0000
# 4 0.0000 0.0000 0.0000 24.8102 0.0000 -5.1846
# 5 4.5864 -0.9006 -8.7814 0.0000 29.2236 0.0000
# 6 0.0000 0.0000 0.0000 -5.1846 0.0000 6.1512
#
#
#
# Elastic Compliance Matrix: (Units=1/GPa)
#
#
# Indices 1 2 3 4 5 6 
#
# 1 0.009166 -0.002863 -0.000823 0.000000 -0.001774 0.000000
# 2 -0.002863 0.016136 -0.002034 0.000000 0.000335 0.000000
# 3 -0.000823 -0.002034 0.014121 0.000000 0.004310 0.000000
# 4 0.000000 0.000000 0.000000 0.048923 0.000000 0.041235
# 5 -0.001774 0.000335 0.004310 0.000000 0.035803 0.000000
# 6 0.000000 0.000000 0.000000 0.041235 0.000000 0.197326
#
#
# Mechanical properties :
#
#
# Convention : Reuss Voigt Hill
#
# Bulk Modulus (GPa) = 35.73725 38.20955 36.97340
# Shear Modulus (GPa) = 14.60955 26.62361 20.61658
#
# Velocity S-wave (km/s) = 2.65500 3.58409 3.15395
# Velocity P-wave (km/s) = 5.16156 5.96352 5.57697
#
# Compressibility (1/GPa) = 0.02798201
#
# Stress axis : x y z
#
# Youngs Moduli (GPa) = 109.10315 61.97291 70.81728
#
# Poissons Ratio (x) = 0.17745 0.05825
# Poissons Ratio (y) = 0.31240 0.14407
# Poissons Ratio (z) = 0.08974 0.12608
#
# Static dielectric constant tensor:
#      x y z
#    x 4.094060 0.000000 0.038920 
#    y 0.000000 3.303390 0.000000 
#    z 0.038920 0.000000 3.900940 
# 
# 
# High freq. dielectric constant tensor:
#      x y z
#    x 1.826270 0.000000 -0.001490 
#    y 0.000000 1.769630 0.000000 
#    z -0.001490 0.000000 1.832450 
# 
# From -- ./inp_files/13746.got.cif
#   From: 2010.06.25/outbox.cif.g09.slc.cpg/sg15_7_cif.got.tgz:13746.got - 2010.06.28 07:06:18.
