data_PCOD8132664
_publ_section_title
;
Structure prediction by ZEFSAII (Michael W. Deem and Ramdas Pophale) SiO2 
 PCOD8132664
Probable space group: C 2/C
;
_chemical_formula_sum "Si O2"
_cell_formula_units_Z 64
_cell_length_a 8.444538
_cell_length_b 26.745159
_cell_length_c 14.018878
_cell_angle_alpha 90.000000
_cell_angle_beta 62.606626
_cell_angle_gamma 90.000000
_cell_volume 2811.143604
_symmetry_space_group_name_H-M "C 2/C"
_symmetry_group_IT_number 15
_symmetry_cell_setting 'monoclinic'
loop_
_space_group_symop_operation_xyz
x,y,z
-x,y,1/2-z
-x,-y,-z
x,-y,1/2+z
1/2+x,1/2+y,z
1/2-x,1/2+y,1/2-z
1/2-x,1/2-y,-z
1/2+x,1/2-y,1/2+z
loop_
_atom_site_type_symbol
_atom_site_label
_atom_site_fract_x
_atom_site_fract_y
_atom_site_fract_z
Si Si1 0.667319 0.918299 0.443149
Si Si2 0.298975 0.069026 0.780833
Si Si3 0.145258 0.650902 0.431602
Si Si4 0.494219 0.701823 0.363367
Si Si5 0.174547 0.529719 0.135086
Si Si6 0.546163 0.249388 0.029807
Si Si7 0.503886 0.648427 0.859611
Si Si8 0.794021 0.373183 0.784509
O O1 0.715387 0.944314 0.328867
O O2 0.490412 0.884426 0.472827
O O3 0.636869 0.961629 0.532107
O O4 0.821559 0.880641 0.437023
O O5 0.500000 0.084291 0.750000
O O6 0.171787 0.114604 0.841074
O O7 0.229007 0.022717 0.866964
O O8 0.317154 0.670375 0.441821
O O9 0.222346 0.617625 0.323853
O O10 0.046209 0.698588 0.409148
O O11 0.500000 0.716251 0.250000
O O12 0.506755 0.751090 0.425850
O O13 0.667329 0.671760 0.350957
O O14 0.283264 0.577897 0.140851
O O15 0.000000 0.527496 0.250000
O O16 0.461689 0.299617 0.096148
O O17 0.750000 0.250000 0.000000
O O18 0.500000 0.661661 0.750000
O O19 0.000000 0.361621 0.750000
#
# Coordination Sequence:
#
# PCOD8132664 Si02
#       8
#     8   8   8   8   8   8   8   8
#     4  11  21  44  68  92 137 174 220 286 334 413
#     4  10  25  44  65  98 131 177 223 280 351 398
#     4  11  22  39  61  97 133 171 215 281 344 390
#     4  10  24  40  59  98 138 165 220 283 341 397
#     4  10  20  40  70  98 126 174 231 276 340 410
#     4  12  23  41  69  97 126 184 233 269 343 419
#     4  10  24  45  64  97 135 176 233 281 335 415
#     4  10  18  39  64  91 127 167 216 276 321 400
#
# _framework density 22.766535999999999
#
# number of rings (size 3 to 8) (size 9 to 14) (size 15 to 20)
#    0.000    1.500    3.750    1.875    1.750    5.000 
#    0.000    5.625    0.000    0.000    0.000    0.000 
#    0.000    0.000    0.000    0.000    0.000    0.000 
#
# Total GULP energy -396540.799150 kJ/mol
# GULP energy per Si atom -12391.899973 kJ/mol
# Density = 2.271472 g / cm^3
# Si number density = 22.766536 Si / 1000 Ang^3
#
#
#
# Elastic Constant Matrix: (Units=GPa)
#
#
# Indices 1 2 3 4 5 6 
#
# 1 101.8970 28.5559 20.1824 0.0000 -2.8076 0.0000
# 2 28.5559 96.1991 46.6424 0.0000 11.9583 0.0000
# 3 20.1824 46.6424 85.7900 0.0000 11.9889 0.0000
# 4 0.0000 0.0000 0.0000 29.0788 0.0000 3.8042
# 5 -2.8076 11.9583 11.9889 0.0000 35.9881 0.0000
# 6 0.0000 0.0000 0.0000 3.8042 0.0000 27.7400
#
#
#
# Elastic Compliance Matrix: (Units=1/GPa)
#
#
# Indices 1 2 3 4 5 6 
#
# 1 0.010947 -0.002890 -0.001319 0.000000 0.002254 0.000000
# 2 -0.002890 0.015053 -0.007104 0.000000 -0.002861 0.000000
# 3 -0.001319 -0.007104 0.016271 0.000000 -0.003163 0.000000
# 4 0.000000 0.000000 0.000000 0.035018 0.000000 -0.004802
# 5 0.002254 -0.002861 -0.003163 0.000000 0.029967 0.000000
# 6 0.000000 0.000000 0.000000 -0.004802 0.000000 0.036708
#
#
# Mechanical properties :
#
#
# Convention : Reuss Voigt Hill
#
# Bulk Modulus (GPa) = 50.90532 52.73860 51.82196
# Shear Modulus (GPa) = 28.87850 31.12840 30.00345
#
# Velocity S-wave (km/s) = 3.56541 3.70170 3.63419
# Velocity P-wave (km/s) = 6.27358 6.44091 6.35780
#
# Compressibility (1/GPa) = 0.01964431
#
# Stress axis : x y z
#
# Youngs Moduli (GPa) = 91.34802 66.43067 61.45829
#
# Poissons Ratio (x) = 0.19200 0.08106
# Poissons Ratio (y) = 0.26402 0.43663
# Poissons Ratio (z) = 0.12048 0.47195
#
# Static dielectric constant tensor:
#      x y z
#    x 4.173210 0.000000 0.019020 
#    y 0.000000 4.504210 0.000000 
#    z 0.019020 0.000000 4.186420 
# 
# 
# High freq. dielectric constant tensor:
#      x y z
#    x 1.893840 0.000000 0.004430 
#    y 0.000000 1.886410 0.000000 
#    z 0.004430 0.000000 1.902980 
# 
# From -- ./inp_files/138583.got.cif
#   From: 2010.06.25/outbox.cif.g09.slc.cpg/sg15_70_cif.got.tgz:138583.got - 2010.06.28 07:06:18.
