data_PCOD8132704
_publ_section_title
;
Structure prediction by ZEFSAII (Michael W. Deem and Ramdas Pophale) SiO2 
 PCOD8132704
Probable space group: C 2/C
;
_chemical_formula_sum "Si O2"
_cell_formula_units_Z 52
_cell_length_a 9.760056
_cell_length_b 17.007025
_cell_length_c 18.306912
_cell_angle_alpha 90.000000
_cell_angle_beta 57.360874
_cell_angle_gamma 90.000000
_cell_volume 2558.888230
_symmetry_space_group_name_H-M "C 2/C"
_symmetry_group_IT_number 15
_symmetry_cell_setting 'monoclinic'
loop_
_space_group_symop_operation_xyz
x,y,z
-x,y,1/2-z
-x,-y,-z
x,-y,1/2+z
1/2+x,1/2+y,z
1/2-x,1/2+y,1/2-z
1/2-x,1/2-y,-z
1/2+x,1/2-y,1/2+z
loop_
_atom_site_type_symbol
_atom_site_label
_atom_site_fract_x
_atom_site_fract_y
_atom_site_fract_z
Si Si1 0.982329 0.190815 0.930469
Si Si2 0.658613 0.052489 0.249352
Si Si3 0.268015 0.227058 0.251021
Si Si4 0.000000 0.310991 0.250000
Si Si5 0.810535 0.305246 0.084950
Si Si6 0.241596 0.071271 0.889189
Si Si7 0.002273 0.457509 0.422677
O O1 0.098096 0.238014 0.841997
O O2 0.066892 0.113877 0.942146
O O3 0.818981 0.161319 0.936626
O O4 0.938161 0.247674 0.009532
O O5 0.500000 0.076208 0.250000
O O6 0.741985 0.133025 0.249515
O O7 0.774772 0.000820 0.163223
O O8 0.616135 0.003960 0.333692
O O9 0.297752 0.257896 0.324636
O O10 0.087610 0.255198 0.282689
O O11 0.873499 0.366548 0.325471
O O12 0.915602 0.372815 0.092435
O O13 0.314652 0.044967 0.946897
O O14 0.000000 0.500000 0.500000
#
# Coordination Sequence:
#
# PCOD8132704 Si02
#       7
#     8   8   8   4   8   8   8
#     4  10  23  38  64  89 121 162 208 252 315 365
#     4  10  20  37  61  87 120 165 204 246 315 374
#     4  11  21  39  63  90 123 160 206 256 307 368
#     4  10  18  40  62  86 122 162 208 248 300 372
#     4  11  22  41  61  92 121 159 208 262 299 376
#     4  10  19  41  62  84 120 170 201 249 314 373
#     4  11  21  37  61  89 123 159 207 256 311 373
#
# _framework density 20.321325999999999
#
# number of rings (size 3 to 8) (size 9 to 14) (size 15 to 20)
#    0.000    1.538    3.846    3.231    0.000    4.308 
#    5.538    1.538    0.000    0.000    0.000    0.000 
#    0.000    0.000    0.000    0.000    0.000    0.000 
#
# Total GULP energy -322369.320461 kJ/mol
# GULP energy per Si atom -12398.820018 kJ/mol
# Density = 2.027507 g / cm^3
# Si number density = 20.321326 Si / 1000 Ang^3
#
#
#
# Elastic Constant Matrix: (Units=GPa)
#
#
# Indices 1 2 3 4 5 6 
#
# 1 66.1324 22.5005 16.6098 0.0000 12.3619 0.0000
# 2 22.5005 93.2318 30.0823 0.0000 9.2790 0.0000
# 3 16.6098 30.0823 101.1074 0.0000 17.6235 0.0000
# 4 0.0000 0.0000 0.0000 32.5961 0.0000 5.6831
# 5 12.3619 9.2790 17.6235 0.0000 30.6957 0.0000
# 6 0.0000 0.0000 0.0000 5.6831 0.0000 36.4473
#
#
#
# Elastic Compliance Matrix: (Units=1/GPa)
#
#
# Indices 1 2 3 4 5 6 
#
# 1 0.017534 -0.003389 -0.000911 0.000000 -0.005514 0.000000
# 2 -0.003389 0.012604 -0.003075 0.000000 -0.000680 0.000000
# 3 -0.000911 -0.003075 0.011922 0.000000 -0.005549 0.000000
# 4 0.000000 0.000000 0.000000 0.031536 0.000000 -0.004917
# 5 -0.005514 -0.000680 -0.005549 0.000000 0.038190 0.000000
# 6 0.000000 0.000000 0.000000 -0.004917 0.000000 0.028204
#
#
# Mechanical properties :
#
#
# Convention : Reuss Voigt Hill
#
# Bulk Modulus (GPa) = 36.61645 44.31741 40.46693
# Shear Modulus (GPa) = 30.51743 32.69975 31.60859
#
# Velocity S-wave (km/s) = 3.87944 4.01575 3.94818
# Velocity P-wave (km/s) = 6.17451 6.58463 6.38287
#
# Compressibility (1/GPa) = 0.02731013
#
# Stress axis : x y z
#
# Youngs Moduli (GPa) = 57.03312 79.34263 83.87800
#
# Poissons Ratio (x) = 0.26888 0.07642
# Poissons Ratio (y) = 0.19328 0.25790
# Poissons Ratio (z) = 0.05196 0.24395
#
# Static dielectric constant tensor:
#      x y z
#    x 3.362250 0.000000 0.270160 
#    y 0.000000 3.802340 0.000000 
#    z 0.270160 0.000000 3.763490 
# 
# 
# High freq. dielectric constant tensor:
#      x y z
#    x 1.792380 0.000000 0.016270 
#    y 0.000000 1.799350 0.000000 
#    z 0.016270 0.000000 1.790960 
# 
# From -- ./inp_files/190328.got.cif
#   From: 2010.06.25/outbox.cif.g09.slc.cpg/sg15_96_cif.got.tgz:190328.got - 2010.06.28 07:06:18.
