data_PCOD8132502
_publ_section_title
;
Structure prediction by ZEFSAII (Michael W. Deem and Ramdas Pophale) SiO2 
 PCOD8132502
Probable space group: C 2/C
;
_chemical_formula_sum "Si O2"
_cell_formula_units_Z 56
_cell_length_a 9.469900
_cell_length_b 20.337700
_cell_length_c 16.197087
_cell_angle_alpha 90.000000
_cell_angle_beta 82.753822
_cell_angle_gamma 90.000000
_cell_volume 3094.579672
_symmetry_space_group_name_H-M "C 2/C"
_symmetry_group_IT_number 15
_symmetry_cell_setting 'monoclinic'
loop_
_space_group_symop_operation_xyz
x,y,z
-x,y,1/2-z
-x,-y,-z
x,-y,1/2+z
1/2+x,1/2+y,z
1/2-x,1/2+y,1/2-z
1/2-x,1/2-y,-z
1/2+x,1/2-y,1/2+z
loop_
_atom_site_type_symbol
_atom_site_label
_atom_site_fract_x
_atom_site_fract_y
_atom_site_fract_z
Si Si1 0.498199 0.613239 0.345656
Si Si2 0.295429 0.440234 0.534294
Si Si3 0.481730 0.649985 0.937654
Si Si4 0.433329 0.237009 0.339844
Si Si5 0.112968 0.234400 0.408062
Si Si6 0.775003 0.087887 0.491335
Si Si7 0.972424 0.353050 0.985799
O O1 0.500000 0.593154 0.250000
O O2 0.634577 0.582258 0.383603
O O3 0.504776 0.693169 0.357034
O O4 0.352207 0.585759 0.396287
O O5 0.401662 0.420337 0.450113
O O6 0.279012 0.517915 0.535936
O O7 0.144130 0.406356 0.531281
O O8 0.479311 0.685973 0.849654
O O9 0.382393 0.696941 0.003944
O O10 0.643013 0.641427 0.957624
O O11 0.500000 0.211878 0.250000
O O12 0.264006 0.230978 0.351366
O O13 0.505201 0.194090 0.406323
O O14 0.068281 0.309829 0.429690
O O15 0.613028 0.107454 0.496405
#
# Coordination Sequence:
#
# PCOD8132502 Si02
#       7
#     8   8   8   8   8   8   8
#     4  10  21  36  57  82 110 139 178 233 275 313
#     4  10  18  38  59  74 109 148 185 212 266 325
#     4   9  17  36  55  75 107 141 182 218 262 322
#     4  11  20  32  57  83 109 142 179 226 285 329
#     4   9  18  36  55  76 110 145 170 220 284 321
#     4  10  22  33  56  87 102 145 194 220 254 321
#     4  11  19  35  59  81 112 141 183 227 263 329
#
# _framework density 18.096157999999999
#
# number of rings (size 3 to 8) (size 9 to 14) (size 15 to 20)
#    0.000    2.286    4.286    3.000    2.000    5.143 
#    0.000    2.857    0.000    0.000    0.000    0.000 
#    0.000    0.000    0.000    0.000    0.000    0.000 
#
# Total GULP energy -346968.049431 kJ/mol
# GULP energy per Si atom -12391.716051 kJ/mol
# Density = 1.805497 g / cm^3
# Si number density = 18.096158 Si / 1000 Ang^3
#
#
#
# Elastic Constant Matrix: (Units=GPa)
#
#
# Indices 1 2 3 4 5 6 
#
# 1 124.8965 40.8944 31.7222 0.0000 -4.9189 0.0000
# 2 40.8944 84.0338 35.4103 0.0000 2.8598 0.0000
# 3 31.7222 35.4103 71.6409 0.0000 -3.3096 0.0000
# 4 0.0000 0.0000 0.0000 12.0245 0.0000 0.8905
# 5 -4.9189 2.8598 -3.3096 0.0000 17.2871 0.0000
# 6 0.0000 0.0000 0.0000 0.8905 0.0000 26.6954
#
#
#
# Elastic Compliance Matrix: (Units=1/GPa)
#
#
# Indices 1 2 3 4 5 6 
#
# 1 0.010029 -0.004008 -0.002317 0.000000 0.003073 0.000000
# 2 -0.004008 0.016904 -0.006822 0.000000 -0.005243 0.000000
# 3 -0.002317 -0.006822 0.018542 0.000000 0.004019 0.000000
# 4 0.000000 0.000000 0.000000 0.083369 0.000000 -0.002781
# 5 0.003073 -0.005243 0.004019 0.000000 0.060358 0.000000
# 6 0.000000 0.000000 0.000000 -0.002781 0.000000 0.037552
#
#
# Mechanical properties :
#
#
# Convention : Reuss Voigt Hill
#
# Bulk Modulus (GPa) = 52.14187 55.18056 53.66122
# Shear Modulus (GPa) = 19.27195 22.70435 20.98815
#
# Velocity S-wave (km/s) = 3.26694 3.54595 3.40930
# Velocity P-wave (km/s) = 6.56558 6.87926 6.72425
#
# Compressibility (1/GPa) = 0.01917844
#
# Stress axis : x y z
#
# Youngs Moduli (GPa) = 99.71345 59.15780 53.93017
#
# Poissons Ratio (x) = 0.23713 0.12498
# Poissons Ratio (y) = 0.39970 0.36794
# Poissons Ratio (z) = 0.23108 0.40360
#
# Static dielectric constant tensor:
#      x y z
#    x 3.261350 0.000000 -0.028380 
#    y 0.000000 3.527250 0.000000 
#    z -0.028380 0.000000 3.084840 
# 
# 
# High freq. dielectric constant tensor:
#      x y z
#    x 1.702670 0.000000 -0.004820 
#    y 0.000000 1.701580 0.000000 
#    z -0.004820 0.000000 1.661260 
# 
# From -- ./inp_files/191596.got.cif
#   From: 2010.06.25/outbox.cif.g09.slc.cpg/sg15_96_cif.got.tgz:191596.got - 2010.06.28 07:06:18.
