data_PCOD8132734
_publ_section_title
;
Structure prediction by ZEFSAII (Michael W. Deem and Ramdas Pophale) SiO2 
 PCOD8132734
Probable space group: C 2/C
;
_chemical_formula_sum "Si O2"
_cell_formula_units_Z 60
_cell_length_a 14.795843
_cell_length_b 15.034675
_cell_length_c 23.562683
_cell_angle_alpha 90.000000
_cell_angle_beta 33.415600
_cell_angle_gamma 90.000000
_cell_volume 2886.555449
_symmetry_space_group_name_H-M "C 2/C"
_symmetry_group_IT_number 15
_symmetry_cell_setting 'monoclinic'
loop_
_space_group_symop_operation_xyz
x,y,z
-x,y,1/2-z
-x,-y,-z
x,-y,1/2+z
1/2+x,1/2+y,z
1/2-x,1/2+y,1/2-z
1/2-x,1/2-y,-z
1/2+x,1/2-y,1/2+z
loop_
_atom_site_type_symbol
_atom_site_label
_atom_site_fract_x
_atom_site_fract_y
_atom_site_fract_z
Si Si1 0.312742 0.865535 0.631317
Si Si2 0.890393 0.632295 0.968888
Si Si3 0.281035 0.682497 0.543590
Si Si4 0.593333 0.178597 0.142054
Si Si5 0.908196 0.520278 0.185330
Si Si6 0.000000 0.778418 0.750000
Si Si7 0.866770 0.057644 0.599921
Si Si8 0.469877 0.287960 0.431817
O O1 0.358231 0.912379 0.547100
O O2 0.321295 0.936343 0.676794
O O3 0.125489 0.834486 0.723300
O O4 0.438415 0.784046 0.576776
O O5 0.732963 0.628339 0.008432
O O6 0.034444 0.578199 0.862835
O O7 0.918143 0.738826 0.965848
O O8 0.100718 0.723466 0.650412
O O9 0.307224 0.621419 0.582526
O O10 0.500000 0.189522 0.250000
O O11 0.554292 0.082314 0.133644
O O12 0.529491 0.255920 0.133533
O O13 0.786274 0.193000 0.051084
O O14 0.775048 0.508007 0.304449
O O15 0.935600 0.117725 0.615409
O O16 0.000000 0.000000 0.500000
#
# Coordination Sequence:
#
# PCOD8132734 Si02
#       8
#     8   8   8   8   8   4   8   8
#     4  10  22  43  64  98 132 177 216 270 329 397
#     4  10  21  38  64  90 129 170 214 260 323 393
#     4  10  22  39  63  97 126 179 211 264 333 396
#     4  10  23  44  69  94 127 178 220 272 331 384
#     4  11  25  40  68  97 130 175 223 274 331 388
#     4  10  18  40  66  88 142 166 220 256 326 404
#     4  12  25  42  65 100 134 163 223 283 325 387
#     4  10  22  45  65  94 132 169 222 273 321 399
#
# _framework density 20.786020000000001
#
# number of rings (size 3 to 8) (size 9 to 14) (size 15 to 20)
#    0.000    1.600    2.667    2.000    3.733    4.267 
#    4.800    1.333    0.000    0.000    0.000    0.000 
#    0.000    0.000    0.000    0.000    0.000    0.000 
#
# Total GULP energy -371694.095997 kJ/mol
# GULP energy per Si atom -12389.803200 kJ/mol
# Density = 2.073871 g / cm^3
# Si number density = 20.786020 Si / 1000 Ang^3
#
#
#
# Elastic Constant Matrix: (Units=GPa)
#
#
# Indices 1 2 3 4 5 6 
#
# 1 131.5156 58.0789 50.1821 0.0001 0.6967 0.0001
# 2 58.0789 99.5971 58.6217 -0.0006 1.6225 0.0001
# 3 50.1821 58.6217 116.5257 -0.0014 -0.1921 0.0004
# 4 0.0001 -0.0006 -0.0014 38.8130 0.0003 7.0122
# 5 0.6967 1.6225 -0.1921 0.0003 37.2191 -0.0001
# 6 0.0001 0.0001 0.0004 7.0122 -0.0001 26.5359
#
#
#
# Elastic Compliance Matrix: (Units=1/GPa)
#
#
# Indices 1 2 3 4 5 6 
#
# 1 0.010579 -0.004955 -0.002063 0.000000 0.000007 0.000000
# 2 -0.004955 0.016601 -0.006219 0.000000 -0.000663 0.000000
# 3 -0.002063 -0.006219 0.012600 0.000000 0.000375 0.000000
# 4 0.000000 0.000000 0.000000 0.027056 0.000000 -0.007150
# 5 0.000007 -0.000663 0.000375 0.000000 0.026899 0.000000
# 6 0.000000 0.000000 0.000000 -0.007150 0.000000 0.039574
#
#
# Mechanical properties :
#
#
# Convention : Reuss Voigt Hill
#
# Bulk Modulus (GPa) = 75.15568 75.71153 75.43360
# Shear Modulus (GPa) = 30.44743 32.56397 31.50570
#
# Velocity S-wave (km/s) = 3.83143 3.96236 3.89744
# Velocity P-wave (km/s) = 7.47050 7.57872 7.52481
#
# Compressibility (1/GPa) = 0.01330571
#
# Stress axis : x y z
#
# Youngs Moduli (GPa) = 94.52734 60.23760 79.36797
#
# Poissons Ratio (x) = 0.29846 0.16375
# Poissons Ratio (y) = 0.46836 0.49358
# Poissons Ratio (z) = 0.19503 0.37461
#
# Static dielectric constant tensor:
#      x y z
#    x 4.125850 0.000000 0.070620 
#    y 0.000000 3.741220 0.000000 
#    z 0.070620 0.000000 3.636860 
# 
# 
# High freq. dielectric constant tensor:
#      x y z
#    x 1.837500 0.000000 0.009050 
#    y 0.000000 1.806160 0.000000 
#    z 0.009050 0.000000 1.799900 
# 
# From -- ./inp_files/296678.got.cif
#   From: 2010.06.25/outbox.cif.g09.slc.cpg/sg15_149_cif.got.tgz:296678.got - 2010.06.28 07:06:18.
