data_PCOD8132016
_publ_section_title
;
Structure prediction by ZEFSAII (Michael W. Deem and Ramdas Pophale) SiO2 
 PCOD8132016
Probable space group: C 2/C
;
_chemical_formula_sum "Si O2"
_cell_formula_units_Z 64
_cell_length_a 12.203150
_cell_length_b 15.638098
_cell_length_c 17.595675
_cell_angle_alpha 90.000000
_cell_angle_beta 92.657949
_cell_angle_gamma 90.000000
_cell_volume 3354.241571
_symmetry_space_group_name_H-M "C 2/C"
_symmetry_group_IT_number 15
_symmetry_cell_setting 'monoclinic'
loop_
_space_group_symop_operation_xyz
x,y,z
-x,y,1/2-z
-x,-y,-z
x,-y,1/2+z
1/2+x,1/2+y,z
1/2-x,1/2+y,1/2-z
1/2-x,1/2-y,-z
1/2+x,1/2-y,1/2+z
loop_
_atom_site_type_symbol
_atom_site_label
_atom_site_fract_x
_atom_site_fract_y
_atom_site_fract_z
Si Si1 0.585124 0.094906 0.158266
Si Si2 0.262894 0.059070 0.471839
Si Si3 0.651065 0.030883 0.311879
Si Si4 0.039084 0.206279 0.667547
Si Si5 0.578089 0.262747 0.481604
Si Si6 0.851074 0.780178 0.555786
Si Si7 0.759734 0.384154 0.541624
Si Si8 0.770368 0.636546 0.635446
O O1 0.632613 0.070678 0.078516
O O2 0.668188 0.069298 0.228660
O O3 0.472433 0.043645 0.163167
O O4 0.570463 0.195257 0.165902
O O5 0.161057 0.116502 0.434979
O O6 0.293686 0.091772 0.555785
O O7 0.237383 0.958238 0.478264
O O8 0.733943 0.077617 0.373083
O O9 0.677132 0.929532 0.303202
O O10 0.141891 0.147696 0.648256
O O11 0.000000 0.178681 0.750000
O O12 0.942737 0.193609 0.601836
O O13 0.464328 0.253279 0.521905
O O14 0.657133 0.320599 0.535141
O O15 0.628962 0.168055 0.473506
O O16 0.750000 0.750000 0.500000
O O17 0.833798 0.728660 0.635045
#
# Coordination Sequence:
#
# PCOD8132016 Si02
#       8
#     8   8   8   8   8   8   8   8
#     4  11  20  37  64  88 118 156 210 255 304 367
#     4  10  20  35  59  90 113 154 198 249 299 352
#     4  10  22  38  57  88 121 157 196 254 307 361
#     4  12  20  37  63  87 115 164 203 250 310 369
#     4  11  21  38  56  90 121 158 208 245 306 358
#     4  10  18  35  59  84 116 149 197 250 297 354
#     4  10  23  36  57  88 125 159 200 255 294 366
#     4  10  21  36  58  91 116 146 198 257 304 353
#
# _framework density 19.080318999999999
#
# number of rings (size 3 to 8) (size 9 to 14) (size 15 to 20)
#    0.000    1.500    6.250    0.750    1.750    2.500 
#    0.000    0.000    0.000    0.000    0.000    0.000 
#    0.000    0.000    0.000    0.000    0.000    0.000 
#
# Total GULP energy -396593.479551 kJ/mol
# GULP energy per Si atom -12393.546236 kJ/mol
# Density = 1.903689 g / cm^3
# Si number density = 19.080319 Si / 1000 Ang^3
#
#
#
# Elastic Constant Matrix: (Units=GPa)
#
#
# Indices 1 2 3 4 5 6 
#
# 1 94.9723 40.6105 36.2783 0.0000 -7.7300 0.0000
# 2 40.6105 92.7588 20.5444 0.0000 6.9730 0.0000
# 3 36.2783 20.5444 85.7806 0.0000 -4.2216 0.0000
# 4 0.0000 0.0000 0.0000 10.5186 0.0000 2.6294
# 5 -7.7300 6.9730 -4.2216 0.0000 30.5337 0.0000
# 6 0.0000 0.0000 0.0000 2.6294 0.0000 29.7143
#
#
#
# Elastic Compliance Matrix: (Units=1/GPa)
#
#
# Indices 1 2 3 4 5 6 
#
# 1 0.015294 -0.005974 -0.004813 0.000000 0.004571 0.000000
# 2 -0.005974 0.013997 -0.001065 0.000000 -0.004856 0.000000
# 3 -0.004813 -0.001065 0.013995 0.000000 0.000960 0.000000
# 4 0.000000 0.000000 0.000000 0.097220 0.000000 -0.008603
# 5 0.004571 -0.004856 0.000960 0.000000 0.035149 0.000000
# 6 0.000000 0.000000 0.000000 -0.008603 0.000000 0.034415
#
#
# Mechanical properties :
#
#
# Convention : Reuss Voigt Hill
#
# Bulk Modulus (GPa) = 51.06170 52.04200 51.55185
# Shear Modulus (GPa) = 20.80729 25.89191 23.34960
#
# Velocity S-wave (km/s) = 3.30587 3.68774 3.50201
# Velocity P-wave (km/s) = 6.43360 6.74292 6.59008
#
# Compressibility (1/GPa) = 0.01958415
#
# Stress axis : x y z
#
# Youngs Moduli (GPa) = 65.38492 71.44484 71.45286
#
# Poissons Ratio (x) = 0.42678 0.34387
# Poissons Ratio (y) = 0.39058 0.07609
# Poissons Ratio (z) = 0.31467 0.07608
#
# Static dielectric constant tensor:
#      x y z
#    x 3.421780 0.000000 0.013890 
#    y 0.000000 4.229610 0.000000 
#    z 0.013890 0.000000 3.689500 
# 
# 
# High freq. dielectric constant tensor:
#      x y z
#    x 1.724350 0.000000 -0.009850 
#    y 0.000000 1.751000 0.000000 
#    z -0.009850 0.000000 1.726210 
# 
# From -- ./inp_files/198320.got.cif
#   From: 2010.06.25/outbox.cif.g09.slc.cpg/sg15_100_cif.got.tgz:198320.got - 2010.06.28 07:06:18.
