data_PCOD8132359
_publ_section_title
;
Structure prediction by ZEFSAII (Michael W. Deem and Ramdas Pophale) SiO2 
 PCOD8132359
Probable space group: C 2/C
;
_chemical_formula_sum "Si O2"
_cell_formula_units_Z 52
_cell_length_a 27.600922
_cell_length_b 8.752558
_cell_length_c 12.094229
_cell_angle_alpha 90.000000
_cell_angle_beta 125.042157
_cell_angle_gamma 90.000000
_cell_volume 2392.089206
_symmetry_space_group_name_H-M "C 2/C"
_symmetry_group_IT_number 15
_symmetry_cell_setting 'monoclinic'
loop_
_space_group_symop_operation_xyz
x,y,z
-x,y,1/2-z
-x,-y,-z
x,-y,1/2+z
1/2+x,1/2+y,z
1/2-x,1/2+y,1/2-z
1/2-x,1/2-y,-z
1/2+x,1/2-y,1/2+z
loop_
_atom_site_type_symbol
_atom_site_label
_atom_site_fract_x
_atom_site_fract_y
_atom_site_fract_z
Si Si1 0.458950 0.672328 0.469793
Si Si2 0.914149 0.843640 0.417430
Si Si3 0.348407 0.202025 0.756891
Si Si4 0.374368 0.415431 0.591142
Si Si5 0.000000 0.058796 0.750000
Si Si6 0.328747 0.141321 0.169670
Si Si7 0.700959 0.706362 0.078399
O O1 0.417178 0.523565 0.386995
O O2 0.516419 0.693120 0.468151
O O3 0.415765 0.813629 0.390654
O O4 0.480742 0.667632 0.624462
O O5 0.878426 0.816621 0.483681
O O6 0.885344 0.739206 0.285274
O O7 0.344105 0.313532 0.645788
O O8 0.308076 0.264648 0.803713
O O9 0.330091 0.035415 0.697824
O O10 0.442186 0.461759 0.711344
O O11 0.330544 0.554665 0.508534
O O12 0.271058 0.207390 0.153661
O O13 0.325600 0.157757 0.032560
#
# Coordination Sequence:
#
# PCOD8132359 Si02
#       7
#     8   8   8   8   4   8   8
#     4  10  20  38  72  98 126 178 228 263 334 393
#     4  10  21  42  68  98 134 177 219 281 317 403
#     4  12  25  42  71 103 128 177 221 279 341 393
#     4  11  23  40  70  99 131 174 232 267 327 401
#     4  10  18  36  68 102 132 166 222 278 310 406
#     4  11  28  44  66  94 143 170 225 279 344 382
#     4  11  26  47  66  96 134 183 219 276 328 407
#
# _framework density 21.738320999999999
#
# number of rings (size 3 to 8) (size 9 to 14) (size 15 to 20)
#    0.000    1.231    3.077    4.615    4.308    2.462 
#    0.000    0.000    3.385    0.000    0.000    0.000 
#    0.000    0.000    0.000    0.000    0.000    0.000 
#
# Total GULP energy -322233.072677 kJ/mol
# GULP energy per Si atom -12393.579718 kJ/mol
# Density = 2.168884 g / cm^3
# Si number density = 21.738321 Si / 1000 Ang^3
#
#
#
# Elastic Constant Matrix: (Units=GPa)
#
#
# Indices 1 2 3 4 5 6 
#
# 1 101.0470 27.2918 25.7051 0.0000 -24.8708 0.0000
# 2 27.2918 85.0294 61.6977 0.0000 -12.7921 0.0000
# 3 25.7051 61.6977 73.6524 0.0000 -19.4405 0.0000
# 4 0.0000 0.0000 0.0000 28.4249 0.0000 -1.4025
# 5 -24.8708 -12.7921 -19.4405 0.0000 45.1658 0.0000
# 6 0.0000 0.0000 0.0000 -1.4025 0.0000 22.1177
#
#
#
# Elastic Compliance Matrix: (Units=1/GPa)
#
#
# Indices 1 2 3 4 5 6 
#
# 1 0.012154 -0.002699 -0.000470 0.000000 0.005726 0.000000
# 2 -0.002699 0.030865 -0.025946 0.000000 -0.003912 0.000000
# 3 -0.000470 -0.025946 0.037757 0.000000 0.008645 0.000000
# 4 0.000000 0.000000 0.000000 0.035291 0.000000 0.002238
# 5 0.005726 -0.003912 0.008645 0.000000 0.027907 0.000000
# 6 0.000000 0.000000 0.000000 0.002238 0.000000 0.045355
#
#
# Mechanical properties :
#
#
# Convention : Reuss Voigt Hill
#
# Bulk Modulus (GPa) = 44.35013 54.34646 49.34829
# Shear Modulus (GPa) = 19.60230 28.81061 24.20646
#
# Velocity S-wave (km/s) = 3.00616 3.64447 3.34059
# Velocity P-wave (km/s) = 5.70047 6.53943 6.13431
#
# Compressibility (1/GPa) = 0.02254785
#
# Stress axis : x y z
#
# Youngs Moduli (GPa) = 82.27608 32.39965 26.48503
#
# Poissons Ratio (x) = 0.08744 0.01244
# Poissons Ratio (y) = 0.22205 0.68717
# Poissons Ratio (z) = 0.03864 0.84063
#
# Static dielectric constant tensor:
#      x y z
#    x 4.274150 0.000000 -0.066790 
#    y 0.000000 3.612010 0.000000 
#    z -0.066790 0.000000 4.107750 
# 
# 
# High freq. dielectric constant tensor:
#      x y z
#    x 1.872820 0.000000 -0.006220 
#    y 0.000000 1.810000 0.000000 
#    z -0.006220 0.000000 1.872600 
# 
# From -- ./inp_files/122056.got.cif
#   From: 2010.06.25/outbox.cif.g09.slc.cpg/sg15_62_cif.got.tgz:122056.got - 2010.06.28 07:06:18.
