data_PCOD8132948
_publ_section_title
;
Structure prediction by ZEFSAII (Michael W. Deem and Ramdas Pophale) SiO2 
 PCOD8132948
Probable space group: C 2/C
;
_chemical_formula_sum "Si O2"
_cell_formula_units_Z 40
_cell_length_a 11.600174
_cell_length_b 33.582972
_cell_length_c 5.281820
_cell_angle_alpha 90.000000
_cell_angle_beta 66.563545
_cell_angle_gamma 90.000000
_cell_volume 1887.878886
_symmetry_space_group_name_H-M "C 2/C"
_symmetry_group_IT_number 15
_symmetry_cell_setting 'monoclinic'
loop_
_space_group_symop_operation_xyz
x,y,z
-x,y,1/2-z
-x,-y,-z
x,-y,1/2+z
1/2+x,1/2+y,z
1/2-x,1/2+y,1/2-z
1/2-x,1/2-y,-z
1/2+x,1/2-y,1/2+z
loop_
_atom_site_type_symbol
_atom_site_label
_atom_site_fract_x
_atom_site_fract_y
_atom_site_fract_z
Si Si1 0.363332 0.048820 0.839022
Si Si2 0.362680 0.512861 0.995095
Si Si3 0.219846 0.586974 0.103603
Si Si4 0.644388 0.283146 0.629244
Si Si5 0.357659 0.333195 0.370392
O O1 0.500000 0.028840 0.750000
O O2 0.351706 0.070137 0.578579
O O3 0.264225 0.012890 0.968408
O O4 0.357384 0.082889 0.066649
O O5 0.434658 0.490923 0.163430
O O6 0.341151 0.559419 0.055829
O O7 0.260439 0.631625 0.009112
O O8 0.500000 0.266455 0.750000
O O9 0.750000 0.250000 0.500000
O O10 0.666750 0.315058 0.386176
O O11 0.665675 0.301256 0.888513
O O12 0.500000 0.349565 0.250000
#
# Coordination Sequence:
#
# PCOD8132948 Si02
#       5
#     8   8   8   8   8
#     4  10  19  31  48  71 105 148 185 220 270 325
#     4   8  16  27  44  66  96 135 179 220 259 306
#     4  10  19  32  50  74 104 136 179 224 260 314
#     4  10  21  40  65  89 114 146 182 220 270 334
#     4  10  21  38  60  82 107 143 180 220 275 331
#
# _framework density 21.187798999999998
#
# number of rings (size 3 to 8) (size 9 to 14) (size 15 to 20)
#    0.000    2.400    0.000    2.400    0.000    7.200 
#    0.000    6.000    0.000   10.800    0.000    0.000 
#    0.000    0.000    0.000    0.000    0.000    0.000 
#
# Total GULP energy -247802.508400 kJ/mol
# GULP energy per Si atom -12390.125420 kJ/mol
# Density = 2.113957 g / cm^3
# Si number density = 21.187799 Si / 1000 Ang^3
#
#
#
# Elastic Constant Matrix: (Units=GPa)
#
#
# Indices 1 2 3 4 5 6 
#
# 1 85.3559 35.0723 24.1657 0.0000 -14.3868 0.0000
# 2 35.0723 74.1270 13.3029 0.0000 -9.5888 0.0000
# 3 24.1657 13.3029 121.5924 0.0000 21.0627 0.0000
# 4 0.0000 0.0000 0.0000 24.2103 0.0000 7.8945
# 5 -14.3868 -9.5888 21.0627 0.0000 36.3942 0.0000
# 6 0.0000 0.0000 0.0000 7.8945 0.0000 7.5465
#
#
#
# Elastic Compliance Matrix: (Units=1/GPa)
#
#
# Indices 1 2 3 4 5 6 
#
# 1 0.016565 -0.006224 -0.003847 0.000000 0.007135 0.000000
# 2 -0.006224 0.016969 -0.001076 0.000000 0.002633 0.000000
# 3 -0.003847 -0.001076 0.010468 0.000000 -0.007863 0.000000
# 4 0.000000 0.000000 0.000000 0.062688 0.000000 -0.065578
# 5 0.007135 0.002633 -0.007863 0.000000 0.035541 0.000000
# 6 0.000000 0.000000 0.000000 -0.065578 0.000000 0.201112
#
#
# Mechanical properties :
#
#
# Convention : Reuss Voigt Hill
#
# Bulk Modulus (GPa) = 46.06481 47.35081 46.70781
# Shear Modulus (GPa) = 13.40936 27.53251 20.47093
#
# Velocity S-wave (km/s) = 2.51844 3.60870 3.11169
# Velocity P-wave (km/s) = 5.49956 6.30558 5.91631
#
# Compressibility (1/GPa) = 0.02170855
#
# Stress axis : x y z
#
# Youngs Moduli (GPa) = 60.36870 58.93159 95.52501
#
# Poissons Ratio (x) = 0.36680 0.36750
# Poissons Ratio (y) = 0.37574 0.10274
# Poissons Ratio (z) = 0.23225 0.06338
#
# Static dielectric constant tensor:
#      x y z
#    x 3.925690 0.000000 0.129140 
#    y 0.000000 3.420440 0.000000 
#    z 0.129140 0.000000 4.715150 
# 
# 
# High freq. dielectric constant tensor:
#      x y z
#    x 1.845120 0.000000 0.007420 
#    y 0.000000 1.790050 0.000000 
#    z 0.007420 0.000000 1.885960 
# 
# From -- ./inp_files/5693.got.cif
#   From: 2010.06.25/outbox.cif.g09.slc.cpg/sg15_3_cif.got.tgz:5693.got - 2010.06.28 07:06:18.
