data_PCOD8132692
_publ_section_title
;
Structure prediction by ZEFSAII (Michael W. Deem and Ramdas Pophale) SiO2 
 PCOD8132692
Probable space group: C 2/C
;
_chemical_formula_sum "Si O2"
_cell_formula_units_Z 60
_cell_length_a 16.290424
_cell_length_b 9.024215
_cell_length_c 25.904109
_cell_angle_alpha 90.000000
_cell_angle_beta 129.829221
_cell_angle_gamma 90.000000
_cell_volume 2924.471308
_symmetry_space_group_name_H-M "C 2/C"
_symmetry_group_IT_number 15
_symmetry_cell_setting 'monoclinic'
loop_
_space_group_symop_operation_xyz
x,y,z
-x,y,1/2-z
-x,-y,-z
x,-y,1/2+z
1/2+x,1/2+y,z
1/2-x,1/2+y,1/2-z
1/2-x,1/2-y,-z
1/2+x,1/2-y,1/2+z
loop_
_atom_site_type_symbol
_atom_site_label
_atom_site_fract_x
_atom_site_fract_y
_atom_site_fract_z
Si Si1 0.379137 0.970146 0.434598
Si Si2 0.286239 0.978291 0.208907
Si Si3 0.027409 0.260761 0.865934
Si Si4 0.799067 0.586298 0.011586
Si Si5 0.100275 0.146446 0.077997
Si Si6 0.500000 0.115001 0.250000
Si Si7 0.698371 0.831914 0.687378
Si Si8 0.905920 0.017363 0.534296
O O1 0.304708 0.963012 0.454814
O O2 0.369991 0.816066 0.399421
O O3 0.500000 0.000000 0.500000
O O4 0.331051 0.096877 0.379274
O O5 0.283132 0.799834 0.211823
O O6 0.194328 0.036300 0.133147
O O7 0.404564 0.016096 0.235579
O O8 0.259762 0.048058 0.254441
O O9 0.082982 0.405061 0.915576
O O10 0.072835 0.105108 0.903882
O O11 0.047521 0.276966 0.812975
O O12 0.903740 0.255102 0.828929
O O13 0.750000 0.750000 0.000000
O O14 0.719648 0.471256 0.010259
O O15 0.078055 0.126633 0.008052
O O16 0.988037 0.118218 0.062675
#
# Coordination Sequence:
#
# PCOD8132692 Si02
#       8
#     8   8   8   8   8   4   8   8
#     4  12  23  40  66  96 132 179 213 274 335 388
#     4  11  24  44  67  96 128 177 220 273 328 405
#     4  10  18  40  58  97 124 168 209 266 315 391
#     4  10  19  37  61  93 132 161 216 266 319 385
#     4  11  21  38  66  95 126 174 223 262 335 383
#     4  10  24  36  72  92 132 174 218 272 342 386
#     4  11  23  43  66  92 132 169 223 263 329 402
#     4  10  20  35  63  94 131 161 215 274 307 391
#
# _framework density 20.516528999999998
#
# number of rings (size 3 to 8) (size 9 to 14) (size 15 to 20)
#    0.000    1.333    5.333    1.600    3.733    0.000 
#    0.000    4.667    0.000    0.800    0.000    0.000 
#    0.000    0.000    0.000    0.000    0.000    0.000 
#
# Total GULP energy -371869.147561 kJ/mol
# GULP energy per Si atom -12395.638252 kJ/mol
# Density = 2.046983 g / cm^3
# Si number density = 20.516529 Si / 1000 Ang^3
#
#
#
# Elastic Constant Matrix: (Units=GPa)
#
#
# Indices 1 2 3 4 5 6 
#
# 1 122.3965 33.5762 27.9831 0.0000 -7.0719 0.0000
# 2 33.5762 87.3536 34.4775 0.0000 -13.4990 0.0000
# 3 27.9831 34.4775 97.6591 0.0000 -21.4524 0.0000
# 4 0.0000 0.0000 0.0000 34.6134 0.0000 0.7569
# 5 -7.0719 -13.4990 -21.4524 0.0000 37.7751 0.0000
# 6 0.0000 0.0000 0.0000 0.7569 0.0000 23.8543
#
#
#
# Elastic Compliance Matrix: (Units=1/GPa)
#
#
# Indices 1 2 3 4 5 6 
#
# 1 0.009356 -0.002970 -0.001692 0.000000 -0.000271 0.000000
# 2 -0.002970 0.014435 -0.003695 0.000000 0.002504 0.000000
# 3 -0.001692 -0.003695 0.013332 0.000000 0.005934 0.000000
# 4 0.000000 0.000000 0.000000 0.028911 0.000000 -0.000917
# 5 -0.000271 0.002504 0.005934 0.000000 0.030687 0.000000
# 6 0.000000 0.000000 0.000000 -0.000917 0.000000 0.041950
#
#
# Mechanical properties :
#
#
# Convention : Reuss Voigt Hill
#
# Bulk Modulus (GPa) = 48.99690 55.49810 52.24750
# Shear Modulus (GPa) = 30.82844 33.34005 32.08424
#
# Velocity S-wave (km/s) = 3.88056 4.03554 3.95881
# Velocity P-wave (km/s) = 6.63414 6.98737 6.81305
#
# Compressibility (1/GPa) = 0.02040945
#
# Stress axis : x y z
#
# Youngs Moduli (GPa) = 106.88173 69.27747 75.00488
#
# Poissons Ratio (x) = 0.20578 0.12688
# Poissons Ratio (y) = 0.31748 0.27713
# Poissons Ratio (z) = 0.18081 0.25597
#
# Static dielectric constant tensor:
#      x y z
#    x 4.065190 0.000000 0.196330 
#    y 0.000000 3.461910 0.000000 
#    z 0.196330 0.000000 4.091570 
# 
# 
# High freq. dielectric constant tensor:
#      x y z
#    x 1.811370 0.000000 0.002110 
#    y 0.000000 1.767130 0.000000 
#    z 0.002110 0.000000 1.809400 
# 
# From -- ./inp_files/298404.got.cif
#   From: 2010.06.25/outbox.cif.g09.slc.cpg/sg15_150_cif.got.tgz:298404.got - 2010.06.28 07:06:18.
