data_PCOD8132833
_publ_section_title
;
Structure prediction by ZEFSAII (Michael W. Deem and Ramdas Pophale) SiO2 
 PCOD8132833
Probable space group: C 2/C
;
_chemical_formula_sum "Si O2"
_cell_formula_units_Z 52
_cell_length_a 12.507642
_cell_length_b 26.662951
_cell_length_c 14.457511
_cell_angle_alpha 90.000000
_cell_angle_beta 141.197904
_cell_angle_gamma 90.000000
_cell_volume 3021.273069
_symmetry_space_group_name_H-M "C 2/C"
_symmetry_group_IT_number 15
_symmetry_cell_setting 'monoclinic'
loop_
_space_group_symop_operation_xyz
x,y,z
-x,y,1/2-z
-x,-y,-z
x,-y,1/2+z
1/2+x,1/2+y,z
1/2-x,1/2+y,1/2-z
1/2-x,1/2-y,-z
1/2+x,1/2-y,1/2+z
loop_
_atom_site_type_symbol
_atom_site_label
_atom_site_fract_x
_atom_site_fract_y
_atom_site_fract_z
Si Si1 0.990479 0.501820 0.640125
Si Si2 0.238618 0.990707 0.319001
Si Si3 0.500000 0.559664 0.250000
Si Si4 0.069558 0.688890 0.969530
Si Si5 0.411802 0.284642 0.787513
Si Si6 0.155159 0.400757 0.211540
Si Si7 0.319340 0.362684 0.505611
O O1 0.811178 0.488420 0.472770
O O2 0.000000 0.478980 0.750000
O O3 0.137933 0.479952 0.670844
O O4 0.011370 0.562357 0.657912
O O5 0.218138 0.932942 0.270625
O O6 0.068693 0.023807 0.213256
O O7 0.646866 0.593353 0.396482
O O8 0.209864 0.702721 0.142495
O O9 0.171697 0.674083 0.944651
O O10 0.943784 0.736039 0.871935
O O11 0.943894 0.642835 0.911789
O O12 0.500000 0.272700 0.750000
O O13 0.504228 0.333100 0.892634
O O14 0.268865 0.380779 0.371045
#
# Coordination Sequence:
#
# PCOD8132833 Si02
#       7
#     8   8   4   8   8   8   8
#     4   9  17  34  51  71  97 137 183 218 270 305
#     4   9  22  31  51  73 101 138 188 224 255 310
#     4  12  20  36  48  72 110 142 188 214 258 296
#     4  11  18  31  47  70 102 137 171 211 256 325
#     4  10  19  28  44  72 101 134 172 204 256 325
#     4  10  19  31  48  69  96 139 175 208 258 302
#     4  11  20  29  49  68 102 143 170 212 259 313
#
# _framework density 17.211288
#
# number of rings (size 3 to 8) (size 9 to 14) (size 15 to 20)
#    0.923    0.923    2.308    6.923    0.000    0.615 
#    0.000    0.000    0.000    0.000    0.000    0.000 
#    0.000    4.923    0.154    0.154    0.000    0.000 
#
# Total GULP energy -322096.480846 kJ/mol
# GULP energy per Si atom -12388.326186 kJ/mol
# Density = 1.717211 g / cm^3
# Si number density = 17.211288 Si / 1000 Ang^3
#
#
#
# Elastic Constant Matrix: (Units=GPa)
#
#
# Indices 1 2 3 4 5 6 
#
# 1 45.3517 23.7285 23.5072 0.0000 -7.3912 0.0000
# 2 23.7285 102.9563 52.6957 0.0000 3.1790 0.0000
# 3 23.5072 52.6957 104.9545 0.0000 -7.8842 0.0000
# 4 0.0000 0.0000 0.0000 29.3164 0.0000 -3.2552
# 5 -7.3912 3.1790 -7.8842 0.0000 20.1082 0.0000
# 6 0.0000 0.0000 0.0000 -3.2552 0.0000 20.0024
#
#
#
# Elastic Compliance Matrix: (Units=1/GPa)
#
#
# Indices 1 2 3 4 5 6 
#
# 1 0.027918 -0.005283 -0.002851 0.000000 0.009980 0.000000
# 2 -0.005283 0.014534 -0.006627 0.000000 -0.006838 0.000000
# 3 -0.002851 -0.006627 0.013903 0.000000 0.005451 0.000000
# 4 0.000000 0.000000 0.000000 0.034738 0.000000 0.005653
# 5 0.009980 -0.006838 0.005451 0.000000 0.056618 0.000000
# 6 0.000000 0.000000 0.000000 0.005653 0.000000 0.050914
#
#
# Mechanical properties :
#
#
# Convention : Reuss Voigt Hill
#
# Bulk Modulus (GPa) = 37.26839 50.34723 43.80781
# Shear Modulus (GPa) = 21.08878 24.10747 22.59813
#
# Velocity S-wave (km/s) = 3.50421 3.74662 3.62744
# Velocity P-wave (km/s) = 6.17034 6.93053 6.56145
#
# Compressibility (1/GPa) = 0.02683239
#
# Stress axis : x y z
#
# Youngs Moduli (GPa) = 35.81885 68.80503 71.92461
#
# Poissons Ratio (x) = 0.36353 0.20503
# Poissons Ratio (y) = 0.18925 0.47668
# Poissons Ratio (z) = 0.10210 0.45600
#
# Static dielectric constant tensor:
#      x y z
#    x 2.695630 0.000000 0.066680 
#    y 0.000000 3.285240 0.000000 
#    z 0.066680 0.000000 3.318120 
# 
# 
# High freq. dielectric constant tensor:
#      x y z
#    x 1.590470 0.000000 0.003720 
#    y 0.000000 1.661610 0.000000 
#    z 0.003720 0.000000 1.677640 
# 
# From -- ./inp_files/148411.got.cif
#   From: 2010.06.25/outbox.cif.g09.slc.cpg/sg15_75_cif.got.tgz:148411.got - 2010.06.28 07:06:18.
