data_PCOD8132591
_publ_section_title
;
Structure prediction by ZEFSAII (Michael W. Deem and Ramdas Pophale) SiO2 
 PCOD8132591
Probable space group: C 2/C
;
_chemical_formula_sum "Si O2"
_cell_formula_units_Z 56
_cell_length_a 9.096493
_cell_length_b 16.472111
_cell_length_c 19.782083
_cell_angle_alpha 90.000000
_cell_angle_beta 82.086509
_cell_angle_gamma 90.000000
_cell_volume 2935.889438
_symmetry_space_group_name_H-M "C 2/C"
_symmetry_group_IT_number 15
_symmetry_cell_setting 'monoclinic'
loop_
_space_group_symop_operation_xyz
x,y,z
-x,y,1/2-z
-x,-y,-z
x,-y,1/2+z
1/2+x,1/2+y,z
1/2-x,1/2+y,1/2-z
1/2-x,1/2-y,-z
1/2+x,1/2-y,1/2+z
loop_
_atom_site_type_symbol
_atom_site_label
_atom_site_fract_x
_atom_site_fract_y
_atom_site_fract_z
Si Si1 0.729911 0.514889 0.152183
Si Si2 0.500000 0.881393 0.250000
Si Si3 0.737741 0.010176 0.199143
Si Si4 0.263518 0.693874 0.062524
Si Si5 0.772295 0.332914 0.168172
Si Si6 0.511918 0.123910 0.150921
Si Si7 0.532709 0.453122 0.928358
Si Si8 0.000000 0.237968 0.750000
O O1 0.677208 0.521193 0.234207
O O2 0.755168 0.419875 0.131070
O O3 0.885218 0.562281 0.135484
O O4 0.616511 0.555517 0.106735
O O5 0.634351 0.931714 0.208617
O O6 0.429588 0.827168 0.196133
O O7 0.627149 0.086312 0.198275
O O8 0.849656 0.001585 0.128581
O O9 0.278590 0.754158 0.123137
O O10 0.406416 0.634865 0.053178
O O11 0.110518 0.642996 0.078075
O O12 0.250000 0.750000 0.000000
O O13 0.635242 0.322912 0.227885
O O14 0.453117 0.207043 0.188233
O O15 0.500000 0.500000 0.000000
#
# Coordination Sequence:
#
# PCOD8132591 Si02
#       8
#     8   4   8   8   8   8   8   4
#     4  11  20  38  66  98 115 156 218 259 306 368
#     4  10  19  36  58  95 122 148 206 254 311 366
#     4  10  18  38  65  90 123 155 205 261 299 368
#     4  10  23  45  59  83 127 169 202 254 318 376
#     4  10  22  35  60  89 124 155 196 255 317 360
#     4  10  18  38  66  86 120 164 206 247 305 384
#     4  11  25  40  62  91 124 167 214 256 309 377
#     4  10  19  34  54  91 126 156 186 248 325 358
#
# _framework density 19.074287999999999
#
# number of rings (size 3 to 8) (size 9 to 14) (size 15 to 20)
#    0.000    1.714    4.286    1.286    4.000    1.143 
#    2.571    2.857    0.000    0.000    0.000    0.000 
#    0.000    0.000    0.000    0.000    0.000    0.000 
#
# Total GULP energy -346999.224849 kJ/mol
# GULP energy per Si atom -12392.829459 kJ/mol
# Density = 1.903087 g / cm^3
# Si number density = 19.074288 Si / 1000 Ang^3
#
#
#
# Elastic Constant Matrix: (Units=GPa)
#
#
# Indices 1 2 3 4 5 6 
#
# 1 118.8870 57.8619 62.5544 0.0000 11.5511 0.0000
# 2 57.8619 103.4412 37.1325 0.0000 -2.3888 0.0000
# 3 62.5544 37.1325 111.4050 0.0000 2.3093 0.0000
# 4 0.0000 0.0000 0.0000 27.5463 0.0000 -2.6073
# 5 11.5511 -2.3888 2.3093 0.0000 23.0567 0.0000
# 6 0.0000 0.0000 0.0000 -2.6073 0.0000 30.7713
#
#
#
# Elastic Compliance Matrix: (Units=1/GPa)
#
#
# Indices 1 2 3 4 5 6 
#
# 1 0.015897 -0.006739 -0.006514 0.000000 -0.008010 0.000000
# 2 -0.006739 0.013890 -0.000948 0.000000 0.004910 0.000000
# 3 -0.006514 -0.000948 0.012911 0.000000 0.001872 0.000000
# 4 0.000000 0.000000 0.000000 0.036596 0.000000 0.003101
# 5 -0.008010 0.004910 0.001872 0.000000 0.047705 0.000000
# 6 0.000000 0.000000 0.000000 0.003101 0.000000 0.032761
#
#
# Mechanical properties :
#
#
# Convention : Reuss Voigt Hill
#
# Bulk Modulus (GPa) = 69.94407 72.09233 71.01820
# Shear Modulus (GPa) = 25.91656 28.02049 26.96853
#
# Velocity S-wave (km/s) = 3.69008 3.83694 3.76422
# Velocity P-wave (km/s) = 7.40975 7.58334 7.49705
#
# Compressibility (1/GPa) = 0.01429714
#
# Stress axis : x y z
#
# Youngs Moduli (GPa) = 62.90585 71.99211 77.45361
#
# Poissons Ratio (x) = 0.48514 0.50453
# Poissons Ratio (y) = 0.42391 0.07340
# Poissons Ratio (z) = 0.40977 0.06823
#
# Static dielectric constant tensor:
#      x y z
#    x 3.669410 0.000000 -0.053830 
#    y 0.000000 3.510390 0.000000 
#    z -0.053830 0.000000 3.406170 
# 
# 
# High freq. dielectric constant tensor:
#      x y z
#    x 1.741740 0.000000 -0.004370 
#    y 0.000000 1.745640 0.000000 
#    z -0.004370 0.000000 1.728300 
# 
# From -- ./inp_files/231637.got.cif
#   From: 2010.06.25/outbox.cif.g09.slc.cpg/sg15_116_cif.got.tgz:231637.got - 2010.06.28 07:06:18.
