data_PCOD8132351
_publ_section_title
;
Structure prediction by ZEFSAII (Michael W. Deem and Ramdas Pophale) SiO2 
 PCOD8132351
Probable space group: C 2/C
;
_chemical_formula_sum "Si O2"
_cell_formula_units_Z 48
_cell_length_a 9.538463
_cell_length_b 18.223842
_cell_length_c 14.438254
_cell_angle_alpha 90.000000
_cell_angle_beta 70.688196
_cell_angle_gamma 90.000000
_cell_volume 2368.547432
_symmetry_space_group_name_H-M "C 2/C"
_symmetry_group_IT_number 15
_symmetry_cell_setting 'monoclinic'
loop_
_space_group_symop_operation_xyz
x,y,z
-x,y,1/2-z
-x,-y,-z
x,-y,1/2+z
1/2+x,1/2+y,z
1/2-x,1/2+y,1/2-z
1/2-x,1/2-y,-z
1/2+x,1/2-y,1/2+z
loop_
_atom_site_type_symbol
_atom_site_label
_atom_site_fract_x
_atom_site_fract_y
_atom_site_fract_z
Si Si1 0.536141 0.742151 0.014964
Si Si2 0.838628 0.044472 0.273710
Si Si3 0.173957 0.574995 0.694587
Si Si4 0.228858 0.623685 0.479311
Si Si5 0.612401 0.702175 0.806592
Si Si6 0.130708 0.797095 0.787197
O O1 0.579054 0.828298 0.999603
O O2 0.512783 0.705524 0.920265
O O3 0.648565 0.688453 0.046779
O O4 0.384666 0.737385 0.106580
O O5 0.761131 0.067094 0.388397
O O6 0.879485 0.115621 0.204751
O O7 0.000000 0.003535 0.250000
O O8 0.726423 0.998380 0.235087
O O9 0.214922 0.575222 0.576116
O O10 0.261066 0.640896 0.723796
O O11 0.000000 0.585235 0.750000
O O12 0.500000 0.688301 0.750000
O O13 0.703852 0.778227 0.783855
O O14 0.000000 0.764270 0.750000
#
# Coordination Sequence:
#
# PCOD8132351 Si02
#       6
#     8   8   8   8   8   8
#     4  10  18  36  66  93 118 159 208 251 305 371
#     4  11  22  40  62  95 124 162 206 255 301 365
#     4  11  25  42  61  88 125 169 206 250 309 370
#     4  10  19  38  66  90 120 164 207 249 305 368
#     4  11  23  39  61  94 125 157 204 263 307 357
#     4  11  19  38  66  92 119 160 207 249 308 365
#
# _framework density 20.265585000000002
#
# number of rings (size 3 to 8) (size 9 to 14) (size 15 to 20)
#    0.000    1.333    5.000    4.000    0.000    2.667 
#    3.000    0.000    0.000    0.000    0.000    0.000 
#    0.000    0.000    0.000    0.000    0.000    0.000 
#
# Total GULP energy -297456.247781 kJ/mol
# GULP energy per Si atom -12394.010324 kJ/mol
# Density = 2.021946 g / cm^3
# Si number density = 20.265585 Si / 1000 Ang^3
#
#
#
# Elastic Constant Matrix: (Units=GPa)
#
#
# Indices 1 2 3 4 5 6 
#
# 1 101.5534 36.5067 53.3320 0.0000 10.9862 0.0000
# 2 36.5067 68.7733 45.4154 0.0000 11.9754 0.0000
# 3 53.3320 45.4154 154.0363 0.0000 7.6783 0.0000
# 4 0.0000 0.0000 0.0000 30.2200 0.0000 -1.5511
# 5 10.9862 11.9754 7.6783 0.0000 24.3614 0.0000
# 6 0.0000 0.0000 0.0000 -1.5511 0.0000 19.4293
#
#
#
# Elastic Compliance Matrix: (Units=1/GPa)
#
#
# Indices 1 2 3 4 5 6 
#
# 1 0.013458 -0.004554 -0.003176 0.000000 -0.002830 0.000000
# 2 -0.004554 0.020977 -0.004263 0.000000 -0.006914 0.000000
# 3 -0.003176 -0.004263 0.008811 0.000000 0.000751 0.000000
# 4 0.000000 0.000000 0.000000 0.033227 0.000000 0.002653
# 5 -0.002830 -0.006914 0.000751 0.000000 0.045487 0.000000
# 6 0.000000 0.000000 0.000000 0.002653 0.000000 0.051680
#
#
# Mechanical properties :
#
#
# Convention : Reuss Voigt Hill
#
# Bulk Modulus (GPa) = 51.92128 66.09681 59.00905
# Shear Modulus (GPa) = 24.50411 27.40939 25.95675
#
# Velocity S-wave (km/s) = 3.48105 3.68164 3.58275
# Velocity P-wave (km/s) = 6.46785 7.12451 6.80411
#
# Compressibility (1/GPa) = 0.01925993
#
# Stress axis : x y z
#
# Youngs Moduli (GPa) = 74.30495 47.67050 113.49246
#
# Poissons Ratio (x) = 0.21709 0.36044
# Poissons Ratio (y) = 0.33838 0.48387
# Poissons Ratio (z) = 0.23598 0.20324
#
# Static dielectric constant tensor:
#      x y z
#    x 3.574350 0.000000 -0.125060 
#    y 0.000000 3.512520 0.000000 
#    z -0.125060 0.000000 3.888760 
# 
# 
# High freq. dielectric constant tensor:
#      x y z
#    x 1.761980 0.000000 -0.008440 
#    y 0.000000 1.774880 0.000000 
#    z -0.008440 0.000000 1.812570 
# 
# From -- ./inp_files/135877.got.cif
#   From: 2010.06.25/outbox.cif.g09.slc.cpg/sg15_68_cif.got.tgz:135877.got - 2010.06.28 07:06:18.
