data_PCOD8132128
_publ_section_title
;
Structure prediction by ZEFSAII (Michael W. Deem and Ramdas Pophale) SiO2 
 PCOD8132128
Probable space group: C 2/C
;
_chemical_formula_sum "Si O2"
_cell_formula_units_Z 44
_cell_length_a 18.891830
_cell_length_b 27.235848
_cell_length_c 9.883367
_cell_angle_alpha 90.000000
_cell_angle_beta 152.141200
_cell_angle_gamma 90.000000
_cell_volume 2376.349107
_symmetry_space_group_name_H-M "C 2/C"
_symmetry_group_IT_number 15
_symmetry_cell_setting 'monoclinic'
loop_
_space_group_symop_operation_xyz
x,y,z
-x,y,1/2-z
-x,-y,-z
x,-y,1/2+z
1/2+x,1/2+y,z
1/2-x,1/2+y,1/2-z
1/2-x,1/2-y,-z
1/2+x,1/2-y,1/2+z
loop_
_atom_site_type_symbol
_atom_site_label
_atom_site_fract_x
_atom_site_fract_y
_atom_site_fract_z
Si Si1 0.816333 0.957037 0.802823
Si Si2 0.457827 0.698069 0.533830
Si Si3 0.664571 0.543000 0.856574
Si Si4 0.500000 0.207435 0.250000
Si Si5 0.669797 0.146171 0.080899
Si Si6 0.747735 0.849469 0.021177
O O1 0.708159 0.909891 0.605580
O O2 0.763064 0.001577 0.617704
O O3 0.806433 0.974234 0.941221
O O4 0.986314 0.945294 0.040233
O O5 0.500000 0.672396 0.750000
O O6 0.459636 0.757366 0.553098
O O7 0.291685 0.679966 0.205389
O O8 0.594100 0.677718 0.671785
O O9 0.747855 0.592348 0.952745
O O10 0.637144 0.172287 0.445868
O O11 0.687043 0.160452 0.267228
O O12 0.500000 0.159105 0.750000
#
# Coordination Sequence:
#
# PCOD8132128 Si02
#       6
#     8   8   8   4   8   8
#     4   9  17  33  53  82 104 148 183 225 267 330
#     4   8  17  32  58  75  99 139 182 220 262 325
#     4   9  17  32  58  78 108 142 191 221 268 329
#     4  10  20  32  60  84 102 134 190 236 264 308
#     4  10  19  34  54  79 109 143 179 218 275 329
#     4  10  18  36  56  80 105 141 185 224 266 329
#
# _framework density 18.515796999999999
#
# number of rings (size 3 to 8) (size 9 to 14) (size 15 to 20)
#    0.545    2.182    1.818    0.545    0.000    0.000 
#    4.909    2.727    0.000    0.000    0.000    0.000 
#    0.000    0.000    0.000    0.000    0.000    0.000 
#
# Total GULP energy -272571.026441 kJ/mol
# GULP energy per Si atom -12389.592111 kJ/mol
# Density = 1.847365 g / cm^3
# Si number density = 18.515797 Si / 1000 Ang^3
#
#
#
# Elastic Constant Matrix: (Units=GPa)
#
#
# Indices 1 2 3 4 5 6 
#
# 1 63.0073 55.0175 33.0252 0.0000 21.3302 0.0000
# 2 55.0175 106.7071 39.9406 0.0000 13.9195 0.0000
# 3 33.0252 39.9406 113.5943 0.0000 21.8719 0.0000
# 4 0.0000 0.0000 0.0000 21.6654 0.0000 5.2461
# 5 21.3302 13.9195 21.8719 0.0000 27.0020 0.0000
# 6 0.0000 0.0000 0.0000 5.2461 0.0000 26.0432
#
#
#
# Elastic Compliance Matrix: (Units=1/GPa)
#
#
# Indices 1 2 3 4 5 6 
#
# 1 0.037623 -0.016261 -0.001318 0.000000 -0.020270 0.000000
# 2 -0.016261 0.018022 -0.002717 0.000000 0.005756 0.000000
# 3 -0.001318 -0.002717 0.011459 0.000000 -0.006840 0.000000
# 4 0.000000 0.000000 0.000000 0.048523 0.000000 -0.009774
# 5 -0.020270 0.005756 -0.006840 0.000000 0.055620 0.000000
# 6 0.000000 0.000000 0.000000 -0.009774 0.000000 0.040367
#
#
# Mechanical properties :
#
#
# Convention : Reuss Voigt Hill
#
# Bulk Modulus (GPa) = 37.71932 59.91945 48.81939
# Shear Modulus (GPa) = 19.15404 25.29714 22.22559
#
# Velocity S-wave (km/s) = 3.21981 3.70029 3.46838
# Velocity P-wave (km/s) = 5.85137 7.11953 6.51637
#
# Compressibility (1/GPa) = 0.02651161
#
# Stress axis : x y z
#
# Youngs Moduli (GPa) = 26.57973 55.48910 87.26905
#
# Poissons Ratio (x) = 0.90228 0.11500
# Poissons Ratio (y) = 0.43220 0.23714
# Poissons Ratio (z) = 0.03503 0.15078
#
# Static dielectric constant tensor:
#      x y z
#    x 3.146730 0.000000 0.180570 
#    y 0.000000 3.362910 0.000000 
#    z 0.180570 0.000000 3.212340 
# 
# 
# High freq. dielectric constant tensor:
#      x y z
#    x 1.687820 0.000000 0.026160 
#    y 0.000000 1.721410 0.000000 
#    z 0.026160 0.000000 1.696690 
# 
# From -- ./inp_files/115044.got.cif
#   From: 2010.06.25/outbox.cif.g09.slc.cpg/sg15_58_cif.got.tgz:115044.got - 2010.06.28 07:06:18.
