data_PCOD8132497
_publ_section_title
;
Structure prediction by ZEFSAII (Michael W. Deem and Ramdas Pophale) SiO2 
 PCOD8132497
Probable space group: C 2/C
;
_chemical_formula_sum "Si O2"
_cell_formula_units_Z 52
_cell_length_a 24.891260
_cell_length_b 19.971368
_cell_length_c 5.188754
_cell_angle_alpha 90.000000
_cell_angle_beta 94.884066
_cell_angle_gamma 90.000000
_cell_volume 2570.028792
_symmetry_space_group_name_H-M "C 2/C"
_symmetry_group_IT_number 15
_symmetry_cell_setting 'monoclinic'
loop_
_space_group_symop_operation_xyz
x,y,z
-x,y,1/2-z
-x,-y,-z
x,-y,1/2+z
1/2+x,1/2+y,z
1/2-x,1/2+y,1/2-z
1/2-x,1/2-y,-z
1/2+x,1/2-y,1/2+z
loop_
_atom_site_type_symbol
_atom_site_label
_atom_site_fract_x
_atom_site_fract_y
_atom_site_fract_z
Si Si1 0.161672 0.167095 0.034276
Si Si2 0.000000 0.689307 0.750000
Si Si3 0.857024 0.457184 0.621091
Si Si4 0.553121 0.712280 0.881661
Si Si5 0.812135 0.244450 0.960139
Si Si6 0.733250 0.540494 0.098162
Si Si7 0.402917 0.833974 0.901848
O O1 0.097091 0.156217 0.972392
O O2 0.183551 0.220628 0.835276
O O3 0.165909 0.190791 0.329137
O O4 0.193026 0.098946 0.005774
O O5 0.955036 0.642099 0.591268
O O6 0.037267 0.737287 0.598228
O O7 0.870506 0.487887 0.347395
O O8 0.794817 0.434698 0.603433
O O9 0.893225 0.391073 0.682534
O O10 0.500000 0.675034 0.750000
O O11 0.579857 0.760596 0.683026
O O12 0.750000 0.250000 0.000000
O O13 0.845045 0.315576 0.014471
O O14 0.722143 0.517510 0.385301
#
# Coordination Sequence:
#
# PCOD8132497 Si02
#       7
#     8   4   8   8   8   8   8
#     4  11  21  37  58  89 115 152 194 229 290 359
#     4  10  18  38  58  80 114 148 192 236 304 336
#     4  10  23  38  57  80 112 155 196 232 279 338
#     4   9  20  36  59  86 114 149 188 241 299 346
#     4  11  22  34  56  91 121 146 182 244 302 349
#     4  10  21  39  58  82 117 158 192 230 278 340
#     4  10  21  36  58  82 116 151 191 240 291 340
#
# _framework density 20.233235000000001
#
# number of rings (size 3 to 8) (size 9 to 14) (size 15 to 20)
#    0.000    1.846    1.538    2.308    2.154    3.692 
#    0.000    0.769    0.000    0.923    0.000    0.000 
#    0.000    0.000    0.000    0.000    0.000    0.000 
#
# Total GULP energy -322114.863769 kJ/mol
# GULP energy per Si atom -12389.033222 kJ/mol
# Density = 2.018718 g / cm^3
# Si number density = 20.233235 Si / 1000 Ang^3
#
#
#
# Elastic Constant Matrix: (Units=GPa)
#
#
# Indices 1 2 3 4 5 6 
#
# 1 114.4364 26.1600 26.4897 0.0000 35.8970 0.0000
# 2 26.1600 42.8982 5.8937 0.0000 24.4468 0.0000
# 3 26.4897 5.8937 77.3897 0.0000 16.5053 0.0000
# 4 0.0000 0.0000 0.0000 27.3628 0.0000 9.0954
# 5 35.8970 24.4468 16.5053 0.0000 39.9348 0.0000
# 6 0.0000 0.0000 0.0000 9.0954 0.0000 28.1205
#
#
#
# Elastic Compliance Matrix: (Units=1/GPa)
#
#
# Indices 1 2 3 4 5 6 
#
# 1 0.012597 -0.002221 -0.002213 0.000000 -0.009049 0.000000
# 2 -0.002221 0.036517 0.002545 0.000000 -0.021410 0.000000
# 3 -0.002213 0.002545 0.014688 0.000000 -0.005640 0.000000
# 4 0.000000 0.000000 0.000000 0.040948 0.000000 -0.013244
# 5 -0.009049 -0.021410 -0.005640 0.000000 0.048613 0.000000
# 6 0.000000 0.000000 0.000000 -0.013244 0.000000 0.039845
#
#
# Mechanical properties :
#
#
# Convention : Reuss Voigt Hill
#
# Bulk Modulus (GPa) = 16.65955 39.09010 27.87483
# Shear Modulus (GPa) = 23.04222 30.82900 26.93561
#
# Velocity S-wave (km/s) = 3.37832 3.90767 3.65260
# Velocity P-wave (km/s) = 4.84448 6.30250 5.62097
#
# Compressibility (1/GPa) = 0.06002563
#
# Stress axis : x y z
#
# Youngs Moduli (GPa) = 79.38409 27.38460 68.08274
#
# Poissons Ratio (x) = 0.06082 0.15065
# Poissons Ratio (y) = 0.17630 -0.17330
# Poissons Ratio (z) = 0.17565 -0.06971
#
# Static dielectric constant tensor:
#      x y z
#    x 3.871320 0.000000 0.325680 
#    y 0.000000 3.200690 0.000000 
#    z 0.325680 0.000000 4.412390 
# 
# 
# High freq. dielectric constant tensor:
#      x y z
#    x 1.805660 0.000000 0.011970 
#    y 0.000000 1.737490 0.000000 
#    z 0.011970 0.000000 1.807030 
# 
# From -- ./inp_files/13316.got.cif
#   From: 2010.06.25/outbox.cif.g09.slc.cpg/sg15_7_cif.got.tgz:13316.got - 2010.06.28 07:06:18.
