data_PCOD8132356
_publ_section_title
;
Structure prediction by ZEFSAII (Michael W. Deem and Ramdas Pophale) SiO2 
 PCOD8132356
Probable space group: C 2/C
;
_chemical_formula_sum "Si O2"
_cell_formula_units_Z 56
_cell_length_a 16.496855
_cell_length_b 9.380925
_cell_length_c 19.311943
_cell_angle_alpha 90.000000
_cell_angle_beta 73.246276
_cell_angle_gamma 90.000000
_cell_volume 2861.774727
_symmetry_space_group_name_H-M "C 2/C"
_symmetry_group_IT_number 15
_symmetry_cell_setting 'monoclinic'
loop_
_space_group_symop_operation_xyz
x,y,z
-x,y,1/2-z
-x,-y,-z
x,-y,1/2+z
1/2+x,1/2+y,z
1/2-x,1/2+y,1/2-z
1/2-x,1/2-y,-z
1/2+x,1/2-y,1/2+z
loop_
_atom_site_type_symbol
_atom_site_label
_atom_site_fract_x
_atom_site_fract_y
_atom_site_fract_z
Si Si1 0.027332 0.823760 0.814260
Si Si2 0.007084 0.692407 0.440165
Si Si3 0.306922 0.547566 0.187655
Si Si4 0.403828 0.556114 0.528665
Si Si5 0.734949 0.664378 0.685904
Si Si6 0.577369 0.900464 0.405036
Si Si7 0.595014 0.429731 0.111018
O O1 0.123838 0.874230 0.781987
O O2 0.018421 0.709460 0.877409
O O3 0.000000 0.747119 0.750000
O O4 0.969662 0.961239 0.839100
O O5 0.937784 0.631736 0.510617
O O6 0.958888 0.790704 0.396850
O O7 0.084697 0.775566 0.459872
O O8 0.049995 0.559814 0.390502
O O9 0.349336 0.512818 0.103309
O O10 0.275599 0.407508 0.235674
O O11 0.231500 0.663279 0.195275
O O12 0.500000 0.500000 0.500000
O O13 0.361028 0.508869 0.466382
O O14 0.824427 0.617841 0.633458
O O15 0.664415 0.615069 0.649371
#
# Coordination Sequence:
#
# PCOD8132356 Si02
#       7
#     8   8   8   8   8   8   8
#     4  11  19  38  62  87 116 164 210 240 288 375
#     4  10  20  39  69  89 117 158 210 250 296 363
#     4  11  23  39  60  88 127 165 196 246 320 366
#     4  10  18  36  67  90 112 158 211 250 288 356
#     4  11  25  40  59  92 128 160 195 254 316 361
#     4  10  23  41  60  90 127 160 192 251 322 355
#     4  11  20  38  68  92 111 155 220 252 284 362
#
# _framework density 19.568276000000001
#
# number of rings (size 3 to 8) (size 9 to 14) (size 15 to 20)
#    0.000    1.429    5.714    2.571    2.000    2.286 
#    5.143    0.714    0.000    0.000    0.000    0.000 
#    0.000    0.000    0.000    0.000    0.000    0.000 
#
# Total GULP energy -347064.581687 kJ/mol
# GULP energy per Si atom -12395.163632 kJ/mol
# Density = 1.952374 g / cm^3
# Si number density = 19.568276 Si / 1000 Ang^3
#
#
#
# Elastic Constant Matrix: (Units=GPa)
#
#
# Indices 1 2 3 4 5 6 
#
# 1 75.5954 46.6182 31.2607 0.0000 14.6606 0.0000
# 2 46.6182 130.3868 39.9951 0.0000 -1.5172 0.0000
# 3 31.2607 39.9951 72.2217 0.0000 10.3466 0.0000
# 4 0.0000 0.0000 0.0000 30.9462 0.0000 -4.2635
# 5 14.6606 -1.5172 10.3466 0.0000 24.0013 0.0000
# 6 0.0000 0.0000 0.0000 -4.2635 0.0000 28.9497
#
#
#
# Elastic Compliance Matrix: (Units=1/GPa)
#
#
# Indices 1 2 3 4 5 6 
#
# 1 0.021081 -0.006486 -0.003868 0.000000 -0.011619 0.000000
# 2 -0.006486 0.011438 -0.004474 0.000000 0.006613 0.000000
# 3 -0.003868 -0.004474 0.018865 0.000000 -0.006053 0.000000
# 4 0.000000 0.000000 0.000000 0.032983 0.000000 0.004858
# 5 -0.011619 0.006613 -0.006053 0.000000 0.051789 0.000000
# 6 0.000000 0.000000 0.000000 0.004858 0.000000 0.035258
#
#
# Mechanical properties :
#
#
# Convention : Reuss Voigt Hill
#
# Bulk Modulus (GPa) = 46.02474 57.10575 51.56525
# Shear Modulus (GPa) = 24.00221 27.46810 25.73515
#
# Velocity S-wave (km/s) = 3.50607 3.75067 3.63043
# Velocity P-wave (km/s) = 6.32148 6.92841 6.63189
#
# Compressibility (1/GPa) = 0.02172744
#
# Stress axis : x y z
#
# Youngs Moduli (GPa) = 47.43583 87.42946 53.00682
#
# Poissons Ratio (x) = 0.56706 0.20505
# Poissons Ratio (y) = 0.30766 0.23716
# Poissons Ratio (z) = 0.18350 0.39117
#
# Static dielectric constant tensor:
#      x y z
#    x 3.426300 0.000000 0.166390 
#    y 0.000000 3.935030 0.000000 
#    z 0.166390 0.000000 3.883000 
# 
# 
# High freq. dielectric constant tensor:
#      x y z
#    x 1.733690 0.000000 -0.002600 
#    y 0.000000 1.772150 0.000000 
#    z -0.002600 0.000000 1.769690 
# 
# From -- ./inp_files/246920.got.cif
#   From: 2010.06.25/outbox.cif.g09.slc.cpg/sg15_124_cif.got.tgz:246920.got - 2010.06.28 07:06:18.
