data_PCOD8132475
_publ_section_title
;
Structure prediction by ZEFSAII (Michael W. Deem and Ramdas Pophale) SiO2 
 PCOD8132475
Probable space group: C 2/C
;
_chemical_formula_sum "Si O2"
_cell_formula_units_Z 56
_cell_length_a 14.050848
_cell_length_b 10.843094
_cell_length_c 18.024578
_cell_angle_alpha 90.000000
_cell_angle_beta 82.037933
_cell_angle_gamma 90.000000
_cell_volume 2719.655853
_symmetry_space_group_name_H-M "C 2/C"
_symmetry_group_IT_number 15
_symmetry_cell_setting 'monoclinic'
loop_
_space_group_symop_operation_xyz
x,y,z
-x,y,1/2-z
-x,-y,-z
x,-y,1/2+z
1/2+x,1/2+y,z
1/2-x,1/2+y,1/2-z
1/2-x,1/2-y,-z
1/2+x,1/2-y,1/2+z
loop_
_atom_site_type_symbol
_atom_site_label
_atom_site_fract_x
_atom_site_fract_y
_atom_site_fract_z
Si Si1 0.349893 0.613902 0.653166
Si Si2 0.323456 0.025675 0.637959
Si Si3 0.983341 0.635871 0.900707
Si Si4 0.653785 0.000779 0.188459
Si Si5 0.568081 0.360308 0.812816
Si Si6 0.834929 0.304289 0.538387
Si Si7 0.775979 0.752734 0.300288
O O1 0.243323 0.569954 0.642888
O O2 0.420236 0.497630 0.655635
O O3 0.387042 0.697999 0.581276
O O4 0.343221 0.696878 0.727512
O O5 0.421119 0.063901 0.586161
O O6 0.342899 0.005620 0.722969
O O7 0.244638 0.135463 0.639826
O O8 0.287035 0.903688 0.600205
O O9 0.940772 0.562382 0.834118
O O10 0.011520 0.775822 0.877538
O O11 0.912866 0.632485 0.977645
O O12 0.663309 0.145559 0.165225
O O13 0.500000 0.370102 0.750000
O O14 0.672861 0.301763 0.781440
O O15 0.750000 0.250000 0.500000
#
# Coordination Sequence:
#
# PCOD8132475 Si02
#       7
#     8   8   8   8   8   8   8
#     4  10  20  37  58  91 119 155 196 253 292 357
#     4  10  21  38  60  89 120 152 202 252 296 346
#     4  11  22  38  63  87 121 161 197 248 304 360
#     4  10  18  37  66  90 115 151 208 246 294 358
#     4  10  21  37  63  90 120 156 204 249 303 349
#     4  12  24  39  62  84 124 163 203 233 313 369
#     4   9  19  37  65  87 119 149 202 252 296 341
#
# _framework density 20.590838999999999
#
# number of rings (size 3 to 8) (size 9 to 14) (size 15 to 20)
#    0.000    1.714    2.857    3.429    0.000    0.571 
#    2.571    0.714    3.143    0.000    0.000    0.000 
#    0.000    0.000    0.000    0.000    0.000    0.000 
#
# Total GULP energy -347100.461962 kJ/mol
# GULP energy per Si atom -12396.445070 kJ/mol
# Density = 2.054397 g / cm^3
# Si number density = 20.590839 Si / 1000 Ang^3
#
#
#
# Elastic Constant Matrix: (Units=GPa)
#
#
# Indices 1 2 3 4 5 6 
#
# 1 50.3162 28.5688 23.9030 0.0000 -3.4695 0.0000
# 2 28.5688 151.9048 51.7905 0.0000 3.1844 0.0000
# 3 23.9030 51.7905 88.6248 0.0000 -9.1156 0.0000
# 4 0.0000 0.0000 0.0000 34.3575 0.0000 -0.3546
# 5 -3.4695 3.1844 -9.1156 0.0000 20.3322 0.0000
# 6 0.0000 0.0000 0.0000 -0.3546 0.0000 36.4754
#
#
#
# Elastic Compliance Matrix: (Units=1/GPa)
#
#
# Indices 1 2 3 4 5 6 
#
# 1 0.023868 -0.003045 -0.004392 0.000000 0.002581 0.000000
# 2 -0.003045 0.008870 -0.004779 0.000000 -0.004051 0.000000
# 3 -0.004392 -0.004779 0.015998 0.000000 0.007172 0.000000
# 4 0.000000 0.000000 0.000000 0.029109 0.000000 0.000283
# 5 0.002581 -0.004051 0.007172 0.000000 0.053473 0.000000
# 6 0.000000 0.000000 0.000000 0.000283 0.000000 0.027419
#
#
# Mechanical properties :
#
#
# Convention : Reuss Voigt Hill
#
# Bulk Modulus (GPa) = 41.14653 55.48562 48.31608
# Shear Modulus (GPa) = 26.14091 30.67192 28.40642
#
# Velocity S-wave (km/s) = 3.56693 3.86371 3.71828
# Velocity P-wave (km/s) = 6.08196 6.84906 6.47688
#
# Compressibility (1/GPa) = 0.02430338
#
# Stress axis : x y z
#
# Youngs Moduli (GPa) = 41.89706 112.73896 62.50608
#
# Poissons Ratio (x) = 0.34334 0.27455
# Poissons Ratio (y) = 0.12760 0.29870
# Poissons Ratio (z) = 0.18403 0.53876
#
# Static dielectric constant tensor:
#      x y z
#    x 3.609440 0.000000 -0.145100 
#    y 0.000000 4.266440 0.000000 
#    z -0.145100 0.000000 3.440200 
# 
# 
# High freq. dielectric constant tensor:
#      x y z
#    x 1.784800 0.000000 -0.015070 
#    y 0.000000 1.829950 0.000000 
#    z -0.015070 0.000000 1.778970 
# 
# From -- ./inp_files/152630.got.cif
#   From: 2010.06.25/outbox.cif.g09.slc.cpg/sg15_77_cif.got.tgz:152630.got - 2010.06.28 07:06:18.
