data_PCOD8132551
_publ_section_title
;
Structure prediction by ZEFSAII (Michael W. Deem and Ramdas Pophale) SiO2 
 PCOD8132551
Probable space group: C 2/C
;
_chemical_formula_sum "Si O2"
_cell_formula_units_Z 52
_cell_length_a 10.770622
_cell_length_b 20.047509
_cell_length_c 14.166453
_cell_angle_alpha 90.000000
_cell_angle_beta 119.740599
_cell_angle_gamma 90.000000
_cell_volume 2655.964310
_symmetry_space_group_name_H-M "C 2/C"
_symmetry_group_IT_number 15
_symmetry_cell_setting 'monoclinic'
loop_
_space_group_symop_operation_xyz
x,y,z
-x,y,1/2-z
-x,-y,-z
x,-y,1/2+z
1/2+x,1/2+y,z
1/2-x,1/2+y,1/2-z
1/2-x,1/2-y,-z
1/2+x,1/2-y,1/2+z
loop_
_atom_site_type_symbol
_atom_site_label
_atom_site_fract_x
_atom_site_fract_y
_atom_site_fract_z
Si Si1 0.972180 0.682555 0.583176
Si Si2 0.221162 0.622602 0.417041
Si Si3 0.795061 0.355382 0.194776
Si Si4 0.499310 0.706788 0.561708
Si Si5 0.464602 0.069787 0.441614
Si Si6 0.160391 0.487983 0.777314
Si Si7 0.500000 0.208036 0.250000
O O1 0.869158 0.683197 0.635461
O O2 0.134422 0.671411 0.681528
O O3 0.973394 0.750787 0.523418
O O4 0.908146 0.621184 0.498546
O O5 0.355620 0.663331 0.505502
O O6 0.105596 0.607823 0.455281
O O7 0.268375 0.551771 0.388168
O O8 0.143401 0.663553 0.303121
O O9 0.627808 0.343605 0.127119
O O10 0.810255 0.434566 0.204420
O O11 0.490993 0.752156 0.649894
O O12 0.500000 0.000000 0.500000
O O13 0.335222 0.048913 0.322544
O O14 0.000000 0.474076 0.750000
#
# Coordination Sequence:
#
# PCOD8132551 Si02
#       7
#     8   8   8   8   8   8   4
#     4  11  21  40  62  86 120 166 207 242 295 378
#     4  11  22  39  61  91 121 152 199 260 303 354
#     4  11  23  40  62  88 121 163 207 246 300 370
#     4  12  26  37  59  92 130 156 196 255 319 361
#     4  11  19  34  66  91 109 154 211 251 292 355
#     4  10  18  38  62  87 114 152 203 253 289 356
#     4  12  22  40  62  88 120 162 200 244 304 372
#
# _framework density 19.578576000000002
#
# number of rings (size 3 to 8) (size 9 to 14) (size 15 to 20)
#    0.000    0.923    6.923    2.769    2.154    0.615 
#    0.000    0.000    0.000    1.846    0.000    0.000 
#    0.000    0.000    0.000    0.000    0.000    0.000 
#
# Total GULP energy -322121.216344 kJ/mol
# GULP energy per Si atom -12389.277552 kJ/mol
# Density = 1.953401 g / cm^3
# Si number density = 19.578576 Si / 1000 Ang^3
#
#
#
# Elastic Constant Matrix: (Units=GPa)
#
#
# Indices 1 2 3 4 5 6 
#
# 1 46.4339 29.6685 31.5135 0.0000 9.8079 0.0000
# 2 29.6685 88.5147 47.0891 0.0000 0.5302 0.0000
# 3 31.5135 47.0891 101.1971 0.0000 2.7211 0.0000
# 4 0.0000 0.0000 0.0000 21.1079 0.0000 -2.0338
# 5 9.8079 0.5302 2.7211 0.0000 33.7391 0.0000
# 6 0.0000 0.0000 0.0000 -2.0338 0.0000 -11.9031
#
#
#
# Elastic Compliance Matrix: (Units=1/GPa)
#
#
# Indices 1 2 3 4 5 6 
#
# 1 0.032504 -0.007420 -0.006432 0.000000 -0.008813 0.000000
# 2 -0.007420 0.016712 -0.005529 0.000000 0.002340 0.000000
# 3 -0.006432 -0.005529 0.014436 0.000000 0.000792 0.000000
# 4 0.000000 0.000000 0.000000 0.046608 0.000000 -0.007963
# 5 -0.008813 0.002340 0.000792 0.000000 0.032101 0.000000
# 6 0.000000 0.000000 0.000000 -0.007963 0.000000 -0.082651
#
#
# Mechanical properties :
#
#
# Convention : Reuss Voigt Hill
#
# Bulk Modulus (GPa) = 40.17689 50.29864 45.23777
# Shear Modulus (GPa) = 46.83051 17.11376 31.97214
#
# Velocity S-wave (km/s) = 4.89604 2.95974 4.04544
# Velocity P-wave (km/s) = 7.24755 6.11772 6.70647
#
# Compressibility (1/GPa) = 0.02488993
#
# Stress axis : x y z
#
# Youngs Moduli (GPa) = 30.76553 59.83813 69.27110
#
# Poissons Ratio (x) = 0.44400 0.44557
# Poissons Ratio (y) = 0.22828 0.38297
# Poissons Ratio (z) = 0.19789 0.33082
#
# Static dielectric constant tensor:
#      x y z
#    x 3.337370 0.000000 -0.238910 
#    y 0.000000 3.899400 0.000000 
#    z -0.238910 0.000000 3.985450 
# 
# 
# High freq. dielectric constant tensor:
#      x y z
#    x 1.723160 0.000000 -0.020770 
#    y 0.000000 1.780910 0.000000 
#    z -0.020770 0.000000 1.778310 
# 
# From -- ./inp_files/147231.got.cif
#   From: 2010.06.25/outbox.cif.g09.slc.cpg/sg15_74_cif.got.tgz:147231.got - 2010.06.28 07:06:18.
