data_PCOD8132891
_publ_section_title
;
Structure prediction by ZEFSAII (Michael W. Deem and Ramdas Pophale) SiO2 
 PCOD8132891
Probable space group: C 2/C
;
_chemical_formula_sum "Si O2"
_cell_formula_units_Z 56
_cell_length_a 10.267988
_cell_length_b 20.206416
_cell_length_c 18.551084
_cell_angle_alpha 90.000000
_cell_angle_beta 48.587780
_cell_angle_gamma 90.000000
_cell_volume 2886.608129
_symmetry_space_group_name_H-M "C 2/C"
_symmetry_group_IT_number 15
_symmetry_cell_setting 'monoclinic'
loop_
_space_group_symop_operation_xyz
x,y,z
-x,y,1/2-z
-x,-y,-z
x,-y,1/2+z
1/2+x,1/2+y,z
1/2-x,1/2+y,1/2-z
1/2-x,1/2-y,-z
1/2+x,1/2-y,1/2+z
loop_
_atom_site_type_symbol
_atom_site_label
_atom_site_fract_x
_atom_site_fract_y
_atom_site_fract_z
Si Si1 0.871372 0.290171 0.402460
Si Si2 0.770214 0.924796 0.026426
Si Si3 0.637284 0.563737 0.340829
Si Si4 0.571031 0.844366 0.804679
Si Si5 0.901670 0.082041 0.640309
Si Si6 0.731828 0.929893 0.544580
Si Si7 0.744256 0.783318 0.218920
O O1 0.750000 0.250000 0.500000
O O2 0.868142 0.366072 0.431264
O O3 0.795062 0.281873 0.351011
O O4 0.072487 0.267702 0.329411
O O5 0.840962 0.923559 0.080989
O O6 0.677281 0.994821 0.043390
O O7 0.935914 0.913673 0.913054
O O8 0.752759 0.612857 0.250347
O O9 0.649466 0.488520 0.304970
O O10 0.711971 0.568142 0.393405
O O11 0.500000 0.840899 0.750000
O O12 0.427076 0.879103 0.908294
O O13 0.608058 0.770363 0.818280
O O14 0.813909 0.143415 0.714071
O O15 0.109710 0.093220 0.564211
#
# Coordination Sequence:
#
# PCOD8132891 Si02
#       7
#     8   8   8   8   8   8   8
#     4  10  20  34  53  74 103 136 174 222 259 297
#     4   8  14  27  47  70  95 123 166 217 258 295
#     4   8  14  26  46  70  99 128 161 209 259 298
#     4  10  19  30  48  76 106 135 165 206 259 318
#     4   8  15  28  44  70 100 126 164 213 255 298
#     4   8  15  26  44  71  99 128 161 206 262 302
#     4  10  21  33  50  79 104 136 177 209 262 308
#
# _framework density 19.399930000000001
#
# number of rings (size 3 to 8) (size 9 to 14) (size 15 to 20)
#    0.000    3.143    0.000    2.571    2.000    1.714 
#    0.000    0.000    0.000    0.857   11.143    0.000 
#    0.000    0.000    0.000    0.000    0.000    0.000 
#
# Total GULP energy -346956.249755 kJ/mol
# GULP energy per Si atom -12391.294634 kJ/mol
# Density = 1.935577 g / cm^3
# Si number density = 19.399930 Si / 1000 Ang^3
#
#
#
# Elastic Constant Matrix: (Units=GPa)
#
#
# Indices 1 2 3 4 5 6 
#
# 1 22.6475 29.4277 20.6231 0.0000 -15.0603 0.0000
# 2 29.4277 130.6624 51.8600 0.0000 -18.7744 0.0000
# 3 20.6231 51.8600 90.7163 0.0000 -18.2740 0.0000
# 4 0.0000 0.0000 0.0000 35.8132 0.0000 -9.2412
# 5 -15.0603 -18.7744 -18.2740 0.0000 18.1338 0.0000
# 6 0.0000 0.0000 0.0000 -9.2412 0.0000 26.7662
#
#
#
# Elastic Compliance Matrix: (Units=1/GPa)
#
#
# Indices 1 2 3 4 5 6 
#
# 1 0.119193 -0.014065 -0.002571 0.000000 0.081838 0.000000
# 2 -0.014065 0.012053 -0.004432 0.000000 -0.003669 0.000000
# 3 -0.002571 -0.004432 0.016044 0.000000 0.009445 0.000000
# 4 0.000000 0.000000 0.000000 0.030654 0.000000 0.010583
# 5 0.081838 -0.003669 0.009445 0.000000 0.128832 0.000000
# 6 0.000000 0.000000 0.000000 0.010583 0.000000 0.041015
#
#
# Mechanical properties :
#
#
# Convention : Reuss Voigt Hill
#
# Bulk Modulus (GPa) = 9.50986 49.76085 29.63535
# Shear Modulus (GPa) = 11.76536 25.61700 18.69118
#
# Velocity S-wave (km/s) = 2.46532 3.63777 3.10734
# Velocity P-wave (km/s) = 3.60782 6.58408 5.30879
#
# Compressibility (1/GPa) = 0.10515407
#
# Stress axis : x y z
#
# Youngs Moduli (GPa) = 8.38978 82.96750 62.32922
#
# Poissons Ratio (x) = 1.16695 0.16023
# Poissons Ratio (y) = 0.11800 0.27623
# Poissons Ratio (z) = 0.02157 0.36769
#
# Static dielectric constant tensor:
#      x y z
#    x 2.965420 0.000000 -0.378090 
#    y 0.000000 3.941930 0.000000 
#    z -0.378090 0.000000 3.650910 
# 
# 
# High freq. dielectric constant tensor:
#      x y z
#    x 1.688890 0.000000 -0.030910 
#    y 0.000000 1.770040 0.000000 
#    z -0.030910 0.000000 1.749240 
# 
# From -- ./inp_files/270345.got.cif
#   From: 2010.06.25/outbox.cif.g09.slc.cpg/sg15_136_cif.got.tgz:270345.got - 2010.06.28 07:06:18.
