data_PCOD8132770
_publ_section_title
;
Structure prediction by ZEFSAII (Michael W. Deem and Ramdas Pophale) SiO2 
 PCOD8132770
Probable space group: C 2/C
;
_chemical_formula_sum "Si O2"
_cell_formula_units_Z 64
_cell_length_a 13.320362
_cell_length_b 30.817990
_cell_length_c 11.717629
_cell_angle_alpha 90.000000
_cell_angle_beta 136.756754
_cell_angle_gamma 90.000000
_cell_volume 3295.431026
_symmetry_space_group_name_H-M "C 2/C"
_symmetry_group_IT_number 15
_symmetry_cell_setting 'monoclinic'
loop_
_space_group_symop_operation_xyz
x,y,z
-x,y,1/2-z
-x,-y,-z
x,-y,1/2+z
1/2+x,1/2+y,z
1/2-x,1/2+y,1/2-z
1/2-x,1/2-y,-z
1/2+x,1/2-y,1/2+z
loop_
_atom_site_type_symbol
_atom_site_label
_atom_site_fract_x
_atom_site_fract_y
_atom_site_fract_z
Si Si1 0.222500 0.300498 0.471501
Si Si2 0.339986 0.513954 0.821344
Si Si3 0.159825 0.921796 0.385266
Si Si4 0.228085 0.574056 0.272275
Si Si5 0.153498 0.880977 0.836128
Si Si6 0.933882 0.663203 0.847182
Si Si7 0.050846 0.627863 0.413085
Si Si8 0.643171 0.073517 0.818292
O O1 0.250000 0.250000 0.500000
O O2 0.347611 0.329095 0.637132
O O3 0.209184 0.313388 0.325660
O O4 0.073064 0.313691 0.408820
O O5 0.350483 0.536807 0.707096
O O6 0.239500 0.471584 0.715275
O O7 0.256749 0.543993 0.844098
O O8 0.500000 0.500000 0.000000
O O9 0.194399 0.935660 0.542947
O O10 0.283053 0.888637 0.446827
O O11 0.000000 0.898719 0.250000
O O12 0.317686 0.610561 0.274538
O O13 0.060014 0.588420 0.148580
O O14 0.000000 0.900781 0.750000
O O15 0.279980 0.904442 0.010460
O O16 0.923451 0.611581 0.816198
O O17 0.950560 0.667376 0.997641
O O18 0.000000 0.647664 0.250000
O O19 0.500000 0.047637 0.750000
#
# Coordination Sequence:
#
# PCOD8132770 Si02
#       8
#     8   8   8   8   8   8   8   8
#     4  10  21  36  64  99 130 160 200 259 328 402
#     4  12  25  39  59  86 127 167 228 287 333 367
#     4  11  24  40  59  84 121 166 223 272 329 372
#     4  11  24  41  58  88 123 168 222 273 321 389
#     4  11  23  37  62  92 129 160 209 263 337 392
#     4  10  18  41  64  90 131 167 209 252 319 405
#     4  10  21  40  64  91 119 175 223 260 307 390
#     4  11  21  41  64  87 120 179 216 260 329 395
#
# _framework density 19.420826999999999
#
# number of rings (size 3 to 8) (size 9 to 14) (size 15 to 20)
#    0.000    1.250    6.250    0.750    3.500    2.500 
#    0.000    0.000    0.000    0.750    0.000    0.000 
#    0.000    0.000    0.000    0.000    0.000    0.000 
#
# Total GULP energy -396546.116007 kJ/mol
# GULP energy per Si atom -12392.066125 kJ/mol
# Density = 1.937662 g / cm^3
# Si number density = 19.420827 Si / 1000 Ang^3
#
#
#
# Elastic Constant Matrix: (Units=GPa)
#
#
# Indices 1 2 3 4 5 6 
#
# 1 127.2036 46.3478 64.5596 0.0000 1.9676 0.0000
# 2 46.3478 99.4638 45.8712 0.0000 -8.6105 0.0000
# 3 64.5596 45.8712 112.0902 0.0000 -14.6149 0.0000
# 4 0.0000 0.0000 0.0000 22.5214 0.0000 2.1722
# 5 1.9676 -8.6105 -14.6149 0.0000 44.4932 0.0000
# 6 0.0000 0.0000 0.0000 2.1722 0.0000 17.1568
#
#
#
# Elastic Compliance Matrix: (Units=1/GPa)
#
#
# Indices 1 2 3 4 5 6 
#
# 1 0.012160 -0.003106 -0.006145 0.000000 -0.003157 0.000000
# 2 -0.003106 0.013211 -0.003412 0.000000 0.001573 0.000000
# 3 -0.006145 -0.003412 0.014424 0.000000 0.004349 0.000000
# 4 0.000000 0.000000 0.000000 0.044951 0.000000 -0.005691
# 5 -0.003157 0.001573 0.004349 0.000000 0.024348 0.000000
# 6 0.000000 0.000000 0.000000 -0.005691 0.000000 0.059006
#
#
# Mechanical properties :
#
#
# Convention : Reuss Voigt Hill
#
# Bulk Modulus (GPa) = 69.10999 72.47942 70.79470
# Shear Modulus (GPa) = 25.22064 28.96623 27.09343
#
# Velocity S-wave (km/s) = 3.60757 3.86619 3.73912
# Velocity P-wave (km/s) = 7.28118 7.57175 7.42788
#
# Compressibility (1/GPa) = 0.01446969
#
# Stress axis : x y z
#
# Youngs Moduli (GPa) = 82.23349 75.69346 69.32920
#
# Poissons Ratio (x) = 0.23511 0.42599
# Poissons Ratio (y) = 0.25542 0.23658
# Poissons Ratio (z) = 0.50529 0.25829
#
# Static dielectric constant tensor:
#      x y z
#    x 3.802930 0.000000 -0.085190 
#    y 0.000000 3.320490 0.000000 
#    z -0.085190 0.000000 4.023670 
# 
# 
# High freq. dielectric constant tensor:
#      x y z
#    x 1.766500 0.000000 0.001050 
#    y 0.000000 1.707270 0.000000 
#    z 0.001050 0.000000 1.773130 
# 
# From -- ./inp_files/101349.got.cif
#   From: 2010.06.25/outbox.cif.g09.slc.cpg/sg15_51_cif.got.tgz:101349.got - 2010.06.28 07:06:18.
