data_PCOD8132491
_publ_section_title
;
Structure prediction by ZEFSAII (Michael W. Deem and Ramdas Pophale) SiO2 
 PCOD8132491
Probable space group: C 2/C
;
_chemical_formula_sum "Si O2"
_cell_formula_units_Z 52
_cell_length_a 18.900433
_cell_length_b 12.414141
_cell_length_c 15.272797
_cell_angle_alpha 90.000000
_cell_angle_beta 50.796483
_cell_angle_gamma 90.000000
_cell_volume 2776.871975
_symmetry_space_group_name_H-M "C 2/C"
_symmetry_group_IT_number 15
_symmetry_cell_setting 'monoclinic'
loop_
_space_group_symop_operation_xyz
x,y,z
-x,y,1/2-z
-x,-y,-z
x,-y,1/2+z
1/2+x,1/2+y,z
1/2-x,1/2+y,1/2-z
1/2-x,1/2-y,-z
1/2+x,1/2-y,1/2+z
loop_
_atom_site_type_symbol
_atom_site_label
_atom_site_fract_x
_atom_site_fract_y
_atom_site_fract_z
Si Si1 0.000000 0.638732 0.250000
Si Si2 0.419464 0.228524 0.644411
Si Si3 0.273592 0.430798 0.479548
Si Si4 0.312413 0.364694 0.859244
Si Si5 0.630057 0.763337 0.517659
Si Si6 0.624592 0.045654 0.692845
Si Si7 0.117913 0.706680 0.551695
O O1 0.071101 0.565256 0.247682
O O2 0.959055 0.714463 0.355935
O O3 0.373310 0.331190 0.728328
O O4 0.391023 0.229214 0.567124
O O5 0.378355 0.118654 0.718231
O O6 0.529853 0.235591 0.562002
O O7 0.321471 0.506696 0.368701
O O8 0.342783 0.358412 0.480359
O O9 0.204931 0.352681 0.482052
O O10 0.227458 0.512655 0.585668
O O11 0.351961 0.308174 0.914709
O O12 0.205688 0.331731 0.926142
O O13 0.582863 0.111317 0.643054
#
# Coordination Sequence:
#
# PCOD8132491 Si02
#       7
#     4   8   8   8   8   8   8
#     4  10  18  38  54  76 110 162 176 226 286 336
#     4  11  20  35  59  97 109 135 192 254 266 328
#     4   9  20  41  55  75 113 167 180 216 287 358
#     4   9  18  35  62  79 117 151 179 222 296 331
#     4  10  23  38  56  80 116 148 197 228 278 331
#     4   9  16  33  62  81 112 142 186 228 291 325
#     4   9  17  34  57  92 114 141 180 238 283 341
#
# _framework density 18.726106999999999
#
# number of rings (size 3 to 8) (size 9 to 14) (size 15 to 20)
#    0.000    2.462    1.538    2.308    0.000    1.846 
#   11.077    0.769    0.000    0.000    0.000    0.000 
#    0.000    0.000    0.000    0.000    0.000    0.000 
#
# Total GULP energy -322285.004407 kJ/mol
# GULP energy per Si atom -12395.577093 kJ/mol
# Density = 1.868349 g / cm^3
# Si number density = 18.726107 Si / 1000 Ang^3
#
#
#
# Elastic Constant Matrix: (Units=GPa)
#
#
# Indices 1 2 3 4 5 6 
#
# 1 99.7048 44.4896 63.2201 0.0000 5.5951 0.0000
# 2 44.4896 101.8174 56.9640 0.0000 3.1258 0.0000
# 3 63.2201 56.9640 100.6784 0.0000 9.5624 0.0000
# 4 0.0000 0.0000 0.0000 -5.0987 0.0000 1.8429
# 5 5.5951 3.1258 9.5624 0.0000 27.7741 0.0000
# 6 0.0000 0.0000 0.0000 1.8429 0.0000 20.0177
#
#
#
# Elastic Compliance Matrix: (Units=1/GPa)
#
#
# Indices 1 2 3 4 5 6 
#
# 1 0.016974 -0.002124 -0.009464 0.000000 0.000078 0.000000
# 2 -0.002124 0.014677 -0.007086 0.000000 0.001216 0.000000
# 3 -0.009464 -0.007086 0.020291 0.000000 -0.004282 0.000000
# 4 0.000000 0.000000 0.000000 -0.189813 0.000000 0.017475
# 5 0.000078 0.001216 -0.004282 0.000000 0.037327 0.000000
# 6 0.000000 0.000000 0.000000 0.017475 0.000000 0.048347
#
#
# Mechanical properties :
#
#
# Convention : Reuss Voigt Hill
#
# Bulk Modulus (GPa) = 68.52212 70.17200 69.34706
# Shear Modulus (GPa) = -500.76416 17.70709 -241.52853
#
# Velocity S-wave (km/s) = -16.37057 3.07837 -11.36924
# Velocity P-wave (km/s) = 17.90687 7.08444 11.62899
#
# Compressibility (1/GPa) = 0.01459383
#
# Stress axis : x y z
#
# Youngs Moduli (GPa) = 58.91312 68.13573 49.28222
#
# Poissons Ratio (x) = 0.14475 0.46642
# Poissons Ratio (y) = 0.12515 0.34919
# Poissons Ratio (z) = 0.55757 0.48278
#
# Static dielectric constant tensor:
#      x y z
#    x 3.177970 0.000000 -0.283290 
#    y 0.000000 3.567700 0.000000 
#    z -0.283290 0.000000 3.406890 
# 
# 
# High freq. dielectric constant tensor:
#      x y z
#    x 1.703340 0.000000 -0.020700 
#    y 0.000000 1.730430 0.000000 
#    z -0.020700 0.000000 1.717310 
# 
# From -- ./inp_files/167572.got.cif
#   From: 2010.06.25/outbox.cif.g09.slc.cpg/sg15_84_cif.got.tgz:167572.got - 2010.06.28 07:06:18.
