data_PCOD8132841
_publ_section_title
;
Structure prediction by ZEFSAII (Michael W. Deem and Ramdas Pophale) SiO2 
 PCOD8132841
Probable space group: C 2/C
;
_chemical_formula_sum "Si O2"
_cell_formula_units_Z 60
_cell_length_a 14.707489
_cell_length_b 21.718732
_cell_length_c 20.940179
_cell_angle_alpha 90.000000
_cell_angle_beta 151.129385
_cell_angle_gamma 90.000000
_cell_volume 3229.614047
_symmetry_space_group_name_H-M "C 2/C"
_symmetry_group_IT_number 15
_symmetry_cell_setting 'monoclinic'
loop_
_space_group_symop_operation_xyz
x,y,z
-x,y,1/2-z
-x,-y,-z
x,-y,1/2+z
1/2+x,1/2+y,z
1/2-x,1/2+y,1/2-z
1/2-x,1/2-y,-z
1/2+x,1/2-y,1/2+z
loop_
_atom_site_type_symbol
_atom_site_label
_atom_site_fract_x
_atom_site_fract_y
_atom_site_fract_z
Si Si1 0.500000 0.694553 0.750000
Si Si2 0.886529 0.046262 0.511369
Si Si3 0.928355 0.888776 0.910922
Si Si4 0.097396 0.687854 0.246284
Si Si5 0.772505 0.018748 0.219484
Si Si6 0.310112 0.924085 0.098573
Si Si7 0.621170 0.023714 0.992691
Si Si8 0.199769 0.385415 0.999333
O O1 0.429509 0.738036 0.765847
O O2 0.669323 0.651020 0.872153
O O3 0.974308 0.065654 0.498064
O O4 0.793951 0.105922 0.487465
O O5 0.733994 0.992776 0.402958
O O6 0.037650 0.020291 0.655043
O O7 0.818984 0.828631 0.870793
O O8 0.786179 0.922298 0.774359
O O9 0.134611 0.877272 0.005936
O O10 0.000000 0.658519 0.250000
O O11 0.984260 0.657481 0.118298
O O12 0.747742 0.042966 0.131553
O O13 0.601136 0.972491 0.129890
O O14 0.500000 0.899997 0.250000
O O15 0.333264 0.928670 0.036136
O O16 0.659287 0.952543 0.001373
#
# Coordination Sequence:
#
# PCOD8132841 Si02
#       8
#     4   8   8   8   8   8   8   8
#     4  10  22  34  52  78 102 134 174 224 280 320
#     4  10  19  28  49  71 101 141 177 202 252 311
#     4  11  19  32  48  70  98 144 180 211 252 313
#     4  10  21  34  52  71 103 136 178 216 266 310
#     4  10  19  31  45  73 106 143 175 210 250 314
#     4  10  20  30  49  73 105 141 177 210 243 304
#     4  10  20  31  49  73 111 143 173 208 257 312
#     4  11  19  34  53  73 107 139 168 216 270 316
#
# _framework density 18.578071000000001
#
# number of rings (size 3 to 8) (size 9 to 14) (size 15 to 20)
#    0.400    1.333    2.667    4.400    1.867    4.267 
#    0.000    0.000    0.000    0.000    0.000    0.000 
#    0.000   26.667    2.400    0.800    3.733    0.000 
#
# Total GULP energy -371707.429214 kJ/mol
# GULP energy per Si atom -12390.247640 kJ/mol
# Density = 1.853579 g / cm^3
# Si number density = 18.578071 Si / 1000 Ang^3
#
#
#
# Elastic Constant Matrix: (Units=GPa)
#
#
# Indices 1 2 3 4 5 6 
#
# 1 83.5955 0.5094 27.3298 0.0110 -1.0926 0.0035
# 2 0.5094 39.3839 12.0687 0.0631 4.3754 0.0153
# 3 27.3298 12.0687 106.8566 0.1595 1.9954 0.0391
# 4 0.0110 0.0631 0.1595 -103.8623 0.0263 -28.1338
# 5 -1.0926 4.3754 1.9954 0.0263 33.5500 0.0077
# 6 0.0035 0.0153 0.0391 -28.1338 0.0077 8.7758
#
#
#
# Elastic Compliance Matrix: (Units=1/GPa)
#
#
# Indices 1 2 3 4 5 6 
#
# 1 0.013093 0.000830 -0.003452 -0.000003 0.000523 -0.000001
# 2 0.000830 0.026714 -0.003169 0.000010 -0.003268 0.000002
# 3 -0.003452 -0.003169 0.010605 0.000013 -0.000330 0.000002
# 4 -0.000003 0.000010 0.000013 -0.005153 0.000006 -0.016520
# 5 0.000523 -0.003268 -0.000330 0.000006 0.030269 -0.000001
# 6 -0.000001 0.000002 0.000002 -0.016520 -0.000001 0.060988
#
#
# Mechanical properties :
#
#
# Convention : Reuss Voigt Hill
#
# Bulk Modulus (GPa) = 25.75210 34.40576 30.07893
# Shear Modulus (GPa) = 31.04787 0.35457 15.70122
#
# Velocity S-wave (km/s) = 4.09248 0.43734 2.91030
# Velocity P-wave (km/s) = 6.01854 4.33760 5.24584
#
# Compressibility (1/GPa) = 0.03883178
#
# Stress axis : x y z
#
# Youngs Moduli (GPa) = 76.37804 37.43291 94.29263
#
# Poissons Ratio (x) = -0.03108 0.32552
# Poissons Ratio (y) = -0.06343 0.29877
# Poissons Ratio (z) = 0.26367 0.11861
#
# Static dielectric constant tensor:
#      x y z
#    x 3.550190 -0.000010 0.036400 
#    y -0.000010 2.906380 -0.000010 
#    z 0.036400 -0.000010 3.462950 
# 
# 
# High freq. dielectric constant tensor:
#      x y z
#    x 1.718610 0.000000 0.000720 
#    y 0.000000 1.657960 0.000000 
#    z 0.000720 0.000000 1.736070 
# 
# From -- ./inp_files/245600.got.cif
#   From: 2010.06.25/outbox.cif.g09.slc.cpg/sg15_123_cif.got.tgz:245600.got - 2010.06.28 07:06:18.
