data_PCOD8132917
_publ_section_title
;
Structure prediction by ZEFSAII (Michael W. Deem and Ramdas Pophale) SiO2 
 PCOD8132917
Probable space group: C 2/C
;
_chemical_formula_sum "Si O2"
_cell_formula_units_Z 40
_cell_length_a 16.947098
_cell_length_b 17.433660
_cell_length_c 9.301587
_cell_angle_alpha 90.000000
_cell_angle_beta 45.756687
_cell_angle_gamma 90.000000
_cell_volume 1968.731389
_symmetry_space_group_name_H-M "C 2/C"
_symmetry_group_IT_number 15
_symmetry_cell_setting 'monoclinic'
loop_
_space_group_symop_operation_xyz
x,y,z
-x,y,1/2-z
-x,-y,-z
x,-y,1/2+z
1/2+x,1/2+y,z
1/2-x,1/2+y,1/2-z
1/2-x,1/2-y,-z
1/2+x,1/2-y,1/2+z
loop_
_atom_site_type_symbol
_atom_site_label
_atom_site_fract_x
_atom_site_fract_y
_atom_site_fract_z
Si Si1 0.887368 0.721440 0.470956
Si Si2 0.968416 0.879494 0.952714
Si Si3 0.528129 0.208955 0.548279
Si Si4 0.101318 0.037101 0.508976
Si Si5 0.719988 0.856619 0.642232
O O1 0.809580 0.794103 0.571072
O O2 0.828198 0.653147 0.457307
O O3 0.000000 0.746180 0.250000
O O4 0.916452 0.694865 0.596891
O O5 0.925453 0.794961 0.053662
O O6 0.000000 0.866106 0.750000
O O7 0.881377 0.950099 0.073687
O O8 0.073911 0.904567 0.913590
O O9 0.500000 0.196983 0.750000
O O10 0.621235 0.148151 0.383875
O O11 0.217426 0.061762 0.431478
O O12 0.000000 0.037899 0.750000
#
# Coordination Sequence:
#
# PCOD8132917 Si02
#       5
#     8   8   8   8   8
#     4   9  18  31  47  75 109 138 181 221 259 311
#     4   9  19  34  49  74 117 139 166 221 277 317
#     4  10  20  34  49  77 116 140 173 225 272 321
#     4  10  19  33  54  77 110 142 178 221 265 323
#     4  10  19  30  53  78 104 146 187 218 265 314
#
# _framework density 20.317651999999999
#
# number of rings (size 3 to 8) (size 9 to 14) (size 15 to 20)
#    0.000    2.400    2.000    0.600    5.600    0.800 
#    0.000    0.000    0.000    0.000    0.000    8.400 
#    0.000    0.000    0.000    0.000    0.000    0.000 
#
# Total GULP energy -247781.550175 kJ/mol
# GULP energy per Si atom -12389.077509 kJ/mol
# Density = 2.027141 g / cm^3
# Si number density = 20.317652 Si / 1000 Ang^3
#
#
#
# Elastic Constant Matrix: (Units=GPa)
#
#
# Indices 1 2 3 4 5 6 
#
# 1 158.1495 36.9563 54.9059 0.0000 11.3266 0.0000
# 2 36.9563 71.7530 20.9488 0.0000 -7.1318 0.0000
# 3 54.9059 20.9488 57.0105 0.0000 7.0210 0.0000
# 4 0.0000 0.0000 0.0000 16.3847 0.0000 -4.1582
# 5 11.3266 -7.1318 7.0210 0.0000 35.4617 0.0000
# 6 0.0000 0.0000 0.0000 -4.1582 0.0000 38.4390
#
#
#
# Elastic Compliance Matrix: (Units=1/GPa)
#
#
# Indices 1 2 3 4 5 6 
#
# 1 0.010066 -0.002964 -0.008339 0.000000 -0.002160 0.000000
# 2 -0.002964 0.017179 -0.004099 0.000000 0.005213 0.000000
# 3 -0.008339 -0.004099 0.027522 0.000000 -0.003610 0.000000
# 4 0.000000 0.000000 0.000000 0.062756 0.000000 0.006789
# 5 -0.002160 0.005213 -0.003610 0.000000 0.030653 0.000000
# 6 0.000000 0.000000 0.000000 0.006789 0.000000 0.026750
#
#
# Mechanical properties :
#
#
# Convention : Reuss Voigt Hill
#
# Bulk Modulus (GPa) = 41.73351 56.94835 49.34093
# Shear Modulus (GPa) = 23.39550 29.66387 26.52968
#
# Velocity S-wave (km/s) = 3.39704 3.82515 3.61743
# Velocity P-wave (km/s) = 5.99763 6.89919 6.46415
#
# Compressibility (1/GPa) = 0.02396156
#
# Stress axis : x y z
#
# Youngs Moduli (GPa) = 99.34869 58.21223 36.33410
#
# Poissons Ratio (x) = 0.17257 0.30298
# Poissons Ratio (y) = 0.29451 0.14895
# Poissons Ratio (z) = 0.82843 0.23863
#
# Static dielectric constant tensor:
#      x y z
#    x 4.691180 0.000000 0.120700 
#    y 0.000000 3.798600 0.000000 
#    z 0.120700 0.000000 3.396980 
# 
# 
# High freq. dielectric constant tensor:
#      x y z
#    x 1.809640 0.000000 0.023730 
#    y 0.000000 1.762530 0.000000 
#    z 0.023730 0.000000 1.766440 
# 
# From -- ./inp_files/40410.got.cif
#   From: 2010.06.25/outbox.cif.g09.slc.cpg/sg15_21_cif.got.tgz:40410.got - 2010.06.28 07:06:18.
