data_PCOD8132337
_publ_section_title
;
Structure prediction by ZEFSAII (Michael W. Deem and Ramdas Pophale) SiO2 
 PCOD8132337
Probable space group: C 2/C
;
_chemical_formula_sum "Si O2"
_cell_formula_units_Z 48
_cell_length_a 9.393953
_cell_length_b 26.729537
_cell_length_c 15.555659
_cell_angle_alpha 90.000000
_cell_angle_beta 37.048525
_cell_angle_gamma 90.000000
_cell_volume 2353.308877
_symmetry_space_group_name_H-M "C 2/C"
_symmetry_group_IT_number 15
_symmetry_cell_setting 'monoclinic'
loop_
_space_group_symop_operation_xyz
x,y,z
-x,y,1/2-z
-x,-y,-z
x,-y,1/2+z
1/2+x,1/2+y,z
1/2-x,1/2+y,1/2-z
1/2-x,1/2-y,-z
1/2+x,1/2-y,1/2+z
loop_
_atom_site_type_symbol
_atom_site_label
_atom_site_fract_x
_atom_site_fract_y
_atom_site_fract_z
Si Si1 0.976850 0.702625 0.121785
Si Si2 0.389684 0.286657 0.555282
Si Si3 0.547786 0.536941 0.556635
Si Si4 0.500725 0.439368 0.653730
Si Si5 0.484669 0.098510 0.163454
Si Si6 0.228218 0.881870 0.397041
O O1 0.221697 0.705705 0.055015
O O2 0.965716 0.643355 0.102883
O O3 0.752045 0.719796 0.287472
O O4 0.974957 0.734694 0.034490
O O5 0.577102 0.331253 0.472727
O O6 0.500000 0.500000 0.500000
O O7 0.528162 0.499782 0.647487
O O8 0.807011 0.559313 0.445255
O O9 0.363255 0.582821 0.637609
O O10 0.500000 0.417048 0.750000
O O11 0.701180 0.411240 0.500897
O O12 0.255358 0.432230 0.722358
O O13 0.500000 0.125598 0.250000
O O14 0.500000 0.868417 0.250000
#
# Coordination Sequence:
#
# PCOD8132337 Si02
#       6
#     8   8   8   8   8   8
#     4  10  18  36  65  90 121 149 218 267 306 366
#     4  10  19  37  61  94 115 160 205 267 315 366
#     4  10  21  35  63  93 120 167 217 249 309 384
#     4  11  25  41  62  94 131 167 210 267 321 370
#     4  12  18  40  70  88 123 176 219 248 316 389
#     4  11  22  41  64  88 127 167 214 258 316 393
#
# _framework density 20.396813000000002
#
# number of rings (size 3 to 8) (size 9 to 14) (size 15 to 20)
#    0.000    1.333    8.333    0.000    4.667    0.667 
#    3.000    1.667    0.000    0.000    0.000    0.000 
#    0.000    0.000    0.000    0.000    0.000    0.000 
#
# Total GULP energy -297329.895869 kJ/mol
# GULP energy per Si atom -12388.745661 kJ/mol
# Density = 2.035039 g / cm^3
# Si number density = 20.396813 Si / 1000 Ang^3
#
#
#
# Elastic Constant Matrix: (Units=GPa)
#
#
# Indices 1 2 3 4 5 6 
#
# 1 50.9059 23.4143 45.0003 0.0000 -1.5776 0.0000
# 2 23.4143 136.2184 54.0134 0.0000 -2.4228 0.0000
# 3 45.0003 54.0134 118.2280 0.0000 -16.0770 0.0000
# 4 0.0000 0.0000 0.0000 20.1243 0.0000 4.8509
# 5 -1.5776 -2.4228 -16.0770 0.0000 29.8285 0.0000
# 6 0.0000 0.0000 0.0000 4.8509 0.0000 10.4660
#
#
#
# Elastic Compliance Matrix: (Units=1/GPa)
#
#
# Indices 1 2 3 4 5 6 
#
# 1 0.030309 -0.000561 -0.011944 0.000000 -0.004880 0.000000
# 2 -0.000561 0.009047 -0.004126 0.000000 -0.001519 0.000000
# 3 -0.011944 -0.004126 0.015925 0.000000 0.007616 0.000000
# 4 0.000000 0.000000 0.000000 0.055941 0.000000 -0.025928
# 5 -0.004880 -0.001519 0.007616 0.000000 0.037249 0.000000
# 6 0.000000 0.000000 0.000000 -0.025928 0.000000 0.107565
#
#
# Mechanical properties :
#
#
# Convention : Reuss Voigt Hill
#
# Bulk Modulus (GPa) = 45.41418 61.13427 53.27423
# Shear Modulus (GPa) = 16.85568 24.27872 20.56720
#
# Velocity S-wave (km/s) = 2.87782 3.45384 3.17890
# Velocity P-wave (km/s) = 5.77547 6.77812 6.29679
#
# Compressibility (1/GPa) = 0.02201955
#
# Stress axis : x y z
#
# Youngs Moduli (GPa) = 32.99371 110.53867 62.79414
#
# Poissons Ratio (x) = 0.06197 0.74999
# Poissons Ratio (y) = 0.01850 0.25910
# Poissons Ratio (z) = 0.39407 0.45610
#
# Static dielectric constant tensor:
#      x y z
#    x 3.414110 0.000000 0.003950 
#    y 0.000000 4.224950 0.000000 
#    z 0.003950 0.000000 3.850740 
# 
# 
# High freq. dielectric constant tensor:
#      x y z
#    x 1.764190 0.000000 -0.017720 
#    y 0.000000 1.816210 0.000000 
#    z -0.017720 0.000000 1.784260 
# 
# From -- ./inp_files/200896.got.cif
#   From: 2010.06.25/outbox.cif.g09.slc.cpg/sg15_101_cif.got.tgz:200896.got - 2010.06.28 07:06:18.
