data_PCOD8132201
_publ_section_title
;
Structure prediction by ZEFSAII (Michael W. Deem and Ramdas Pophale) SiO2 
 PCOD8132201
Probable space group: C 2/C
;
_chemical_formula_sum "Si O2"
_cell_formula_units_Z 60
_cell_length_a 18.703585
_cell_length_b 11.289966
_cell_length_c 25.186633
_cell_angle_alpha 90.000000
_cell_angle_beta 142.510541
_cell_angle_gamma 90.000000
_cell_volume 3236.909720
_symmetry_space_group_name_H-M "C 2/C"
_symmetry_group_IT_number 15
_symmetry_cell_setting 'monoclinic'
loop_
_space_group_symop_operation_xyz
x,y,z
-x,y,1/2-z
-x,-y,-z
x,-y,1/2+z
1/2+x,1/2+y,z
1/2-x,1/2+y,1/2-z
1/2-x,1/2-y,-z
1/2+x,1/2-y,1/2+z
loop_
_atom_site_type_symbol
_atom_site_label
_atom_site_fract_x
_atom_site_fract_y
_atom_site_fract_z
Si Si1 0.017667 0.548259 0.136654
Si Si2 0.500000 0.365325 0.250000
Si Si3 0.402229 0.936941 0.977231
Si Si4 0.820647 0.826204 0.902213
Si Si5 0.788886 0.075881 0.686397
Si Si6 0.926349 0.753112 0.413857
Si Si7 0.732093 0.526675 0.706335
Si Si8 0.833615 0.690205 0.092934
O O1 0.064141 0.657033 0.127761
O O2 0.130479 0.484577 0.229800
O O3 0.926563 0.595398 0.126267
O O4 0.946944 0.445411 0.063749
O O5 0.574613 0.436799 0.249950
O O6 0.404867 0.295117 0.160979
O O7 0.387462 0.803709 0.947324
O O8 0.280960 0.006883 0.900461
O O9 0.500000 0.000000 0.000000
O O10 0.762957 0.709404 0.841533
O O11 0.740904 0.872361 0.904213
O O12 0.835832 0.923583 0.865094
O O13 0.946716 0.808939 0.003031
O O14 0.774428 0.009581 0.733984
O O15 0.826121 0.847617 0.341119
O O16 0.750000 0.750000 0.000000
#
# Coordination Sequence:
#
# PCOD8132201 Si02
#       8
#     8   4   8   8   8   8   8   8
#     4  11  19  37  60  87 113 154 194 235 303 351
#     4  10  22  34  54  90 120 142 188 246 296 360
#     4  10  18  36  59  82 109 151 195 235 277 353
#     4  11  22  37  57  89 118 147 192 241 301 353
#     4  11  20  37  58  84 115 148 189 240 296 346
#     4  11  20  37  53  83 119 145 196 236 280 353
#     4  12  23  32  56  86 118 154 186 242 293 337
#     4  11  20  36  61  86 120 153 183 249 311 347
#
# _framework density 18.536199
#
# number of rings (size 3 to 8) (size 9 to 14) (size 15 to 20)
#    0.000    1.067    6.667    4.400    0.000    0.000 
#    0.000    0.000    0.000    2.400    0.000    0.000 
#    0.000    0.000    0.000    0.000    0.000    0.000 
#
# Total GULP energy -371816.945209 kJ/mol
# GULP energy per Si atom -12393.898174 kJ/mol
# Density = 1.849401 g / cm^3
# Si number density = 18.536199 Si / 1000 Ang^3
#
#
#
# Elastic Constant Matrix: (Units=GPa)
#
#
# Indices 1 2 3 4 5 6 
#
# 1 86.7010 40.6776 29.7187 0.0000 3.4915 0.0000
# 2 40.6776 62.4363 40.9050 0.0000 11.8420 0.0000
# 3 29.7187 40.9050 102.0884 0.0000 8.3910 0.0000
# 4 0.0000 0.0000 0.0000 35.2077 0.0000 0.5562
# 5 3.4915 11.8420 8.3910 0.0000 23.4190 0.0000
# 6 0.0000 0.0000 0.0000 0.5562 0.0000 29.9201
#
#
#
# Elastic Compliance Matrix: (Units=1/GPa)
#
#
# Indices 1 2 3 4 5 6 
#
# 1 0.016886 -0.011175 -0.000717 0.000000 0.003390 0.000000
# 2 -0.011175 0.030714 -0.008154 0.000000 -0.010943 0.000000
# 3 -0.000717 -0.008154 0.013316 0.000000 -0.000541 0.000000
# 4 0.000000 0.000000 0.000000 0.028411 0.000000 -0.000528
# 5 0.003390 -0.010943 -0.000541 0.000000 0.047923 0.000000
# 6 0.000000 0.000000 0.000000 -0.000528 0.000000 0.033432
#
#
# Mechanical properties :
#
#
# Convention : Reuss Voigt Hill
#
# Bulk Modulus (GPa) = 48.01940 52.64758 50.33349
# Shear Modulus (GPa) = 22.96582 27.03765 25.00174
#
# Velocity S-wave (km/s) = 3.52372 3.82336 3.67659
# Velocity P-wave (km/s) = 6.52054 6.92495 6.72579
#
# Compressibility (1/GPa) = 0.02082492
#
# Stress axis : x y z
#
# Youngs Moduli (GPa) = 59.22113 32.55794 75.09865
#
# Poissons Ratio (x) = 0.36382 0.05383
# Poissons Ratio (y) = 0.66177 0.61237
# Poissons Ratio (z) = 0.04245 0.26549
#
# Static dielectric constant tensor:
#      x y z
#    x 3.851890 0.000000 0.140510 
#    y 0.000000 3.340130 0.000000 
#    z 0.140510 0.000000 2.180580 
# 
# 
# High freq. dielectric constant tensor:
#      x y z
#    x 1.706550 0.000000 0.004850 
#    y 0.000000 1.683280 0.000000 
#    z 0.004850 0.000000 1.745740 
# 
# From -- ./inp_files/160909.got.cif
#   From: 2010.06.25/outbox.cif.g09.slc.cpg/sg15_81_cif.got.tgz:160909.got - 2010.06.28 07:06:18.
