data_PCOD8132421
_publ_section_title
;
Structure prediction by ZEFSAII (Michael W. Deem and Ramdas Pophale) SiO2 
 PCOD8132421
Probable space group: C 2/C
;
_chemical_formula_sum "Si O2"
_cell_formula_units_Z 52
_cell_length_a 23.759019
_cell_length_b 14.887507
_cell_length_c 11.775346
_cell_angle_alpha 90.000000
_cell_angle_beta 141.129407
_cell_angle_gamma 90.000000
_cell_volume 2613.857253
_symmetry_space_group_name_H-M "C 2/C"
_symmetry_group_IT_number 15
_symmetry_cell_setting 'monoclinic'
loop_
_space_group_symop_operation_xyz
x,y,z
-x,y,1/2-z
-x,-y,-z
x,-y,1/2+z
1/2+x,1/2+y,z
1/2-x,1/2+y,1/2-z
1/2-x,1/2-y,-z
1/2+x,1/2-y,1/2+z
loop_
_atom_site_type_symbol
_atom_site_label
_atom_site_fract_x
_atom_site_fract_y
_atom_site_fract_z
Si Si1 0.313623 0.914923 0.459480
Si Si2 0.174964 0.172833 0.878933
Si Si3 0.335246 0.282013 0.892671
Si Si4 0.500000 0.801794 0.250000
Si Si5 0.556683 0.919170 0.640232
Si Si6 0.005204 0.237126 0.010782
Si Si7 0.667785 0.895178 0.603896
O O1 0.226320 0.911806 0.404716
O O2 0.323835 0.824833 0.399494
O O3 0.404809 0.933684 0.673785
O O4 0.299399 0.002882 0.361650
O O5 0.089307 0.191186 0.665841
O O6 0.250000 0.250000 0.000000
O O7 0.140704 0.162334 0.954508
O O8 0.243412 0.321348 0.697895
O O9 0.410042 0.309136 0.916860
O O10 0.486192 0.738959 0.338896
O O11 0.584629 0.868077 0.393771
O O12 0.489116 0.835924 0.535893
O O13 0.639894 0.890117 0.691642
O O14 0.500000 0.000000 0.500000
#
# Coordination Sequence:
#
# PCOD8132421 Si02
#       7
#     8   8   8   4   8   8   8
#     4  11  20  37  61  88 126 164 198 258 319 361
#     4  10  18  37  61  86 117 158 211 254 296 365
#     4  11  22  38  62  93 122 163 219 257 307 379
#     4  10  22  40  56  88 136 158 194 262 324 382
#     4  11  20  34  57  92 126 156 197 256 320 376
#     4  11  21  36  61  88 121 165 206 255 310 374
#     4  11  23  38  57  92 128 161 206 260 313 376
#
# _framework density 19.893969999999999
#
# number of rings (size 3 to 8) (size 9 to 14) (size 15 to 20)
#    0.000    1.231    4.615    6.000    0.000    1.846 
#    0.000    2.308    0.000    0.000    0.000    0.000 
#    0.000    0.000    0.000    0.000    0.000    0.000 
#
# Total GULP energy -322227.663002 kJ/mol
# GULP energy per Si atom -12393.371654 kJ/mol
# Density = 1.984869 g / cm^3
# Si number density = 19.893970 Si / 1000 Ang^3
#
#
#
# Elastic Constant Matrix: (Units=GPa)
#
#
# Indices 1 2 3 4 5 6 
#
# 1 122.4832 28.4195 35.0216 0.0000 11.4703 0.0000
# 2 28.4195 58.0768 44.9145 0.0000 9.1114 0.0000
# 3 35.0216 44.9145 109.7202 0.0000 9.1297 0.0000
# 4 0.0000 0.0000 0.0000 25.4519 0.0000 3.5877
# 5 11.4703 9.1114 9.1297 0.0000 32.8829 0.0000
# 6 0.0000 0.0000 0.0000 3.5877 0.0000 28.3944
#
#
#
# Elastic Compliance Matrix: (Units=1/GPa)
#
#
# Indices 1 2 3 4 5 6 
#
# 1 0.009533 -0.003109 -0.001602 0.000000 -0.002019 0.000000
# 2 -0.003109 0.026793 -0.009671 0.000000 -0.003654 0.000000
# 3 -0.001602 -0.009671 0.013630 0.000000 -0.000546 0.000000
# 4 0.000000 0.000000 0.000000 0.040002 0.000000 -0.005054
# 5 -0.002019 -0.003654 -0.000546 0.000000 0.032279 0.000000
# 6 0.000000 0.000000 0.000000 -0.005054 0.000000 0.035857
#
#
# Mechanical properties :
#
#
# Convention : Reuss Voigt Hill
#
# Bulk Modulus (GPa) = 47.19088 56.33238 51.76163
# Shear Modulus (GPa) = 25.78353 29.47415 27.62884
#
# Velocity S-wave (km/s) = 3.60397 3.85328 3.73071
# Velocity P-wave (km/s) = 6.41021 6.94081 6.68078
#
# Compressibility (1/GPa) = 0.02119054
#
# Stress axis : x y z
#
# Youngs Moduli (GPa) = 104.89927 37.32359 73.36851
#
# Poissons Ratio (x) = 0.11604 0.11754
# Poissons Ratio (y) = 0.32615 0.70956
# Poissons Ratio (z) = 0.16806 0.36097
#
# Static dielectric constant tensor:
#      x y z
#    x 4.158820 0.000000 0.010160 
#    y 0.000000 3.427940 0.000000 
#    z 0.010160 0.000000 3.549450 
# 
# 
# High freq. dielectric constant tensor:
#      x y z
#    x 1.786170 0.000000 0.001910 
#    y 0.000000 1.740260 0.000000 
#    z 0.001910 0.000000 1.774920 
# 
# From -- ./inp_files/118829.got.cif
#   From: 2010.06.25/outbox.cif.g09.slc.cpg/sg15_60_cif.got.tgz:118829.got - 2010.06.28 07:06:18.
