data_PCOD8132496
_publ_section_title
;
Structure prediction by ZEFSAII (Michael W. Deem and Ramdas Pophale) SiO2 
 PCOD8132496
Probable space group: C 2/C
;
_chemical_formula_sum "Si O2"
_cell_formula_units_Z 60
_cell_length_a 17.692420
_cell_length_b 17.858406
_cell_length_c 10.066667
_cell_angle_alpha 90.000000
_cell_angle_beta 63.677753
_cell_angle_gamma 90.000000
_cell_volume 2850.860542
_symmetry_space_group_name_H-M "C 2/C"
_symmetry_group_IT_number 15
_symmetry_cell_setting 'monoclinic'
loop_
_space_group_symop_operation_xyz
x,y,z
-x,y,1/2-z
-x,-y,-z
x,-y,1/2+z
1/2+x,1/2+y,z
1/2-x,1/2+y,1/2-z
1/2-x,1/2-y,-z
1/2+x,1/2-y,1/2+z
loop_
_atom_site_type_symbol
_atom_site_label
_atom_site_fract_x
_atom_site_fract_y
_atom_site_fract_z
Si Si1 0.229762 0.951305 0.318436
Si Si2 0.089033 0.067550 0.722963
Si Si3 0.848310 0.635477 0.539701
Si Si4 0.321100 0.308334 0.983814
Si Si5 0.942911 0.216893 0.618078
Si Si6 0.000000 0.346490 0.750000
Si Si7 0.115604 0.789136 0.844869
Si Si8 0.776185 0.895317 0.577732
O O1 0.140112 0.965393 0.310415
O O2 0.214553 0.891475 0.450869
O O3 0.270080 0.030540 0.331042
O O4 0.305690 0.927423 0.162274
O O5 0.075226 0.155717 0.756456
O O6 0.145178 0.062245 0.549933
O O7 0.000000 0.027660 0.750000
O O8 0.865316 0.704479 0.624587
O O9 0.780628 0.654174 0.477194
O O10 0.933779 0.607627 0.394736
O O11 0.387514 0.305681 0.810243
O O12 0.250000 0.250000 0.000000
O O13 0.365542 0.275136 0.078512
O O14 0.947221 0.295447 0.689673
O O15 0.025826 0.189182 0.475281
O O16 0.192474 0.840160 0.833514
#
# Coordination Sequence:
#
# PCOD8132496 Si02
#       8
#     8   8   8   8   8   4   8   8
#     4  10  24  40  56  90 132 163 205 253 299 375
#     4  10  18  38  57  85 124 162 205 247 283 359
#     4  10  22  41  63  92 119 150 217 264 304 377
#     4  11  23  38  59  89 131 170 203 246 314 368
#     4  10  20  38  59  94 128 152 209 265 293 368
#     4  10  20  38  72  90 110 156 206 270 328 346
#     4  11  21  38  64  91 121 165 207 252 315 359
#     4  11  23  37  63  90 122 170 203 255 310 361
#
# _framework density 21.046277
#
# number of rings (size 3 to 8) (size 9 to 14) (size 15 to 20)
#    0.000    1.600    3.333    1.600    5.600    0.533 
#    0.000    0.667    0.000    1.600    0.000    0.000 
#    0.000    0.000    0.000    0.000    0.000    0.000 
#
# Total GULP energy -371674.976599 kJ/mol
# GULP energy per Si atom -12389.165887 kJ/mol
# Density = 2.099837 g / cm^3
# Si number density = 21.046277 Si / 1000 Ang^3
#
#
#
# Elastic Constant Matrix: (Units=GPa)
#
#
# Indices 1 2 3 4 5 6 
#
# 1 63.2830 11.1991 19.0717 0.0000 2.8292 0.0000
# 2 11.1991 37.9647 20.0881 0.0000 -1.4020 0.0000
# 3 19.0717 20.0881 101.0444 0.0000 -9.4055 0.0000
# 4 0.0000 0.0000 0.0000 25.1820 0.0000 -0.8365
# 5 2.8292 -1.4020 -9.4055 0.0000 38.3862 0.0000
# 6 0.0000 0.0000 0.0000 -0.8365 0.0000 17.0263
#
#
#
# Elastic Compliance Matrix: (Units=1/GPa)
#
#
# Indices 1 2 3 4 5 6 
#
# 1 0.017383 -0.003762 -0.002727 0.000000 -0.002087 0.000000
# 2 -0.003762 0.030256 -0.005297 0.000000 0.000084 0.000000
# 3 -0.002727 -0.005297 0.011733 0.000000 0.002882 0.000000
# 4 0.000000 0.000000 0.000000 0.039776 0.000000 0.001954
# 5 -0.002087 0.000084 0.002882 0.000000 0.026914 0.000000
# 6 0.000000 0.000000 0.000000 0.001954 0.000000 0.058829
#
#
# Mechanical properties :
#
#
# Convention : Reuss Voigt Hill
#
# Bulk Modulus (GPa) = 27.93355 33.66778 30.80067
# Shear Modulus (GPa) = 22.68643 26.24777 24.46710
#
# Velocity S-wave (km/s) = 3.28675 3.53533 3.41330
# Velocity P-wave (km/s) = 5.26354 5.71808 5.49551
#
# Compressibility (1/GPa) = 0.03579924
#
# Stress axis : x y z
#
# Youngs Moduli (GPa) = 57.52749 33.05140 85.23102
#
# Poissons Ratio (x) = 0.12433 0.23246
# Poissons Ratio (y) = 0.21640 0.45148
# Poissons Ratio (z) = 0.15690 0.17508
#
# Static dielectric constant tensor:
#      x y z
#    x 3.947170 0.000000 0.009540 
#    y 0.000000 3.424030 0.000000 
#    z 0.009540 0.000000 4.233790 
# 
# 
# High freq. dielectric constant tensor:
#      x y z
#    x 1.821600 0.000000 0.001140 
#    y 0.000000 1.789480 0.000000 
#    z 0.001140 0.000000 1.843250 
# 
# From -- ./inp_files/50180.got.cif
#   From: 2010.06.25/outbox.cif.g09.slc.cpg/sg15_26_cif.got.tgz:50180.got - 2010.06.28 07:06:18.
