data_PCOD8132212
_publ_section_title
;
Structure prediction by ZEFSAII (Michael W. Deem and Ramdas Pophale) SiO2 
 PCOD8132212
Probable space group: C 2/C
;
_chemical_formula_sum "Si O2"
_cell_formula_units_Z 64
_cell_length_a 23.725428
_cell_length_b 21.684883
_cell_length_c 12.405088
_cell_angle_alpha 90.000000
_cell_angle_beta 28.507607
_cell_angle_gamma 90.000000
_cell_volume 3046.071335
_symmetry_space_group_name_H-M "C 2/C"
_symmetry_group_IT_number 15
_symmetry_cell_setting 'monoclinic'
loop_
_space_group_symop_operation_xyz
x,y,z
-x,y,1/2-z
-x,-y,-z
x,-y,1/2+z
1/2+x,1/2+y,z
1/2-x,1/2+y,1/2-z
1/2-x,1/2-y,-z
1/2+x,1/2-y,1/2+z
loop_
_atom_site_type_symbol
_atom_site_label
_atom_site_fract_x
_atom_site_fract_y
_atom_site_fract_z
Si Si1 0.628131 0.701456 0.577698
Si Si2 0.351917 0.383416 0.264748
Si Si3 0.875135 0.019219 0.907798
Si Si4 0.406252 0.604782 0.237609
Si Si5 0.775178 0.897689 0.739871
Si Si6 0.635018 0.158559 0.013657
Si Si7 0.376661 0.805698 0.405424
Si Si8 0.725544 0.806933 0.142443
O O1 0.500000 0.687698 0.750000
O O2 0.634604 0.679970 0.691092
O O3 0.710548 0.659330 0.365854
O O4 0.657058 0.773438 0.524177
O O5 0.360825 0.443491 0.322378
O O6 0.222285 0.387067 0.429648
O O7 0.451904 0.385891 0.002313
O O8 0.000000 0.036796 0.750000
O O9 0.867133 0.948355 0.887126
O O10 0.775792 0.040045 0.164497
O O11 0.372190 0.592331 0.170290
O O12 0.342038 0.664958 0.390538
O O13 0.653672 0.876053 0.003344
O O14 0.500000 0.136550 0.250000
O O15 0.669102 0.153483 0.831523
O O16 0.500000 0.784254 0.250000
O O17 0.379483 0.802686 0.269999
O O18 0.268886 0.758850 0.617771
#
# Coordination Sequence:
#
# PCOD8132212 Si02
#       8
#     8   8   8   8   8   8   8   8
#     4  10  18  36  59  88 124 167 207 250 312 386
#     4  11  22  38  62  93 125 169 210 261 325 376
#     4  11  23  38  63  97 122 162 210 270 324 381
#     4  11  23  37  64  96 128 158 209 273 329 370
#     4  10  19  39  59  88 133 161 206 261 312 389
#     4  11  25  39  58  89 133 170 211 259 311 384
#     4  10  22  40  65  90 127 173 209 252 328 389
#     4  10  24  40  60  97 129 161 209 275 310 380
#
# _framework density 21.010670999999999
#
# number of rings (size 3 to 8) (size 9 to 14) (size 15 to 20)
#    0.000    1.500    3.750    1.500    3.500    2.000 
#    0.000    0.000    0.000   10.500    0.000    0.000 
#    0.000    0.000    0.000    0.000    0.000    0.000 
#
# Total GULP energy -396545.679782 kJ/mol
# GULP energy per Si atom -12392.052493 kJ/mol
# Density = 2.096285 g / cm^3
# Si number density = 21.010671 Si / 1000 Ang^3
#
#
#
# Elastic Constant Matrix: (Units=GPa)
#
#
# Indices 1 2 3 4 5 6 
#
# 1 127.4289 34.2270 54.3054 0.0004 -14.0942 -0.0003
# 2 34.2270 62.6227 23.2128 0.0002 1.6308 -0.0002
# 3 54.3054 23.2128 88.5110 0.0008 2.9797 -0.0009
# 4 0.0004 0.0002 0.0008 35.3573 -0.0006 12.9004
# 5 -14.0942 1.6308 2.9797 -0.0006 32.3262 0.0006
# 6 -0.0003 -0.0002 -0.0009 12.9004 0.0006 31.1666
#
#
#
# Elastic Compliance Matrix: (Units=1/GPa)
#
#
# Indices 1 2 3 4 5 6 
#
# 1 0.012678 -0.004578 -0.006793 0.000000 0.006385 0.000000
# 2 -0.004578 0.019348 -0.002172 0.000000 -0.002772 0.000000
# 3 -0.006793 -0.002172 0.016182 -0.000001 -0.004344 0.000001
# 4 0.000000 0.000000 -0.000001 0.033314 0.000001 -0.013789
# 5 0.006385 -0.002772 -0.004344 0.000001 0.034259 -0.000001
# 6 0.000000 0.000000 0.000001 -0.013789 -0.000001 0.037793
#
#
# Mechanical properties :
#
#
# Convention : Reuss Voigt Hill
#
# Bulk Modulus (GPa) = 47.34392 55.78367 51.56380
# Shear Modulus (GPa) = 26.63820 30.89116 28.76468
#
# Velocity S-wave (km/s) = 3.56454 3.83856 3.70408
# Velocity P-wave (km/s) = 6.28677 6.80102 6.54894
#
# Compressibility (1/GPa) = 0.02112204
#
# Stress axis : x y z
#
# Youngs Moduli (GPa) = 78.87569 51.68493 61.79785
#
# Poissons Ratio (x) = 0.23659 0.41979
# Poissons Ratio (y) = 0.36106 0.13424
# Poissons Ratio (z) = 0.53581 0.11228
#
# Static dielectric constant tensor:
#      x y z
#    x 3.660910 0.000000 0.083270 
#    y 0.000000 3.637690 0.000000 
#    z 0.083270 0.000000 3.569520 
# 
# 
# High freq. dielectric constant tensor:
#      x y z
#    x 1.827990 0.000000 0.022950 
#    y 0.000000 1.802890 0.000000 
#    z 0.022950 0.000000 1.805540 
# 
# From -- ./inp_files/120245.got.cif
#   From: 2010.06.25/outbox.cif.g09.slc.cpg/sg15_61_cif.got.tgz:120245.got - 2010.06.28 07:06:18.
