data_PCOD8132243
_publ_section_title
;
Structure prediction by ZEFSAII (Michael W. Deem and Ramdas Pophale) SiO2 
 PCOD8132243
Probable space group: C 2/C
;
_chemical_formula_sum "Si O2"
_cell_formula_units_Z 60
_cell_length_a 11.795168
_cell_length_b 19.858452
_cell_length_c 15.408809
_cell_angle_alpha 90.000000
_cell_angle_beta 120.378060
_cell_angle_gamma 90.000000
_cell_volume 3113.738289
_symmetry_space_group_name_H-M "C 2/C"
_symmetry_group_IT_number 15
_symmetry_cell_setting 'monoclinic'
loop_
_space_group_symop_operation_xyz
x,y,z
-x,y,1/2-z
-x,-y,-z
x,-y,1/2+z
1/2+x,1/2+y,z
1/2-x,1/2+y,1/2-z
1/2-x,1/2-y,-z
1/2+x,1/2-y,1/2+z
loop_
_atom_site_type_symbol
_atom_site_label
_atom_site_fract_x
_atom_site_fract_y
_atom_site_fract_z
Si Si1 0.156705 0.302653 0.610863
Si Si2 0.500000 0.129682 0.250000
Si Si3 0.533288 0.937729 0.601154
Si Si4 0.711468 0.226705 0.330859
Si Si5 0.891078 0.884272 0.633529
Si Si6 0.992296 0.818635 0.985308
Si Si7 0.894572 0.144809 0.635729
Si Si8 0.723464 0.983717 0.069033
O O1 0.064202 0.368628 0.560092
O O2 0.162067 0.274347 0.711682
O O3 0.302199 0.321796 0.632673
O O4 0.095680 0.242177 0.531871
O O5 0.423804 0.080850 0.285626
O O6 0.611645 0.175176 0.341186
O O7 0.379037 0.958561 0.544142
O O8 0.624181 0.000886 0.610524
O O9 0.860355 0.205499 0.389353
O O10 0.707874 0.295395 0.385091
O O11 0.000000 0.899351 0.750000
O O12 0.950984 0.871326 0.561877
O O13 0.803599 0.949540 0.579243
O O14 0.959273 0.853324 0.065090
O O15 0.825963 0.074331 0.628874
O O16 0.000000 0.156553 0.750000
#
# Coordination Sequence:
#
# PCOD8132243 Si02
#       8
#     8   4   8   8   8   8   8   8
#     4  10  20  40  63  89 120 155 204 249 298 357
#     4  10  18  36  60  92 112 152 204 248 290 356
#     4   9  19  38  61  81 114 156 202 243 288 352
#     4  11  20  37  63  89 123 149 200 251 304 354
#     4  11  23  42  61  85 122 164 204 240 294 367
#     4  12  23  37  65  90 118 163 192 253 307 347
#     4  12  22  38  56  90 124 147 194 247 298 351
#     4  10  22  39  58  82 118 163 195 242 295 348
#
# _framework density 19.269442000000002
#
# number of rings (size 3 to 8) (size 9 to 14) (size 15 to 20)
#    0.000    1.333    3.333    3.600    0.000    0.533 
#    2.400    0.000    0.000    0.000    0.000    0.000 
#    0.000    0.000    0.000    0.000    0.000    0.000 
#
# Total GULP energy -371701.598094 kJ/mol
# GULP energy per Si atom -12390.053270 kJ/mol
# Density = 1.922558 g / cm^3
# Si number density = 19.269442 Si / 1000 Ang^3
#
#
#
# Elastic Constant Matrix: (Units=GPa)
#
#
# Indices 1 2 3 4 5 6 
#
# 1 89.5411 34.0425 32.9864 0.0000 -0.2400 0.0000
# 2 34.0425 87.3297 30.1360 0.0000 -6.6375 0.0000
# 3 32.9864 30.1360 74.7744 0.0000 -1.7731 0.0000
# 4 0.0000 0.0000 0.0000 18.9603 0.0000 7.9699
# 5 -0.2400 -6.6375 -1.7731 0.0000 34.6564 0.0000
# 6 0.0000 0.0000 0.0000 7.9699 0.0000 38.5857
#
#
#
# Elastic Compliance Matrix: (Units=1/GPa)
#
#
# Indices 1 2 3 4 5 6 
#
# 1 0.014467 -0.004065 -0.004765 0.000000 -0.000922 0.000000
# 2 -0.004065 0.014625 -0.004040 0.000000 0.002566 0.000000
# 3 -0.004765 -0.004040 0.017106 0.000000 0.000068 0.000000
# 4 0.000000 0.000000 0.000000 0.057756 0.000000 -0.011930
# 5 -0.000922 0.002566 0.000068 0.000000 0.029343 0.000000
# 6 0.000000 0.000000 0.000000 -0.011930 0.000000 0.028380
#
#
# Mechanical properties :
#
#
# Convention : Reuss Voigt Hill
#
# Bulk Modulus (GPa) = 48.88526 49.55278 49.21902
# Shear Modulus (GPa) = 25.74184 28.73919 27.24051
#
# Velocity S-wave (km/s) = 3.65895 3.86610 3.76395
# Velocity P-wave (km/s) = 6.57837 6.76022 6.66991
#
# Compressibility (1/GPa) = 0.02045606
#
# Stress axis : x y z
#
# Youngs Moduli (GPa) = 69.12486 68.37792 58.46013
#
# Poissons Ratio (x) = 0.27795 0.27859
# Poissons Ratio (y) = 0.28099 0.23618
# Poissons Ratio (z) = 0.32941 0.27625
#
# Static dielectric constant tensor:
#      x y z
#    x 3.727600 0.000000 0.070180 
#    y 0.000000 3.527280 0.000000 
#    z 0.070180 0.000000 3.419680 
# 
# 
# High freq. dielectric constant tensor:
#      x y z
#    x 1.763120 0.000000 0.009370 
#    y 0.000000 1.747620 0.000000 
#    z 0.009370 0.000000 1.739150 
# 
# From -- ./inp_files/147191.got.cif
#   From: 2010.06.25/outbox.cif.g09.slc.cpg/sg15_74_cif.got.tgz:147191.got - 2010.06.28 07:06:18.
