data_PCOD8132673
_publ_section_title
;
Structure prediction by ZEFSAII (Michael W. Deem and Ramdas Pophale) SiO2 
 PCOD8132673
Probable space group: C 2/C
;
_chemical_formula_sum "Si O2"
_cell_formula_units_Z 40
_cell_length_a 22.114691
_cell_length_b 14.153875
_cell_length_c 9.586829
_cell_angle_alpha 90.000000
_cell_angle_beta 36.022945
_cell_angle_gamma 90.000000
_cell_volume 1764.774327
_symmetry_space_group_name_H-M "C 2/C"
_symmetry_group_IT_number 15
_symmetry_cell_setting 'monoclinic'
loop_
_space_group_symop_operation_xyz
x,y,z
-x,y,1/2-z
-x,-y,-z
x,-y,1/2+z
1/2+x,1/2+y,z
1/2-x,1/2+y,1/2-z
1/2-x,1/2-y,-z
1/2+x,1/2-y,1/2+z
loop_
_atom_site_type_symbol
_atom_site_label
_atom_site_fract_x
_atom_site_fract_y
_atom_site_fract_z
Si Si1 0.252715 0.076667 0.053603
Si Si2 0.757644 0.220013 0.194480
Si Si3 0.664298 0.876986 0.610366
Si Si4 0.028327 0.346618 0.357624
Si Si5 0.592775 0.342082 0.656399
O O1 0.205024 0.142750 0.263410
O O2 0.167823 0.082528 0.089001
O O3 0.361079 0.116297 0.798894
O O4 0.276861 0.970155 0.057075
O O5 0.738410 0.162966 0.090223
O O6 0.653510 0.271416 0.438842
O O7 0.842025 0.301806 0.005784
O O8 0.552021 0.894675 0.885027
O O9 0.033998 0.232676 0.367789
O O10 0.000000 0.376327 0.250000
O O11 0.500000 0.398081 0.750000
#
# Coordination Sequence:
#
# PCOD8132673 Si02
#       5
#     8   8   8   8   8
#     4  11  23  39  69 102 132 179 229 274 337 410
#     4  10  22  41  64  95 135 179 218 281 336 400
#     4  11  22  39  70  95 140 175 222 276 343 398
#     4  10  18  39  65  99 136 170 215 279 345 394
#     4  10  20  42  68  88 139 185 217 277 337 396
#
# _framework density 22.665787999999999
#
# number of rings (size 3 to 8) (size 9 to 14) (size 15 to 20)
#    0.000    1.600    6.000    3.000    2.800    0.000 
#    0.000    5.000    0.000    0.000    0.000    0.000 
#    0.000    0.000    0.000    0.000    0.000    0.000 
#
# Total GULP energy -247764.656335 kJ/mol
# GULP energy per Si atom -12388.232817 kJ/mol
# Density = 2.261420 g / cm^3
# Si number density = 22.665788 Si / 1000 Ang^3
#
#
#
# Elastic Constant Matrix: (Units=GPa)
#
#
# Indices 1 2 3 4 5 6 
#
# 1 113.3807 39.3916 42.3626 0.0000 -24.9223 0.0000
# 2 39.3916 121.0530 57.3852 0.0000 6.3393 0.0000
# 3 42.3626 57.3852 90.2870 0.0000 7.4253 0.0000
# 4 0.0000 0.0000 0.0000 27.3492 0.0000 0.8977
# 5 -24.9223 6.3393 7.4253 0.0000 23.1201 0.0000
# 6 0.0000 0.0000 0.0000 0.8977 0.0000 25.7781
#
#
#
# Elastic Compliance Matrix: (Units=1/GPa)
#
#
# Indices 1 2 3 4 5 6 
#
# 1 0.018128 -0.003114 -0.008426 0.000000 0.023101 0.000000
# 2 -0.003114 0.012375 -0.006007 0.000000 -0.004821 0.000000
# 3 -0.008426 -0.006007 0.019987 0.000000 -0.013855 0.000000
# 4 0.000000 0.000000 0.000000 0.036606 0.000000 -0.001275
# 5 0.023101 -0.004821 -0.013855 0.000000 0.073926 0.000000
# 6 0.000000 0.000000 0.000000 -0.001275 0.000000 0.038837
#
#
# Mechanical properties :
#
#
# Convention : Reuss Voigt Hill
#
# Bulk Modulus (GPa) = 64.96094 66.99995 65.98044
# Shear Modulus (GPa) = 20.82596 27.62157 24.22376
#
# Velocity S-wave (km/s) = 3.03451 3.49470 3.27270
# Velocity P-wave (km/s) = 6.40314 6.77554 6.59197
#
# Compressibility (1/GPa) = 0.01539387
#
# Stress axis : x y z
#
# Youngs Moduli (GPa) = 55.16333 80.81115 50.03276
#
# Poissons Ratio (x) = 0.25168 0.42158
# Poissons Ratio (y) = 0.17180 0.30056
# Poissons Ratio (z) = 0.46481 0.48546
#
# Static dielectric constant tensor:
#      x y z
#    x 3.888330 0.000000 -0.007830 
#    y 0.000000 4.065950 0.000000 
#    z -0.007830 0.000000 4.175220 
# 
# 
# High freq. dielectric constant tensor:
#      x y z
#    x 1.878460 0.000000 -0.004960 
#    y 0.000000 1.878800 0.000000 
#    z -0.004960 0.000000 1.879190 
# 
# From -- ./inp_files/61364.got.cif
#   From: 2010.06.25/outbox.cif.g09.slc.cpg/sg15_31_cif.got.tgz:61364.got - 2010.06.28 07:06:18.
