data_PCOD8132875
_publ_section_title
;
Structure prediction by ZEFSAII (Michael W. Deem and Ramdas Pophale) SiO2 
 PCOD8132875
Probable space group: C 2/C
;
_chemical_formula_sum "Si O2"
_cell_formula_units_Z 56
_cell_length_a 15.136484
_cell_length_b 30.678024
_cell_length_c 9.154561
_cell_angle_alpha 90.000000
_cell_angle_beta 48.796902
_cell_angle_gamma 90.000000
_cell_volume 3198.355585
_symmetry_space_group_name_H-M "C 2/C"
_symmetry_group_IT_number 15
_symmetry_cell_setting 'monoclinic'
loop_
_space_group_symop_operation_xyz
x,y,z
-x,y,1/2-z
-x,-y,-z
x,-y,1/2+z
1/2+x,1/2+y,z
1/2-x,1/2+y,1/2-z
1/2-x,1/2-y,-z
1/2+x,1/2-y,1/2+z
loop_
_atom_site_type_symbol
_atom_site_label
_atom_site_fract_x
_atom_site_fract_y
_atom_site_fract_z
Si Si1 0.310676 0.113095 0.132506
Si Si2 0.272170 0.241800 0.306804
Si Si3 0.612141 0.674216 0.316815
Si Si4 0.866906 0.626108 0.746953
Si Si5 0.481666 0.956268 0.434192
Si Si6 0.538272 0.175583 0.374705
Si Si7 0.349614 0.324170 0.057628
O O1 0.173480 0.126195 0.273449
O O2 0.364461 0.137773 0.213348
O O3 0.378794 0.129102 0.910247
O O4 0.347496 0.062083 0.107255
O O5 0.250000 0.250000 0.500000
O O6 0.168407 0.210742 0.359704
O O7 0.400940 0.220837 0.145900
O O8 0.274363 0.286934 0.218547
O O9 0.474326 0.667593 0.501725
O O10 0.630573 0.690022 0.131213
O O11 0.922184 0.580855 0.626538
O O12 0.931393 0.667108 0.601429
O O13 0.729215 0.631457 0.852237
O O14 0.500000 0.970665 0.250000
O O15 0.500000 0.000000 0.500000
O O16 0.500000 0.176746 0.250000
#
# Coordination Sequence:
#
# PCOD8132875 Si02
#       7
#     8   8   8   8   8   8   8
#     4   8  17  35  52  70  99 130 159 203 247 296
#     4  11  23  33  46  66 101 133 167 214 252 295
#     4   9  20  37  50  72  91 130 177 210 252 282
#     4   9  18  34  52  72  98 128 163 201 253 287
#     4   9  17  30  52  80 102 123 150 195 248 303
#     4  10  19  30  46  69  94 130 167 201 247 291
#     4  10  20  34  54  69  93 128 175 218 241 292
#
# _framework density 17.508997000000001
#
# number of rings (size 3 to 8) (size 9 to 14) (size 15 to 20)
#    0.000    2.571    0.000    2.571    4.000    2.286 
#    5.143    0.000    0.000    0.857    0.000    0.000 
#    0.000    0.000    0.000    0.000    0.000    0.857 
#
# Total GULP energy -346878.348649 kJ/mol
# GULP energy per Si atom -12388.512452 kJ/mol
# Density = 1.746915 g / cm^3
# Si number density = 17.508997 Si / 1000 Ang^3
#
#
#
# Elastic Constant Matrix: (Units=GPa)
#
#
# Indices 1 2 3 4 5 6 
#
# 1 114.7670 52.7063 31.7039 0.0000 -9.0419 0.0000
# 2 52.7063 101.6159 33.8382 0.0000 -7.2473 0.0000
# 3 31.7039 33.8382 40.6625 0.0000 -7.9711 0.0000
# 4 0.0000 0.0000 0.0000 17.5722 0.0000 5.1236
# 5 -9.0419 -7.2473 -7.9711 0.0000 26.8050 0.0000
# 6 0.0000 0.0000 0.0000 5.1236 0.0000 26.3913
#
#
#
# Elastic Compliance Matrix: (Units=1/GPa)
#
#
# Indices 1 2 3 4 5 6 
#
# 1 0.012446 -0.004449 -0.005749 0.000000 0.001286 0.000000
# 2 -0.004449 0.015207 -0.009211 0.000000 -0.000128 0.000000
# 3 -0.005749 -0.009211 0.038093 0.000000 0.006898 0.000000
# 4 0.000000 0.000000 0.000000 0.060323 0.000000 -0.011711
# 5 0.001286 -0.000128 0.006898 0.000000 0.039757 0.000000
# 6 0.000000 0.000000 0.000000 -0.011711 0.000000 0.040165
#
#
# Mechanical properties :
#
#
# Convention : Reuss Voigt Hill
#
# Bulk Modulus (GPa) = 37.13813 54.83803 45.98808
# Shear Modulus (GPa) = 19.70174 23.40682 21.55428
#
# Velocity S-wave (km/s) = 3.35809 3.66026 3.51242
# Velocity P-wave (km/s) = 6.02434 7.01792 6.54002
#
# Compressibility (1/GPa) = 0.02692651
#
# Stress axis : x y z
#
# Youngs Moduli (GPa) = 80.34565 65.76000 26.25176
#
# Poissons Ratio (x) = 0.29259 0.15093
# Poissons Ratio (y) = 0.35749 0.24180
# Poissons Ratio (z) = 0.46195 0.60570
#
# Static dielectric constant tensor:
#      x y z
#    x 3.523900 0.000000 -0.106150 
#    y 0.000000 3.036400 0.000000 
#    z -0.106150 0.000000 3.210680 
# 
# 
# High freq. dielectric constant tensor:
#      x y z
#    x 1.686380 0.000000 0.002260 
#    y 0.000000 1.641830 0.000000 
#    z 0.002260 0.000000 1.667380 
# 
# From -- ./inp_files/44238.got.cif
#   From: 2010.06.25/outbox.cif.g09.slc.cpg/sg15_23_cif.got.tgz:44238.got - 2010.06.28 07:06:18.
