data_PCOD8132028
_publ_section_title
;
Structure prediction by ZEFSAII (Michael W. Deem and Ramdas Pophale) SiO2 
 PCOD8132028
Probable space group: C 2/C
;
_chemical_formula_sum "Si O2"
_cell_formula_units_Z 48
_cell_length_a 14.160924
_cell_length_b 10.731379
_cell_length_c 22.397685
_cell_angle_alpha 90.000000
_cell_angle_beta 48.407715
_cell_angle_gamma 90.000000
_cell_volume 2545.578664
_symmetry_space_group_name_H-M "C 2/C"
_symmetry_group_IT_number 15
_symmetry_cell_setting 'monoclinic'
loop_
_space_group_symop_operation_xyz
x,y,z
-x,y,1/2-z
-x,-y,-z
x,-y,1/2+z
1/2+x,1/2+y,z
1/2-x,1/2+y,1/2-z
1/2-x,1/2-y,-z
1/2+x,1/2-y,1/2+z
loop_
_atom_site_type_symbol
_atom_site_label
_atom_site_fract_x
_atom_site_fract_y
_atom_site_fract_z
Si Si1 0.567082 0.169686 0.957608
Si Si2 0.670314 0.763798 0.664779
Si Si3 0.874641 0.461423 0.333003
Si Si4 0.087184 0.889167 0.437013
Si Si5 0.040944 0.780413 0.333199
Si Si6 0.483838 0.973688 0.907923
O O1 0.682377 0.264836 0.908438
O O2 0.566253 0.090607 0.896713
O O3 0.445193 0.258088 0.016844
O O4 0.591751 0.076112 0.002520
O O5 0.627035 0.903625 0.696704
O O6 0.600084 0.710873 0.635402
O O7 0.636948 0.687251 0.739030
O O8 0.738940 0.398324 0.378841
O O9 0.888588 0.472228 0.398545
O O10 0.000000 0.394527 0.250000
O O11 0.054290 0.880710 0.380300
O O12 0.000000 0.000000 0.500000
O O13 0.067407 0.640009 0.346962
#
# Coordination Sequence:
#
# PCOD8132028 Si02
#       6
#     8   8   8   8   8   8
#     4  10  21  36  58  86 110 151 187 237 279 330
#     4  10  18  35  60  85 107 148 193 236 284 321
#     4  11  21  37  57  84 115 154 187 227 292 342
#     4  11  23  35  57  90 117 145 191 240 280 330
#     4   9  20  35  57  87 112 147 192 233 282 339
#     4   9  20  37  57  81 112 148 190 229 281 344
#
# _framework density 18.856223
#
# number of rings (size 3 to 8) (size 9 to 14) (size 15 to 20)
#    0.000    2.000    5.000    0.000    4.667    2.667 
#    0.000    0.000    0.000    0.000    0.000    0.000 
#    0.000    0.000    0.000    0.000    0.000    0.000 
#
# Total GULP energy -297322.976039 kJ/mol
# GULP energy per Si atom -12388.457335 kJ/mol
# Density = 1.881331 g / cm^3
# Si number density = 18.856223 Si / 1000 Ang^3
#
#
#
# Elastic Constant Matrix: (Units=GPa)
#
#
# Indices 1 2 3 4 5 6 
#
# 1 123.6600 49.1112 76.1695 0.0000 -1.6612 0.0000
# 2 49.1112 59.7281 37.4242 0.0000 4.8546 0.0000
# 3 76.1695 37.4242 92.0243 0.0000 0.0137 0.0000
# 4 0.0000 0.0000 0.0000 21.8146 0.0000 4.2565
# 5 -1.6612 4.8546 0.0137 0.0000 48.5221 0.0000
# 6 0.0000 0.0000 0.0000 4.2565 0.0000 31.4350
#
#
#
# Elastic Compliance Matrix: (Units=1/GPa)
#
#
# Indices 1 2 3 4 5 6 
#
# 1 0.018887 -0.007852 -0.012440 0.000000 0.001436 0.000000
# 2 -0.007852 0.025979 -0.004066 0.000000 -0.002867 0.000000
# 3 -0.012440 -0.004066 0.022817 0.000000 -0.000026 0.000000
# 4 0.000000 0.000000 0.000000 0.047085 0.000000 -0.006376
# 5 0.001436 -0.002867 -0.000026 0.000000 0.020945 0.000000
# 6 0.000000 0.000000 0.000000 -0.006376 0.000000 0.032675
#
#
# Mechanical properties :
#
#
# Convention : Reuss Voigt Hill
#
# Bulk Modulus (GPa) = 52.72050 66.75802 59.73926
# Shear Modulus (GPa) = 22.37892 27.86817 25.12354
#
# Velocity S-wave (km/s) = 3.44876 3.84856 3.65413
# Velocity P-wave (km/s) = 6.62409 7.43163 7.03945
#
# Compressibility (1/GPa) = 0.01896795
#
# Stress axis : x y z
#
# Youngs Moduli (GPa) = 52.94743 38.49254 43.82751
#
# Poissons Ratio (x) = 0.30223 0.54521
# Poissons Ratio (y) = 0.41573 0.17819
# Poissons Ratio (z) = 0.65866 0.15650
#
# Static dielectric constant tensor:
#      x y z
#    x 3.568580 0.000000 0.114560 
#    y 0.000000 3.260610 0.000000 
#    z 0.114560 0.000000 3.494200 
# 
# 
# High freq. dielectric constant tensor:
#      x y z
#    x 1.728880 0.000000 0.013740 
#    y 0.000000 1.702860 0.000000 
#    z 0.013740 0.000000 1.740720 
# 
# From -- ./inp_files/243266.got.cif
#   From: 2010.06.25/outbox.cif.g09.slc.cpg/sg15_122_cif.got.tgz:243266.got - 2010.06.28 07:06:18.
