data_PCOD8132026
_publ_section_title
;
Structure prediction by ZEFSAII (Michael W. Deem and Ramdas Pophale) SiO2 
 PCOD8132026
Probable space group: C 2/C
;
_chemical_formula_sum "Si O2"
_cell_formula_units_Z 36
_cell_length_a 15.777914
_cell_length_b 6.686931
_cell_length_c 17.435806
_cell_angle_alpha 90.000000
_cell_angle_beta 66.624520
_cell_angle_gamma 90.000000
_cell_volume 1688.594684
_symmetry_space_group_name_H-M "C 2/C"
_symmetry_group_IT_number 15
_symmetry_cell_setting 'monoclinic'
loop_
_space_group_symop_operation_xyz
x,y,z
-x,y,1/2-z
-x,-y,-z
x,-y,1/2+z
1/2+x,1/2+y,z
1/2-x,1/2+y,1/2-z
1/2-x,1/2-y,-z
1/2+x,1/2-y,1/2+z
loop_
_atom_site_type_symbol
_atom_site_label
_atom_site_fract_x
_atom_site_fract_y
_atom_site_fract_z
Si Si1 0.669781 0.403337 0.609869
Si Si2 0.711371 0.188540 0.836301
Si Si3 0.818588 0.909217 0.068559
Si Si4 0.000000 0.910616 0.250000
Si Si5 0.881515 0.678764 0.176729
O O1 0.745666 0.562253 0.609582
O O2 0.713310 0.180753 0.604731
O O3 0.645091 0.442080 0.530240
O O4 0.578216 0.437926 0.692698
O O5 0.673135 0.387604 0.887228
O O6 0.785193 0.235671 0.744114
O O7 0.627709 0.063230 0.825602
O O8 0.889079 0.760949 0.087044
O O9 0.033061 0.756551 0.304022
#
# Coordination Sequence:
#
# PCOD8132026 Si02
#       5
#     8   8   8   4   8
#     4   9  21  37  59  88 122 154 201 253 304 363
#     4  10  18  35  60  84 114 158 208 247 288 366
#     4  10  19  37  62  87 114 163 209 243 293 369
#     4  10  22  40  56  92 132 156 194 260 320 352
#     4  10  20  34  59  85 121 157 205 247 300 359
#
# _framework density 21.319503999999998
#
# number of rings (size 3 to 8) (size 9 to 14) (size 15 to 20)
#    0.000    2.222    2.222    0.667    0.000    0.889 
#    0.000   11.111    0.000    0.000    0.000    0.000 
#    0.000    0.000    0.000    0.000    0.000    0.000 
#
# Total GULP energy -223100.354896 kJ/mol
# GULP energy per Si atom -12394.464161 kJ/mol
# Density = 2.127098 g / cm^3
# Si number density = 21.319504 Si / 1000 Ang^3
#
#
#
# Elastic Constant Matrix: (Units=GPa)
#
#
# Indices 1 2 3 4 5 6 
#
# 1 75.0424 23.4125 23.5608 0.0001 8.2880 0.0004
# 2 23.4125 113.3354 24.3591 0.0002 -1.2518 0.0005
# 3 23.5608 24.3591 78.3469 0.0001 21.1749 0.0004
# 4 0.0001 0.0002 0.0001 32.4482 0.0000 10.9028
# 5 8.2880 -1.2518 21.1749 0.0000 31.1472 0.0001
# 6 0.0004 0.0005 0.0004 10.9028 0.0001 18.3693
#
#
#
# Elastic Compliance Matrix: (Units=1/GPa)
#
#
# Indices 1 2 3 4 5 6 
#
# 1 0.015356 -0.002478 -0.003328 0.000000 -0.001924 0.000000
# 2 -0.002478 0.010076 -0.003277 0.000000 0.003292 0.000000
# 3 -0.003328 -0.003277 0.017862 0.000000 -0.011389 0.000000
# 4 0.000000 0.000000 0.000000 0.038495 0.000000 -0.022848
# 5 -0.001924 0.003292 -0.011389 0.000000 0.040492 0.000000
# 6 0.000000 0.000000 0.000000 -0.022848 0.000000 0.068000
#
#
# Mechanical properties :
#
#
# Convention : Reuss Voigt Hill
#
# Bulk Modulus (GPa) = 39.79719 45.48773 42.64246
# Shear Modulus (GPa) = 23.06019 29.41910 26.23964
#
# Velocity S-wave (km/s) = 3.29241 3.71875 3.51205
# Velocity P-wave (km/s) = 5.75854 6.31041 6.04078
#
# Compressibility (1/GPa) = 0.02512740
#
# Stress axis : x y z
#
# Youngs Moduli (GPa) = 65.12026 99.24474 55.98616
#
# Poissons Ratio (x) = 0.24596 0.18630
# Poissons Ratio (y) = 0.16139 0.18349
# Poissons Ratio (z) = 0.21669 0.32526
#
# Static dielectric constant tensor:
#      x y z
#    x 3.609560 0.000000 0.362900 
#    y 0.000000 4.040040 0.000000 
#    z 0.362900 0.000000 3.918410 
# 
# 
# High freq. dielectric constant tensor:
#      x y z
#    x 1.805150 0.000000 0.036840 
#    y 0.000000 1.841160 0.000000 
#    z 0.036840 0.000000 1.837030 
# 
# From -- ./inp_files/207833.got.cif
#   From: 2010.06.25/outbox.cif.g09.slc.cpg/sg15_104_cif.got.tgz:207833.got - 2010.06.28 07:06:18.
