data_PCOD8132070
_publ_section_title
;
Structure prediction by ZEFSAII (Michael W. Deem and Ramdas Pophale) SiO2 
 PCOD8132070
Probable space group: C 2/C
;
_chemical_formula_sum "Si O2"
_cell_formula_units_Z 64
_cell_length_a 12.626937
_cell_length_b 18.655869
_cell_length_c 17.787853
_cell_angle_alpha 90.000000
_cell_angle_beta 51.804986
_cell_angle_gamma 90.000000
_cell_volume 3293.140299
_symmetry_space_group_name_H-M "C 2/C"
_symmetry_group_IT_number 15
_symmetry_cell_setting 'monoclinic'
loop_
_space_group_symop_operation_xyz
x,y,z
-x,y,1/2-z
-x,-y,-z
x,-y,1/2+z
1/2+x,1/2+y,z
1/2-x,1/2+y,1/2-z
1/2-x,1/2-y,-z
1/2+x,1/2-y,1/2+z
loop_
_atom_site_type_symbol
_atom_site_label
_atom_site_fract_x
_atom_site_fract_y
_atom_site_fract_z
Si Si1 0.129572 0.788916 0.239554
Si Si2 0.372732 0.525604 0.602014
Si Si3 0.571712 0.788957 0.430924
Si Si4 0.896146 0.443050 0.017346
Si Si5 0.367979 0.456830 0.271425
Si Si6 0.887302 0.497148 0.362728
Si Si7 0.408931 0.835415 0.361319
Si Si8 0.357350 0.695105 0.598315
O O1 0.270790 0.767084 0.139078
O O2 0.110047 0.873339 0.251484
O O3 0.145417 0.764713 0.319534
O O4 0.000000 0.756101 0.250000
O O5 0.500000 0.500000 0.500000
O O6 0.359108 0.502813 0.695321
O O7 0.251078 0.484882 0.616806
O O8 0.362676 0.610543 0.603113
O O9 0.557363 0.863393 0.481654
O O10 0.500626 0.795174 0.381346
O O11 0.494688 0.723649 0.502728
O O12 0.757372 0.467140 0.117979
O O13 0.895079 0.446444 0.927454
O O14 0.000000 0.500000 0.000000
O O15 0.500000 0.491620 0.250000
O O16 0.880539 0.416805 0.401013
O O17 0.000000 0.509026 0.250000
O O18 0.500000 0.845581 0.250000
O O19 0.274556 0.789819 0.396748
#
# Coordination Sequence:
#
# PCOD8132070 Si02
#       8
#     8   8   8   8   8   8   8   8
#     4   9  19  36  55  79 108 151 198 229 271 347
#     4  10  20  36  58  82 113 149 189 237 287 341
#     4  11  21  36  59  85 114 151 189 238 290 341
#     4  11  20  34  55  82 113 144 187 234 281 339
#     4   9  18  33  56  78 106 148 192 234 278 338
#     4  10  20  34  58  87 112 148 193 235 283 339
#     4  10  18  35  63  85 111 148 194 237 282 347
#     4  10  21  36  59  85 113 147 192 238 287 342
#
# _framework density 19.434335999999998
#
# number of rings (size 3 to 8) (size 9 to 14) (size 15 to 20)
#    0.000    2.000    2.500    1.875    3.500    1.500 
#    0.000    3.125    0.000    0.000    0.000    0.000 
#    0.000    0.000    0.000    0.000    0.000    0.000 
#
# Total GULP energy -396483.030615 kJ/mol
# GULP energy per Si atom -12390.094707 kJ/mol
# Density = 1.939010 g / cm^3
# Si number density = 19.434336 Si / 1000 Ang^3
#
#
#
# Elastic Constant Matrix: (Units=GPa)
#
#
# Indices 1 2 3 4 5 6 
#
# 1 164.8990 23.3750 58.9277 0.0001 -5.6294 0.0001
# 2 23.3750 16.8169 12.8911 0.0000 2.0634 0.0000
# 3 58.9277 12.8911 105.3396 0.0001 2.9490 0.0001
# 4 0.0001 0.0000 0.0001 38.2981 -0.0001 4.9240
# 5 -5.6294 2.0634 2.9490 -0.0001 41.7507 -0.0001
# 6 0.0001 0.0000 0.0001 4.9240 -0.0001 32.9733
#
#
#
# Elastic Compliance Matrix: (Units=1/GPa)
#
#
# Indices 1 2 3 4 5 6 
#
# 1 0.008865 -0.009620 -0.003836 0.000000 0.001942 0.000000
# 2 -0.009620 0.076359 -0.003829 0.000000 -0.004800 0.000000
# 3 -0.003836 -0.003829 0.012141 0.000000 -0.001186 0.000000
# 4 0.000000 0.000000 0.000000 0.026622 0.000000 -0.003976
# 5 0.001942 -0.004800 -0.001186 0.000000 0.024535 0.000000
# 6 0.000000 0.000000 0.000000 -0.003976 0.000000 0.030921
#
#
# Mechanical properties :
#
#
# Convention : Reuss Voigt Hill
#
# Bulk Modulus (GPa) = 15.92475 53.04921 34.48698
# Shear Modulus (GPa) = 21.28159 35.39520 28.33840
#
# Velocity S-wave (km/s) = 3.31275 4.27227 3.82273
# Velocity P-wave (km/s) = 4.77957 7.18973 6.10477
#
# Compressibility (1/GPa) = 0.06279535
#
# Stress axis : x y z
#
# Youngs Moduli (GPa) = 112.80071 13.09601 82.36588
#
# Poissons Ratio (x) = 0.12598 0.31599
# Poissons Ratio (y) = 1.08512 0.31536
# Poissons Ratio (z) = 0.43275 0.05014
#
# Static dielectric constant tensor:
#      x y z
#    x 4.455880 0.000000 0.103960 
#    y 0.000000 3.134830 0.000000 
#    z 0.103960 0.000000 3.503670 
# 
# 
# High freq. dielectric constant tensor:
#      x y z
#    x 1.781090 0.000000 0.000070 
#    y 0.000000 1.706590 0.000000 
#    z 0.000070 0.000000 1.765600 
# 
# From -- ./inp_files/200346.got.cif
#   From: 2010.06.25/outbox.cif.g09.slc.cpg/sg15_101_cif.got.tgz:200346.got - 2010.06.28 07:06:18.
