data_PCOD8132082
_publ_section_title
;
Structure prediction by ZEFSAII (Michael W. Deem and Ramdas Pophale) SiO2 
 PCOD8132082
Probable space group: C 2/C
;
_chemical_formula_sum "Si O2"
_cell_formula_units_Z 64
_cell_length_a 8.651357
_cell_length_b 30.477381
_cell_length_c 17.368477
_cell_angle_alpha 90.000000
_cell_angle_beta 43.378088
_cell_angle_gamma 90.000000
_cell_volume 3145.284738
_symmetry_space_group_name_H-M "C 2/C"
_symmetry_group_IT_number 15
_symmetry_cell_setting 'monoclinic'
loop_
_space_group_symop_operation_xyz
x,y,z
-x,y,1/2-z
-x,-y,-z
x,-y,1/2+z
1/2+x,1/2+y,z
1/2-x,1/2+y,1/2-z
1/2-x,1/2-y,-z
1/2+x,1/2-y,1/2+z
loop_
_atom_site_type_symbol
_atom_site_label
_atom_site_fract_x
_atom_site_fract_y
_atom_site_fract_z
Si Si1 0.407759 0.918897 0.578063
Si Si2 0.699522 0.800556 0.510700
Si Si3 0.586706 0.431230 0.552145
Si Si4 0.392913 0.621291 0.870142
Si Si5 0.761153 0.426668 0.326877
Si Si6 0.733902 0.670872 0.197727
Si Si7 0.830638 0.518541 0.243604
Si Si8 0.254611 0.853905 0.850205
O O1 0.289125 0.925433 0.539198
O O2 0.664850 0.905452 0.469055
O O3 0.269198 0.881465 0.673819
O O4 0.407893 0.962166 0.632541
O O5 0.750000 0.750000 0.500000
O O6 0.844485 0.826157 0.393299
O O7 0.436247 0.803163 0.583495
O O8 0.753519 0.827511 0.568138
O O9 0.690112 0.448190 0.434413
O O10 0.421519 0.466773 0.646879
O O11 0.454083 0.386470 0.581717
O O12 0.500000 0.609714 0.750000
O O13 0.574273 0.607470 0.867963
O O14 0.809778 0.465762 0.248033
O O15 0.000000 0.401049 0.250000
O O16 0.500000 0.688156 0.250000
O O17 0.733069 0.681335 0.288965
O O18 0.000000 0.533728 0.250000
O O19 0.500000 0.877834 0.750000
#
# Coordination Sequence:
#
# PCOD8132082 Si02
#       8
#     8   8   8   8   8   8   8   8
#     4  11  22  37  66  96 124 165 215 274 320 389
#     4  10  23  41  64  94 128 168 210 263 330 396
#     4  12  20  37  63  93 124 162 217 264 323 372
#     4  11  24  43  65  88 127 173 215 264 334 397
#     4  11  25  43  58  87 129 177 219 263 320 390
#     4  10  18  35  63  97 126 152 206 268 321 380
#     4  11  23  38  61  93 129 165 221 276 322 369
#     4  10  19  34  65  95 121 158 203 262 320 379
#
# _framework density 20.347918
#
# number of rings (size 3 to 8) (size 9 to 14) (size 15 to 20)
#    0.000    1.250    3.750    2.625    1.750    3.500 
#    0.000    5.000    0.000    0.000    0.000    0.000 
#    0.000    0.000    0.000    0.000    0.000    0.000 
#
# Total GULP energy -396654.178184 kJ/mol
# GULP energy per Si atom -12395.443068 kJ/mol
# Density = 2.030161 g / cm^3
# Si number density = 20.347918 Si / 1000 Ang^3
#
#
#
# Elastic Constant Matrix: (Units=GPa)
#
#
# Indices 1 2 3 4 5 6 
#
# 1 139.1863 35.0550 46.2361 0.0000 -24.4979 0.0000
# 2 35.0550 87.0142 29.7828 0.0000 -14.7270 0.0000
# 3 46.2361 29.7828 110.4246 0.0000 -10.7581 0.0000
# 4 0.0000 0.0000 0.0000 13.7782 0.0000 -1.6163
# 5 -24.4979 -14.7270 -10.7581 0.0000 43.8967 0.0000
# 6 0.0000 0.0000 0.0000 -1.6163 0.0000 10.3573
#
#
#
# Elastic Compliance Matrix: (Units=1/GPa)
#
#
# Indices 1 2 3 4 5 6 
#
# 1 0.009376 -0.002113 -0.002987 0.000000 0.003792 0.000000
# 2 -0.002113 0.013683 -0.002534 0.000000 0.002790 0.000000
# 3 -0.002987 -0.002534 0.011007 0.000000 0.000181 0.000000
# 4 0.000000 0.000000 0.000000 0.073932 0.000000 0.011537
# 5 0.003792 0.002790 0.000181 0.000000 0.025877 0.000000
# 6 0.000000 0.000000 0.000000 0.011537 0.000000 0.098351
#
#
# Mechanical properties :
#
#
# Convention : Reuss Voigt Hill
#
# Bulk Modulus (GPa) = 53.19272 62.08590 57.63931
# Shear Modulus (GPa) = 19.70354 28.64317 24.17336
#
# Velocity S-wave (km/s) = 3.11518 3.75596 3.45048
# Velocity P-wave (km/s) = 6.25600 7.02767 6.65303
#
# Compressibility (1/GPa) = 0.01879957
#
# Stress axis : x y z
#
# Youngs Moduli (GPa) = 106.65085 73.08179 90.84735
#
# Poissons Ratio (x) = 0.15445 0.27132
# Poissons Ratio (y) = 0.22540 0.23019
# Poissons Ratio (z) = 0.31852 0.18517
#
# Static dielectric constant tensor:
#      x y z
#    x 3.924030 0.000000 -0.085630 
#    y 0.000000 3.340020 0.000000 
#    z -0.085630 0.000000 3.901630 
# 
# 
# High freq. dielectric constant tensor:
#      x y z
#    x 1.810140 0.000000 -0.007380 
#    y 0.000000 1.750400 0.000000 
#    z -0.007380 0.000000 1.808670 
# 
# From -- ./inp_files/194238.got.cif
#   From: 2010.06.25/outbox.cif.g09.slc.cpg/sg15_98_cif.got.tgz:194238.got - 2010.06.28 07:06:18.
