data_PCOD8132815
_publ_section_title
;
Structure prediction by ZEFSAII (Michael W. Deem and Ramdas Pophale) SiO2 
 PCOD8132815
Probable space group: C 2/C
;
_chemical_formula_sum "Si O2"
_cell_formula_units_Z 64
_cell_length_a 20.131802
_cell_length_b 26.826922
_cell_length_c 9.330183
_cell_angle_alpha 90.000000
_cell_angle_beta 117.610260
_cell_angle_gamma 90.000000
_cell_volume 4465.154523
_symmetry_space_group_name_H-M "C 2/C"
_symmetry_group_IT_number 15
_symmetry_cell_setting 'monoclinic'
loop_
_space_group_symop_operation_xyz
x,y,z
-x,y,1/2-z
-x,-y,-z
x,-y,1/2+z
1/2+x,1/2+y,z
1/2-x,1/2+y,1/2-z
1/2-x,1/2-y,-z
1/2+x,1/2-y,1/2+z
loop_
_atom_site_type_symbol
_atom_site_label
_atom_site_fract_x
_atom_site_fract_y
_atom_site_fract_z
Si Si1 0.586430 0.548185 0.669702
Si Si2 0.342442 0.650865 0.761125
Si Si3 0.842442 0.150865 0.423758
Si Si4 0.587175 0.258980 0.002038
Si Si5 0.413570 0.548185 0.496842
Si Si6 0.587175 0.258980 0.672312
Si Si7 0.802293 0.298027 0.710108
Si Si8 0.697707 0.798027 0.105521
O O1 0.633979 0.595797 0.666253
O O2 0.500000 0.558603 0.544800
O O3 0.616988 0.500000 0.616988
O O4 0.597435 0.537676 0.847435
O O5 0.357790 0.659384 0.607790
O O6 0.393024 0.690420 0.895930
O O7 0.253597 0.657027 0.707776
O O8 0.866021 0.095797 0.398296
O O9 0.893024 0.190420 0.390119
O O10 0.753597 0.157027 0.299418
O O11 0.631066 0.211073 0.110659
O O12 0.610714 0.265199 0.860714
O O13 0.500000 0.247493 0.932097
O O14 0.631066 0.211073 0.651474
O O15 0.750000 0.250000 0.651336
O O16 0.836914 0.308306 0.586914
#
# Coordination Sequence:
#
# PCOD8132815 Si02
#       8
#     8   8   8   8   8   8   8   8
#     4   9  17  28  41  57  78 103 130 161 193 223
#     4   9  17  29  43  57  75 103 136 164 192 227
#     4   9  17  29  43  57  75 103 136 164 192 227
#     4  10  19  27  37  57  82 105 130 160 193 230
#     4   9  17  28  41  57  78 103 130 161 193 223
#     4  10  19  27  37  57  82 105 130 160 193 230
#     4   8  15  27  41  56  74  99 131 162 191 227
#     4   8  15  27  41  56  74  99 131 162 191 227
#
# _framework density 14.333211
#
# number of rings (size 3 to 8) (size 9 to 14) (size 15 to 20)
#    0.000    3.000    0.000    3.000    0.000    8.500 
#    0.000    2.500    0.000    0.000    0.000    0.000 
#    0.000    1.000    0.000    2.250    0.000    4.000 
#
# Total GULP energy -396662.437090 kJ/mol
# GULP energy per Si atom -12395.701159 kJ/mol
# Density = 1.430059 g / cm^3
# Si number density = 14.333211 Si / 1000 Ang^3
#
#
#
# Elastic Constant Matrix: (Units=GPa)
#
#
# Indices 1 2 3 4 5 6 
#
# 1 80.4397 50.3258 40.9735 0.0000 -3.8699 0.0000
# 2 50.3258 96.0721 42.8873 0.0000 5.3407 0.0000
# 3 40.9735 42.8873 77.9047 0.0000 5.6900 0.0000
# 4 0.0000 0.0000 0.0000 22.5117 0.0000 2.0423
# 5 -3.8699 5.3407 5.6900 0.0000 15.5643 0.0000
# 6 0.0000 0.0000 0.0000 2.0423 0.0000 25.3562
#
#
#
# Elastic Compliance Matrix: (Units=1/GPa)
#
#
# Indices 1 2 3 4 5 6 
#
# 1 0.022569 -0.009001 -0.007758 0.000000 0.011536 0.000000
# 2 -0.009001 0.017451 -0.004390 0.000000 -0.006621 0.000000
# 3 -0.007758 -0.004390 0.019895 0.000000 -0.007696 0.000000
# 4 0.000000 0.000000 0.000000 0.044748 0.000000 -0.003604
# 5 0.011536 -0.006621 -0.007696 0.000000 0.072204 0.000000
# 6 0.000000 0.000000 0.000000 -0.003604 0.000000 0.039728
#
#
# Mechanical properties :
#
#
# Convention : Reuss Voigt Hill
#
# Bulk Modulus (GPa) = 56.75579 58.08775 57.42177
# Shear Modulus (GPa) = 18.88460 20.70176 19.79318
#
# Velocity S-wave (km/s) = 3.63373 3.80455 3.72012
# Velocity P-wave (km/s) = 7.56893 7.74042 7.65516
#
# Compressibility (1/GPa) = 0.01761935
#
# Stress axis : x y z
#
# Youngs Moduli (GPa) = 44.30761 57.30191 50.26375
#
# Poissons Ratio (x) = 0.51576 0.38994
# Poissons Ratio (y) = 0.39880 0.22064
# Poissons Ratio (z) = 0.34373 0.25154
#
# Static dielectric constant tensor:
#      x y z
#    x 2.905540 0.000000 0.014500 
#    y 0.000000 2.829750 0.000000 
#    z 0.014500 0.000000 2.885340 
# 
# 
# High freq. dielectric constant tensor:
#      x y z
#    x 1.536170 0.000000 -0.008740 
#    y 0.000000 1.518490 0.000000 
#    z -0.008740 0.000000 1.548340 
# 
# From -- ./inp_files/58927.got.cif
#   From: 2010.06.25/outbox.cif.g09.slc.cpg/sg15_30_cif.got.tgz:58927.got - 2010.06.28 07:06:18.
