data_PCOD8132756
_publ_section_title
;
Structure prediction by ZEFSAII (Michael W. Deem and Ramdas Pophale) SiO2 
 PCOD8132756
Probable space group: C 2/C
;
_chemical_formula_sum "Si O2"
_cell_formula_units_Z 40
_cell_length_a 14.871173
_cell_length_b 8.833876
_cell_length_c 28.793979
_cell_angle_alpha 90.000000
_cell_angle_beta 28.876611
_cell_angle_gamma 90.000000
_cell_volume 1826.744740
_symmetry_space_group_name_H-M "C 2/C"
_symmetry_group_IT_number 15
_symmetry_cell_setting 'monoclinic'
loop_
_space_group_symop_operation_xyz
x,y,z
-x,y,1/2-z
-x,-y,-z
x,-y,1/2+z
1/2+x,1/2+y,z
1/2-x,1/2+y,1/2-z
1/2-x,1/2-y,-z
1/2+x,1/2-y,1/2+z
loop_
_atom_site_type_symbol
_atom_site_label
_atom_site_fract_x
_atom_site_fract_y
_atom_site_fract_z
Si Si1 0.000000 0.023599 0.250000
Si Si2 0.300538 0.225843 0.603782
Si Si3 0.106660 0.711466 0.763645
Si Si4 0.046192 0.209084 0.074487
Si Si5 0.992992 0.910424 0.052093
Si Si6 0.000000 0.532621 0.250000
O O1 0.038286 0.125513 0.277269
O O2 0.181287 0.925382 0.155686
O O3 0.481402 0.209490 0.555821
O O4 0.363390 0.270850 0.522662
O O5 0.179150 0.364775 0.679795
O O6 0.302411 0.670032 0.652337
O O7 0.965669 0.577638 0.810240
O O8 0.105029 0.728802 0.819805
O O9 0.250000 0.250000 0.000000
O O10 0.047054 0.026322 0.068589
O O11 0.000000 0.000000 0.000000
#
# Coordination Sequence:
#
# PCOD8132756 Si02
#       6
#     4   8   8   8   8   4
#     4  10  26  40  66  98 132 168 224 280 338 376
#     4  10  22  43  67  92 130 180 224 267 330 406
#     4  11  23  40  67 100 133 171 224 278 335 387
#     4  11  24  40  66  99 134 168 227 275 327 391
#     4  10  21  44  68  96 130 184 223 260 337 417
#     4  10  18  40  70  88 128 182 228 248 332 416
#
# _framework density 21.896875999999999
#
# number of rings (size 3 to 8) (size 9 to 14) (size 15 to 20)
#    0.000    1.600    4.000    1.200   11.200    0.800 
#    0.000    1.000    0.000    0.000    0.000    0.000 
#    0.000    0.000    0.000    0.000    0.000    0.000 
#
# Total GULP energy -247801.956096 kJ/mol
# GULP energy per Si atom -12390.097805 kJ/mol
# Density = 2.184704 g / cm^3
# Si number density = 21.896876 Si / 1000 Ang^3
#
#
#
# Elastic Constant Matrix: (Units=GPa)
#
#
# Indices 1 2 3 4 5 6 
#
# 1 88.6572 47.7071 46.4808 0.0016 -7.5971 -0.0064
# 2 47.7071 125.9960 44.7044 0.0026 -10.2234 -0.0055
# 3 46.4808 44.7044 114.5780 0.0018 -3.9592 -0.0009
# 4 0.0016 0.0026 0.0018 36.5075 -0.0009 -4.2637
# 5 -7.5971 -10.2234 -3.9592 -0.0009 42.4455 0.0005
# 6 -0.0064 -0.0055 -0.0009 -4.2637 0.0005 33.6495
#
#
#
# Elastic Compliance Matrix: (Units=1/GPa)
#
#
# Indices 1 2 3 4 5 6 
#
# 1 0.016279 -0.004321 -0.004869 0.000000 0.001419 0.000002
# 2 -0.004321 0.010513 -0.002295 0.000000 0.001545 0.000001
# 3 -0.004869 -0.002295 0.011587 0.000000 -0.000344 -0.000001
# 4 0.000000 0.000000 0.000000 0.027803 0.000000 0.003523
# 5 0.001419 0.001545 -0.000344 0.000000 0.024154 0.000000
# 6 0.000002 0.000001 -0.000001 0.003523 0.000000 0.030164
#
#
# Mechanical properties :
#
#
# Convention : Reuss Voigt Hill
#
# Bulk Modulus (GPa) = 64.90430 67.44620 66.17525
# Shear Modulus (GPa) = 33.64611 35.20975 34.42793
#
# Velocity S-wave (km/s) = 3.92416 4.01431 3.96950
# Velocity P-wave (km/s) = 7.08783 7.23567 7.16213
#
# Compressibility (1/GPa) = 0.01540730
#
# Stress axis : x y z
#
# Youngs Moduli (GPa) = 61.42937 95.12326 86.30732
#
# Poissons Ratio (x) = 0.41105 0.42021
# Poissons Ratio (y) = 0.26545 0.19810
# Poissons Ratio (z) = 0.29909 0.21834
#
# Static dielectric constant tensor:
#      x y z
#    x 3.786740 -0.000010 0.055320 
#    y -0.000010 4.281760 0.000010 
#    z 0.055320 0.000010 4.310390 
# 
# 
# High freq. dielectric constant tensor:
#      x y z
#    x 1.834120 0.000000 -0.005380 
#    y 0.000000 1.867840 0.000000 
#    z -0.005380 0.000000 1.868890 
# 
# From -- ./inp_files/150637.got.cif
#   From: 2010.06.25/outbox.cif.g09.slc.cpg/sg15_76_cif.got.tgz:150637.got - 2010.06.28 07:06:18.
