data_PCOD8132924
_publ_section_title
;
Structure prediction by ZEFSAII (Michael W. Deem and Ramdas Pophale) SiO2 
 PCOD8132924
Probable space group: C 2/C
;
_chemical_formula_sum "Si O2"
_cell_formula_units_Z 56
_cell_length_a 13.243761
_cell_length_b 18.506335
_cell_length_c 14.215060
_cell_angle_alpha 90.000000
_cell_angle_beta 120.403917
_cell_angle_gamma 90.000000
_cell_volume 3004.893037
_symmetry_space_group_name_H-M "C 2/C"
_symmetry_group_IT_number 15
_symmetry_cell_setting 'monoclinic'
loop_
_space_group_symop_operation_xyz
x,y,z
-x,y,1/2-z
-x,-y,-z
x,-y,1/2+z
1/2+x,1/2+y,z
1/2-x,1/2+y,1/2-z
1/2-x,1/2-y,-z
1/2+x,1/2-y,1/2+z
loop_
_atom_site_type_symbol
_atom_site_label
_atom_site_fract_x
_atom_site_fract_y
_atom_site_fract_z
Si Si1 0.132469 0.911386 0.796712
Si Si2 0.054282 0.198341 0.678592
Si Si3 0.862827 0.269974 0.495310
Si Si4 0.922040 0.955891 0.354041
Si Si5 0.679097 0.490747 0.000846
Si Si6 0.378149 0.896146 0.637740
Si Si7 0.255043 0.297576 0.780186
O O1 0.187508 0.839846 0.778568
O O2 0.000000 0.889433 0.750000
O O3 0.138965 0.978544 0.728375
O O4 0.196965 0.933707 0.924031
O O5 0.102054 0.117449 0.714799
O O6 0.152705 0.251426 0.686515
O O7 0.000000 0.229266 0.750000
O O8 0.954527 0.204854 0.553439
O O9 0.750000 0.250000 0.500000
O O10 0.907151 0.348069 0.556927
O O11 0.836771 0.263007 0.371432
O O12 0.856493 0.946979 0.422403
O O13 0.063659 0.960716 0.425553
O O14 0.801557 0.534070 0.069543
O O15 0.500000 0.917125 0.750000
O O16 0.292266 0.854322 0.666603
#
# Coordination Sequence:
#
# PCOD8132924 Si02
#       7
#     8   8   8   8   8   8   8
#     4  10  22  39  60  87 116 155 196 242 297 355
#     4  12  20  33  56  91 117 143 192 249 295 343
#     4  10  19  30  55  85 116 146 179 236 304 338
#     4  10  21  34  59  90 115 145 196 254 294 345
#     4  10  21  37  61  83 118 157 196 239 301 344
#     4  11  19  37  58  88 122 153 191 241 295 354
#     4  11  21  36  57  86 123 152 192 243 297 349
#
# _framework density 18.636271000000001
#
# number of rings (size 3 to 8) (size 9 to 14) (size 15 to 20)
#    0.000    1.429    5.714    3.000    6.000    0.000 
#    0.000    1.429    3.143    0.000    0.000    0.000 
#    0.000    0.000    0.000    0.000    0.000    0.000 
#
# Total GULP energy -346897.228089 kJ/mol
# GULP energy per Si atom -12389.186717 kJ/mol
# Density = 1.859385 g / cm^3
# Si number density = 18.636271 Si / 1000 Ang^3
#
#
#
# Elastic Constant Matrix: (Units=GPa)
#
#
# Indices 1 2 3 4 5 6 
#
# 1 71.1298 56.7648 51.4634 0.0000 -8.0507 0.0000
# 2 56.7648 90.8894 38.0396 0.0000 1.7541 0.0000
# 3 51.4634 38.0396 98.4846 0.0000 0.6774 0.0000
# 4 0.0000 0.0000 0.0000 29.6546 0.0000 -6.1865
# 5 -8.0507 1.7541 0.6774 0.0000 28.9516 0.0000
# 6 0.0000 0.0000 0.0000 -6.1865 0.0000 30.7477
#
#
#
# Elastic Compliance Matrix: (Units=1/GPa)
#
#
# Indices 1 2 3 4 5 6 
#
# 1 0.042554 -0.020864 -0.014271 0.000000 0.013431 0.000000
# 2 -0.020864 0.023366 0.001927 0.000000 -0.007262 0.000000
# 3 -0.014271 0.001927 0.016897 0.000000 -0.004480 0.000000
# 4 0.000000 0.000000 0.000000 0.035199 0.000000 0.007082
# 5 0.013431 -0.007262 -0.004480 0.000000 0.038820 0.000000
# 6 0.000000 0.000000 0.000000 0.007082 0.000000 0.033948
#
#
# Mechanical properties :
#
#
# Convention : Reuss Voigt Hill
#
# Bulk Modulus (GPa) = 60.96213 61.44883 61.20548
# Shear Modulus (GPa) = 19.03553 25.48652 22.26103
#
# Velocity S-wave (km/s) = 3.19944 3.70209 3.45990
# Velocity P-wave (km/s) = 6.81404 7.16367 6.99104
#
# Compressibility (1/GPa) = 0.01640363
#
# Stress axis : x y z
#
# Youngs Moduli (GPa) = 23.49956 42.79666 59.18046
#
# Poissons Ratio (x) = 0.89289 0.84454
# Poissons Ratio (y) = 0.49029 -0.11404
# Poissons Ratio (z) = 0.33535 -0.08247
#
# Static dielectric constant tensor:
#      x y z
#    x 3.243710 0.000000 0.003040 
#    y 0.000000 3.325850 0.000000 
#    z 0.003040 0.000000 3.661110 
# 
# 
# High freq. dielectric constant tensor:
#      x y z
#    x 1.693780 0.000000 0.007160 
#    y 0.000000 1.705180 0.000000 
#    z 0.007160 0.000000 1.728050 
# 
# From -- ./inp_files/146151.got.cif
#   From: 2010.06.25/outbox.cif.g09.slc.cpg/sg15_74_cif.got.tgz:146151.got - 2010.06.28 07:06:18.
