data_PCOD8132477
_publ_section_title
;
Structure prediction by ZEFSAII (Michael W. Deem and Ramdas Pophale) SiO2 
 PCOD8132477
Probable space group: C 2/C
;
_chemical_formula_sum "Si O2"
_cell_formula_units_Z 60
_cell_length_a 19.733403
_cell_length_b 11.277669
_cell_length_c 17.433234
_cell_angle_alpha 90.000000
_cell_angle_beta 43.726546
_cell_angle_gamma 90.000000
_cell_volume 2681.722816
_symmetry_space_group_name_H-M "C 2/C"
_symmetry_group_IT_number 15
_symmetry_cell_setting 'monoclinic'
loop_
_space_group_symop_operation_xyz
x,y,z
-x,y,1/2-z
-x,-y,-z
x,-y,1/2+z
1/2+x,1/2+y,z
1/2-x,1/2+y,1/2-z
1/2-x,1/2-y,-z
1/2+x,1/2-y,1/2+z
loop_
_atom_site_type_symbol
_atom_site_label
_atom_site_fract_x
_atom_site_fract_y
_atom_site_fract_z
Si Si1 0.970786 0.740481 0.352907
Si Si2 0.021882 0.111447 0.110924
Si Si3 0.323929 0.430655 0.452168
Si Si4 0.134243 0.931171 0.247276
Si Si5 0.163050 0.193995 0.874489
Si Si6 0.000000 0.309009 0.250000
Si Si7 0.824270 0.561118 0.825804
Si Si8 0.566385 0.080004 0.392680
O O1 0.861205 0.796944 0.442444
O O2 0.000000 0.671793 0.250000
O O3 0.044457 0.849731 0.296267
O O4 0.985612 0.654623 0.412024
O O5 0.015032 0.235227 0.160563
O O6 0.091131 0.026717 0.103911
O O7 0.064993 0.135555 0.990902
O O8 0.912620 0.057980 0.190574
O O9 0.295114 0.441275 0.385161
O O10 0.231461 0.458526 0.581198
O O11 0.190558 0.873743 0.273062
O O12 0.253208 0.170671 0.858932
O O13 0.141298 0.333438 0.877761
O O14 0.094950 0.390237 0.182564
O O15 0.868224 0.502156 0.714353
O O16 0.500000 0.000000 0.500000
#
# Coordination Sequence:
#
# PCOD8132477 Si02
#       8
#     8   8   8   8   8   4   8   8
#     4   8  17  36  69  95 127 166 211 263 327 397
#     4  10  18  37  66  98 128 171 213 260 326 393
#     4   9  18  39  67 100 124 158 223 273 316 390
#     4   9  16  36  66 102 128 161 209 272 330 386
#     4  10  23  41  64  97 136 169 219 272 325 391
#     4  12  24  42  64  88 134 182 226 268 334 386
#     4  11  27  43  62  97 131 175 225 277 326 389
#     4  11  24  45  64  94 135 178 217 266 339 396
#
# _framework density 22.373677000000001
#
# number of rings (size 3 to 8) (size 9 to 14) (size 15 to 20)
#    0.000    2.133    1.333    2.000    0.933    5.333 
#    4.800    6.000    0.000    0.000    0.000    0.000 
#    0.000    0.000    0.000    0.000    0.000    0.000 
#
# Total GULP energy -371952.226277 kJ/mol
# GULP energy per Si atom -12398.407543 kJ/mol
# Density = 2.232275 g / cm^3
# Si number density = 22.373677 Si / 1000 Ang^3
#
#
#
# Elastic Constant Matrix: (Units=GPa)
#
#
# Indices 1 2 3 4 5 6 
#
# 1 82.7572 35.9222 35.9752 0.0000 -0.2179 0.0000
# 2 35.9222 104.7565 54.5726 0.0000 1.1673 0.0000
# 3 35.9752 54.5726 140.9409 0.0000 12.6713 0.0000
# 4 0.0000 0.0000 0.0000 36.9472 0.0000 10.6192
# 5 -0.2179 1.1673 12.6713 0.0000 32.6865 0.0000
# 6 0.0000 0.0000 0.0000 10.6192 0.0000 26.8006
#
#
#
# Elastic Compliance Matrix: (Units=1/GPa)
#
#
# Indices 1 2 3 4 5 6 
#
# 1 0.014794 -0.003839 -0.002394 0.000000 0.001164 0.000000
# 2 -0.003839 0.013018 -0.004162 0.000000 0.001123 0.000000
# 3 -0.002394 -0.004162 0.009642 0.000000 -0.003605 0.000000
# 4 0.000000 0.000000 0.000000 0.030544 0.000000 -0.012103
# 5 0.001164 0.001123 -0.003605 0.000000 0.031959 0.000000
# 6 0.000000 0.000000 0.000000 -0.012103 0.000000 0.042108
#
#
# Mechanical properties :
#
#
# Convention : Reuss Voigt Hill
#
# Bulk Modulus (GPa) = 60.00947 64.59938 62.30443
# Shear Modulus (GPa) = 29.68978 32.75250 31.22114
#
# Velocity S-wave (km/s) = 3.64675 3.83023 3.73961
# Velocity P-wave (km/s) = 6.67918 6.96394 6.82304
#
# Compressibility (1/GPa) = 0.01666404
#
# Stress axis : x y z
#
# Youngs Moduli (GPa) = 67.59649 76.81845 103.71428
#
# Poissons Ratio (x) = 0.29487 0.24834
# Poissons Ratio (y) = 0.25947 0.43162
# Poissons Ratio (z) = 0.16186 0.31969
#
# Static dielectric constant tensor:
#      x y z
#    x 4.143700 0.000000 0.266490 
#    y 0.000000 4.018890 0.000000 
#    z 0.266490 0.000000 3.987830 
# 
# 
# High freq. dielectric constant tensor:
#      x y z
#    x 1.867890 0.000000 0.017480 
#    y 0.000000 1.877670 0.000000 
#    z 0.017480 0.000000 1.880570 
# 
# From -- ./inp_files/215177.got.cif
#   From: 2010.06.25/outbox.cif.g09.slc.cpg/sg15_108_cif.got.tgz:215177.got - 2010.06.28 07:06:18.
