data_PCOD8132117
_publ_section_title
;
Structure prediction by ZEFSAII (Michael W. Deem and Ramdas Pophale) SiO2 
 PCOD8132117
Probable space group: C 2/C
;
_chemical_formula_sum "Si O2"
_cell_formula_units_Z 48
_cell_length_a 12.081572
_cell_length_b 14.638682
_cell_length_c 15.300145
_cell_angle_alpha 90.000000
_cell_angle_beta 76.027177
_cell_angle_gamma 90.000000
_cell_volume 2625.889202
_symmetry_space_group_name_H-M "C 2/C"
_symmetry_group_IT_number 15
_symmetry_cell_setting 'monoclinic'
loop_
_space_group_symop_operation_xyz
x,y,z
-x,y,1/2-z
-x,-y,-z
x,-y,1/2+z
1/2+x,1/2+y,z
1/2-x,1/2+y,1/2-z
1/2-x,1/2-y,-z
1/2+x,1/2-y,1/2+z
loop_
_atom_site_type_symbol
_atom_site_label
_atom_site_fract_x
_atom_site_fract_y
_atom_site_fract_z
Si Si1 0.018096 0.520791 0.644622
Si Si2 0.132302 0.196105 0.721238
Si Si3 0.770803 0.603625 0.992227
Si Si4 0.130801 0.763828 0.414959
Si Si5 0.710976 0.926813 0.410234
Si Si6 0.902035 0.676435 0.423334
O O1 0.124569 0.581169 0.592529
O O2 0.035217 0.414353 0.622547
O O3 0.000000 0.539620 0.750000
O O4 0.909489 0.550051 0.609483
O O5 0.174747 0.229604 0.807106
O O6 0.201477 0.106235 0.679806
O O7 0.158084 0.277837 0.648592
O O8 0.000000 0.169079 0.750000
O O9 0.663126 0.641375 0.957470
O O10 0.803604 0.679598 0.055887
O O11 0.733470 0.513729 0.052156
O O12 0.994939 0.747158 0.445218
O O13 0.691795 0.846919 0.485708
#
# Coordination Sequence:
#
# PCOD8132117 Si02
#       6
#     8   8   8   8   8   8
#     4  11  19  32  56  89 109 138 184 229 266 313
#     4  10  22  36  57  76 111 145 186 218 270 327
#     4  10  20  33  57  78 117 143 172 224 280 318
#     4  10  18  36  54  82 106 151 172 215 282 326
#     4  11  20  36  55  84 109 138 187 231 265 316
#     4  10  19  36  57  80 107 145 183 226 267 321
#
# _framework density 18.279523000000001
#
# number of rings (size 3 to 8) (size 9 to 14) (size 15 to 20)
#    0.000    1.667    3.333    4.000    0.000    0.000 
#    0.000    3.333    3.667    0.000    0.000    0.000 
#    0.000    0.000    0.000    0.000    0.000    0.000 
#
# Total GULP energy -297620.256040 kJ/mol
# GULP energy per Si atom -12400.844002 kJ/mol
# Density = 1.823792 g / cm^3
# Si number density = 18.279523 Si / 1000 Ang^3
#
#
#
# Elastic Constant Matrix: (Units=GPa)
#
#
# Indices 1 2 3 4 5 6 
#
# 1 40.5291 39.2772 26.5983 0.0000 4.3554 0.0000
# 2 39.2772 91.6785 43.0595 0.0000 -2.2204 0.0000
# 3 26.5983 43.0595 104.7675 0.0000 3.9825 0.0000
# 4 0.0000 0.0000 0.0000 28.5890 0.0000 2.4206
# 5 4.3554 -2.2204 3.9825 0.0000 31.7925 0.0000
# 6 0.0000 0.0000 0.0000 2.4206 0.0000 26.2398
#
#
#
# Elastic Compliance Matrix: (Units=1/GPa)
#
#
# Indices 1 2 3 4 5 6 
#
# 1 0.045093 -0.017638 -0.003936 0.000000 -0.006916 0.000000
# 2 -0.017638 0.020502 -0.004114 0.000000 0.004364 0.000000
# 3 -0.003936 -0.004114 0.012284 0.000000 -0.001287 0.000000
# 4 0.000000 0.000000 0.000000 0.035254 0.000000 -0.003252
# 5 -0.006916 0.004364 -0.001287 0.000000 0.032867 0.000000
# 6 0.000000 0.000000 0.000000 -0.003252 0.000000 0.038410
#
#
# Mechanical properties :
#
#
# Convention : Reuss Voigt Hill
#
# Bulk Modulus (GPa) = 37.73180 50.53834 44.13507
# Shear Modulus (GPa) = 20.43973 25.86026 23.14999
#
# Velocity S-wave (km/s) = 3.34754 3.76535 3.56257
# Velocity P-wave (km/s) = 5.96890 6.82725 6.41245
#
# Compressibility (1/GPa) = 0.02650284
#
# Stress axis : x y z
#
# Youngs Moduli (GPa) = 22.17641 48.77521 81.40523
#
# Poissons Ratio (x) = 0.86028 0.32042
# Poissons Ratio (y) = 0.39114 0.33494
# Poissons Ratio (z) = 0.08729 0.20068
#
# Static dielectric constant tensor:
#      x y z
#    x 3.241190 0.000000 0.160300 
#    y 0.000000 3.433820 0.000000 
#    z 0.160300 0.000000 3.668290 
# 
# 
# High freq. dielectric constant tensor:
#      x y z
#    x 1.689360 0.000000 0.013010 
#    y 0.000000 1.707830 0.000000 
#    z 0.013010 0.000000 1.723070 
# 
# From -- ./inp_files/143516.got.cif
#   From: 2010.06.25/outbox.cif.g09.slc.cpg/sg15_72_cif.got.tgz:143516.got - 2010.06.28 07:06:18.
