data_PCOD8132882
_publ_section_title
;
Structure prediction by ZEFSAII (Michael W. Deem and Ramdas Pophale) SiO2 
 PCOD8132882
Probable space group: C 2/C
;
_chemical_formula_sum "Si O2"
_cell_formula_units_Z 56
_cell_length_a 5.064778
_cell_length_b 33.795283
_cell_length_c 18.752084
_cell_angle_alpha 90.000000
_cell_angle_beta 105.635512
_cell_angle_gamma 90.000000
_cell_volume 3090.938695
_symmetry_space_group_name_H-M "C 2/C"
_symmetry_group_IT_number 15
_symmetry_cell_setting 'monoclinic'
loop_
_space_group_symop_operation_xyz
x,y,z
-x,y,1/2-z
-x,-y,-z
x,-y,1/2+z
1/2+x,1/2+y,z
1/2-x,1/2+y,1/2-z
1/2-x,1/2-y,-z
1/2+x,1/2-y,1/2+z
loop_
_atom_site_type_symbol
_atom_site_label
_atom_site_fract_x
_atom_site_fract_y
_atom_site_fract_z
Si Si1 0.797027 0.448941 0.021202
Si Si2 0.842446 0.780835 0.565797
Si Si3 0.000000 0.007971 0.250000
Si Si4 0.611264 0.369040 0.954968
Si Si5 0.061255 0.287845 0.833386
Si Si6 0.500000 0.939874 0.750000
Si Si7 0.867871 0.015974 0.590442
Si Si8 0.977072 0.625429 0.134189
O O1 0.651123 0.466928 0.080155
O O2 0.120911 0.455951 0.047696
O O3 0.752513 0.401500 0.016250
O O4 0.678302 0.471074 0.941922
O O5 0.750000 0.750000 0.500000
O O6 0.814980 0.823249 0.523075
O O7 0.660666 0.776049 0.623492
O O8 0.149550 0.772771 0.615252
O O9 0.232240 0.033890 0.230903
O O10 0.122170 0.981912 0.323129
O O11 0.285577 0.376029 0.937354
O O12 0.731869 0.375499 0.884479
O O13 0.057018 0.335134 0.821488
O O14 0.000000 0.269362 0.750000
O O15 0.527344 0.913874 0.821398
#
# Coordination Sequence:
#
# PCOD8132882 Si02
#       8
#     8   8   4   8   8   4   8   8
#     4  10  19  35  53  73  96 138 174 215 252 311
#     4  10  21  35  55  84 113 144 182 227 266 327
#     4  12  24  34  48  76 102 143 170 219 276 300
#     4  10  20  33  53  76 103 137 176 213 263 309
#     4  10  19  34  53  79 113 149 178 208 270 331
#     4  12  20  30  48  70 112 137 164 201 256 332
#     4  10  21  34  51  72 103 129 179 216 257 306
#     4  10  19  30  47  77 109 136 166 202 253 333
#
# _framework density 18.117471999999999
#
# number of rings (size 3 to 8) (size 9 to 14) (size 15 to 20)
#    0.000    1.714    0.714    5.143    0.000    2.286 
#    0.000    0.000    0.000    0.000   11.143    0.000 
#    0.000    0.000    0.000    0.000    0.000    0.000 
#
# Total GULP energy -347091.881550 kJ/mol
# GULP energy per Si atom -12396.138627 kJ/mol
# Density = 1.807624 g / cm^3
# Si number density = 18.117472 Si / 1000 Ang^3
#
#
#
# Elastic Constant Matrix: (Units=GPa)
#
#
# Indices 1 2 3 4 5 6 
#
# 1 77.2840 5.8338 7.8486 0.0000 10.2968 0.0000
# 2 5.8338 78.5035 35.6856 0.0000 2.6847 0.0000
# 3 7.8486 35.6856 88.9577 0.0000 -2.4242 0.0000
# 4 0.0000 0.0000 0.0000 27.0743 0.0000 -0.1634
# 5 10.2968 2.6847 -2.4242 0.0000 17.1160 0.0000
# 6 0.0000 0.0000 0.0000 -0.1634 0.0000 19.5744
#
#
#
# Elastic Compliance Matrix: (Units=1/GPa)
#
#
# Indices 1 2 3 4 5 6 
#
# 1 0.014263 -0.000097 -0.001459 0.000000 -0.008772 0.000000
# 2 -0.000097 0.015773 -0.006409 0.000000 -0.003323 0.000000
# 3 -0.001459 -0.006409 0.014047 0.000000 0.003872 0.000000
# 4 0.000000 0.000000 0.000000 0.036937 0.000000 0.000308
# 5 -0.008772 -0.003323 0.003872 0.000000 0.064772 0.000000
# 6 0.000000 0.000000 0.000000 0.000308 0.000000 0.051090
#
#
# Mechanical properties :
#
#
# Convention : Reuss Voigt Hill
#
# Bulk Modulus (GPa) = 35.52003 38.16458 36.84231
# Shear Modulus (GPa) = 22.50272 25.77809 24.14040
#
# Velocity S-wave (km/s) = 3.52809 3.77613 3.65422
# Velocity P-wave (km/s) = 6.02034 6.33428 6.17930
#
# Compressibility (1/GPa) = 0.02815313
#
# Stress axis : x y z
#
# Youngs Moduli (GPa) = 70.10916 63.40106 71.19162
#
# Poissons Ratio (x) = 0.00614 0.10384
# Poissons Ratio (y) = 0.00679 0.45628
# Poissons Ratio (z) = 0.10226 0.40635
#
# Static dielectric constant tensor:
#      x y z
#    x 3.590950 0.000000 0.031710 
#    y 0.000000 3.219540 0.000000 
#    z 0.031710 0.000000 3.085500 
# 
# 
# High freq. dielectric constant tensor:
#      x y z
#    x 1.728610 0.000000 0.002420 
#    y 0.000000 1.675280 0.000000 
#    z 0.002420 0.000000 1.675820 
# 
# From -- ./inp_files/186597.got.cif
#   From: 2010.06.25/outbox.cif.g09.slc.cpg/sg15_94_cif.got.tgz:186597.got - 2010.06.28 07:06:18.
