data_PCOD8132087
_publ_section_title
;
Structure prediction by ZEFSAII (Michael W. Deem and Ramdas Pophale) SiO2 
 PCOD8132087
Probable space group: C 2/C
;
_chemical_formula_sum "Si O2"
_cell_formula_units_Z 56
_cell_length_a 16.966225
_cell_length_b 10.690943
_cell_length_c 18.415904
_cell_angle_alpha 90.000000
_cell_angle_beta 54.309017
_cell_angle_gamma 90.000000
_cell_volume 2712.964333
_symmetry_space_group_name_H-M "C 2/C"
_symmetry_group_IT_number 15
_symmetry_cell_setting 'monoclinic'
loop_
_space_group_symop_operation_xyz
x,y,z
-x,y,1/2-z
-x,-y,-z
x,-y,1/2+z
1/2+x,1/2+y,z
1/2-x,1/2+y,1/2-z
1/2-x,1/2-y,-z
1/2+x,1/2-y,1/2+z
loop_
_atom_site_type_symbol
_atom_site_label
_atom_site_fract_x
_atom_site_fract_y
_atom_site_fract_z
Si Si1 0.798265 0.116561 0.464672
Si Si2 0.424015 0.766687 0.583294
Si Si3 0.499037 0.598247 0.434095
Si Si4 0.383476 0.792062 0.957946
Si Si5 0.311360 0.476856 0.190155
Si Si6 0.758596 0.595354 0.411781
Si Si7 0.798676 0.501142 0.109673
O O1 0.750000 0.250000 0.500000
O O2 0.910117 0.095445 0.425626
O O3 0.786257 0.071588 0.388499
O O4 0.730440 0.034857 0.553066
O O5 0.490672 0.734588 0.476576
O O6 0.499738 0.780628 0.609480
O O7 0.346254 0.654682 0.636290
O O8 0.375515 0.898703 0.596627
O O9 0.500000 0.500000 0.500000
O O10 0.598369 0.568838 0.337531
O O11 0.342095 0.660690 0.009774
O O12 0.350494 0.898238 0.032525
O O13 0.346554 0.817207 0.894662
O O14 0.242988 0.559909 0.172637
O O15 0.251234 0.438645 0.293408
#
# Coordination Sequence:
#
# PCOD8132087 Si02
#       7
#     8   8   8   8   8   8   8
#     4  11  19  38  63  94 121 165 212 258 305 383
#     4  11  20  40  63  88 122 167 212 256 310 385
#     4  10  18  35  64  88 114 165 210 246 304 381
#     4  10  22  38  63  90 122 169 216 250 304 400
#     4  11  22  38  65  92 125 162 211 267 324 360
#     4  10  19  38  62  89 124 165 209 249 316 379
#     4  11  25  36  62  96 127 157 211 271 323 366
#
# _framework density 20.641628999999998
#
# number of rings (size 3 to 8) (size 9 to 14) (size 15 to 20)
#    0.000    1.429    5.714    1.286    2.000    0.571 
#    0.000    0.714    0.000    0.000    0.000    0.000 
#    0.000    0.000    0.000    0.000    0.000    0.000 
#
# Total GULP energy -346870.317802 kJ/mol
# GULP energy per Si atom -12388.225636 kJ/mol
# Density = 2.059465 g / cm^3
# Si number density = 20.641629 Si / 1000 Ang^3
#
#
#
# Elastic Constant Matrix: (Units=GPa)
#
#
# Indices 1 2 3 4 5 6 
#
# 1 137.2102 18.9306 15.7008 0.0000 19.4602 0.0000
# 2 18.9306 93.3296 13.2310 0.0000 0.2546 0.0000
# 3 15.7008 13.2310 52.4974 0.0000 9.2985 0.0000
# 4 0.0000 0.0000 0.0000 16.6231 0.0000 -0.3876
# 5 19.4602 0.2546 9.2985 0.0000 24.7686 0.0000
# 6 0.0000 0.0000 0.0000 -0.3876 0.0000 34.5409
#
#
#
# Elastic Compliance Matrix: (Units=1/GPa)
#
#
# Indices 1 2 3 4 5 6 
#
# 1 0.008514 -0.001562 -0.001040 0.000000 -0.006283 0.000000
# 2 -0.001562 0.011422 -0.002794 0.000000 0.002159 0.000000
# 3 -0.001040 -0.002794 0.021332 0.000000 -0.007163 0.000000
# 4 0.000000 0.000000 0.000000 0.060173 0.000000 0.000675
# 5 -0.006283 0.002159 -0.007163 0.000000 0.047977 0.000000
# 6 0.000000 0.000000 0.000000 0.000675 0.000000 0.028959
#
#
# Mechanical properties :
#
#
# Convention : Reuss Voigt Hill
#
# Bulk Modulus (GPa) = 32.81252 42.08467 37.44860
# Shear Modulus (GPa) = 25.08447 30.86485 27.97466
#
# Velocity S-wave (km/s) = 3.48981 3.87107 3.68537
# Velocity P-wave (km/s) = 5.67178 6.35710 6.02420
#
# Compressibility (1/GPa) = 0.03047617
#
# Stress axis : x y z
#
# Youngs Moduli (GPa) = 117.45832 87.55198 46.87716
#
# Poissons Ratio (x) = 0.13679 0.04874
# Poissons Ratio (y) = 0.18351 0.13096
# Poissons Ratio (z) = 0.12212 0.24460
#
# Static dielectric constant tensor:
#      x y z
#    x 4.191530 0.000000 0.110220 
#    y 0.000000 3.699440 0.000000 
#    z 0.110220 0.000000 3.477740 
# 
# 
# High freq. dielectric constant tensor:
#      x y z
#    x 1.825230 0.000000 0.019460 
#    y 0.000000 1.817420 0.000000 
#    z 0.019460 0.000000 1.754390 
# 
# From -- ./inp_files/203965.got.cif
#   From: 2010.06.25/outbox.cif.g09.slc.cpg/sg15_102_cif.got.tgz:203965.got - 2010.06.28 07:06:18.
