data_PCOD8132617
_publ_section_title
;
Structure prediction by ZEFSAII (Michael W. Deem and Ramdas Pophale) SiO2 
 PCOD8132617
Probable space group: C 2/C
;
_chemical_formula_sum "Si O2"
_cell_formula_units_Z 52
_cell_length_a 11.108712
_cell_length_b 14.168896
_cell_length_c 18.752120
_cell_angle_alpha 90.000000
_cell_angle_beta 118.833683
_cell_angle_gamma 90.000000
_cell_volume 2585.626314
_symmetry_space_group_name_H-M "C 2/C"
_symmetry_group_IT_number 15
_symmetry_cell_setting 'monoclinic'
loop_
_space_group_symop_operation_xyz
x,y,z
-x,y,1/2-z
-x,-y,-z
x,-y,1/2+z
1/2+x,1/2+y,z
1/2-x,1/2+y,1/2-z
1/2-x,1/2-y,-z
1/2+x,1/2-y,1/2+z
loop_
_atom_site_type_symbol
_atom_site_label
_atom_site_fract_x
_atom_site_fract_y
_atom_site_fract_z
Si Si1 0.500000 0.466139 0.250000
Si Si2 0.674716 0.410054 0.507370
Si Si3 0.472871 0.735858 0.443126
Si Si4 0.692425 0.319891 0.362779
Si Si5 0.106925 0.077410 0.401787
Si Si6 0.055474 0.627707 0.341303
Si Si7 0.413755 0.087923 0.445023
O O1 0.634938 0.399541 0.293216
O O2 0.490972 0.531846 0.317258
O O3 0.559345 0.340769 0.505059
O O4 0.733749 0.364747 0.451028
O O5 0.611760 0.513282 0.474651
O O6 0.800097 0.422193 0.598465
O O7 0.330860 0.775661 0.368798
O O8 0.562167 0.683944 0.407569
O O9 0.560496 0.820515 0.499668
O O10 0.577115 0.240239 0.342046
O O11 0.251653 0.070516 0.402681
O O12 0.000000 0.587837 0.250000
O O13 0.945727 0.605276 0.371334
O O14 0.500000 0.000000 0.500000
#
# Coordination Sequence:
#
# PCOD8132617 Si02
#       7
#     4   8   8   8   8   8   8
#     4  10  22  42  58  94 126 170 216 266 322 374
#     4  10  19  40  61  90 122 171 221 260 313 388
#     4  11  21  38  66  97 122 170 225 261 315 394
#     4  10  18  38  67  88 120 163 226 266 306 375
#     4  11  24  38  64  95 138 174 207 259 337 398
#     4  11  20  35  66  99 116 156 228 275 305 365
#     4  12  22  42  66  94 131 175 214 262 332 393
#
# _framework density 20.111181999999999
#
# number of rings (size 3 to 8) (size 9 to 14) (size 15 to 20)
#    0.000    1.231    5.385    2.769    0.000    2.462 
#    0.000    0.000    1.692    0.000    0.000    0.000 
#    0.000    0.000    0.000    0.000    0.000    0.000 
#
# Total GULP energy -322366.503696 kJ/mol
# GULP energy per Si atom -12398.711681 kJ/mol
# Density = 2.006541 g / cm^3
# Si number density = 20.111182 Si / 1000 Ang^3
#
#
#
# Elastic Constant Matrix: (Units=GPa)
#
#
# Indices 1 2 3 4 5 6 
#
# 1 85.9640 38.4721 36.6099 0.0000 -1.6642 0.0000
# 2 38.4721 110.5788 57.3089 0.0000 -2.4411 0.0000
# 3 36.6099 57.3089 146.5305 0.0000 0.5267 0.0000
# 4 0.0000 0.0000 0.0000 31.5322 0.0000 -0.4444
# 5 -1.6642 -2.4411 0.5267 0.0000 17.9724 0.0000
# 6 0.0000 0.0000 0.0000 -0.4444 0.0000 34.1683
#
#
#
# Elastic Compliance Matrix: (Units=1/GPa)
#
#
# Indices 1 2 3 4 5 6 
#
# 1 0.014258 -0.003881 -0.002048 0.000000 0.000853 0.000000
# 2 -0.003881 0.012449 -0.003904 0.000000 0.001446 0.000000
# 3 -0.002048 -0.003904 0.008867 0.000000 -0.000980 0.000000
# 4 0.000000 0.000000 0.000000 0.031719 0.000000 0.000413
# 5 0.000853 0.001446 -0.000980 0.000000 0.055945 0.000000
# 6 0.000000 0.000000 0.000000 0.000413 0.000000 0.029272
#
#
# Mechanical properties :
#
#
# Convention : Reuss Voigt Hill
#
# Bulk Modulus (GPa) = 62.86048 67.53946 65.19997
# Shear Modulus (GPa) = 28.17243 30.78007 29.47625
#
# Velocity S-wave (km/s) = 3.74683 3.91640 3.83255
# Velocity P-wave (km/s) = 7.07408 7.35574 7.21628
#
# Compressibility (1/GPa) = 0.01590825
#
# Stress axis : x y z
#
# Youngs Moduli (GPa) = 70.13591 80.32837 112.78142
#
# Poissons Ratio (x) = 0.31172 0.23094
# Poissons Ratio (y) = 0.27216 0.44035
# Poissons Ratio (z) = 0.14362 0.31364
#
# Static dielectric constant tensor:
#      x y z
#    x 3.445600 0.000000 0.093110 
#    y 0.000000 3.843170 0.000000 
#    z 0.093110 0.000000 3.643060 
# 
# 
# High freq. dielectric constant tensor:
#      x y z
#    x 1.765360 0.000000 0.014450 
#    y 0.000000 1.793570 0.000000 
#    z 0.014450 0.000000 1.776260 
# 
# From -- ./inp_files/238446.got.cif
#   From: 2010.06.25/outbox.cif.g09.slc.cpg/sg15_120_cif.got.tgz:238446.got - 2010.06.28 07:06:18.
