data_PCOD8132973
_publ_section_title
;
Structure prediction by ZEFSAII (Michael W. Deem and Ramdas Pophale) SiO2 
 PCOD8132973
Probable space group: C 2/C
;
_chemical_formula_sum "Si O2"
_cell_formula_units_Z 64
_cell_length_a 17.942632
_cell_length_b 21.901346
_cell_length_c 9.538635
_cell_angle_alpha 90.000000
_cell_angle_beta 83.357057
_cell_angle_gamma 90.000000
_cell_volume 3723.211012
_symmetry_space_group_name_H-M "C 2/C"
_symmetry_group_IT_number 15
_symmetry_cell_setting 'monoclinic'
loop_
_space_group_symop_operation_xyz
x,y,z
-x,y,1/2-z
-x,-y,-z
x,-y,1/2+z
1/2+x,1/2+y,z
1/2-x,1/2+y,1/2-z
1/2-x,1/2-y,-z
1/2+x,1/2-y,1/2+z
loop_
_atom_site_type_symbol
_atom_site_label
_atom_site_fract_x
_atom_site_fract_y
_atom_site_fract_z
Si Si1 0.927411 0.303650 0.000170
Si Si2 0.052990 0.474349 0.106308
Si Si3 0.832506 0.752494 0.035229
Si Si4 0.584025 0.861190 0.926167
Si Si5 0.415951 0.709643 0.245418
Si Si6 0.784584 0.837113 0.606951
Si Si7 0.358112 0.090554 0.367868
Si Si8 0.824589 0.773992 0.337082
O O1 0.916440 0.272547 0.154644
O O2 0.882177 0.368100 0.997289
O O3 0.897571 0.258840 0.885600
O O4 0.013574 0.316290 0.951898
O O5 0.124835 0.519315 0.109682
O O6 0.000000 0.464558 0.250000
O O7 0.085744 0.409601 0.051967
O O8 0.000000 0.500000 0.000000
O O9 0.844779 0.682005 0.073934
O O10 0.841428 0.794316 0.173632
O O11 0.750000 0.750000 0.000000
O O12 0.888779 0.776882 0.907171
O O13 0.587877 0.893125 0.774283
O O14 0.500000 0.683191 0.250000
O O15 0.361054 0.659501 0.183270
O O16 0.730260 0.895831 0.644565
O O17 0.804436 0.832968 0.436341
O O18 0.745098 0.773164 0.654727
#
# Coordination Sequence:
#
# PCOD8132973 Si02
#       8
#     8   8   8   8   8   8   8   8
#     4  10  19  31  50  68  98 142 178 204 254 320
#     4  12  24  37  51  75 105 140 191 227 252 304
#     4  12  22  33  49  75 106 137 176 223 273 310
#     4  12  22  34  51  74 104 144 178 220 266 304
#     4  11  21  31  48  81 106 130 176 224 268 316
#     4   9  18  35  50  68  96 140 177 215 257 327
#     4  11  20  36  54  66 101 149 187 214 258 314
#     4   9  18  32  49  68  96 136 181 209 251 328
#
# _framework density 17.189463
#
# number of rings (size 3 to 8) (size 9 to 14) (size 15 to 20)
#    0.000    1.250    7.500    1.125    1.750    0.000 
#    0.000    0.000    0.000    0.000    0.000    0.000 
#    0.000    4.000    0.000    0.125    0.000    0.125 
#
# Total GULP energy -396620.659748 kJ/mol
# GULP energy per Si atom -12394.395617 kJ/mol
# Density = 1.715034 g / cm^3
# Si number density = 17.189463 Si / 1000 Ang^3
#
#
#
# Elastic Constant Matrix: (Units=GPa)
#
#
# Indices 1 2 3 4 5 6 
#
# 1 107.7690 30.4210 35.5644 0.0000 6.4226 0.0000
# 2 30.4210 35.8366 15.3479 0.0000 -2.5496 0.0000
# 3 35.5644 15.3479 127.8980 0.0000 -8.7729 0.0000
# 4 0.0000 0.0000 0.0000 18.1828 0.0000 0.4828
# 5 6.4226 -2.5496 -8.7729 0.0000 24.7941 0.0000
# 6 0.0000 0.0000 0.0000 0.4828 0.0000 18.6383
#
#
#
# Elastic Compliance Matrix: (Units=1/GPa)
#
#
# Indices 1 2 3 4 5 6 
#
# 1 0.013586 -0.010701 -0.002881 0.000000 -0.005639 0.000000
# 2 -0.010701 0.037925 -0.001146 0.000000 0.006266 0.000000
# 3 -0.002881 -0.001146 0.009019 0.000000 0.003820 0.000000
# 4 0.000000 0.000000 0.000000 0.055035 0.000000 -0.001426
# 5 -0.005639 0.006266 0.003820 0.000000 0.043789 0.000000
# 6 0.000000 0.000000 0.000000 -0.001426 0.000000 0.053690
#
#
# Mechanical properties :
#
#
# Convention : Reuss Voigt Hill
#
# Bulk Modulus (GPa) = 32.17897 48.24112 40.21005
# Shear Modulus (GPa) = 19.77408 25.00107 22.38757
#
# Velocity S-wave (km/s) = 3.39538 3.81785 3.61279
# Velocity P-wave (km/s) = 5.84228 6.89637 6.39109
#
# Compressibility (1/GPa) = 0.03107619
#
# Stress axis : x y z
#
# Youngs Moduli (GPa) = 73.60318 26.36815 110.87431
#
# Poissons Ratio (x) = 0.28216 0.31939
# Poissons Ratio (y) = 0.78760 0.12702
# Poissons Ratio (z) = 0.21202 0.03021
#
# Static dielectric constant tensor:
#      x y z
#    x 3.255230 0.000000 0.100800 
#    y 0.000000 2.084810 0.000000 
#    z 0.100800 0.000000 3.974260 
# 
# 
# High freq. dielectric constant tensor:
#      x y z
#    x 1.664150 0.000000 0.001560 
#    y 0.000000 1.599360 0.000000 
#    z 0.001560 0.000000 1.682560 
# 
# From -- ./inp_files/51259.got.cif
#   From: 2010.06.25/outbox.cif.g09.slc.cpg/sg15_26_cif.got.tgz:51259.got - 2010.06.28 07:06:18.
