data_PCOD8132510
_publ_section_title
;
Structure prediction by ZEFSAII (Michael W. Deem and Ramdas Pophale) SiO2 
 PCOD8132510
Probable space group: C 2/C
;
_chemical_formula_sum "Si O2"
_cell_formula_units_Z 56
_cell_length_a 17.204719
_cell_length_b 8.555526
_cell_length_c 23.484868
_cell_angle_alpha 90.000000
_cell_angle_beta 50.478629
_cell_angle_gamma 90.000000
_cell_volume 2666.581696
_symmetry_space_group_name_H-M "C 2/C"
_symmetry_group_IT_number 15
_symmetry_cell_setting 'monoclinic'
loop_
_space_group_symop_operation_xyz
x,y,z
-x,y,1/2-z
-x,-y,-z
x,-y,1/2+z
1/2+x,1/2+y,z
1/2-x,1/2+y,1/2-z
1/2-x,1/2-y,-z
1/2+x,1/2-y,1/2+z
loop_
_atom_site_type_symbol
_atom_site_label
_atom_site_fract_x
_atom_site_fract_y
_atom_site_fract_z
Si Si1 0.288267 0.188448 0.643085
Si Si2 0.937425 0.714712 0.669061
Si Si3 0.140659 0.563010 0.594964
Si Si4 0.959908 0.765560 0.332214
Si Si5 0.712506 0.967756 0.182490
Si Si6 0.365847 0.556311 0.704041
Si Si7 0.259369 0.394374 0.453837
O O1 0.396372 0.203005 0.623405
O O2 0.217810 0.344317 0.674328
O O3 0.223188 0.064510 0.708471
O O4 0.311255 0.130687 0.568574
O O5 0.882838 0.589409 0.735947
O O6 0.057660 0.691529 0.616428
O O7 0.915118 0.891405 0.697267
O O8 0.081658 0.401154 0.630228
O O9 0.200227 0.607258 0.625228
O O10 0.222168 0.548371 0.505423
O O11 0.874760 0.901362 0.378325
O O12 0.000000 0.763000 0.250000
O O13 0.051384 0.808081 0.331437
O O14 0.817593 0.920173 0.163632
O O15 0.250000 0.250000 0.500000
#
# Coordination Sequence:
#
# PCOD8132510 Si02
#       7
#     8   8   8   8   8   8   8
#     4  10  18  38  60  84 112 151 197 241 272 339
#     4  10  22  33  58  88 120 147 188 240 296 332
#     4  11  21  37  59  85 113 154 194 230 286 348
#     4  11  19  35  64  85 106 149 207 239 265 334
#     4  10  19  37  59  83 115 152 193 235 279 340
#     4  10  21  35  58  88 114 146 190 243 288 323
#     4  10  20  35  62  86 110 150 200 236 276 336
#
# _framework density 21.00067
#
# number of rings (size 3 to 8) (size 9 to 14) (size 15 to 20)
#    0.000    1.714    4.286    2.143    0.000    2.857 
#    0.000    1.429    0.000    0.000    0.000    0.000 
#    0.000    0.000    0.000    0.000    0.000    0.000 
#
# Total GULP energy -347034.495224 kJ/mol
# GULP energy per Si atom -12394.089115 kJ/mol
# Density = 2.095287 g / cm^3
# Si number density = 21.000670 Si / 1000 Ang^3
#
#
#
# Elastic Constant Matrix: (Units=GPa)
#
#
# Indices 1 2 3 4 5 6 
#
# 1 124.4703 23.8812 22.4967 0.0000 21.6819 0.0002
# 2 23.8812 28.1727 -0.0412 0.0001 0.5538 0.0004
# 3 22.4967 -0.0412 64.1163 0.0000 14.8205 0.0001
# 4 0.0000 0.0001 0.0000 11.5326 0.0000 -0.1912
# 5 21.6819 0.5538 14.8205 0.0000 38.5402 0.0000
# 6 0.0002 0.0004 0.0001 -0.1912 0.0000 31.1824
#
#
#
# Elastic Compliance Matrix: (Units=1/GPa)
#
#
# Indices 1 2 3 4 5 6 
#
# 1 0.011234 -0.009426 -0.002764 0.000000 -0.005122 0.000000
# 2 -0.009426 0.043416 0.002474 0.000000 0.003728 0.000000
# 3 -0.002764 0.002474 0.017799 0.000000 -0.005325 0.000000
# 4 0.000000 0.000000 0.000000 0.086720 0.000000 0.000532
# 5 -0.005122 0.003728 -0.005325 0.000000 0.030823 0.000000
# 6 0.000000 0.000000 0.000000 0.000532 0.000000 0.032073
#
#
# Mechanical properties :
#
#
# Convention : Reuss Voigt Hill
#
# Bulk Modulus (GPa) = 18.86222 34.38139 26.62181
# Shear Modulus (GPa) = 19.29235 27.61253 23.45244
#
# Velocity S-wave (km/s) = 3.03422 3.63001 3.34540
# Velocity P-wave (km/s) = 4.61265 5.82893 5.25609
#
# Compressibility (1/GPa) = 0.05301602
#
# Stress axis : x y z
#
# Youngs Moduli (GPa) = 89.01244 23.03287 56.18307
#
# Poissons Ratio (x) = 0.21712 0.15529
# Poissons Ratio (y) = 0.83907 -0.13898
# Poissons Ratio (z) = 0.24603 -0.05697
#
# Static dielectric constant tensor:
#      x y z
#    x 4.217970 0.000000 -0.077020 
#    y 0.000000 3.615450 0.000000 
#    z -0.077020 0.000000 4.047960 
# 
# 
# High freq. dielectric constant tensor:
#      x y z
#    x 1.841740 0.000000 0.006700 
#    y 0.000000 1.801540 0.000000 
#    z 0.006700 0.000000 1.800140 
# 
# From -- ./inp_files/276501.got.cif
#   From: 2010.06.25/outbox.cif.g09.slc.cpg/sg15_139_cif.got.tgz:276501.got - 2010.06.28 07:06:18.
