data_PCOD8132282
_publ_section_title
;
Structure prediction by ZEFSAII (Michael W. Deem and Ramdas Pophale) SiO2 
 PCOD8132282
Probable space group: C 2/C
;
_chemical_formula_sum "Si O2"
_cell_formula_units_Z 56
_cell_length_a 18.765404
_cell_length_b 14.300849
_cell_length_c 12.081806
_cell_angle_alpha 90.000000
_cell_angle_beta 114.893612
_cell_angle_gamma 90.000000
_cell_volume 2941.050163
_symmetry_space_group_name_H-M "C 2/C"
_symmetry_group_IT_number 15
_symmetry_cell_setting 'monoclinic'
loop_
_space_group_symop_operation_xyz
x,y,z
-x,y,1/2-z
-x,-y,-z
x,-y,1/2+z
1/2+x,1/2+y,z
1/2-x,1/2+y,1/2-z
1/2-x,1/2-y,-z
1/2+x,1/2-y,1/2+z
loop_
_atom_site_type_symbol
_atom_site_label
_atom_site_fract_x
_atom_site_fract_y
_atom_site_fract_z
Si Si1 0.676014 0.931149 0.416736
Si Si2 0.890443 0.451923 0.434005
Si Si3 0.356837 0.262178 0.371291
Si Si4 0.733517 0.555075 0.730515
Si Si5 0.411272 0.755183 0.159166
Si Si6 0.469197 0.116829 0.354821
Si Si7 0.281621 0.361902 0.669491
O O1 0.731288 0.980974 0.363094
O O2 0.614517 0.859273 0.320176
O O3 0.737721 0.868861 0.524301
O O4 0.625246 0.999158 0.458473
O O5 0.809018 0.402470 0.346238
O O6 0.914708 0.528227 0.355408
O O7 0.959750 0.379164 0.507915
O O8 0.336410 0.368908 0.323169
O O9 0.393144 0.260515 0.517842
O O10 0.421577 0.214258 0.333245
O O11 0.276484 0.204300 0.298350
O O12 0.700874 0.463028 0.767511
O O13 0.500000 0.739043 0.250000
O O14 0.365822 0.682819 0.207023
O O15 0.500000 0.104417 0.250000
#
# Coordination Sequence:
#
# PCOD8132282 Si02
#       7
#     8   8   8   8   8   8   8
#     4  10  18  36  62  88 118 149 193 258 301 349
#     4  10  22  35  60  93 119 156 201 239 320 355
#     4  11  21  40  59  89 123 160 196 250 301 355
#     4  11  20  35  67  84 119 163 198 243 295 357
#     4  11  21  36  64  90 120 149 204 257 296 353
#     4  11  22  38  56  89 134 151 188 255 309 362
#     4  10  20  39  57  91 116 152 207 241 294 357
#
# _framework density 19.040818999999999
#
# number of rings (size 3 to 8) (size 9 to 14) (size 15 to 20)
#    0.000    1.429    7.143    1.714    2.000    0.571 
#    0.000    2.143    6.286    0.000    0.000    0.000 
#    0.000    0.000    0.000    0.000    0.000    0.000 
#
# Total GULP energy -346948.979187 kJ/mol
# GULP energy per Si atom -12391.034971 kJ/mol
# Density = 1.899748 g / cm^3
# Si number density = 19.040819 Si / 1000 Ang^3
#
#
#
# Elastic Constant Matrix: (Units=GPa)
#
#
# Indices 1 2 3 4 5 6 
#
# 1 115.9659 46.7847 41.3305 0.0000 1.9529 0.0000
# 2 46.7847 77.6735 34.8732 0.0000 6.2490 0.0000
# 3 41.3305 34.8732 57.0994 0.0000 -1.5685 0.0000
# 4 0.0000 0.0000 0.0000 27.9735 0.0000 9.8000
# 5 1.9529 6.2490 -1.5685 0.0000 31.5340 0.0000
# 6 0.0000 0.0000 0.0000 9.8000 0.0000 13.4873
#
#
#
# Elastic Compliance Matrix: (Units=1/GPa)
#
#
# Indices 1 2 3 4 5 6 
#
# 1 0.012851 -0.004893 -0.006318 0.000000 -0.000141 0.000000
# 2 -0.004893 0.020136 -0.008870 0.000000 -0.004128 0.000000
# 3 -0.006318 -0.008870 0.027600 0.000000 0.003522 0.000000
# 4 0.000000 0.000000 0.000000 0.047956 0.000000 -0.034845
# 5 -0.000141 -0.004128 0.003522 0.000000 0.032714 0.000000
# 6 0.000000 0.000000 0.000000 -0.034845 0.000000 0.099463
#
#
# Mechanical properties :
#
#
# Convention : Reuss Voigt Hill
#
# Bulk Modulus (GPa) = 48.95543 55.19060 52.07302
# Shear Modulus (GPa) = 17.37990 23.11564 20.24777
#
# Velocity S-wave (km/s) = 3.02449 3.48804 3.26450
# Velocity P-wave (km/s) = 6.16144 6.72831 6.45110
#
# Compressibility (1/GPa) = 0.02042674
#
# Stress axis : x y z
#
# Youngs Moduli (GPa) = 77.81403 49.66270 36.23165
#
# Poissons Ratio (x) = 0.24299 0.22890
# Poissons Ratio (y) = 0.38073 0.32136
# Poissons Ratio (z) = 0.49161 0.44049
#
# Static dielectric constant tensor:
#      x y z
#    x 3.546380 0.000000 -0.002830 
#    y 0.000000 3.308050 0.000000 
#    z -0.002830 0.000000 3.463190 
# 
# 
# High freq. dielectric constant tensor:
#      x y z
#    x 1.740430 0.000000 -0.000090 
#    y 0.000000 1.713560 0.000000 
#    z -0.000090 0.000000 1.736570 
# 
# From -- ./inp_files/105435.got.cif
#   From: 2010.06.25/outbox.cif.g09.slc.cpg/sg15_53_cif.got.tgz:105435.got - 2010.06.28 07:06:18.
