data_PCOD8132791
_publ_section_title
;
Structure prediction by ZEFSAII (Michael W. Deem and Ramdas Pophale) SiO2 
 PCOD8132791
Probable space group: C 2/C
;
_chemical_formula_sum "Si O2"
_cell_formula_units_Z 44
_cell_length_a 10.772703
_cell_length_b 19.323621
_cell_length_c 10.271316
_cell_angle_alpha 90.000000
_cell_angle_beta 65.998449
_cell_angle_gamma 90.000000
_cell_volume 1953.278709
_symmetry_space_group_name_H-M "C 2/C"
_symmetry_group_IT_number 15
_symmetry_cell_setting 'monoclinic'
loop_
_space_group_symop_operation_xyz
x,y,z
-x,y,1/2-z
-x,-y,-z
x,-y,1/2+z
1/2+x,1/2+y,z
1/2-x,1/2+y,1/2-z
1/2-x,1/2-y,-z
1/2+x,1/2-y,1/2+z
loop_
_atom_site_type_symbol
_atom_site_label
_atom_site_fract_x
_atom_site_fract_y
_atom_site_fract_z
Si Si1 0.404569 0.194109 0.945676
Si Si2 0.000000 0.178781 0.250000
Si Si3 0.200585 0.663172 0.776340
Si Si4 0.652860 0.800589 0.734424
Si Si5 0.137438 0.905659 0.896198
Si Si6 0.590277 0.552275 0.827385
O O1 0.434591 0.273431 0.890858
O O2 0.546016 0.151871 0.886969
O O3 0.298279 0.165980 0.882726
O O4 0.341033 0.185991 0.113838
O O5 0.110657 0.129511 0.268213
O O6 0.260943 0.730667 0.823514
O O7 0.288956 0.597794 0.783712
O O8 0.500000 0.790968 0.750000
O O9 0.724614 0.863962 0.621663
O O10 0.158331 0.988597 0.876659
O O11 0.007087 0.896927 0.046121
O O12 0.500000 0.520386 0.750000
#
# Coordination Sequence:
#
# PCOD8132791 Si02
#       6
#     8   4   8   8   8   8
#     4  10  22  40  67  94 125 174 215 270 322 383
#     4  10  18  42  68  92 122 164 226 264 302 398
#     4  10  22  40  64  92 127 168 223 262 323 379
#     4  12  25  39  65  98 134 168 213 275 326 380
#     4  11  24  42  66  96 129 172 221 259 329 387
#     4  11  25  42  68  95 131 171 216 273 316 388
#
# _framework density 22.526228
#
# number of rings (size 3 to 8) (size 9 to 14) (size 15 to 20)
#    0.000    1.455    4.545    2.182    5.091    0.727 
#    3.273    0.909    0.000    0.000    0.000    0.000 
#    0.000    0.000    0.000    0.000    0.000    0.000 
#
# Total GULP energy -272634.823168 kJ/mol
# GULP energy per Si atom -12392.491962 kJ/mol
# Density = 2.247496 g / cm^3
# Si number density = 22.526228 Si / 1000 Ang^3
#
#
#
# Elastic Constant Matrix: (Units=GPa)
#
#
# Indices 1 2 3 4 5 6 
#
# 1 98.7168 24.9786 -11.2370 0.0000 -17.4551 0.0000
# 2 24.9786 84.2699 14.6899 0.0000 -18.7482 0.0000
# 3 -11.2370 14.6899 50.2539 0.0000 -15.5944 0.0000
# 4 0.0000 0.0000 0.0000 23.0221 0.0000 -0.2754
# 5 -17.4551 -18.7482 -15.5944 0.0000 29.1460 0.0000
# 6 0.0000 0.0000 0.0000 -0.2754 0.0000 29.5529
#
#
#
# Elastic Compliance Matrix: (Units=1/GPa)
#
#
# Indices 1 2 3 4 5 6 
#
# 1 0.013410 -0.003000 0.006917 0.000000 0.009802 0.000000
# 2 -0.003000 0.014620 -0.003098 0.000000 0.005950 0.000000
# 3 0.006917 -0.003098 0.027601 0.000000 0.016918 0.000000
# 4 0.000000 0.000000 0.000000 0.043441 0.000000 0.000405
# 5 0.009802 0.005950 0.016918 0.000000 0.053059 0.000000
# 6 0.000000 0.000000 0.000000 0.000405 0.000000 0.033841
#
#
# Mechanical properties :
#
#
# Convention : Reuss Voigt Hill
#
# Bulk Modulus (GPa) = 17.46147 32.23372 24.84759
# Shear Modulus (GPa) = 24.57930 29.99814 27.28872
#
# Velocity S-wave (km/s) = 3.30683 3.65320 3.48432
# Velocity P-wave (km/s) = 4.72743 5.66877 5.21937
#
# Compressibility (1/GPa) = 0.05726895
#
# Stress axis : x y z
#
# Youngs Moduli (GPa) = 74.57322 68.40140 36.23067
#
# Poissons Ratio (x) = 0.20519 -0.25061
# Poissons Ratio (y) = 0.22370 0.11224
# Poissons Ratio (z) = -0.51583 0.21190
#
# Static dielectric constant tensor:
#      x y z
#    x 4.190260 0.000000 -0.075230 
#    y 0.000000 3.732340 0.000000 
#    z -0.075230 0.000000 3.948090 
# 
# 
# High freq. dielectric constant tensor:
#      x y z
#    x 1.894920 0.000000 -0.005640 
#    y 0.000000 1.861550 0.000000 
#    z -0.005640 0.000000 1.882810 
# 
# From -- ./inp_files/87695.got.cif
#   From: 2010.06.25/outbox.cif.g09.slc.cpg/sg15_44_cif.got.tgz:87695.got - 2010.06.28 07:06:18.
