data_PCOD8132821
_publ_section_title
;
Structure prediction by ZEFSAII (Michael W. Deem and Ramdas Pophale) SiO2 
 PCOD8132821
Probable space group: C 2/C
;
_chemical_formula_sum "Si O2"
_cell_formula_units_Z 52
_cell_length_a 24.807187
_cell_length_b 34.563726
_cell_length_c 5.227858
_cell_angle_alpha 90.000000
_cell_angle_beta 124.268773
_cell_angle_gamma 90.000000
_cell_volume 3704.375057
_symmetry_space_group_name_H-M "C 2/C"
_symmetry_group_IT_number 15
_symmetry_cell_setting 'monoclinic'
loop_
_space_group_symop_operation_xyz
x,y,z
-x,y,1/2-z
-x,-y,-z
x,-y,1/2+z
1/2+x,1/2+y,z
1/2-x,1/2+y,1/2-z
1/2-x,1/2-y,-z
1/2+x,1/2-y,1/2+z
loop_
_atom_site_type_symbol
_atom_site_label
_atom_site_fract_x
_atom_site_fract_y
_atom_site_fract_z
Si Si1 0.828273 0.230653 0.977095
Si Si2 0.120173 0.607914 0.503596
Si Si3 0.164855 0.647294 0.145408
Si Si4 0.076040 0.476305 0.952629
Si Si5 0.000000 0.652431 0.250000
Si Si6 0.277099 0.702285 0.338611
Si Si7 0.433222 0.790721 0.202904
O O1 0.770675 0.261521 0.812966
O O2 0.827261 0.207083 0.708606
O O3 0.818505 0.200884 0.186340
O O4 0.897715 0.251915 0.203871
O O5 0.169799 0.620097 0.409642
O O6 0.118568 0.561859 0.519862
O O7 0.048734 0.624269 0.223212
O O8 0.139669 0.623745 0.833730
O O9 0.236713 0.662915 0.270074
O O10 0.117882 0.683779 0.101314
O O11 0.094403 0.505975 0.776299
O O12 0.000000 0.465432 0.750000
O O13 0.049024 0.680190 0.526617
O O14 0.500000 0.777690 0.250000
#
# Coordination Sequence:
#
# PCOD8132821 Si02
#       7
#     8   8   8   8   4   8   8
#     4   9  18  27  44  52  76 100 127 156 201 251
#     4  11  19  31  44  62  76 105 126 168 210 242
#     4  10  20  29  46  59  79  97 129 171 212 242
#     4  10  20  32  44  58  80 107 132 156 193 253
#     4  10  20  28  40  56  86  96 132 170 206 260
#     4   9  17  31  40  58  71  98 129 159 198 251
#     4  10  19  28  39  59  80 103 128 167 213 252
#
# _framework density 14.037454
#
# number of rings (size 3 to 8) (size 9 to 14) (size 15 to 20)
#    0.000    2.154    2.308    1.846    2.154    3.692 
#    0.000    0.000    0.000    0.000    0.000    0.000 
#    0.000    0.000    0.000    0.000    0.000    0.000 
#
# Total GULP energy -322193.745574 kJ/mol
# GULP energy per Si atom -12392.067137 kJ/mol
# Density = 1.400550 g / cm^3
# Si number density = 14.037454 Si / 1000 Ang^3
#
#
#
# Elastic Constant Matrix: (Units=GPa)
#
#
# Indices 1 2 3 4 5 6 
#
# 1 74.3590 41.4521 26.8567 0.0000 -17.6067 0.0000
# 2 41.4521 69.5172 22.7740 0.0000 -2.0695 0.0000
# 3 26.8567 22.7740 46.1946 0.0000 -16.1249 0.0000
# 4 0.0000 0.0000 0.0000 13.1275 0.0000 -4.7541
# 5 -17.6067 -2.0695 -16.1249 0.0000 24.2363 0.0000
# 6 0.0000 0.0000 0.0000 -4.7541 0.0000 14.0602
#
#
#
# Elastic Compliance Matrix: (Units=1/GPa)
#
#
# Indices 1 2 3 4 5 6 
#
# 1 0.026124 -0.014264 -0.002548 0.000000 0.016065 0.000000
# 2 -0.014264 0.025509 -0.009300 0.000000 -0.014372 0.000000
# 3 -0.002548 -0.009300 0.034894 0.000000 0.020571 0.000000
# 4 0.000000 0.000000 0.000000 0.086806 0.000000 0.029351
# 5 0.016065 -0.014372 0.020571 0.000000 0.065390 0.000000
# 6 0.000000 0.000000 0.000000 0.029351 0.000000 0.081047
#
#
# Mechanical properties :
#
#
# Convention : Reuss Voigt Hill
#
# Bulk Modulus (GPa) = 29.15165 41.35959 35.25562
# Shear Modulus (GPa) = 13.04020 16.88399 14.96210
#
# Velocity S-wave (km/s) = 3.05119 3.47188 3.26831
# Velocity P-wave (km/s) = 5.76412 6.75275 6.27793
#
# Compressibility (1/GPa) = 0.03430338
#
# Stress axis : x y z
#
# Youngs Moduli (GPa) = 38.27860 39.20126 28.65806
#
# Poissons Ratio (x) = 0.55919 0.07302
# Poissons Ratio (y) = 0.54602 0.26651
# Poissons Ratio (z) = 0.09754 0.36456
#
# Static dielectric constant tensor:
#      x y z
#    x 2.757800 0.000000 -0.087910 
#    y 0.000000 2.557070 0.000000 
#    z -0.087910 0.000000 3.083520 
# 
# 
# High freq. dielectric constant tensor:
#      x y z
#    x 1.517570 0.000000 -0.029950 
#    y 0.000000 1.504190 0.000000 
#    z -0.029950 0.000000 1.523680 
# 
# From -- ./inp_files/11816.got.cif
#   From: 2010.06.25/outbox.cif.g09.slc.cpg/sg15_6_cif.got.tgz:11816.got - 2010.06.28 07:06:18.
