data_PCOD8132063
_publ_section_title
;
Structure prediction by ZEFSAII (Michael W. Deem and Ramdas Pophale) SiO2 
 PCOD8132063
Probable space group: C 2/C
;
_chemical_formula_sum "Si O2"
_cell_formula_units_Z 60
_cell_length_a 7.579812
_cell_length_b 29.602613
_cell_length_c 14.321794
_cell_angle_alpha 90.000000
_cell_angle_beta 88.324523
_cell_angle_gamma 90.000000
_cell_volume 3212.182332
_symmetry_space_group_name_H-M "C 2/C"
_symmetry_group_IT_number 15
_symmetry_cell_setting 'monoclinic'
loop_
_space_group_symop_operation_xyz
x,y,z
-x,y,1/2-z
-x,-y,-z
x,-y,1/2+z
1/2+x,1/2+y,z
1/2-x,1/2+y,1/2-z
1/2-x,1/2-y,-z
1/2+x,1/2-y,1/2+z
loop_
_atom_site_type_symbol
_atom_site_label
_atom_site_fract_x
_atom_site_fract_y
_atom_site_fract_z
Si Si1 0.202002 0.259149 0.747302
Si Si2 0.648807 0.572867 0.367764
Si Si3 0.508963 0.853689 0.450772
Si Si4 0.727671 0.577772 0.162042
Si Si5 0.533528 0.049919 0.031705
Si Si6 0.192280 0.827266 0.916503
Si Si7 0.500000 0.813712 0.250000
Si Si8 0.209038 0.825329 0.592291
O O1 0.237520 0.289715 0.655847
O O2 0.324680 0.215648 0.741893
O O3 0.242099 0.283071 0.844771
O O4 0.000000 0.243220 0.750000
O O5 0.698185 0.556412 0.263741
O O6 0.444346 0.563681 0.396857
O O7 0.762795 0.547044 0.442101
O O8 0.703068 0.625245 0.364415
O O9 0.505361 0.908551 0.460425
O O10 0.685014 0.830638 0.492636
O O11 0.492845 0.845125 0.341345
O O12 0.340383 0.831059 0.503339
O O13 0.728282 0.632104 0.161378
O O14 0.908746 0.558025 0.122075
O O15 0.500000 0.000000 0.000000
O O16 0.987895 0.817783 0.946493
#
# Coordination Sequence:
#
# PCOD8132063 Si02
#       8
#     8   8   8   8   8   8   4   8
#     4  12  22  36  60  91 119 149 199 248 286 348
#     4   9  17  30  56  88 119 140 172 237 306 346
#     4  10  24  42  60  80 120 162 200 240 297 346
#     4   9  17  30  56  88 119 140 172 237 306 346
#     4  10  21  37  58  88 109 149 196 240 286 351
#     4  10  18  35  62  90 116 149 190 248 297 336
#     4  12  28  44  52  78 126 174 196 232 284 350
#     4  10  18  35  62  90 116 149 190 248 297 336
#
# _framework density 18.678889999999999
#
# number of rings (size 3 to 8) (size 9 to 14) (size 15 to 20)
#    0.000    1.867    4.000    0.400    0.000    2.667 
#    2.400    0.000    0.000    0.000    0.000    0.000 
#    0.000    0.000    0.000    0.000    0.000    0.000 
#
# Total GULP energy -371807.833549 kJ/mol
# GULP energy per Si atom -12393.594452 kJ/mol
# Density = 1.863638 g / cm^3
# Si number density = 18.678890 Si / 1000 Ang^3
#
#
#
# Elastic Constant Matrix: (Units=GPa)
#
#
# Indices 1 2 3 4 5 6 
#
# 1 128.6674 28.1500 28.5987 0.0000 8.5196 0.0000
# 2 28.1500 80.4086 34.7983 0.0000 6.6961 0.0000
# 3 28.5987 34.7983 97.1864 0.0000 7.0628 0.0000
# 4 0.0000 0.0000 0.0000 9.1518 0.0000 2.6319
# 5 8.5196 6.6961 7.0628 0.0000 19.7812 0.0000
# 6 0.0000 0.0000 0.0000 2.6319 0.0000 21.1012
#
#
#
# Elastic Compliance Matrix: (Units=1/GPa)
#
#
# Indices 1 2 3 4 5 6 
#
# 1 0.008770 -0.002160 -0.001628 0.000000 -0.002464 0.000000
# 2 -0.002160 0.015447 -0.004705 0.000000 -0.002619 0.000000
# 3 -0.001628 -0.004705 0.012614 0.000000 -0.002210 0.000000
# 4 0.000000 0.000000 0.000000 0.113334 0.000000 -0.014136
# 5 -0.002464 -0.002619 -0.002210 0.000000 0.053290 0.000000
# 6 0.000000 0.000000 0.000000 -0.014136 0.000000 0.049154
#
#
# Mechanical properties :
#
#
# Convention : Reuss Voigt Hill
#
# Bulk Modulus (GPa) = 50.39316 54.37293 52.38304
# Shear Modulus (GPa) = 18.10221 24.32117 21.21169
#
# Velocity S-wave (km/s) = 3.11646 3.61233 3.37352
# Velocity P-wave (km/s) = 6.32353 6.82430 6.57868
#
# Compressibility (1/GPa) = 0.01984396
#
# Stress axis : x y z
#
# Youngs Moduli (GPa) = 114.02957 64.73750 79.27828
#
# Poissons Ratio (x) = 0.13986 0.12906
# Poissons Ratio (y) = 0.24635 0.37300
# Poissons Ratio (z) = 0.18564 0.30458
#
# Static dielectric constant tensor:
#      x y z
#    x 5.947700 0.000000 -2.105100 
#    y 0.000000 3.054630 0.000000 
#    z -2.105100 0.000000 5.678330 
# 
# 
# High freq. dielectric constant tensor:
#      x y z
#    x 1.750210 0.000000 0.004810 
#    y 0.000000 1.694940 0.000000 
#    z 0.004810 0.000000 1.702670 
# 
# From -- ./inp_files/82237.got.cif
#   From: 2010.06.25/outbox.cif.g09.slc.cpg/sg15_42_cif.got.tgz:82237.got - 2010.06.28 07:06:18.
