data_PCOD8132515
_publ_section_title
;
Structure prediction by ZEFSAII (Michael W. Deem and Ramdas Pophale) SiO2 
 PCOD8132515
Probable space group: C 2/C
;
_chemical_formula_sum "Si O2"
_cell_formula_units_Z 52
_cell_length_a 29.450684
_cell_length_b 10.564547
_cell_length_c 15.777192
_cell_angle_alpha 90.000000
_cell_angle_beta 32.339071
_cell_angle_gamma 90.000000
_cell_volume 2625.861488
_symmetry_space_group_name_H-M "C 2/C"
_symmetry_group_IT_number 15
_symmetry_cell_setting 'monoclinic'
loop_
_space_group_symop_operation_xyz
x,y,z
-x,y,1/2-z
-x,-y,-z
x,-y,1/2+z
1/2+x,1/2+y,z
1/2-x,1/2+y,1/2-z
1/2-x,1/2-y,-z
1/2+x,1/2-y,1/2+z
loop_
_atom_site_type_symbol
_atom_site_label
_atom_site_fract_x
_atom_site_fract_y
_atom_site_fract_z
Si Si1 0.148465 0.897356 0.026944
Si Si2 0.686633 0.622271 0.288628
Si Si3 0.467870 0.707328 0.525671
Si Si4 0.674139 0.129405 0.312113
Si Si5 0.900737 0.018801 0.233454
Si Si6 0.418576 0.129422 0.544874
Si Si7 0.500000 0.792231 0.750000
O O1 0.078509 0.792253 0.159567
O O2 0.141544 0.008594 0.107392
O O3 0.135695 0.945081 0.948722
O O4 0.246031 0.846400 0.877741
O O5 0.787626 0.619434 0.151922
O O6 0.669193 0.551309 0.228417
O O7 0.656404 0.767342 0.335856
O O8 0.386565 0.749334 0.599828
O O9 0.531516 0.631302 0.364335
O O10 0.444801 0.613848 0.639636
O O11 0.512861 0.832380 0.492030
O O12 0.623277 0.003864 0.366805
O O13 0.466489 0.119959 0.379008
#
# Coordination Sequence:
#
# PCOD8132515 Si02
#       7
#     8   8   8   8   8   8   4
#     4   9  20  37  59  94 109 161 201 255 285 354
#     4   8  21  36  58  90 117 154 203 250 293 346
#     4  10  21  35  60  89 116 160 198 242 305 363
#     4  10  22  37  60  86 124 153 195 255 301 348
#     4  10  19  38  64  87 121 160 203 242 301 358
#     4  10  19  39  58  83 125 157 193 253 304 349
#     4  10  18  38  60  86 120 150 218 242 292 354
#
# _framework density 19.803024000000001
#
# number of rings (size 3 to 8) (size 9 to 14) (size 15 to 20)
#    0.923    1.538    1.538    0.462    4.308    0.615 
#    2.769    3.077    6.769    0.000    0.000    0.000 
#    0.000    0.000    0.000    0.000    0.000    0.000 
#
# Total GULP energy -322094.758114 kJ/mol
# GULP energy per Si atom -12388.259927 kJ/mol
# Density = 1.975795 g / cm^3
# Si number density = 19.803024 Si / 1000 Ang^3
#
#
#
# Elastic Constant Matrix: (Units=GPa)
#
#
# Indices 1 2 3 4 5 6 
#
# 1 88.5928 35.2642 55.2216 0.0000 -6.9568 0.0000
# 2 35.2642 62.8971 39.6826 0.0000 -11.5567 0.0000
# 3 55.2216 39.6826 85.6825 0.0000 -23.3971 0.0000
# 4 0.0000 0.0000 0.0000 17.9152 0.0000 -8.8949
# 5 -6.9568 -11.5567 -23.3971 0.0000 35.8683 0.0000
# 6 0.0000 0.0000 0.0000 -8.8949 0.0000 23.7285
#
#
#
# Elastic Compliance Matrix: (Units=1/GPa)
#
#
# Indices 1 2 3 4 5 6 
#
# 1 0.020590 -0.004575 -0.012731 0.000000 -0.005785 0.000000
# 2 -0.004575 0.023488 -0.007429 0.000000 0.001835 0.000000
# 3 -0.012731 -0.007429 0.026754 0.000000 0.012589 0.000000
# 4 0.000000 0.000000 0.000000 0.068583 0.000000 0.025709
# 5 -0.005785 0.001835 0.012589 0.000000 0.035561 0.000000
# 6 0.000000 0.000000 0.000000 0.025709 0.000000 0.051781
#
#
# Mechanical properties :
#
#
# Convention : Reuss Voigt Hill
#
# Bulk Modulus (GPa) = 46.80972 55.27879 51.04425
# Shear Modulus (GPa) = 17.64629 22.63600 20.14114
#
# Velocity S-wave (km/s) = 2.98835 3.38458 3.19262
# Velocity P-wave (km/s) = 5.96624 6.57638 6.27872
#
# Compressibility (1/GPa) = 0.02136308
#
# Stress axis : x y z
#
# Youngs Moduli (GPa) = 48.56814 42.57518 37.37767
#
# Poissons Ratio (x) = 0.19477 0.47584
# Poissons Ratio (y) = 0.22219 0.27767
# Poissons Ratio (z) = 0.61831 0.31628
#
# Static dielectric constant tensor:
#      x y z
#    x 3.551760 0.000000 -0.172070 
#    y 0.000000 3.248820 0.000000 
#    z -0.172070 0.000000 3.515600 
# 
# 
# High freq. dielectric constant tensor:
#      x y z
#    x 1.769680 0.000000 -0.018130 
#    y 0.000000 1.746320 0.000000 
#    z -0.018130 0.000000 1.757850 
# 
# From -- ./inp_files/224870.got.cif
#   From: 2010.06.25/outbox.cif.g09.slc.cpg/sg15_113_cif.got.tgz:224870.got - 2010.06.28 07:06:18.
