data_PCOD8132831
_publ_section_title
;
Structure prediction by ZEFSAII (Michael W. Deem and Ramdas Pophale) SiO2 
 PCOD8132831
Probable space group: C 2/C
;
_chemical_formula_sum "Si O2"
_cell_formula_units_Z 64
_cell_length_a 20.016824
_cell_length_b 11.168875
_cell_length_c 18.161785
_cell_angle_alpha 90.000000
_cell_angle_beta 82.795289
_cell_angle_gamma 90.000000
_cell_volume 4028.287918
_symmetry_space_group_name_H-M "C 2/C"
_symmetry_group_IT_number 15
_symmetry_cell_setting 'monoclinic'
loop_
_space_group_symop_operation_xyz
x,y,z
-x,y,1/2-z
-x,-y,-z
x,-y,1/2+z
1/2+x,1/2+y,z
1/2-x,1/2+y,1/2-z
1/2-x,1/2-y,-z
1/2+x,1/2-y,1/2+z
loop_
_atom_site_type_symbol
_atom_site_label
_atom_site_fract_x
_atom_site_fract_y
_atom_site_fract_z
Si Si1 0.423769 0.054421 0.941253
Si Si2 0.172548 0.520640 0.166538
Si Si3 0.310395 0.152361 0.058037
Si Si4 0.063224 0.650954 0.945120
Si Si5 0.180535 0.448386 0.331263
Si Si6 0.278200 0.267866 0.382348
Si Si7 0.653967 0.345846 0.986078
Si Si8 0.211683 0.086389 0.948953
O O1 0.488969 0.139360 0.920426
O O2 0.396231 0.015146 0.865426
O O3 0.371891 0.131547 0.994963
O O4 0.437116 0.932047 0.982868
O O5 0.167728 0.465086 0.247433
O O6 0.184098 0.663880 0.168822
O O7 0.233743 0.464095 0.114009
O O8 0.315923 0.290727 0.081448
O O9 0.311334 0.077382 0.132507
O O10 0.242167 0.116405 0.025036
O O11 0.115794 0.613932 0.875476
O O12 0.083706 0.784731 0.969705
O O13 0.248022 0.369046 0.332398
O O14 0.333688 0.326822 0.428607
O O15 0.216400 0.216193 0.437217
O O16 0.652646 0.487610 0.967606
#
# Coordination Sequence:
#
# PCOD8132831 Si02
#       8
#     8   8   8   8   8   8   8   8
#     4   9  17  31  47  67  90 120 157 197 233 273
#     4  10  19  28  45  69  96 121 150 192 238 290
#     4   9  17  30  45  65  95 123 152 195 238 276
#     4   9  17  30  49  66  89 120 160 196 233 271
#     4  10  19  28  44  69  96 122 149 192 241 285
#     4   9  16  28  44  66  91 116 153 189 230 284
#     4   9  14  28  49  65  85 119 157 195 226 274
#     4   9  17  29  46  67  92 124 154 189 240 283
#
# _framework density 15.887643000000001
#
# number of rings (size 3 to 8) (size 9 to 14) (size 15 to 20)
#    0.000    2.750    2.500    0.000    1.750    0.500 
#    0.000    0.625    0.000    0.000    0.000    0.000 
#    0.000    0.000    0.000    0.000    0.000    0.000 
#
# Total GULP energy -396603.870137 kJ/mol
# GULP energy per Si atom -12393.870942 kJ/mol
# Density = 1.585148 g / cm^3
# Si number density = 15.887643 Si / 1000 Ang^3
#
#
#
# Elastic Constant Matrix: (Units=GPa)
#
#
# Indices 1 2 3 4 5 6 
#
# 1 78.6725 47.9428 24.2192 0.0000 16.8273 0.0000
# 2 47.9428 121.0083 32.9338 0.0000 9.9523 0.0000
# 3 24.2192 32.9338 88.1723 0.0000 21.2264 0.0000
# 4 0.0000 0.0000 0.0000 9.8924 0.0000 5.0084
# 5 16.8273 9.9523 21.2264 0.0000 13.6679 0.0000
# 6 0.0000 0.0000 0.0000 5.0084 0.0000 24.6041
#
#
#
# Elastic Compliance Matrix: (Units=1/GPa)
#
#
# Indices 1 2 3 4 5 6 
#
# 1 0.021874 -0.007336 0.003081 0.000000 -0.026373 0.000000
# 2 -0.007336 0.011700 -0.003958 0.000000 0.006659 0.000000
# 3 0.003081 -0.003958 0.019473 0.000000 -0.031153 0.000000
# 4 0.000000 0.000000 0.000000 0.112703 0.000000 -0.022942
# 5 -0.026373 0.006659 -0.031153 0.000000 0.149166 0.000000
# 6 0.000000 0.000000 0.000000 -0.022942 0.000000 0.045314
#
#
# Mechanical properties :
#
#
# Convention : Reuss Voigt Hill
#
# Bulk Modulus (GPa) = 27.30709 55.33830 41.32269
# Shear Modulus (GPa) = 12.85799 21.81669 17.33734
#
# Velocity S-wave (km/s) = 2.84792 3.70967 3.30699
# Velocity P-wave (km/s) = 5.29520 7.29764 6.37553
#
# Compressibility (1/GPa) = 0.03662053
#
# Stress axis : x y z
#
# Youngs Moduli (GPa) = 45.71671 85.47120 51.35189
#
# Poissons Ratio (x) = 0.62699 -0.15820
# Poissons Ratio (y) = 0.33536 0.20327
# Poissons Ratio (z) = -0.14084 0.33832
#
# Static dielectric constant tensor:
#      x y z
#    x 2.963290 0.000000 0.139000 
#    y 0.000000 3.198040 0.000000 
#    z 0.139000 0.000000 2.792730 
# 
# 
# High freq. dielectric constant tensor:
#      x y z
#    x 1.582690 0.000000 0.011230 
#    y 0.000000 1.612610 0.000000 
#    z 0.011230 0.000000 1.592860 
# 
# From -- ./inp_files/210358.got.cif
#   From: 2010.06.25/outbox.cif.g09.slc.cpg/sg15_106_cif.got.tgz:210358.got - 2010.06.28 07:06:18.
