data_PCOD8132994
_publ_section_title
;
Structure prediction by ZEFSAII (Michael W. Deem and Ramdas Pophale) SiO2 
 PCOD8132994
Probable space group: C 2/C
;
_chemical_formula_sum "Si O2"
_cell_formula_units_Z 48
_cell_length_a 15.651586
_cell_length_b 21.391336
_cell_length_c 11.397192
_cell_angle_alpha 90.000000
_cell_angle_beta 36.817982
_cell_angle_gamma 90.000000
_cell_volume 2286.757939
_symmetry_space_group_name_H-M "C 2/C"
_symmetry_group_IT_number 15
_symmetry_cell_setting 'monoclinic'
loop_
_space_group_symop_operation_xyz
x,y,z
-x,y,1/2-z
-x,-y,-z
x,-y,1/2+z
1/2+x,1/2+y,z
1/2-x,1/2+y,1/2-z
1/2-x,1/2-y,-z
1/2+x,1/2-y,1/2+z
loop_
_atom_site_type_symbol
_atom_site_label
_atom_site_fract_x
_atom_site_fract_y
_atom_site_fract_z
Si Si1 0.942629 0.278307 0.019710
Si Si2 0.350891 0.672479 0.682814
Si Si3 0.356804 0.070391 0.977495
Si Si4 0.218983 0.561922 0.949847
Si Si5 0.575696 0.899013 0.831491
Si Si6 0.778830 0.684809 0.908686
O O1 0.002341 0.207674 0.944472
O O2 0.057242 0.324399 0.835109
O O3 0.925737 0.304396 0.173208
O O4 0.787023 0.284368 0.128728
O O5 0.343218 0.604853 0.755133
O O6 0.345903 0.664949 0.546423
O O7 0.500000 0.051603 0.750000
O O8 0.288622 0.131724 0.995420
O O9 0.382614 0.081806 0.084819
O O10 0.245655 0.012134 0.090681
O O11 0.199793 0.581587 0.106066
O O12 0.074951 0.568957 0.032428
O O13 0.750000 0.750000 0.000000
#
# Coordination Sequence:
#
# PCOD8132994 Si02
#       6
#     8   8   8   8   8   8
#     4   9  19  35  57  82 119 148 190 239 294 340
#     4   9  20  37  55  86 118 151 194 238 295 342
#     4  12  19  30  56  80 119 147 188 249 301 341
#     4  10  21  32  50  81 118 152 185 237 290 356
#     4  10  19  31  51  81 111 148 188 229 295 342
#     4  10  22  33  56  87 116 144 197 241 301 338
#
# _framework density 20.990416
#
# number of rings (size 3 to 8) (size 9 to 14) (size 15 to 20)
#    1.000    1.000    3.333    1.500    2.333    0.667 
#    0.000    0.000    0.000    1.000    0.000    0.000 
#    0.000    0.000    0.000    0.000    0.000    0.000 
#
# Total GULP energy -297346.618957 kJ/mol
# GULP energy per Si atom -12389.442457 kJ/mol
# Density = 2.094264 g / cm^3
# Si number density = 20.990416 Si / 1000 Ang^3
#
#
#
# Elastic Constant Matrix: (Units=GPa)
#
#
# Indices 1 2 3 4 5 6 
#
# 1 29.5518 26.8873 15.4707 0.0153 7.4151 -0.0046
# 2 26.8873 153.5425 29.6291 0.0053 5.1588 -0.0011
# 3 15.4707 29.6291 27.4158 0.0164 9.0585 -0.0032
# 4 0.0153 0.0053 0.0164 27.3868 -0.0101 -5.1069
# 5 7.4151 5.1588 9.0585 -0.0101 21.0787 0.0070
# 6 -0.0046 -0.0011 -0.0032 -5.1069 0.0070 20.7066
#
#
#
# Elastic Compliance Matrix: (Units=1/GPa)
#
#
# Indices 1 2 3 4 5 6 
#
# 1 0.051107 -0.004569 -0.021365 -0.000016 -0.007679 0.000006
# 2 -0.004569 0.008719 -0.007774 0.000006 0.002814 -0.000001
# 3 -0.021365 -0.007774 0.062728 -0.000030 -0.017539 0.000003
# 4 -0.000016 0.000006 -0.000030 0.038274 0.000032 0.009440
# 5 -0.007679 0.002814 -0.017539 0.000032 0.056991 -0.000015
# 6 0.000006 -0.000001 0.000003 0.009440 -0.000015 0.050622
#
#
# Mechanical properties :
#
#
# Convention : Reuss Voigt Hill
#
# Bulk Modulus (GPa) = 18.13620 39.38714 28.76167
# Shear Modulus (GPa) = 14.11486 23.06930 18.59208
#
# Velocity S-wave (km/s) = 2.59596 3.31877 2.97937
# Velocity P-wave (km/s) = 4.20052 5.78712 5.05644
#
# Compressibility (1/GPa) = 0.05513835
#
# Stress axis : x y z
#
# Youngs Moduli (GPa) = 19.56667 114.69846 15.94172
#
# Poissons Ratio (x) = 0.52402 0.34060
# Poissons Ratio (y) = 0.08939 0.12393
# Poissons Ratio (z) = 0.41804 0.89168
#
# Static dielectric constant tensor:
#      x y z
#    x 3.572780 -0.000010 0.405420 
#    y -0.000010 3.891220 -0.000010 
#    z 0.405420 -0.000010 3.568000 
# 
# 
# High freq. dielectric constant tensor:
#      x y z
#    x 1.796700 0.000000 0.037050 
#    y 0.000000 1.828150 0.000000 
#    z 0.037050 0.000000 1.784640 
# 
# From -- ./inp_files/99973.got.cif
#   From: 2010.06.25/outbox.cif.g09.slc.cpg/sg15_50_cif.got.tgz:99973.got - 2010.06.28 07:06:18.
