data_PCOD8132170
_publ_section_title
;
Structure prediction by ZEFSAII (Michael W. Deem and Ramdas Pophale) SiO2 
 PCOD8132170
Probable space group: C 2/C
;
_chemical_formula_sum "Si O2"
_cell_formula_units_Z 52
_cell_length_a 11.328471
_cell_length_b 14.088639
_cell_length_c 18.677048
_cell_angle_alpha 90.000000
_cell_angle_beta 74.861984
_cell_angle_gamma 90.000000
_cell_volume 2877.469223
_symmetry_space_group_name_H-M "C 2/C"
_symmetry_group_IT_number 15
_symmetry_cell_setting 'monoclinic'
loop_
_space_group_symop_operation_xyz
x,y,z
-x,y,1/2-z
-x,-y,-z
x,-y,1/2+z
1/2+x,1/2+y,z
1/2-x,1/2+y,1/2-z
1/2-x,1/2-y,-z
1/2+x,1/2-y,1/2+z
loop_
_atom_site_type_symbol
_atom_site_label
_atom_site_fract_x
_atom_site_fract_y
_atom_site_fract_z
Si Si1 0.385200 0.566620 0.007357
Si Si2 0.111718 0.705662 0.185994
Si Si3 0.111274 0.806890 0.857591
Si Si4 0.000000 0.928516 0.750000
Si Si5 0.649862 0.584440 0.650544
Si Si6 0.427454 0.099328 0.592849
Si Si7 0.610430 0.061394 0.063009
O O1 0.399989 0.652803 0.060266
O O2 0.249984 0.520862 0.040762
O O3 0.500000 0.500000 0.000000
O O4 0.392937 0.596686 0.924169
O O5 0.249065 0.686952 0.192900
O O6 0.098316 0.818646 0.190555
O O7 0.099376 0.656463 0.111197
O O8 0.000000 0.662702 0.250000
O O9 0.052372 0.702211 0.874309
O O10 0.036607 0.864137 0.810927
O O11 0.895556 0.995182 0.797625
O O12 0.793137 0.567575 0.636109
O O13 0.437484 0.099212 0.505439
O O14 0.527281 0.024555 0.606894
#
# Coordination Sequence:
#
# PCOD8132170 Si02
#       7
#     8   8   8   4   8   8   8
#     4  10  18  36  58  82 107 146 188 230 267 326
#     4  10  20  36  55  84 107 142 188 228 268 329
#     4  10  22  37  56  80 115 147 184 225 286 332
#     4  12  22  36  52  84 116 148 176 224 290 336
#     4  10  20  35  60  78 112 146 185 226 272 327
#     4   9  19  39  58  81 108 146 184 228 278 323
#     4   9  19  35  62  81 107 142 192 230 271 323
#
# _framework density 18.071435000000001
#
# number of rings (size 3 to 8) (size 9 to 14) (size 15 to 20)
#    0.000    2.154    2.308    0.923    2.154    3.692 
#    1.385    3.846    0.000    0.000    0.000    0.000 
#    0.000    0.000    0.000    0.000    0.000    0.000 
#
# Total GULP energy -322098.196301 kJ/mol
# GULP energy per Si atom -12388.392165 kJ/mol
# Density = 1.803030 g / cm^3
# Si number density = 18.071435 Si / 1000 Ang^3
#
#
#
# Elastic Constant Matrix: (Units=GPa)
#
#
# Indices 1 2 3 4 5 6 
#
# 1 58.6430 27.0810 3.1562 0.0000 -9.7950 0.0000
# 2 27.0810 89.0368 12.3901 0.0000 -5.0778 0.0000
# 3 3.1562 12.3901 51.8943 0.0000 -10.2649 0.0000
# 4 0.0000 0.0000 0.0000 14.9686 0.0000 -11.2157
# 5 -9.7950 -5.0778 -10.2649 0.0000 29.0681 0.0000
# 6 0.0000 0.0000 0.0000 -11.2157 0.0000 20.2377
#
#
#
# Elastic Compliance Matrix: (Units=1/GPa)
#
#
# Indices 1 2 3 4 5 6 
#
# 1 0.020920 -0.006200 0.001492 0.000000 0.006493 0.000000
# 2 -0.006200 0.013489 -0.003000 0.000000 -0.000792 0.000000
# 3 0.001492 -0.003000 0.021385 0.000000 0.007531 0.000000
# 4 0.000000 0.000000 0.000000 0.114249 0.000000 0.063317
# 5 0.006493 -0.000792 0.007531 0.000000 0.039111 0.000000
# 6 0.000000 0.000000 0.000000 0.063317 0.000000 0.084503
#
#
# Mechanical properties :
#
#
# Convention : Reuss Voigt Hill
#
# Bulk Modulus (GPa) = 24.76597 31.64764 28.20681
# Shear Modulus (GPa) = 15.50232 23.31799 19.41015
#
# Velocity S-wave (km/s) = 2.93206 3.59600 3.28087
# Velocity P-wave (km/s) = 5.01965 5.89849 5.47673
#
# Compressibility (1/GPa) = 0.04037798
#
# Stress axis : x y z
#
# Youngs Moduli (GPa) = 47.80166 74.13189 46.76158
#
# Poissons Ratio (x) = 0.45963 -0.06979
# Poissons Ratio (y) = 0.29638 0.14030
# Poissons Ratio (z) = -0.07134 0.22242
#
# Static dielectric constant tensor:
#      x y z
#    x 3.426470 0.000000 -0.173160 
#    y 0.000000 2.996570 0.000000 
#    z -0.173160 0.000000 3.299200 
# 
# 
# High freq. dielectric constant tensor:
#      x y z
#    x 1.699590 0.000000 -0.011200 
#    y 0.000000 1.695520 0.000000 
#    z -0.011200 0.000000 1.701890 
# 
# From -- ./inp_files/197262.got.cif
#   From: 2010.06.25/outbox.cif.g09.slc.cpg/sg15_99_cif.got.tgz:197262.got - 2010.06.28 07:06:18.
