data_PCOD8132168
_publ_section_title
;
Structure prediction by ZEFSAII (Michael W. Deem and Ramdas Pophale) SiO2 
 PCOD8132168
Probable space group: C 2/C
;
_chemical_formula_sum "Si O2"
_cell_formula_units_Z 56
_cell_length_a 20.584009
_cell_length_b 8.541265
_cell_length_c 16.346784
_cell_angle_alpha 90.000000
_cell_angle_beta 91.895706
_cell_angle_gamma 90.000000
_cell_volume 2872.411973
_symmetry_space_group_name_H-M "C 2/C"
_symmetry_group_IT_number 15
_symmetry_cell_setting 'monoclinic'
loop_
_space_group_symop_operation_xyz
x,y,z
-x,y,1/2-z
-x,-y,-z
x,-y,1/2+z
1/2+x,1/2+y,z
1/2-x,1/2+y,1/2-z
1/2-x,1/2-y,-z
1/2+x,1/2-y,1/2+z
loop_
_atom_site_type_symbol
_atom_site_label
_atom_site_fract_x
_atom_site_fract_y
_atom_site_fract_z
Si Si1 0.535499 0.524805 0.585695
Si Si2 0.148849 0.150827 0.501202
Si Si3 0.307964 0.898333 0.258888
Si Si4 0.068050 0.786536 0.714584
Si Si5 0.287032 0.080326 0.579051
Si Si6 0.405385 0.460315 0.154349
Si Si7 0.303459 0.793046 0.677317
O O1 0.500000 0.500000 0.500000
O O2 0.596379 0.641958 0.573230
O O3 0.559167 0.357661 0.623251
O O4 0.480902 0.591587 0.645428
O O5 0.217275 0.086847 0.534658
O O6 0.158258 0.331679 0.473614
O O7 0.125110 0.038466 0.427488
O O8 0.381672 0.856659 0.287200
O O9 0.288350 0.833258 0.167743
O O10 0.258362 0.823242 0.322083
O O11 0.302657 0.088253 0.255593
O O12 0.000000 0.726343 0.750000
O O13 0.100382 0.920546 0.771169
O O14 0.302911 0.896165 0.593385
O O15 0.369064 0.304503 0.179872
#
# Coordination Sequence:
#
# PCOD8132168 Si02
#       7
#     8   8   8   8   8   8   8
#     4   9  20  34  59  83 108 146 191 232 280 343
#     4  10  18  36  58  81 115 152 190 230 292 337
#     4  10  20  36  56  83 114 146 189 240 280 339
#     4  10  19  36  61  82 108 149 191 235 287 340
#     4   9  21  33  56  84 115 152 186 238 285 341
#     4  10  19  35  57  84 114 147 193 239 273 339
#     4  10  21  34  58  83 117 145 194 235 285 328
#
# _framework density 19.495809000000001
#
# number of rings (size 3 to 8) (size 9 to 14) (size 15 to 20)
#    0.857    1.429    1.429    1.714    2.000    0.571 
#    0.000    2.857    0.000    0.000    0.000    0.000 
#    0.000    0.000    0.000    0.000    0.000    0.000 
#
# Total GULP energy -346925.579943 kJ/mol
# GULP energy per Si atom -12390.199284 kJ/mol
# Density = 1.945144 g / cm^3
# Si number density = 19.495809 Si / 1000 Ang^3
#
#
#
# Elastic Constant Matrix: (Units=GPa)
#
#
# Indices 1 2 3 4 5 6 
#
# 1 112.3052 52.3512 9.2091 0.0000 -11.2958 0.0000
# 2 52.3512 86.2086 1.1769 0.0000 -9.4407 0.0000
# 3 9.2091 1.1769 44.0668 0.0000 9.8186 0.0000
# 4 0.0000 0.0000 0.0000 14.8123 0.0000 -1.2518
# 5 -11.2958 -9.4407 9.8186 0.0000 33.5118 0.0000
# 6 0.0000 0.0000 0.0000 -1.2518 0.0000 36.0151
#
#
#
# Elastic Compliance Matrix: (Units=1/GPa)
#
#
# Indices 1 2 3 4 5 6 
#
# 1 0.012983 -0.007488 -0.003229 0.000000 0.003213 0.000000
# 2 -0.007488 0.016342 0.000711 0.000000 0.001871 0.000000
# 3 -0.003229 0.000711 0.025191 0.000000 -0.008269 0.000000
# 4 0.000000 0.000000 0.000000 0.067710 0.000000 0.002353
# 5 0.003213 0.001871 -0.008269 0.000000 0.033873 0.000000
# 6 0.000000 0.000000 0.000000 0.002353 0.000000 0.027848
#
#
# Mechanical properties :
#
#
# Convention : Reuss Voigt Hill
#
# Bulk Modulus (GPa) = 28.98151 40.89501 34.93826
# Shear Modulus (GPa) = 23.20619 28.85742 26.03181
#
# Velocity S-wave (km/s) = 3.45384 3.85149 3.65807
# Velocity P-wave (km/s) = 5.55006 6.38753 5.98346
#
# Compressibility (1/GPa) = 0.03450476
#
# Stress axis : x y z
#
# Youngs Moduli (GPa) = 77.02506 61.19130 39.69676
#
# Poissons Ratio (x) = 0.45820 0.12818
# Poissons Ratio (y) = 0.57677 -0.02824
# Poissons Ratio (z) = 0.24871 -0.04354
#
# Static dielectric constant tensor:
#      x y z
#    x 3.862520 0.000000 -0.139670 
#    y 0.000000 3.125140 0.000000 
#    z -0.139670 0.000000 3.611370 
# 
# 
# High freq. dielectric constant tensor:
#      x y z
#    x 1.771040 0.000000 0.004350 
#    y 0.000000 1.727780 0.000000 
#    z 0.004350 0.000000 1.750200 
# 
# From -- ./inp_files/213431.got.cif
#   From: 2010.06.25/outbox.cif.g09.slc.cpg/sg15_107_cif.got.tgz:213431.got - 2010.06.28 07:06:18.
