data_PCOD8132547
_publ_section_title
;
Structure prediction by ZEFSAII (Michael W. Deem and Ramdas Pophale) SiO2 
 PCOD8132547
Probable space group: C 2/C
;
_chemical_formula_sum "Si O2"
_cell_formula_units_Z 60
_cell_length_a 21.653504
_cell_length_b 9.086997
_cell_length_c 18.344671
_cell_angle_alpha 90.000000
_cell_angle_beta 61.105731
_cell_angle_gamma 90.000000
_cell_volume 3160.246999
_symmetry_space_group_name_H-M "C 2/C"
_symmetry_group_IT_number 15
_symmetry_cell_setting 'monoclinic'
loop_
_space_group_symop_operation_xyz
x,y,z
-x,y,1/2-z
-x,-y,-z
x,-y,1/2+z
1/2+x,1/2+y,z
1/2-x,1/2+y,1/2-z
1/2-x,1/2-y,-z
1/2+x,1/2-y,1/2+z
loop_
_atom_site_type_symbol
_atom_site_label
_atom_site_fract_x
_atom_site_fract_y
_atom_site_fract_z
Si Si1 0.487796 0.473929 0.591384
Si Si2 0.131009 0.031558 0.572191
Si Si3 0.168256 0.940321 0.275869
Si Si4 0.828331 0.190650 0.333342
Si Si5 0.500000 0.068246 0.250000
Si Si6 0.031550 0.288859 0.303849
Si Si7 0.349920 0.211751 0.331659
Si Si8 0.261250 0.458094 0.110665
O O1 0.500000 0.500000 0.500000
O O2 0.549057 0.559145 0.600120
O O3 0.413579 0.536096 0.659375
O O4 0.490372 0.298763 0.610272
O O5 0.162986 0.171246 0.596179
O O6 0.137365 0.882899 0.615256
O O7 0.171444 0.007398 0.473456
O O8 0.171181 0.782829 0.233996
O O9 0.217811 0.947054 0.317155
O O10 0.199595 0.063507 0.204164
O O11 0.883922 0.289523 0.255905
O O12 0.765100 0.295393 0.396358
O O13 0.431811 0.169599 0.289466
O O14 0.503235 0.958452 0.319653
O O15 0.000000 0.205367 0.250000
O O16 0.301405 0.071004 0.370526
#
# Coordination Sequence:
#
# PCOD8132547 Si02
#       8
#     8   8   8   8   4   8   8   8
#     4  11  20  37  60  87 116 147 192 247 293 334
#     4  11  22  37  58  87 116 149 195 238 291 343
#     4  10  23  37  60  85 114 153 193 238 286 344
#     4  10  20  37  59  82 109 154 198 232 279 351
#     4  10  18  38  62  86 110 148 202 246 276 336
#     4   9  17  33  61  86 106 146 198 236 275 337
#     4  11  23  37  60  88 115 150 196 239 287 341
#     4  12  21  39  57  84 121 152 184 237 295 345
#
# _framework density 18.985859000000001
#
# number of rings (size 3 to 8) (size 9 to 14) (size 15 to 20)
#    0.400    1.067    4.000    2.400    0.000    0.000 
#    0.000    0.000    0.000    6.400    0.000    0.000 
#    0.000    0.000    0.000    0.000    0.000    0.000 
#
# Total GULP energy -371841.529603 kJ/mol
# GULP energy per Si atom -12394.717653 kJ/mol
# Density = 1.894265 g / cm^3
# Si number density = 18.985859 Si / 1000 Ang^3
#
#
#
# Elastic Constant Matrix: (Units=GPa)
#
#
# Indices 1 2 3 4 5 6 
#
# 1 82.8634 24.4666 7.7871 0.0000 4.4720 -0.0001
# 2 24.4666 87.2447 28.6351 0.0000 2.8858 -0.0005
# 3 7.7871 28.6351 68.6699 0.0000 9.3505 0.0000
# 4 0.0000 0.0000 0.0000 22.6974 0.0000 -0.7860
# 5 4.4720 2.8858 9.3505 0.0000 32.2605 0.0000
# 6 -0.0001 -0.0005 0.0000 -0.7860 0.0000 26.5688
#
#
#
# Elastic Compliance Matrix: (Units=1/GPa)
#
#
# Indices 1 2 3 4 5 6 
#
# 1 0.013235 -0.003751 0.000278 0.000000 -0.001580 0.000000
# 2 -0.003751 0.014348 -0.005678 0.000000 0.000882 0.000000
# 3 0.000278 -0.005678 0.017526 0.000000 -0.004611 0.000000
# 4 0.000000 0.000000 0.000000 0.044103 0.000000 0.001305
# 5 -0.001580 0.000882 -0.004611 0.000000 0.032474 0.000000
# 6 0.000000 0.000000 0.000000 0.001305 0.000000 0.037677
#
#
# Mechanical properties :
#
#
# Convention : Reuss Voigt Hill
#
# Bulk Modulus (GPa) = 37.30135 40.06176 38.68155
# Shear Modulus (GPa) = 26.79533 28.16462 27.47997
#
# Velocity S-wave (km/s) = 3.76084 3.85574 3.80859
# Velocity P-wave (km/s) = 6.20872 6.40070 6.30544
#
# Compressibility (1/GPa) = 0.02680868
#
# Stress axis : x y z
#
# Youngs Moduli (GPa) = 75.55976 69.69502 57.05693
#
# Poissons Ratio (x) = 0.26139 -0.01588
# Poissons Ratio (y) = 0.28339 0.32397
# Poissons Ratio (z) = -0.02103 0.39573
#
# Static dielectric constant tensor:
#      x y z
#    x 3.474250 0.000000 0.048420 
#    y 0.000000 3.431570 0.000000 
#    z 0.048420 0.000000 3.419200 
# 
# 
# High freq. dielectric constant tensor:
#      x y z
#    x 1.746620 0.000000 -0.000580 
#    y 0.000000 1.733930 0.000000 
#    z -0.000580 0.000000 1.719590 
# 
# From -- ./inp_files/213844.got.cif
#   From: 2010.06.25/outbox.cif.g09.slc.cpg/sg15_107_cif.got.tgz:213844.got - 2010.06.28 07:06:18.
