data_PCOD8132933
_publ_section_title
;
Structure prediction by ZEFSAII (Michael W. Deem and Ramdas Pophale) SiO2 
 PCOD8132933
Probable space group: C 2/C
;
_chemical_formula_sum "Si O2"
_cell_formula_units_Z 64
_cell_length_a 21.907787
_cell_length_b 24.183987
_cell_length_c 9.405474
_cell_angle_alpha 90.000000
_cell_angle_beta 133.356344
_cell_angle_gamma 90.000000
_cell_volume 3623.264475
_symmetry_space_group_name_H-M "C 2/C"
_symmetry_group_IT_number 15
_symmetry_cell_setting 'monoclinic'
loop_
_space_group_symop_operation_xyz
x,y,z
-x,y,1/2-z
-x,-y,-z
x,-y,1/2+z
1/2+x,1/2+y,z
1/2-x,1/2+y,1/2-z
1/2-x,1/2-y,-z
1/2+x,1/2-y,1/2+z
loop_
_atom_site_type_symbol
_atom_site_label
_atom_site_fract_x
_atom_site_fract_y
_atom_site_fract_z
Si Si1 0.071284 0.559648 0.074218
Si Si2 0.974748 0.759775 0.059152
Si Si3 0.386605 0.041860 0.685687
Si Si4 0.419634 0.675489 0.215289
Si Si5 0.683877 0.800898 0.101948
Si Si6 0.745767 0.131533 0.932438
Si Si7 0.688678 0.777111 0.555401
Si Si8 0.383592 0.179114 0.297705
O O1 0.120580 0.520548 0.266502
O O2 0.082566 0.618109 0.166920
O O3 0.106521 0.546140 0.973429
O O4 0.970368 0.559531 0.903801
O O5 0.000000 0.786857 0.250000
O O6 0.049128 0.728170 0.098762
O O7 0.946628 0.811952 0.919876
O O8 0.908103 0.711475 0.984074
O O9 0.303725 0.078179 0.590781
O O10 0.500000 0.656413 0.250000
O O11 0.347909 0.626888 0.102998
O O12 0.382028 0.732720 0.096445
O O13 0.718386 0.857801 0.226298
O O14 0.739996 0.748856 0.232460
O O15 0.685099 0.809216 0.934347
O O16 0.723967 0.190715 0.974613
O O17 0.650754 0.823509 0.597048
#
# Coordination Sequence:
#
# PCOD8132933 Si02
#       8
#     8   8   8   8   8   8   8   8
#     4  10  22  37  55  79 107 142 180 223 270 322
#     4  10  19  31  46  72 107 148 176 213 258 312
#     4  10  22  38  55  78 108 139 182 228 269 319
#     4  11  20  33  52  77 107 144 189 222 259 328
#     4  10  20  32  45  76 109 141 181 213 260 314
#     4  11  20  35  55  73 107 152 185 223 274 319
#     4  11  19  32  52  73 109 147 180 215 258 328
#     4  11  21  31  51  76 106 147 177 213 266 323
#
# _framework density 17.663630000000001
#
# number of rings (size 3 to 8) (size 9 to 14) (size 15 to 20)
#    0.000    1.500    5.000    1.875    1.750    0.000 
#    4.500    0.000    0.000    0.000    0.000    0.875 
#    0.000    0.000    0.000    0.000    0.000    0.000 
#
# Total GULP energy -396461.440393 kJ/mol
# GULP energy per Si atom -12389.420012 kJ/mol
# Density = 1.762343 g / cm^3
# Si number density = 17.663630 Si / 1000 Ang^3
#
#
#
# Elastic Constant Matrix: (Units=GPa)
#
#
# Indices 1 2 3 4 5 6 
#
# 1 83.4887 15.3301 31.3567 0.0000 9.6240 0.0000
# 2 15.3301 34.1800 18.6632 0.0000 1.7670 0.0000
# 3 31.3567 18.6632 96.1018 0.0000 0.3868 0.0000
# 4 0.0000 0.0000 0.0000 21.8546 0.0000 0.1745
# 5 9.6240 1.7670 0.3868 0.0000 21.5845 0.0000
# 6 0.0000 0.0000 0.0000 0.1745 0.0000 23.2863
#
#
#
# Elastic Compliance Matrix: (Units=1/GPa)
#
#
# Indices 1 2 3 4 5 6 
#
# 1 0.014991 -0.004187 -0.004053 0.000000 -0.006269 0.000000
# 2 -0.004187 0.034039 -0.005241 0.000000 -0.000826 0.000000
# 3 -0.004053 -0.005241 0.012738 0.000000 0.002008 0.000000
# 4 0.000000 0.000000 0.000000 0.045760 0.000000 -0.000343
# 5 -0.006269 -0.000826 0.002008 0.000000 0.049156 0.000000
# 6 0.000000 0.000000 0.000000 -0.000343 0.000000 0.042946
#
#
# Mechanical properties :
#
#
# Convention : Reuss Voigt Hill
#
# Bulk Modulus (GPa) = 28.73020 38.27449 33.50234
# Shear Modulus (GPa) = 20.99124 23.23978 22.11551
#
# Velocity S-wave (km/s) = 3.45104 3.63117 3.54225
# Velocity P-wave (km/s) = 5.67275 6.26866 5.97813
#
# Compressibility (1/GPa) = 0.03480658
#
# Stress axis : x y z
#
# Youngs Moduli (GPa) = 66.70515 29.37802 78.50592
#
# Poissons Ratio (x) = 0.12299 0.31820
# Poissons Ratio (y) = 0.27926 0.41146
# Poissons Ratio (z) = 0.27037 0.15397
#
# Static dielectric constant tensor:
#      x y z
#    x 3.360930 0.000000 0.009710 
#    y 0.000000 2.928360 0.000000 
#    z 0.009710 0.000000 3.528480 
# 
# 
# High freq. dielectric constant tensor:
#      x y z
#    x 1.683850 0.000000 -0.012090 
#    y 0.000000 1.637500 0.000000 
#    z -0.012090 0.000000 1.694820 
# 
# From -- ./inp_files/59047.got.cif
#   From: 2010.06.25/outbox.cif.g09.slc.cpg/sg15_30_cif.got.tgz:59047.got - 2010.06.28 07:06:18.
