data_PCOD8132670
_publ_section_title
;
Structure prediction by ZEFSAII (Michael W. Deem and Ramdas Pophale) SiO2 
 PCOD8132670
Probable space group: C 2/C
;
_chemical_formula_sum "Si O2"
_cell_formula_units_Z 56
_cell_length_a 26.103154
_cell_length_b 10.393841
_cell_length_c 14.078357
_cell_angle_alpha 90.000000
_cell_angle_beta 140.732105
_cell_angle_gamma 90.000000
_cell_volume 2417.622477
_symmetry_space_group_name_H-M "C 2/C"
_symmetry_group_IT_number 15
_symmetry_cell_setting 'monoclinic'
loop_
_space_group_symop_operation_xyz
x,y,z
-x,y,1/2-z
-x,-y,-z
x,-y,1/2+z
1/2+x,1/2+y,z
1/2-x,1/2+y,1/2-z
1/2-x,1/2-y,-z
1/2+x,1/2-y,1/2+z
loop_
_atom_site_type_symbol
_atom_site_label
_atom_site_fract_x
_atom_site_fract_y
_atom_site_fract_z
Si Si1 0.700476 0.581335 0.463852
Si Si2 0.637455 0.896564 0.583583
Si Si3 0.955935 0.050882 0.782110
Si Si4 0.566379 0.373024 0.047113
Si Si5 0.310980 0.609106 0.268370
Si Si6 0.133447 0.623706 0.702567
Si Si7 0.918290 0.697647 0.675470
O O1 0.638855 0.460575 0.382168
O O2 0.722842 0.607307 0.387099
O O3 0.782843 0.563296 0.638192
O O4 0.654185 0.702073 0.441873
O O5 0.608055 0.758065 0.577980
O O6 0.735176 0.903316 0.730495
O O7 0.606174 0.918900 0.430923
O O8 0.596834 0.011182 0.585407
O O9 0.963627 0.142893 0.885940
O O10 0.000000 0.102701 0.750000
O O11 0.989605 0.910098 0.868202
O O12 0.627885 0.492748 0.122599
O O13 0.354886 0.747629 0.343829
O O14 0.071706 0.650872 0.701214
O O15 0.000000 0.758760 0.750000
#
# Coordination Sequence:
#
# PCOD8132670 Si02
#       7
#     8   8   8   8   8   8   8
#     4  10  18  39  65  93 117 162 217 254 294 375
#     4  12  22  38  65  93 124 164 202 259 314 364
#     4  10  21  38  65  90 128 165 208 261 306 356
#     4  10  23  40  61 100 122 158 218 256 305 373
#     4  10  20  38  64  89 130 157 203 260 310 361
#     4  11  23  40  64  96 126 160 209 255 310 380
#     4  11  22  40  64  89 122 168 215 253 302 369
#
# _framework density 23.163253000000001
#
# number of rings (size 3 to 8) (size 9 to 14) (size 15 to 20)
#    0.000    1.429    2.857    3.857    2.000    1.714 
#    0.000    5.000    0.000    0.000    0.000    0.000 
#    0.000    0.000    0.000    0.000    0.000    0.000 
#
# Total GULP energy -347038.556362 kJ/mol
# GULP energy per Si atom -12394.234156 kJ/mol
# Density = 2.311053 g / cm^3
# Si number density = 23.163253 Si / 1000 Ang^3
#
#
#
# Elastic Constant Matrix: (Units=GPa)
#
#
# Indices 1 2 3 4 5 6 
#
# 1 138.7777 24.1391 -7.0022 0.0000 -7.8999 0.0000
# 2 24.1391 96.9300 -8.2751 0.0000 -12.8503 0.0000
# 3 -7.0022 -8.2751 15.9278 0.0000 -3.9699 0.0000
# 4 0.0000 0.0000 0.0000 46.9078 0.0000 28.7992
# 5 -7.8999 -12.8503 -3.9699 0.0000 31.3316 0.0000
# 6 0.0000 0.0000 0.0000 28.7992 0.0000 79.2107
#
#
#
# Elastic Compliance Matrix: (Units=1/GPa)
#
#
# Indices 1 2 3 4 5 6 
#
# 1 0.007709 -0.001424 0.003085 0.000000 0.001750 0.000000
# 2 -0.001424 0.011986 0.006957 0.000000 0.005438 0.000000
# 3 0.003085 0.006957 0.070898 0.000000 0.012614 0.000000
# 4 0.000000 0.000000 0.000000 0.027445 0.000000 -0.009978
# 5 0.001750 0.005438 0.012614 0.000000 0.036187 0.000000
# 6 0.000000 0.000000 0.000000 -0.009978 0.000000 0.016252
#
#
# Mechanical properties :
#
#
# Convention : Reuss Voigt Hill
#
# Bulk Modulus (GPa) = 9.27403 29.92882 19.60142
# Shear Modulus (GPa) = 26.42926 47.67494 37.05210
#
# Velocity S-wave (km/s) = 3.38153 4.54168 4.00385
# Velocity P-wave (km/s) = 4.38849 6.36013 5.46398
#
# Compressibility (1/GPa) = 0.10782801
#
# Stress axis : x y z
#
# Youngs Moduli (GPa) = 129.72141 83.42849 14.10482
#
# Poissons Ratio (x) = 0.11883 -0.04352
# Poissons Ratio (y) = 0.18477 -0.09812
# Poissons Ratio (z) = -0.40022 -0.58038
#
# Static dielectric constant tensor:
#      x y z
#    x 4.589660 0.000000 -0.005830 
#    y 0.000000 3.772140 0.000000 
#    z -0.005830 0.000000 4.248700 
# 
# 
# High freq. dielectric constant tensor:
#      x y z
#    x 1.940760 0.000000 0.004660 
#    y 0.000000 1.870110 0.000000 
#    z 0.004660 0.000000 1.911880 
# 
# From -- ./inp_files/177641.got.cif
#   From: 2010.06.25/outbox.cif.g09.slc.cpg/sg15_89_cif.got.tgz:177641.got - 2010.06.28 07:06:18.
