data_PCOD8132810
_publ_section_title
;
Structure prediction by ZEFSAII (Michael W. Deem and Ramdas Pophale) SiO2 
 PCOD8132810
Probable space group: C 2/C
;
_chemical_formula_sum "Si O2"
_cell_formula_units_Z 48
_cell_length_a 16.550103
_cell_length_b 24.124278
_cell_length_c 11.279325
_cell_angle_alpha 90.000000
_cell_angle_beta 31.600664
_cell_angle_gamma 90.000000
_cell_volume 2359.749608
_symmetry_space_group_name_H-M "C 2/C"
_symmetry_group_IT_number 15
_symmetry_cell_setting 'monoclinic'
loop_
_space_group_symop_operation_xyz
x,y,z
-x,y,1/2-z
-x,-y,-z
x,-y,1/2+z
1/2+x,1/2+y,z
1/2-x,1/2+y,1/2-z
1/2-x,1/2-y,-z
1/2+x,1/2-y,1/2+z
loop_
_atom_site_type_symbol
_atom_site_label
_atom_site_fract_x
_atom_site_fract_y
_atom_site_fract_z
Si Si1 0.000000 0.095613 0.750000
Si Si2 0.500000 0.058573 0.250000
Si Si3 0.973335 0.190714 0.147321
Si Si4 0.125316 0.302358 0.993516
Si Si5 0.974855 0.924233 0.020678
Si Si6 0.825625 0.391678 0.763508
Si Si7 0.756969 0.509926 0.193494
O O1 0.956477 0.061496 0.685477
O O2 0.154570 0.129314 0.517979
O O3 0.562004 0.103377 0.266231
O O4 0.374947 0.015899 0.454579
O O5 0.793969 0.202363 0.342316
O O6 0.000000 0.173294 0.250000
O O7 0.077421 0.244595 0.990783
O O8 0.038697 0.141023 0.985284
O O9 0.000000 0.317074 0.250000
O O10 0.112305 0.349066 0.910400
O O11 0.839168 0.958847 0.127377
O O12 0.141121 0.947141 0.770115
O O13 0.833033 0.454585 0.703194
#
# Coordination Sequence:
#
# PCOD8132810 Si02
#       7
#     4   4   8   8   8   8   8
#     4  10  18  44  65  84 134 169 208 260 302 394
#     4  12  24  38  63 104 130 163 210 272 322 370
#     4  11  23  42  68  95 125 163 220 268 314 375
#     4  11  24  45  66  95 127 168 210 271 321 373
#     4  10  21  41  66  93 123 177 215 253 316 385
#     4  11  24  43  66  91 136 168 211 265 319 380
#     4  10  22  38  62  93 131 169 206 256 312 383
#
# _framework density 20.341142000000001
#
# number of rings (size 3 to 8) (size 9 to 14) (size 15 to 20)
#    0.000    1.333    5.000    2.500    1.167    4.000 
#    3.000    1.667    0.000    0.000    0.000    0.000 
#    0.000    0.000    0.000    0.000    0.000    0.000 
#
# Total GULP energy -297338.836868 kJ/mol
# GULP energy per Si atom -12389.118203 kJ/mol
# Density = 2.029484 g / cm^3
# Si number density = 20.341142 Si / 1000 Ang^3
#
#
#
# Elastic Constant Matrix: (Units=GPa)
#
#
# Indices 1 2 3 4 5 6 
#
# 1 130.0502 71.3121 42.3247 -0.0010 -4.9922 0.0033
# 2 71.3121 142.2075 69.5345 -0.0014 0.6020 0.0011
# 3 42.3247 69.5345 104.0159 -0.0078 -2.6311 0.0097
# 4 -0.0010 -0.0014 -0.0078 24.0165 0.0041 -0.9977
# 5 -4.9922 0.6020 -2.6311 0.0041 23.7988 -0.0051
# 6 0.0033 0.0011 0.0097 -0.9977 -0.0051 29.8785
#
#
#
# Elastic Compliance Matrix: (Units=1/GPa)
#
#
# Indices 1 2 3 4 5 6 
#
# 1 0.010817 -0.004917 -0.001057 -0.000001 0.002277 0.000000
# 2 -0.004917 0.012708 -0.006547 -0.000001 -0.002077 0.000002
# 3 -0.001057 -0.006547 0.014459 0.000004 0.001543 -0.000004
# 4 -0.000001 -0.000001 0.000004 0.041696 -0.000006 0.001392
# 5 0.002277 -0.002077 0.001543 -0.000006 0.042719 0.000006
# 6 0.000000 0.000002 -0.000004 0.001392 0.000006 0.033515
#
#
# Mechanical properties :
#
#
# Convention : Reuss Voigt Hill
#
# Bulk Modulus (GPa) = 77.26405 82.51290 79.88848
# Shear Modulus (GPa) = 26.98752 28.41224 27.69988
#
# Velocity S-wave (km/s) = 3.64640 3.74142 3.69422
# Velocity P-wave (km/s) = 7.46960 7.70174 7.58656
#
# Compressibility (1/GPa) = 0.01294263
#
# Stress axis : x y z
#
# Youngs Moduli (GPa) = 92.44711 78.69206 69.15896
#
# Poissons Ratio (x) = 0.38695 0.07308
# Poissons Ratio (y) = 0.45459 0.45277
# Poissons Ratio (z) = 0.09769 0.51518
#
# Static dielectric constant tensor:
#      x y z
#    x 3.842260 -0.000010 -0.188950 
#    y -0.000010 3.589120 0.000010 
#    z -0.188950 0.000010 3.766700 
# 
# 
# High freq. dielectric constant tensor:
#      x y z
#    x 1.799460 0.000000 -0.014330 
#    y 0.000000 1.781190 0.000000 
#    z -0.014330 0.000000 1.796230 
# 
# From -- ./inp_files/108071.got.cif
#   From: 2010.06.25/outbox.cif.g09.slc.cpg/sg15_55_cif.got.tgz:108071.got - 2010.06.28 07:06:18.
