data_PCOD8132915
_publ_section_title
;
Structure prediction by ZEFSAII (Michael W. Deem and Ramdas Pophale) SiO2 
 PCOD8132915
Probable space group: C 2/C
;
_chemical_formula_sum "Si O2"
_cell_formula_units_Z 60
_cell_length_a 13.554279
_cell_length_b 17.395431
_cell_length_c 24.093048
_cell_angle_alpha 90.000000
_cell_angle_beta 148.765539
_cell_angle_gamma 90.000000
_cell_volume 2945.688237
_symmetry_space_group_name_H-M "C 2/C"
_symmetry_group_IT_number 15
_symmetry_cell_setting 'monoclinic'
loop_
_space_group_symop_operation_xyz
x,y,z
-x,y,1/2-z
-x,-y,-z
x,-y,1/2+z
1/2+x,1/2+y,z
1/2-x,1/2+y,1/2-z
1/2-x,1/2-y,-z
1/2+x,1/2-y,1/2+z
loop_
_atom_site_type_symbol
_atom_site_label
_atom_site_fract_x
_atom_site_fract_y
_atom_site_fract_z
Si Si1 0.255254 0.165121 0.681733
Si Si2 0.558992 0.389506 0.187172
Si Si3 0.213400 0.410339 0.614116
Si Si4 0.917400 0.930921 0.496420
Si Si5 0.281225 0.912211 0.403942
Si Si6 0.484450 0.979193 0.180624
Si Si7 0.500000 0.294078 0.750000
Si Si8 0.810863 0.052799 0.280679
O O1 0.109917 0.173550 0.664205
O O2 0.141565 0.140653 0.571247
O O3 0.409320 0.101704 0.771466
O O4 0.374132 0.243167 0.731440
O O5 0.706409 0.383551 0.308853
O O6 0.344928 0.376553 0.107061
O O7 0.575725 0.472625 0.167124
O O8 0.232233 0.495129 0.597873
O O9 0.344207 0.349362 0.643265
O O10 0.307039 0.404431 0.720497
O O11 0.996000 0.382841 0.512072
O O12 0.733737 0.964431 0.441145
O O13 0.074587 0.900665 0.616345
O O14 0.000000 0.000000 0.500000
O O15 0.500000 0.013606 0.250000
O O16 0.588195 0.038737 0.189329
#
# Coordination Sequence:
#
# PCOD8132915 Si02
#       8
#     8   8   8   8   8   8   4   8
#     4  10  20  36  56  83 121 162 190 232 301 370
#     4   9  17  34  60  86 107 148 195 256 297 344
#     4  10  22  37  57  83 120 163 189 257 292 350
#     4  11  17  30  53  85 120 147 193 248 293 340
#     4   9  19  39  61  88 113 141 217 259 295 330
#     4   9  16  30  49  83 114 142 182 244 287 335
#     4  12  22  44  56  82 138 158 198 228 302 386
#     4  10  19  30  52  86 115 146 195 238 303 338
#
# _framework density 20.368755
#
# number of rings (size 3 to 8) (size 9 to 14) (size 15 to 20)
#    0.000    2.133    6.000    1.600    1.867    0.000 
#    4.800    3.333    0.000    0.000    3.467    0.000 
#    0.000    0.000    0.000    0.000    0.000    0.000 
#
# Total GULP energy -371779.506575 kJ/mol
# GULP energy per Si atom -12392.650219 kJ/mol
# Density = 2.032239 g / cm^3
# Si number density = 20.368755 Si / 1000 Ang^3
#
#
#
# Elastic Constant Matrix: (Units=GPa)
#
#
# Indices 1 2 3 4 5 6 
#
# 1 116.3804 28.5546 51.9293 0.0002 20.8183 0.0001
# 2 28.5546 56.2873 28.6633 0.0000 10.9871 0.0000
# 3 51.9293 28.6633 124.7749 0.0018 25.5357 0.0008
# 4 0.0002 0.0000 0.0018 22.3475 0.0001 14.0064
# 5 20.8183 10.9871 25.5357 0.0001 32.8162 0.0002
# 6 0.0001 0.0000 0.0008 14.0064 0.0002 22.8137
#
#
#
# Elastic Compliance Matrix: (Units=1/GPa)
#
#
# Indices 1 2 3 4 5 6 
#
# 1 0.011554 -0.003492 -0.003266 0.000000 -0.003619 0.000000
# 2 -0.003492 0.021567 -0.002946 0.000000 -0.002713 0.000000
# 3 -0.003266 -0.002946 0.011210 -0.000001 -0.005665 0.000000
# 4 0.000000 0.000000 -0.000001 0.072736 0.000001 -0.044656
# 5 -0.003619 -0.002713 -0.005665 0.000001 0.038085 -0.000001
# 6 0.000000 0.000000 0.000000 -0.044656 -0.000001 0.071250
#
#
# Mechanical properties :
#
#
# Convention : Reuss Voigt Hill
#
# Bulk Modulus (GPa) = 40.12213 57.30410 48.71312
# Shear Modulus (GPa) = 19.67601 28.14850 23.91225
#
# Velocity S-wave (km/s) = 3.11141 3.72149 3.43004
# Velocity P-wave (km/s) = 5.71388 6.83084 6.29717
#
# Compressibility (1/GPa) = 0.02492390
#
# Stress axis : x y z
#
# Youngs Moduli (GPa) = 86.55139 46.36677 89.20951
#
# Poissons Ratio (x) = 0.16190 0.29133
# Poissons Ratio (y) = 0.30222 0.26280
# Poissons Ratio (z) = 0.28265 0.13659
#
# Static dielectric constant tensor:
#      x y z
#    x 4.255410 0.000000 0.239250 
#    y 0.000000 3.213570 0.000000 
#    z 0.239250 0.000000 3.811800 
# 
# 
# High freq. dielectric constant tensor:
#      x y z
#    x 1.809820 0.000000 0.019030 
#    y 0.000000 1.733160 0.000000 
#    z 0.019030 0.000000 1.795280 
# 
# From -- ./inp_files/296822.got.cif
#   From: 2010.06.25/outbox.cif.g09.slc.cpg/sg15_149_cif.got.tgz:296822.got - 2010.06.28 07:06:18.
