data_PCOD8132811
_publ_section_title
;
Structure prediction by ZEFSAII (Michael W. Deem and Ramdas Pophale) SiO2 
 PCOD8132811
Probable space group: C 2/C
;
_chemical_formula_sum "Si O2"
_cell_formula_units_Z 52
_cell_length_a 11.936487
_cell_length_b 7.804083
_cell_length_c 26.098074
_cell_angle_alpha 90.000000
_cell_angle_beta 61.217810
_cell_angle_gamma 90.000000
_cell_volume 2130.772964
_symmetry_space_group_name_H-M "C 2/C"
_symmetry_group_IT_number 15
_symmetry_cell_setting 'monoclinic'
loop_
_space_group_symop_operation_xyz
x,y,z
-x,y,1/2-z
-x,-y,-z
x,-y,1/2+z
1/2+x,1/2+y,z
1/2-x,1/2+y,1/2-z
1/2-x,1/2-y,-z
1/2+x,1/2-y,1/2+z
loop_
_atom_site_type_symbol
_atom_site_label
_atom_site_fract_x
_atom_site_fract_y
_atom_site_fract_z
Si Si1 0.663342 0.407890 0.141530
Si Si2 0.064446 0.450777 0.933162
Si Si3 0.197438 0.212846 0.741887
Si Si4 0.500000 0.981289 0.750000
Si Si5 0.612089 0.982020 0.622497
Si Si6 0.892558 0.060186 0.562776
Si Si7 0.589679 0.440617 0.833171
O O1 0.798387 0.463481 0.090261
O O2 0.666350 0.415036 0.202212
O O3 0.623676 0.221641 0.129538
O O4 0.558904 0.548974 0.148048
O O5 0.072264 0.247499 0.924986
O O6 0.988490 0.524205 0.900491
O O7 0.000000 0.500000 0.000000
O O8 0.105208 0.375160 0.758547
O O9 0.345291 0.274567 0.707711
O O10 0.168198 0.111840 0.800052
O O11 0.571432 0.075335 0.686028
O O12 0.748414 0.054787 0.572244
O O13 0.894448 0.924981 0.609305
O O14 0.000000 0.000000 0.500000
#
# Coordination Sequence:
#
# PCOD8132811 Si02
#       7
#     8   8   8   4   8   8   8
#     4  11  24  46  72 106 140 186 241 300 368 430
#     4  12  29  46  73 105 142 195 251 299 358 433
#     4  11  23  42  74 105 144 186 235 297 370 430
#     4  10  18  44  68 102 138 180 228 290 370 424
#     4  11  24  48  75 100 149 192 237 307 366 437
#     4  12  27  47  73 105 145 199 246 295 369 432
#     4  12  24  46  76 105 147 190 237 303 363 441
#
# _framework density 24.404287
#
# number of rings (size 3 to 8) (size 9 to 14) (size 15 to 20)
#    0.000    0.615    7.692    0.923    6.462    3.077 
#    0.000    0.000    0.000    0.000    0.000    0.000 
#    0.000    0.000    0.000    0.000    0.000    0.000 
#
# Total GULP energy -322352.939551 kJ/mol
# GULP energy per Si atom -12398.189983 kJ/mol
# Density = 2.434874 g / cm^3
# Si number density = 24.404287 Si / 1000 Ang^3
#
#
#
# Elastic Constant Matrix: (Units=GPa)
#
#
# Indices 1 2 3 4 5 6 
#
# 1 170.5744 21.9637 65.6286 0.0000 -23.7866 0.0000
# 2 21.9637 16.2211 17.5976 0.0000 -4.2368 0.0000
# 3 65.6286 17.5976 176.5811 0.0000 -15.8308 0.0000
# 4 0.0000 0.0000 0.0000 30.5076 0.0000 -14.5544
# 5 -23.7866 -4.2368 -15.8308 0.0000 44.9602 0.0000
# 6 0.0000 0.0000 0.0000 -14.5544 0.0000 33.9109
#
#
#
# Elastic Compliance Matrix: (Units=1/GPa)
#
#
# Indices 1 2 3 4 5 6 
#
# 1 0.008034 -0.008048 -0.001932 0.000000 0.002812 0.000000
# 2 -0.008048 0.077968 -0.004649 0.000000 0.001452 0.000000
# 3 -0.001932 -0.004649 0.006932 0.000000 0.000981 0.000000
# 4 0.000000 0.000000 0.000000 0.041218 0.000000 0.017691
# 5 0.002812 0.001452 0.000981 0.000000 0.024212 0.000000
# 6 0.000000 0.000000 0.000000 0.017691 0.000000 0.037082
#
#
# Mechanical properties :
#
#
# Convention : Reuss Voigt Hill
#
# Bulk Modulus (GPa) = 15.70427 63.75073 39.72750
# Shear Modulus (GPa) = 20.33101 39.08819 29.70960
#
# Velocity S-wave (km/s) = 2.88946 4.00646 3.49290
# Velocity P-wave (km/s) = 4.19297 6.89795 5.70801
#
# Compressibility (1/GPa) = 0.06367693
#
# Stress axis : x y z
#
# Youngs Moduli (GPa) = 124.46649 12.82579 144.25176
#
# Poissons Ratio (x) = 0.10323 0.27868
# Poissons Ratio (y) = 1.00175 0.67057
# Poissons Ratio (z) = 0.24045 0.05962
#
# Static dielectric constant tensor:
#      x y z
#    x 4.580280 0.000000 -0.318840 
#    y 0.000000 4.161110 0.000000 
#    z -0.318840 0.000000 4.737900 
# 
# 
# High freq. dielectric constant tensor:
#      x y z
#    x 1.982320 0.000000 -0.017350 
#    y 0.000000 1.946920 0.000000 
#    z -0.017350 0.000000 1.978960 
# 
# From -- ./inp_files/291457.got.cif
#   From: 2010.06.25/outbox.cif.g09.slc.cpg/sg15_146_cif.got.tgz:291457.got - 2010.06.28 07:06:18.
