data_PCOD8132500
_publ_section_title
;
Structure prediction by ZEFSAII (Michael W. Deem and Ramdas Pophale) SiO2 
 PCOD8132500
Probable space group: C 2/C
;
_chemical_formula_sum "Si O2"
_cell_formula_units_Z 60
_cell_length_a 15.626019
_cell_length_b 15.412643
_cell_length_c 13.906278
_cell_angle_alpha 90.000000
_cell_angle_beta 67.360470
_cell_angle_gamma 90.000000
_cell_volume 3091.093417
_symmetry_space_group_name_H-M "C 2/C"
_symmetry_group_IT_number 15
_symmetry_cell_setting 'monoclinic'
loop_
_space_group_symop_operation_xyz
x,y,z
-x,y,1/2-z
-x,-y,-z
x,-y,1/2+z
1/2+x,1/2+y,z
1/2-x,1/2+y,1/2-z
1/2-x,1/2-y,-z
1/2+x,1/2-y,1/2+z
loop_
_atom_site_type_symbol
_atom_site_label
_atom_site_fract_x
_atom_site_fract_y
_atom_site_fract_z
Si Si1 0.069399 0.920756 0.450926
Si Si2 0.722432 0.204515 0.916480
Si Si3 0.500000 0.643808 0.250000
Si Si4 0.341316 0.470329 0.904970
Si Si5 0.502299 0.071325 0.865508
Si Si6 0.964432 0.239773 0.081905
Si Si7 0.352661 0.982794 0.053642
Si Si8 0.101247 0.132051 0.727522
O O1 0.156664 0.942220 0.483138
O O2 0.103339 0.921409 0.326443
O O3 0.026424 0.824715 0.489449
O O4 0.000000 0.000000 0.500000
O O5 0.641471 0.261130 0.905592
O O6 0.683304 0.110967 0.961164
O O7 0.814197 0.201151 0.807618
O O8 0.750000 0.250000 0.000000
O O9 0.585408 0.588484 0.179256
O O10 0.456010 0.704693 0.191062
O O11 0.238629 0.455610 0.904567
O O12 0.377079 0.568398 0.871572
O O13 0.500000 0.078452 0.750000
O O14 0.493434 0.163236 0.925899
O O15 0.595986 0.023035 0.864326
O O16 0.417041 0.014116 0.938598
O O17 0.000000 0.174910 0.750000
#
# Coordination Sequence:
#
# PCOD8132500 Si02
#       8
#     8   8   4   8   8   8   8   8
#     4  11  21  36  62  90 124 162 200 255 313 369
#     4  10  22  39  58  88 124 155 201 255 306 372
#     4  10  18  38  58  86 118 158 194 246 310 360
#     4  10  20  36  57  90 123 147 203 250 299 378
#     4  10  20  43  65  82 120 164 206 251 300 368
#     4  10  21  38  60  84 120 163 202 249 309 358
#     4   9  22  39  62  90 115 159 204 254 307 361
#     4  11  19  36  59  86 123 162 195 245 311 365
#
# _framework density 19.410608
#
# number of rings (size 3 to 8) (size 9 to 14) (size 15 to 20)
#    0.000    1.867    2.667    1.600    1.867    3.200 
#    4.800    4.667    0.000    0.000    0.000    0.000 
#    0.000    0.000    0.000    0.000    0.000    0.000 
#
# Total GULP energy -371690.308733 kJ/mol
# GULP energy per Si atom -12389.676958 kJ/mol
# Density = 1.936643 g / cm^3
# Si number density = 19.410608 Si / 1000 Ang^3
#
#
#
# Elastic Constant Matrix: (Units=GPa)
#
#
# Indices 1 2 3 4 5 6 
#
# 1 171.0069 54.5095 57.1292 0.0000 -0.9198 0.0000
# 2 54.5095 57.3638 28.5790 0.0000 1.7190 0.0000
# 3 57.1292 28.5790 93.4619 0.0000 10.2640 0.0000
# 4 0.0000 0.0000 0.0000 36.8113 0.0000 -1.8845
# 5 -0.9198 1.7190 10.2640 0.0000 24.9185 0.0000
# 6 0.0000 0.0000 0.0000 -1.8845 0.0000 35.9322
#
#
#
# Elastic Compliance Matrix: (Units=1/GPa)
#
#
# Indices 1 2 3 4 5 6 
#
# 1 0.009408 -0.007096 -0.003847 0.000000 0.002421 0.000000
# 2 -0.007096 0.025953 -0.003533 0.000000 -0.000597 0.000000
# 3 -0.003847 -0.003533 0.014789 0.000000 -0.005990 0.000000
# 4 0.000000 0.000000 0.000000 0.027239 0.000000 0.001429
# 5 0.002421 -0.000597 -0.005990 0.000000 0.042729 0.000000
# 6 0.000000 0.000000 0.000000 0.001429 0.000000 0.027905
#
#
# Mechanical properties :
#
#
# Convention : Reuss Voigt Hill
#
# Bulk Modulus (GPa) = 47.17215 66.91866 57.04541
# Shear Modulus (GPa) = 27.16803 31.64005 29.40404
#
# Velocity S-wave (km/s) = 3.74525 4.04175 3.89632
# Velocity P-wave (km/s) = 6.56182 7.50541 7.04942
#
# Compressibility (1/GPa) = 0.02119895
#
# Stress axis : x y z
#
# Youngs Moduli (GPa) = 106.29721 38.53066 67.61759
#
# Poissons Ratio (x) = 0.27340 0.26010
# Poissons Ratio (y) = 0.75425 0.23891
# Poissons Ratio (z) = 0.40889 0.13614
#
# Static dielectric constant tensor:
#      x y z
#    x 2.048090 0.000000 -2.681550 
#    y 0.000000 7.419300 0.000000 
#    z -2.681550 0.000000 -1.144480 
# 
# 
# High freq. dielectric constant tensor:
#      x y z
#    x 1.774250 0.000000 0.009980 
#    y 0.000000 1.744640 0.000000 
#    z 0.009980 0.000000 1.743160 
# 
# From -- ./inp_files/154813.got.cif
#   From: 2010.06.25/outbox.cif.g09.slc.cpg/sg15_78_cif.got.tgz:154813.got - 2010.06.28 07:06:18.
