data_PCOD8132678
_publ_section_title
;
Structure prediction by ZEFSAII (Michael W. Deem and Ramdas Pophale) SiO2 
 PCOD8132678
Probable space group: C 2/C
;
_chemical_formula_sum "Si O2"
_cell_formula_units_Z 56
_cell_length_a 18.713112
_cell_length_b 11.737530
_cell_length_c 15.257187
_cell_angle_alpha 90.000000
_cell_angle_beta 127.859219
_cell_angle_gamma 90.000000
_cell_volume 2645.823979
_symmetry_space_group_name_H-M "C 2/C"
_symmetry_group_IT_number 15
_symmetry_cell_setting 'monoclinic'
loop_
_space_group_symop_operation_xyz
x,y,z
-x,y,1/2-z
-x,-y,-z
x,-y,1/2+z
1/2+x,1/2+y,z
1/2-x,1/2+y,1/2-z
1/2-x,1/2-y,-z
1/2+x,1/2-y,1/2+z
loop_
_atom_site_type_symbol
_atom_site_label
_atom_site_fract_x
_atom_site_fract_y
_atom_site_fract_z
Si Si1 0.323884 0.768033 0.950624
Si Si2 0.011724 0.798830 0.355635
Si Si3 0.004499 0.635440 0.507241
Si Si4 0.276857 0.434857 0.515385
Si Si5 0.790073 0.836767 0.960002
Si Si6 0.659808 0.279418 0.693641
Si Si7 0.421135 0.523898 0.260865
O O1 0.411869 0.812142 0.970319
O O2 0.306515 0.856485 0.016812
O O3 0.235560 0.754970 0.822657
O O4 0.343126 0.643250 0.005424
O O5 0.011310 0.688360 0.415869
O O6 0.000000 0.748511 0.250000
O O7 0.106713 0.863253 0.436734
O O8 0.938627 0.899680 0.318388
O O9 0.000000 0.500000 0.500000
O O10 0.091693 0.672077 0.630479
O O11 0.238653 0.542029 0.431278
O O12 0.326735 0.483270 0.638583
O O13 0.750000 0.750000 0.000000
O O14 0.784982 0.798325 0.855282
O O15 0.593865 0.384141 0.672480
O O16 0.500000 0.556333 0.250000
#
# Coordination Sequence:
#
# PCOD8132678 Si02
#       7
#     8   8   8   8   8   8   8
#     4  10  24  43  67  95 136 177 221 282 334 414
#     4  10  22  41  66  96 124 168 218 276 350 390
#     4  11  26  44  64  96 140 176 225 275 339 420
#     4  10  21  41  65  97 128 172 223 271 343 395
#     4  11  24  39  64  94 136 171 218 283 329 404
#     4  10  25  42  67 103 128 182 234 271 349 400
#     4  10  18  39  70 100 126 157 219 294 337 400
#
# _framework density 21.165427999999999
#
# number of rings (size 3 to 8) (size 9 to 14) (size 15 to 20)
#    0.000    1.714    2.857    0.857    8.000    2.286 
#    0.000    2.143    0.000    0.000    0.000    0.000 
#    0.000    0.000    0.000    0.000    0.000    0.000 
#
# Total GULP energy -347012.405409 kJ/mol
# GULP energy per Si atom -12393.300193 kJ/mol
# Density = 2.111725 g / cm^3
# Si number density = 21.165428 Si / 1000 Ang^3
#
#
#
# Elastic Constant Matrix: (Units=GPa)
#
#
# Indices 1 2 3 4 5 6 
#
# 1 80.5380 42.6199 23.6180 0.0000 -12.6349 0.0000
# 2 42.6199 167.7141 40.9770 0.0000 -11.3485 0.0000
# 3 23.6180 40.9770 83.3399 0.0000 -1.3327 0.0000
# 4 0.0000 0.0000 0.0000 24.2894 0.0000 2.0637
# 5 -12.6349 -11.3485 -1.3327 0.0000 32.5027 0.0000
# 6 0.0000 0.0000 0.0000 2.0637 0.0000 19.2866
#
#
#
# Elastic Compliance Matrix: (Units=1/GPa)
#
#
# Indices 1 2 3 4 5 6 
#
# 1 0.015584 -0.002918 -0.002903 0.000000 0.004920 0.000000
# 2 -0.002918 0.007489 -0.002833 0.000000 0.001364 0.000000
# 3 -0.002903 -0.002833 0.014190 0.000000 -0.001536 0.000000
# 4 0.000000 0.000000 0.000000 0.041548 0.000000 -0.004446
# 5 0.004920 0.001364 -0.001536 0.000000 0.033093 0.000000
# 6 0.000000 0.000000 0.000000 -0.004446 0.000000 0.052325
#
#
# Mechanical properties :
#
#
# Convention : Reuss Voigt Hill
#
# Bulk Modulus (GPa) = 50.11465 60.66908 55.39187
# Shear Modulus (GPa) = 26.56915 30.17422 28.37168
#
# Velocity S-wave (km/s) = 3.54688 3.77986 3.66522
# Velocity P-wave (km/s) = 6.36418 6.91203 6.64376
#
# Compressibility (1/GPa) = 0.01995424
#
# Stress axis : x y z
#
# Youngs Moduli (GPa) = 64.16904 133.53603 70.47096
#
# Poissons Ratio (x) = 0.38966 0.20457
# Poissons Ratio (y) = 0.18725 0.19966
# Poissons Ratio (z) = 0.18628 0.37834
#
# Static dielectric constant tensor:
#      x y z
#    x 4.138530 0.000000 -0.320800 
#    y 0.000000 3.867790 0.000000 
#    z -0.320800 0.000000 3.973530 
# 
# 
# High freq. dielectric constant tensor:
#      x y z
#    x 1.827420 0.000000 -0.009620 
#    y 0.000000 1.832380 0.000000 
#    z -0.009620 0.000000 1.826450 
# 
# From -- ./inp_files/161396.got.cif
#   From: 2010.06.25/outbox.cif.g09.slc.cpg/sg15_81_cif.got.tgz:161396.got - 2010.06.28 07:06:18.
