data_PCOD8132996
_publ_section_title
;
Structure prediction by ZEFSAII (Michael W. Deem and Ramdas Pophale) SiO2 
 PCOD8132996
Probable space group: C 2/C
;
_chemical_formula_sum "Si O2"
_cell_formula_units_Z 48
_cell_length_a 9.213018
_cell_length_b 26.066879
_cell_length_c 15.766440
_cell_angle_alpha 90.000000
_cell_angle_beta 143.986395
_cell_angle_gamma 90.000000
_cell_volume 2226.307688
_symmetry_space_group_name_H-M "C 2/C"
_symmetry_group_IT_number 15
_symmetry_cell_setting 'monoclinic'
loop_
_space_group_symop_operation_xyz
x,y,z
-x,y,1/2-z
-x,-y,-z
x,-y,1/2+z
1/2+x,1/2+y,z
1/2-x,1/2+y,1/2-z
1/2-x,1/2-y,-z
1/2+x,1/2-y,1/2+z
loop_
_atom_site_type_symbol
_atom_site_label
_atom_site_fract_x
_atom_site_fract_y
_atom_site_fract_z
Si Si1 0.542478 0.634377 0.103574
Si Si2 0.113253 0.173739 0.647327
Si Si3 0.248295 0.282899 0.675870
Si Si4 0.304774 0.592289 0.590650
Si Si5 0.768308 0.962610 0.899716
Si Si6 0.945796 0.360062 0.037816
O O1 0.718265 0.672623 0.238318
O O2 0.700626 0.585661 0.148476
O O3 0.423572 0.663679 0.968759
O O4 0.315288 0.616883 0.055607
O O5 0.117033 0.235195 0.660614
O O6 0.369477 0.147424 0.796416
O O7 0.895789 0.148449 0.600486
O O8 0.500000 0.263953 0.750000
O O9 0.081889 0.304898 0.520999
O O10 0.500000 0.569090 0.750000
O O11 0.266932 0.553127 0.496850
O O12 0.047020 0.599160 0.517422
O O13 0.500000 0.987808 0.750000
O O14 0.000000 0.000000 0.000000
#
# Coordination Sequence:
#
# PCOD8132996 Si02
#       6
#     8   8   8   8   8   8
#     4  10  21  37  60  86 119 160 202 253 304 361
#     4  10  19  32  54  84 121 164 207 246 293 361
#     4  10  19  31  51  83 119 160 206 251 300 358
#     4   9  21  40  60  88 124 159 201 257 312 368
#     4  11  25  46  69  94 122 160 209 261 319 377
#     4  10  19  34  55  81 118 159 200 248 306 361
#
# _framework density 21.560362000000001
#
# number of rings (size 3 to 8) (size 9 to 14) (size 15 to 20)
#    0.000    2.000    0.000    3.500    0.000    7.333 
#    0.000   13.333    0.000    0.000    0.000    0.000 
#    0.000    0.000    0.000    0.000    0.000    0.000 
#
# Total GULP energy -297584.730697 kJ/mol
# GULP energy per Si atom -12399.363779 kJ/mol
# Density = 2.151129 g / cm^3
# Si number density = 21.560362 Si / 1000 Ang^3
#
#
#
# Elastic Constant Matrix: (Units=GPa)
#
#
# Indices 1 2 3 4 5 6 
#
# 1 98.5594 28.3343 48.6509 0.0000 -2.7796 0.0000
# 2 28.3343 69.7703 32.2140 0.0000 -0.6061 0.0000
# 3 48.6509 32.2140 107.8532 0.0000 -2.9331 0.0000
# 4 0.0000 0.0000 0.0000 23.0294 0.0000 3.9291
# 5 -2.7796 -0.6061 -2.9331 0.0000 36.0165 0.0000
# 6 0.0000 0.0000 0.0000 3.9291 0.0000 20.9954
#
#
#
# Elastic Compliance Matrix: (Units=1/GPa)
#
#
# Indices 1 2 3 4 5 6 
#
# 1 0.013627 -0.003130 -0.005197 0.000000 0.000576 0.000000
# 2 -0.003130 0.017345 -0.003776 0.000000 -0.000257 0.000000
# 3 -0.005197 -0.003776 0.012759 0.000000 0.000575 0.000000
# 4 0.000000 0.000000 0.000000 0.044855 0.000000 -0.008394
# 5 0.000576 -0.000257 0.000575 0.000000 0.027852 0.000000
# 6 0.000000 0.000000 0.000000 -0.008394 0.000000 0.049200
#
#
# Mechanical properties :
#
#
# Convention : Reuss Voigt Hill
#
# Bulk Modulus (GPa) = 51.21081 54.95348 53.08214
# Shear Modulus (GPa) = 25.46442 27.14050 26.30246
#
# Velocity S-wave (km/s) = 3.44041 3.55183 3.49656
# Velocity P-wave (km/s) = 6.29172 6.50878 6.40117
#
# Compressibility (1/GPa) = 0.01952713
#
# Stress axis : x y z
#
# Youngs Moduli (GPa) = 73.38197 57.65379 78.37376
#
# Poissons Ratio (x) = 0.18045 0.40728
# Poissons Ratio (y) = 0.22967 0.29593
# Poissons Ratio (z) = 0.38134 0.21769
#
# Static dielectric constant tensor:
#      x y z
#    x 3.991480 0.000000 -0.095120 
#    y 0.000000 3.486870 0.000000 
#    z -0.095120 0.000000 4.049860 
# 
# 
# High freq. dielectric constant tensor:
#      x y z
#    x 1.853000 0.000000 -0.009180 
#    y 0.000000 1.808750 0.000000 
#    z -0.009180 0.000000 1.863670 
# 
# From -- ./inp_files/139044.got.cif
#   From: 2010.06.25/outbox.cif.g09.slc.cpg/sg15_70_cif.got.tgz:139044.got - 2010.06.28 07:06:18.
