data_PCOD8132429
_publ_section_title
;
Structure prediction by ZEFSAII (Michael W. Deem and Ramdas Pophale) SiO2 
 PCOD8132429
Probable space group: C 2/C
;
_chemical_formula_sum "Si O2"
_cell_formula_units_Z 60
_cell_length_a 18.036476
_cell_length_b 16.575589
_cell_length_c 9.600353
_cell_angle_alpha 90.000000
_cell_angle_beta 87.144550
_cell_angle_gamma 90.000000
_cell_volume 2866.607958
_symmetry_space_group_name_H-M "C 2/C"
_symmetry_group_IT_number 15
_symmetry_cell_setting 'monoclinic'
loop_
_space_group_symop_operation_xyz
x,y,z
-x,y,1/2-z
-x,-y,-z
x,-y,1/2+z
1/2+x,1/2+y,z
1/2-x,1/2+y,1/2-z
1/2-x,1/2-y,-z
1/2+x,1/2-y,1/2+z
loop_
_atom_site_type_symbol
_atom_site_label
_atom_site_fract_x
_atom_site_fract_y
_atom_site_fract_z
Si Si1 0.500000 0.578372 0.750000
Si Si2 0.616794 0.967768 0.434291
Si Si3 0.530277 0.122466 0.483802
Si Si4 0.890048 0.190835 0.234556
Si Si5 0.851206 0.643886 0.812592
Si Si6 0.747113 0.463322 0.440853
Si Si7 0.514290 0.298859 0.502157
Si Si8 0.849034 0.979458 0.786422
O O1 0.487089 0.631917 0.613957
O O2 0.429497 0.521005 0.781481
O O3 0.553401 0.910247 0.503100
O O4 0.652928 0.928948 0.295940
O O5 0.581329 0.056213 0.399291
O O6 0.684728 0.974863 0.537115
O O7 0.565103 0.138071 0.633957
O O8 0.530246 0.213416 0.419896
O O9 0.835600 0.267992 0.250012
O O10 0.938128 0.209436 0.093735
O O11 0.849167 0.107165 0.209219
O O12 0.927437 0.178148 0.382872
O O13 0.786745 0.625420 0.932806
O O14 0.680156 0.469216 0.554701
O O15 0.711472 0.471057 0.292372
#
# Coordination Sequence:
#
# PCOD8132429 Si02
#       8
#     4   8   8   8   8   8   8   8
#     4  12  26  44  66  88 132 158 224 276 334 350
#     4  10  18  37  61  96 126 173 192 252 304 386
#     4   9  19  34  64  97 129 163 210 241 309 380
#     4  10  21  38  69  88 124 160 223 251 321 371
#     4  10  19  39  64  94 129 169 202 258 303 385
#     4  11  24  41  65  89 134 163 216 250 328 378
#     4  10  20  40  61  99 123 162 203 279 308 374
#     4  12  25  44  64  94 115 174 214 278 315 383
#
# _framework density 20.930662000000002
#
# number of rings (size 3 to 8) (size 9 to 14) (size 15 to 20)
#    0.000    1.600    2.667    2.800    0.000    2.133 
#    7.200    3.333    0.000    0.000    0.000    0.000 
#    0.000    0.000    0.000    0.000    0.000    0.000 
#
# Total GULP energy -371653.142304 kJ/mol
# GULP energy per Si atom -12388.438077 kJ/mol
# Density = 2.088302 g / cm^3
# Si number density = 20.930662 Si / 1000 Ang^3
#
#
#
# Elastic Constant Matrix: (Units=GPa)
#
#
# Indices 1 2 3 4 5 6 
#
# 1 107.7596 40.9732 23.2541 0.0000 -14.5529 0.0000
# 2 40.9732 134.4362 32.3975 0.0000 -21.1345 0.0000
# 3 23.2541 32.3975 76.9524 0.0000 -16.2054 0.0000
# 4 0.0000 0.0000 0.0000 30.1446 0.0000 -6.3691
# 5 -14.5529 -21.1345 -16.2054 0.0000 19.6569 0.0000
# 6 0.0000 0.0000 0.0000 -6.3691 0.0000 18.8135
#
#
#
# Elastic Compliance Matrix: (Units=1/GPa)
#
#
# Indices 1 2 3 4 5 6 
#
# 1 0.011082 -0.002323 -0.001415 0.000000 0.004541 0.000000
# 2 -0.002323 0.009730 -0.001880 0.000000 0.007192 0.000000
# 3 -0.001415 -0.001880 0.016418 0.000000 0.010467 0.000000
# 4 0.000000 0.000000 0.000000 0.035729 0.000000 0.012096
# 5 0.004541 0.007192 0.010467 0.000000 0.070596 0.000000
# 6 0.000000 0.000000 0.000000 0.012096 0.000000 0.057248
#
#
# Mechanical properties :
#
#
# Convention : Reuss Voigt Hill
#
# Bulk Modulus (GPa) = 38.46859 56.93310 47.70084
# Shear Modulus (GPa) = 22.65491 28.55787 25.60639
#
# Velocity S-wave (km/s) = 3.29352 3.69779 3.50150
# Velocity P-wave (km/s) = 5.73428 6.74473 6.25993
#
# Compressibility (1/GPa) = 0.02599523
#
# Stress axis : x y z
#
# Youngs Moduli (GPa) = 90.24010 102.77414 60.90799
#
# Poissons Ratio (x) = 0.23871 0.08616
# Poissons Ratio (y) = 0.20960 0.11451
# Poissons Ratio (z) = 0.12766 0.19321
#
# Static dielectric constant tensor:
#      x y z
#    x 3.746710 0.000000 -0.059300 
#    y 0.000000 4.015540 0.000000 
#    z -0.059300 0.000000 3.593980 
# 
# 
# High freq. dielectric constant tensor:
#      x y z
#    x 1.814130 0.000000 -0.006050 
#    y 0.000000 1.828050 0.000000 
#    z -0.006050 0.000000 1.801050 
# 
# From -- ./inp_files/49092.got.cif
#   From: 2010.06.25/outbox.cif.g09.slc.cpg/sg15_25_cif.got.tgz:49092.got - 2010.06.28 07:06:18.
