data_PCOD8132825
_publ_section_title
;
Structure prediction by ZEFSAII (Michael W. Deem and Ramdas Pophale) SiO2 
 PCOD8132825
Probable space group: C 2/C
;
_chemical_formula_sum "Si O2"
_cell_formula_units_Z 48
_cell_length_a 24.143190
_cell_length_b 15.017597
_cell_length_c 23.511034
_cell_angle_alpha 90.000000
_cell_angle_beta 19.939627
_cell_angle_gamma 90.000000
_cell_volume 2907.094491
_symmetry_space_group_name_H-M "C 2/C"
_symmetry_group_IT_number 15
_symmetry_cell_setting 'monoclinic'
loop_
_space_group_symop_operation_xyz
x,y,z
-x,y,1/2-z
-x,-y,-z
x,-y,1/2+z
1/2+x,1/2+y,z
1/2-x,1/2+y,1/2-z
1/2-x,1/2-y,-z
1/2+x,1/2-y,1/2+z
loop_
_atom_site_type_symbol
_atom_site_label
_atom_site_fract_x
_atom_site_fract_y
_atom_site_fract_z
Si Si1 0.843527 0.336700 0.104816
Si Si2 0.224436 0.655585 0.252070
Si Si3 0.898801 0.919486 0.472679
Si Si4 0.128793 0.006703 0.326311
Si Si5 0.673491 0.115130 0.099026
Si Si6 0.832163 0.806251 0.339367
O O1 0.781411 0.257134 0.205722
O O2 0.756179 0.426424 0.208811
O O3 0.803262 0.310037 0.078920
O O4 0.033617 0.349820 0.927443
O O5 0.275070 0.600014 0.259954
O O6 0.310219 0.612661 0.114805
O O7 0.767986 0.951105 0.551508
O O8 0.028719 0.997572 0.363222
O O9 0.994286 0.835936 0.353038
O O10 0.000000 0.000000 0.500000
O O11 0.500000 0.072460 0.250000
O O12 0.641577 0.207339 0.162943
O O13 0.781228 0.127735 0.939046
#
# Coordination Sequence:
#
# PCOD8132825 Si02
#       6
#     8   8   8   8   8   8
#     4  11  20  32  51  69  98 131 166 200 246 294
#     4  11  20  32  48  69  92 130 171 204 247 291
#     4  10  19  31  43  60  93 129 165 205 241 276
#     4   9  20  34  48  67  91 127 169 209 245 285
#     4  11  19  26  41  64  94 127 169 196 230 287
#     4  10  19  28  41  65  92 130 164 193 231 290
#
# _framework density 16.511330999999998
#
# number of rings (size 3 to 8) (size 9 to 14) (size 15 to 20)
#    0.000    1.667    1.667    7.000    0.000    0.000 
#    0.000    0.000    0.000    0.000    0.000    0.000 
#    0.000    0.000    0.000  295.500    0.000    6.333 
#
# Total GULP energy -297480.987603 kJ/mol
# GULP energy per Si atom -12395.041150 kJ/mol
# Density = 1.647375 g / cm^3
# Si number density = 16.511331 Si / 1000 Ang^3
#
#
#
# Elastic Constant Matrix: (Units=GPa)
#
#
# Indices 1 2 3 4 5 6 
#
# 1 92.7285 47.6812 43.9939 0.0190 -28.6685 -0.0013
# 2 47.6812 65.3468 28.8449 0.0278 -7.4361 -0.0353
# 3 43.9939 28.8449 108.2446 0.0066 -20.3076 -0.0153
# 4 0.0190 0.0278 0.0066 18.1569 -0.0133 -4.5000
# 5 -28.6685 -7.4361 -20.3076 -0.0133 34.8803 0.0109
# 6 -0.0013 -0.0353 -0.0153 -4.5000 0.0109 21.3994
#
#
#
# Elastic Compliance Matrix: (Units=1/GPa)
#
#
# Indices 1 2 3 4 5 6 
#
# 1 0.024636 -0.014829 -0.003206 0.000001 0.015221 -0.000033
# 2 -0.014829 0.026309 -0.002490 -0.000020 -0.008029 0.000041
# 3 -0.003206 -0.002490 0.011912 0.000007 0.003770 0.000004
# 4 0.000001 -0.000020 0.000007 0.058104 0.000019 0.012218
# 5 0.015221 -0.008029 0.003770 0.000019 0.041662 -0.000027
# 6 -0.000033 0.000041 0.000004 0.012218 -0.000027 0.049300
#
#
# Mechanical properties :
#
#
# Convention : Reuss Voigt Hill
#
# Bulk Modulus (GPa) = 45.85641 56.37332 51.11486
# Shear Modulus (GPa) = 19.21301 24.60732 21.91017
#
# Velocity S-wave (km/s) = 3.41490 3.86467 3.64672
# Velocity P-wave (km/s) = 6.58648 7.35734 6.98256
#
# Compressibility (1/GPa) = 0.02180720
#
# Stress axis : x y z
#
# Youngs Moduli (GPa) = 40.59139 38.01047 83.94913
#
# Poissons Ratio (x) = 0.56365 0.26911
# Poissons Ratio (y) = 0.60192 0.20904
# Poissons Ratio (z) = 0.13012 0.09465
#
# Static dielectric constant tensor:
#      x y z
#    x 3.664210 -0.000170 -0.244390 
#    y -0.000170 2.954540 0.000110 
#    z -0.244390 0.000110 3.317210 
# 
# 
# High freq. dielectric constant tensor:
#      x y z
#    x 1.630050 0.000000 -0.017970 
#    y 0.000000 1.578230 0.000010 
#    z -0.017970 0.000010 1.661080 
# 
# From -- ./inp_files/61199.got.cif
#   From: 2010.06.25/outbox.cif.g09.slc.cpg/sg15_31_cif.got.tgz:61199.got - 2010.06.28 07:06:18.
