data_PCOD8132043
_publ_section_title
;
Structure prediction by ZEFSAII (Michael W. Deem and Ramdas Pophale) SiO2 
 PCOD8132043
Probable space group: C 2/C
;
_chemical_formula_sum "Si O2"
_cell_formula_units_Z 40
_cell_length_a 15.249903
_cell_length_b 11.609866
_cell_length_c 11.772955
_cell_angle_alpha 90.000000
_cell_angle_beta 69.487211
_cell_angle_gamma 90.000000
_cell_volume 1952.230718
_symmetry_space_group_name_H-M "C 2/C"
_symmetry_group_IT_number 15
_symmetry_cell_setting 'monoclinic'
loop_
_space_group_symop_operation_xyz
x,y,z
-x,y,1/2-z
-x,-y,-z
x,-y,1/2+z
1/2+x,1/2+y,z
1/2-x,1/2+y,1/2-z
1/2-x,1/2-y,-z
1/2+x,1/2-y,1/2+z
loop_
_atom_site_type_symbol
_atom_site_label
_atom_site_fract_x
_atom_site_fract_y
_atom_site_fract_z
Si Si1 0.064254 0.975689 0.628011
Si Si2 0.692179 0.822571 0.435011
Si Si3 0.986284 0.176134 0.991933
Si Si4 0.238344 0.426005 0.962421
Si Si5 0.306531 0.703343 0.649863
O O1 0.162643 0.950944 0.642634
O O2 0.000000 0.034954 0.750000
O O3 0.019493 0.854820 0.604721
O O4 0.076078 0.068209 0.522156
O O5 0.750000 0.750000 0.500000
O O6 0.583096 0.784747 0.475812
O O7 0.745616 0.805581 0.291281
O O8 0.681180 0.954719 0.481393
O O9 0.082685 0.185094 0.874231
O O10 0.189746 0.328922 0.909805
O O11 0.260403 0.387785 0.082509
#
# Coordination Sequence:
#
# PCOD8132043 Si02
#       5
#     8   8   8   8   8
#     4  10  18  35  61  85 119 153 202 250 294 351
#     4  12  24  38  65  93 122 157 208 249 304 353
#     4  10  22  36  58  92 115 157 203 243 298 356
#     4  10  22  41  62  87 125 161 198 249 308 355
#     4  10  24  42  63  88 126 160 200 249 304 364
#
# _framework density 20.489381000000002
#
# number of rings (size 3 to 8) (size 9 to 14) (size 15 to 20)
#    0.000    1.600    2.000    2.400    2.800    0.800 
#    0.000    0.000    4.400    0.000    0.000    0.000 
#    0.000    0.000    0.000    0.000    0.000    0.000 
#
# Total GULP energy -247794.086752 kJ/mol
# GULP energy per Si atom -12389.704338 kJ/mol
# Density = 2.044275 g / cm^3
# Si number density = 20.489381 Si / 1000 Ang^3
#
#
#
# Elastic Constant Matrix: (Units=GPa)
#
#
# Indices 1 2 3 4 5 6 
#
# 1 102.8406 46.1855 24.4432 0.0000 -9.3867 0.0000
# 2 46.1855 138.6322 22.0957 0.0000 5.6944 0.0000
# 3 24.4432 22.0957 99.2713 0.0000 -10.1059 0.0000
# 4 0.0000 0.0000 0.0000 13.7923 0.0000 -2.6783
# 5 -9.3867 5.6944 -10.1059 0.0000 25.4259 0.0000
# 6 0.0000 0.0000 0.0000 -2.6783 0.0000 44.5635
#
#
#
# Elastic Compliance Matrix: (Units=1/GPa)
#
#
# Indices 1 2 3 4 5 6 
#
# 1 0.012380 -0.004059 -0.001654 0.000000 0.004822 0.000000
# 2 -0.004059 0.008957 -0.001408 0.000000 -0.004064 0.000000
# 3 -0.001654 -0.001408 0.011218 0.000000 0.004163 0.000000
# 4 0.000000 0.000000 0.000000 0.073361 0.000000 0.004409
# 5 0.004822 -0.004064 0.004163 0.000000 0.043675 0.000000
# 6 0.000000 0.000000 0.000000 0.004409 0.000000 0.022705
#
#
# Mechanical properties :
#
#
# Convention : Reuss Voigt Hill
#
# Bulk Modulus (GPa) = 54.60557 58.46588 56.53573
# Shear Modulus (GPa) = 25.95500 33.29097 29.62299
#
# Velocity S-wave (km/s) = 3.56301 4.03524 3.80646
# Velocity P-wave (km/s) = 6.60570 7.09278 6.85357
#
# Compressibility (1/GPa) = 0.01831315
#
# Stress axis : x y z
#
# Youngs Moduli (GPa) = 80.77662 111.64614 89.14349
#
# Poissons Ratio (x) = 0.45315 0.14744
# Poissons Ratio (y) = 0.32786 0.12551
# Poissons Ratio (z) = 0.13360 0.15719
#
# Static dielectric constant tensor:
#      x y z
#    x 3.859120 0.000000 0.062050 
#    y 0.000000 3.836040 0.000000 
#    z 0.062050 0.000000 3.621910 
# 
# 
# High freq. dielectric constant tensor:
#      x y z
#    x 1.807180 0.000000 0.004340 
#    y 0.000000 1.799540 0.000000 
#    z 0.004340 0.000000 1.790300 
# 
# From -- ./inp_files/94674.got.cif
#   From: 2010.06.25/outbox.cif.g09.slc.cpg/sg15_48_cif.got.tgz:94674.got - 2010.06.28 07:06:18.
