data_PCOD8132407
_publ_section_title
;
Structure prediction by ZEFSAII (Michael W. Deem and Ramdas Pophale) SiO2 
 PCOD8132407
Probable space group: C 2/C
;
_chemical_formula_sum "Si O2"
_cell_formula_units_Z 56
_cell_length_a 15.316224
_cell_length_b 11.715365
_cell_length_c 15.234409
_cell_angle_alpha 90.000000
_cell_angle_beta 103.064657
_cell_angle_gamma 90.000000
_cell_volume 2662.831214
_symmetry_space_group_name_H-M "C 2/C"
_symmetry_group_IT_number 15
_symmetry_cell_setting 'monoclinic'
loop_
_space_group_symop_operation_xyz
x,y,z
-x,y,1/2-z
-x,-y,-z
x,-y,1/2+z
1/2+x,1/2+y,z
1/2-x,1/2+y,1/2-z
1/2-x,1/2-y,-z
1/2+x,1/2-y,1/2+z
loop_
_atom_site_type_symbol
_atom_site_label
_atom_site_fract_x
_atom_site_fract_y
_atom_site_fract_z
Si Si1 0.337013 0.894411 0.438302
Si Si2 0.099291 0.162779 0.964556
Si Si3 0.279222 0.527877 0.956133
Si Si4 0.368063 0.936845 0.681784
Si Si5 0.541723 0.054639 0.121057
Si Si6 0.321927 0.316903 0.199755
Si Si7 0.603029 0.699656 0.596058
O O1 0.352415 0.782833 0.500697
O O2 0.278038 0.994143 0.471128
O O3 0.280086 0.861557 0.337684
O O4 0.435187 0.947273 0.436779
O O5 0.116527 0.136367 0.865742
O O6 0.993934 0.156475 0.955830
O O7 0.141919 0.065683 0.035885
O O8 0.210543 0.524533 0.858950
O O9 0.326168 0.653503 0.961741
O O10 0.421864 0.983772 0.776096
O O11 0.435549 0.922136 0.611423
O O12 0.321393 0.818983 0.694777
O O13 0.596785 0.163677 0.098107
O O14 0.365553 0.353119 0.302818
#
# Coordination Sequence:
#
# PCOD8132407 Si02
#       7
#     8   8   8   8   8   8   8
#     4  11  21  37  60  85 118 147 189 234 289 333
#     4  11  20  37  59  85 111 153 196 233 272 338
#     4  11  21  35  56  82 118 150 186 234 283 336
#     4  10  18  38  59  83 109 147 203 230 270 337
#     4  10  22  35  58  88 112 148 189 236 286 334
#     4  10  18  37  60  82 107 148 197 236 264 330
#     4  11  22  34  56  87 118 144 188 237 284 328
#
# _framework density 21.030248
#
# number of rings (size 3 to 8) (size 9 to 14) (size 15 to 20)
#    0.000    1.429    4.286    2.571    0.000    2.857 
#    0.000    0.000    0.000    0.000    3.714    0.000 
#    0.000    0.000    0.000    0.000    0.000    0.000 
#
# Total GULP energy -346904.644088 kJ/mol
# GULP energy per Si atom -12389.451575 kJ/mol
# Density = 2.098238 g / cm^3
# Si number density = 21.030248 Si / 1000 Ang^3
#
#
#
# Elastic Constant Matrix: (Units=GPa)
#
#
# Indices 1 2 3 4 5 6 
#
# 1 109.1046 36.5354 11.3760 0.0000 7.4261 0.0000
# 2 36.5354 62.5297 16.1771 0.0000 -13.1025 0.0000
# 3 11.3760 16.1771 44.8332 0.0000 4.4026 0.0000
# 4 0.0000 0.0000 0.0000 22.9218 0.0000 -5.4818
# 5 7.4261 -13.1025 4.4026 0.0000 30.9680 0.0000
# 6 0.0000 0.0000 0.0000 -5.4818 0.0000 42.3522
#
#
#
# Elastic Compliance Matrix: (Units=1/GPa)
#
#
# Indices 1 2 3 4 5 6 
#
# 1 0.012568 -0.008982 0.000731 0.000000 -0.006918 0.000000
# 2 -0.008982 0.026571 -0.008746 0.000000 0.014639 0.000000
# 3 0.000731 -0.008746 0.026019 0.000000 -0.007575 0.000000
# 4 0.000000 0.000000 0.000000 0.045020 0.000000 0.005827
# 5 -0.006918 0.014639 -0.007575 0.000000 0.041221 0.000000
# 6 0.000000 0.000000 0.000000 0.005827 0.000000 0.024366
#
#
# Mechanical properties :
#
#
# Convention : Reuss Voigt Hill
#
# Bulk Modulus (GPa) = 32.08808 38.29385 35.19096
# Shear Modulus (GPa) = 22.71218 29.40699 26.05959
#
# Velocity S-wave (km/s) = 3.28987 3.74347 3.52397
# Velocity P-wave (km/s) = 5.45180 6.07727 5.77301
#
# Compressibility (1/GPa) = 0.03116423
#
# Stress axis : x y z
#
# Youngs Moduli (GPa) = 79.56752 37.63535 38.43352
#
# Poissons Ratio (x) = 0.33805 -0.02811
# Poissons Ratio (y) = 0.71469 0.33614
# Poissons Ratio (z) = -0.05819 0.32916
#
# Static dielectric constant tensor:
#      x y z
#    x 3.964300 0.000000 0.279660 
#    y 0.000000 3.476870 0.000000 
#    z 0.279660 0.000000 3.941790 
# 
# 
# High freq. dielectric constant tensor:
#      x y z
#    x 1.832680 0.000000 0.027350 
#    y 0.000000 1.791690 0.000000 
#    z 0.027350 0.000000 1.821550 
# 
# From -- ./inp_files/152610.got.cif
#   From: 2010.06.25/outbox.cif.g09.slc.cpg/sg15_77_cif.got.tgz:152610.got - 2010.06.28 07:06:18.
