data_PCOD8132014
_publ_section_title
;
Structure prediction by ZEFSAII (Michael W. Deem and Ramdas Pophale) SiO2 
 PCOD8132014
Probable space group: C 2/C
;
_chemical_formula_sum "Si O2"
_cell_formula_units_Z 60
_cell_length_a 11.049050
_cell_length_b 33.821326
_cell_length_c 8.534623
_cell_angle_alpha 90.000000
_cell_angle_beta 66.185879
_cell_angle_gamma 90.000000
_cell_volume 2917.794073
_symmetry_space_group_name_H-M "C 2/C"
_symmetry_group_IT_number 15
_symmetry_cell_setting 'monoclinic'
loop_
_space_group_symop_operation_xyz
x,y,z
-x,y,1/2-z
-x,-y,-z
x,-y,1/2+z
1/2+x,1/2+y,z
1/2-x,1/2+y,1/2-z
1/2-x,1/2-y,-z
1/2+x,1/2-y,1/2+z
loop_
_atom_site_type_symbol
_atom_site_label
_atom_site_fract_x
_atom_site_fract_y
_atom_site_fract_z
Si Si1 0.500000 0.823694 0.250000
Si Si2 0.797080 0.169188 0.255518
Si Si3 0.362724 0.453196 0.133010
Si Si4 0.430186 0.680608 0.523722
Si Si5 0.344496 0.896521 0.846632
Si Si6 0.658554 0.534682 0.491939
Si Si7 0.862755 0.266074 0.552468
Si Si8 0.764436 0.373141 0.236099
O O1 0.465302 0.795165 0.412539
O O2 0.379654 0.852306 0.272589
O O3 0.846797 0.171059 0.409135
O O4 0.704628 0.131762 0.267805
O O5 0.707617 0.208643 0.272578
O O6 0.919297 0.167154 0.073403
O O7 0.349854 0.463508 0.319576
O O8 0.516800 0.450028 0.998712
O O9 0.279558 0.413094 0.148267
O O10 0.301960 0.489764 0.069640
O O11 0.436451 0.726692 0.572605
O O12 0.363463 0.655729 0.698243
O O13 0.500000 0.902839 0.750000
O O14 0.273436 0.938381 0.859542
O O15 0.307828 0.879301 0.035562
O O16 0.750000 0.250000 0.500000
#
# Coordination Sequence:
#
# PCOD8132014 Si02
#       8
#     4   8   8   8   8   8   8   8
#     4  12  20  36  60  82 118 162 202 250 290 364
#     4  10  20  37  59  86 116 150 200 249 293 354
#     4   9  19  38  62  90 113 151 194 243 293 345
#     4  10  21  36  64  89 111 154 208 254 292 346
#     4  11  24  41  58  85 127 163 189 241 313 358
#     4   9  19  39  63  85 119 151 193 241 291 351
#     4  10  18  35  59  83 116 154 200 249 304 343
#     4  11  23  38  60  88 117 159 200 245 298 359
#
# _framework density 20.563482
#
# number of rings (size 3 to 8) (size 9 to 14) (size 15 to 20)
#    0.000    1.867    2.667    3.200    0.000    2.667 
#    1.200    4.667    2.933    0.000    0.000    0.000 
#    0.000    0.000    0.000    0.000    0.000    0.000 
#
# Total GULP energy -371843.596823 kJ/mol
# GULP energy per Si atom -12394.786561 kJ/mol
# Density = 2.051668 g / cm^3
# Si number density = 20.563482 Si / 1000 Ang^3
#
#
#
# Elastic Constant Matrix: (Units=GPa)
#
#
# Indices 1 2 3 4 5 6 
#
# 1 88.1231 67.7883 33.9984 0.0000 -34.6743 0.0000
# 2 67.7883 176.6061 49.8641 0.0000 -24.4244 0.0000
# 3 33.9984 49.8641 69.8496 0.0000 -31.9524 0.0000
# 4 0.0000 0.0000 0.0000 32.0124 0.0000 -6.6687
# 5 -34.6743 -24.4244 -31.9524 0.0000 30.7460 0.0000
# 6 0.0000 0.0000 0.0000 -6.6687 0.0000 32.4901
#
#
#
# Elastic Compliance Matrix: (Units=1/GPa)
#
#
# Indices 1 2 3 4 5 6 
#
# 1 0.027310 -0.008067 0.006907 0.000000 0.031569 0.000000
# 2 -0.008067 0.009483 -0.006784 0.000000 -0.008614 0.000000
# 3 0.006907 -0.006784 0.032206 0.000000 0.035871 0.000000
# 4 0.000000 0.000000 0.000000 0.032633 0.000000 0.006698
# 5 0.031569 -0.008614 0.035871 0.000000 0.098562 0.000000
# 6 0.000000 0.000000 0.000000 0.006698 0.000000 0.032153
#
#
# Mechanical properties :
#
#
# Convention : Reuss Voigt Hill
#
# Bulk Modulus (GPa) = 18.82809 70.87560 44.85185
# Shear Modulus (GPa) = 18.80134 31.24490 25.02312
#
# Velocity S-wave (km/s) = 3.02703 3.90222 3.49215
# Velocity P-wave (km/s) = 4.62528 7.40572 6.17405
#
# Compressibility (1/GPa) = 0.05311212
#
# Stress axis : x y z
#
# Youngs Moduli (GPa) = 36.61644 105.45528 31.05006
#
# Poissons Ratio (x) = 0.85070 -0.21447
# Poissons Ratio (y) = 0.29538 0.21063
# Poissons Ratio (z) = -0.25292 0.71537
#
# Static dielectric constant tensor:
#      x y z
#    x 3.589840 0.000000 -0.389560 
#    y 0.000000 4.614430 0.000000 
#    z -0.389560 0.000000 3.677690 
# 
# 
# High freq. dielectric constant tensor:
#      x y z
#    x 1.787530 0.000000 -0.028500 
#    y 0.000000 1.817450 0.000000 
#    z -0.028500 0.000000 1.793760 
# 
# From -- ./inp_files/35656.got.cif
#   From: 2010.06.25/outbox.cif.g09.slc.cpg/sg15_18_cif.got.tgz:35656.got - 2010.06.28 07:06:18.
