data_PCOD8132839
_publ_section_title
;
Structure prediction by ZEFSAII (Michael W. Deem and Ramdas Pophale) SiO2 
 PCOD8132839
Probable space group: C 2/C
;
_chemical_formula_sum "Si O2"
_cell_formula_units_Z 64
_cell_length_a 5.245821
_cell_length_b 23.754386
_cell_length_c 29.730498
_cell_angle_alpha 90.000000
_cell_angle_beta 99.724047
_cell_angle_gamma 90.000000
_cell_volume 3651.527281
_symmetry_space_group_name_H-M "C 2/C"
_symmetry_group_IT_number 15
_symmetry_cell_setting 'monoclinic'
loop_
_space_group_symop_operation_xyz
x,y,z
-x,y,1/2-z
-x,-y,-z
x,-y,1/2+z
1/2+x,1/2+y,z
1/2-x,1/2+y,1/2-z
1/2-x,1/2-y,-z
1/2+x,1/2-y,1/2+z
loop_
_atom_site_type_symbol
_atom_site_label
_atom_site_fract_x
_atom_site_fract_y
_atom_site_fract_z
Si Si1 0.226778 0.973046 0.447748
Si Si2 0.198599 0.267920 0.946416
Si Si3 0.126048 0.936984 0.350606
Si Si4 0.117390 0.196145 0.857184
Si Si5 0.739756 0.426790 0.010299
Si Si6 0.923410 0.434230 0.200106
Si Si7 0.221824 0.193230 0.470365
Si Si8 0.561240 0.199037 0.801883
O O1 0.113263 0.973977 0.394854
O O2 0.508500 0.943736 0.453443
O O3 0.030685 0.938447 0.473307
O O4 0.250605 0.037555 0.464497
O O5 0.161353 0.217650 0.909557
O O6 0.440741 0.306403 0.938299
O O7 0.940980 0.306332 0.938245
O O8 0.250000 0.250000 0.000000
O O9 0.127628 0.870917 0.361916
O O10 0.378084 0.957086 0.331116
O O11 0.868517 0.953585 0.316454
O O12 0.341467 0.219107 0.830598
O O13 0.843632 0.217522 0.828591
O O14 0.756070 0.360567 0.002814
O O15 0.948275 0.367552 0.202035
O O16 0.000000 0.460600 0.250000
O O17 0.250000 0.250000 0.500000
O O18 0.500000 0.224119 0.750000
#
# Coordination Sequence:
#
# PCOD8132839 Si02
#       8
#     8   8   8   8   8   8   8   8
#     4  10  21  34  52  71  99 130 177 208 243 294
#     4  10  21  33  44  71  97 136 165 207 249 286
#     4  10  19  28  48  71  93 133 163 201 238 300
#     4  10  19  29  46  69 100 126 166 203 242 307
#     4  10  21  36  50  70  98 138 170 215 248 287
#     4   9  17  30  44  68 100 127 156 195 252 303
#     4  10  21  32  50  68  95 135 171 210 253 288
#     4   9  17  30  46  66  94 131 160 199 252 305
#
# _framework density 17.526913
#
# number of rings (size 3 to 8) (size 9 to 14) (size 15 to 20)
#    0.000    2.250    0.000    3.000    7.000    3.000 
#    0.000    0.000    0.000    0.000    0.000    0.000 
#    0.000   20.000    0.000    0.000    0.000    0.000 
#
# Total GULP energy -396600.057164 kJ/mol
# GULP energy per Si atom -12393.751786 kJ/mol
# Density = 1.748702 g / cm^3
# Si number density = 17.526913 Si / 1000 Ang^3
#
#
#
# Elastic Constant Matrix: (Units=GPa)
#
#
# Indices 1 2 3 4 5 6 
#
# 1 133.4583 12.8869 23.7834 0.0000 -1.5648 0.0000
# 2 12.8869 53.5714 19.5419 0.0000 0.3115 0.0000
# 3 23.7834 19.5419 108.5504 0.0000 3.4851 0.0000
# 4 0.0000 0.0000 0.0000 18.1218 0.0000 -1.3586
# 5 -1.5648 0.3115 3.4851 0.0000 22.7368 0.0000
# 6 0.0000 0.0000 0.0000 -1.3586 0.0000 12.4109
#
#
#
# Elastic Compliance Matrix: (Units=1/GPa)
#
#
# Indices 1 2 3 4 5 6 
#
# 1 0.007903 -0.001354 -0.001513 0.000000 0.000794 0.000000
# 2 -0.001354 0.020212 -0.003347 0.000000 0.000143 0.000000
# 3 -0.001513 -0.003347 0.010198 0.000000 -0.001622 0.000000
# 4 0.000000 0.000000 0.000000 0.055639 0.000000 0.006091
# 5 0.000794 0.000143 -0.001622 0.000000 0.044283 0.000000
# 6 0.000000 0.000000 0.000000 0.006091 0.000000 0.081241
#
#
# Mechanical properties :
#
#
# Convention : Reuss Voigt Hill
#
# Bulk Modulus (GPa) = 38.63082 45.33383 41.98232
# Shear Modulus (GPa) = 20.78722 26.61175 23.69949
#
# Velocity S-wave (km/s) = 3.44760 3.90081 3.68118
# Velocity P-wave (km/s) = 6.15927 6.79778 6.48639
#
# Compressibility (1/GPa) = 0.02588607
#
# Stress axis : x y z
#
# Youngs Moduli (GPa) = 126.53931 49.47486 98.05421
#
# Poissons Ratio (x) = 0.06697 0.14838
# Poissons Ratio (y) = 0.17129 0.32816
# Poissons Ratio (z) = 0.19149 0.16558
#
# Static dielectric constant tensor:
#      x y z
#    x 4.687460 0.000000 -0.025150 
#    y 0.000000 2.795260 0.000000 
#    z -0.025150 0.000000 3.252540 
# 
# 
# High freq. dielectric constant tensor:
#      x y z
#    x 1.714550 0.000000 0.000440 
#    y 0.000000 1.612680 0.000000 
#    z 0.000440 0.000000 1.668110 
# 
# From -- ./inp_files/261726.got.cif
#   From: 2010.06.25/outbox.cif.g09.slc.cpg/sg15_131_cif.got.tgz:261726.got - 2010.06.28 07:06:18.
