data_PCOD8132412
_publ_section_title
;
Structure prediction by ZEFSAII (Michael W. Deem and Ramdas Pophale) SiO2 
 PCOD8132412
Probable space group: C 2/C
;
_chemical_formula_sum "Si O2"
_cell_formula_units_Z 56
_cell_length_a 23.069945
_cell_length_b 27.439727
_cell_length_c 9.768156
_cell_angle_alpha 90.000000
_cell_angle_beta 151.018925
_cell_angle_gamma 90.000000
_cell_volume 2996.065278
_symmetry_space_group_name_H-M "C 2/C"
_symmetry_group_IT_number 15
_symmetry_cell_setting 'monoclinic'
loop_
_space_group_symop_operation_xyz
x,y,z
-x,y,1/2-z
-x,-y,-z
x,-y,1/2+z
1/2+x,1/2+y,z
1/2-x,1/2+y,1/2-z
1/2-x,1/2-y,-z
1/2+x,1/2-y,1/2+z
loop_
_atom_site_type_symbol
_atom_site_label
_atom_site_fract_x
_atom_site_fract_y
_atom_site_fract_z
Si Si1 0.920319 0.297486 0.212413
Si Si2 0.582131 0.518951 0.790698
Si Si3 0.112828 0.349081 0.082699
Si Si4 0.430187 0.605619 0.903126
Si Si5 0.418429 0.283480 0.348286
Si Si6 0.820573 0.920594 0.460934
Si Si7 0.273410 0.758598 0.322342
O O1 0.928905 0.338781 0.347412
O O2 0.000000 0.316779 0.250000
O O3 0.965398 0.244604 0.357631
O O4 0.785230 0.286061 0.884181
O O5 0.500000 0.527729 0.750000
O O6 0.500000 0.500000 0.500000
O O7 0.630930 0.571465 0.840309
O O8 0.687220 0.480049 0.047297
O O9 0.196180 0.397171 0.254480
O O10 0.190461 0.302530 0.200839
O O11 0.000000 0.357893 0.750000
O O12 0.437933 0.659981 0.864668
O O13 0.347817 0.599327 0.866068
O O14 0.568177 0.592482 0.213211
O O15 0.315180 0.278405 0.245969
O O16 0.389558 0.261177 0.140230
#
# Coordination Sequence:
#
# PCOD8132412 Si02
#       7
#     8   8   8   8   8   8   8
#     4  10  22  37  56  79 124 162 196 248 284 327
#     4  10  18  37  60  88 116 136 177 251 310 351
#     4  12  22  38  58  83 119 163 205 233 273 359
#     4  10  19  35  61  87 117 143 188 243 305 354
#     4  10  19  35  54  84 116 157 196 231 290 346
#     4  10  20  35  61  86 111 154 193 231 300 357
#     4  10  20  34  55  79 118 158 198 239 278 330
#
# _framework density 18.691181
#
# number of rings (size 3 to 8) (size 9 to 14) (size 15 to 20)
#    0.000    1.714    5.714    1.286    4.000    0.000 
#    7.714    0.000    0.000    0.857    0.000    3.000 
#    0.000    0.000    0.000    0.000    0.000    0.000 
#
# Total GULP energy -347049.137613 kJ/mol
# GULP energy per Si atom -12394.612058 kJ/mol
# Density = 1.864864 g / cm^3
# Si number density = 18.691181 Si / 1000 Ang^3
#
#
#
# Elastic Constant Matrix: (Units=GPa)
#
#
# Indices 1 2 3 4 5 6 
#
# 1 83.9610 46.2864 34.6461 0.0000 -9.4824 0.0000
# 2 46.2864 106.4264 18.5855 0.0000 -0.1250 0.0000
# 3 34.6461 18.5855 63.2192 0.0000 -4.9228 0.0000
# 4 0.0000 0.0000 0.0000 23.9395 0.0000 -2.8004
# 5 -9.4824 -0.1250 -4.9228 0.0000 23.3566 0.0000
# 6 0.0000 0.0000 0.0000 -2.8004 0.0000 20.4914
#
#
#
# Elastic Compliance Matrix: (Units=1/GPa)
#
#
# Indices 1 2 3 4 5 6 
#
# 1 0.020092 -0.007267 -0.008380 0.000000 0.006352 0.000000
# 2 -0.007267 0.012541 0.000073 0.000000 -0.002868 0.000000
# 3 -0.008380 0.000073 0.020460 0.000000 0.000911 0.000000
# 4 0.000000 0.000000 0.000000 0.042451 0.000000 0.005801
# 5 0.006352 -0.002868 0.000911 0.000000 0.045570 0.000000
# 6 0.000000 0.000000 0.000000 0.005801 0.000000 0.049594
#
#
# Mechanical properties :
#
#
# Convention : Reuss Voigt Hill
#
# Bulk Modulus (GPa) = 45.57182 50.29361 47.93272
# Shear Modulus (GPa) = 21.81778 23.83008 22.82393
#
# Velocity S-wave (km/s) = 3.42025 3.57450 3.49822
# Velocity P-wave (km/s) = 6.32707 6.63341 6.48205
#
# Compressibility (1/GPa) = 0.02194339
#
# Stress axis : x y z
#
# Youngs Moduli (GPa) = 49.77098 79.73946 48.87596
#
# Poissons Ratio (x) = 0.57950 0.40958
# Poissons Ratio (y) = 0.36171 -0.00355
# Poissons Ratio (z) = 0.41708 -0.00579
#
# Static dielectric constant tensor:
#      x y z
#    x 3.496690 0.000000 -0.179700 
#    y 0.000000 5.266190 0.000000 
#    z -0.179700 0.000000 3.380210 
# 
# 
# High freq. dielectric constant tensor:
#      x y z
#    x 1.725350 0.000000 -0.017570 
#    y 0.000000 1.712140 0.000000 
#    z -0.017570 0.000000 1.706530 
# 
# From -- ./inp_files/59376.got.cif
#   From: 2010.06.25/outbox.cif.g09.slc.cpg/sg15_30_cif.got.tgz:59376.got - 2010.06.28 07:06:18.
