data_PCOD8132652
_publ_section_title
;
Structure prediction by ZEFSAII (Michael W. Deem and Ramdas Pophale) SiO2 
 PCOD8132652
Probable space group: C 2/C
;
_chemical_formula_sum "Si O2"
_cell_formula_units_Z 56
_cell_length_a 22.124413
_cell_length_b 9.720197
_cell_length_c 14.021748
_cell_angle_alpha 90.000000
_cell_angle_beta 92.619238
_cell_angle_gamma 90.000000
_cell_volume 3012.277855
_symmetry_space_group_name_H-M "C 2/C"
_symmetry_group_IT_number 15
_symmetry_cell_setting 'monoclinic'
loop_
_space_group_symop_operation_xyz
x,y,z
-x,y,1/2-z
-x,-y,-z
x,-y,1/2+z
1/2+x,1/2+y,z
1/2-x,1/2+y,1/2-z
1/2-x,1/2-y,-z
1/2+x,1/2-y,1/2+z
loop_
_atom_site_type_symbol
_atom_site_label
_atom_site_fract_x
_atom_site_fract_y
_atom_site_fract_z
Si Si1 0.669503 0.161795 0.564193
Si Si2 0.563878 0.667198 0.970435
Si Si3 0.828202 0.422573 0.787235
Si Si4 0.928882 0.132333 0.944506
Si Si5 0.697121 0.706739 0.564956
Si Si6 0.250780 0.577332 0.398286
Si Si7 0.432287 0.264454 0.241464
O O1 0.604593 0.218679 0.525183
O O2 0.712549 0.281360 0.607355
O O3 0.702716 0.083180 0.480706
O O4 0.657784 0.054673 0.647490
O O5 0.492486 0.703438 0.978779
O O6 0.581340 0.658854 0.859568
O O7 0.576415 0.520390 0.016744
O O8 0.795311 0.299661 0.841391
O O9 0.783473 0.462518 0.700080
O O10 0.890901 0.369769 0.747807
O O11 0.872093 0.223174 0.980693
O O12 0.922264 0.128572 0.828164
O O13 0.750000 0.750000 0.500000
O O14 0.701664 0.544589 0.584546
O O15 0.500000 0.206587 0.250000
#
# Coordination Sequence:
#
# PCOD8132652 Si02
#       7
#     8   8   8   8   8   8   8
#     4  11  22  37  62  91 118 158 209 249 299 368
#     4  10  18  39  63  87 119 159 205 250 300 356
#     4  11  22  38  60  88 119 162 199 246 307 363
#     4   9  20  36  62  89 117 159 202 246 299 363
#     4  11  21  39  56  86 123 150 199 242 300 364
#     4  11  22  39  57  86 123 161 197 250 309 353
#     4   9  19  37  61  86 117 159 201 244 310 367
#
# _framework density 18.590582000000001
#
# number of rings (size 3 to 8) (size 9 to 14) (size 15 to 20)
#    0.000    1.714    4.286    0.857    0.000    0.000 
#    5.143    7.857    0.000    2.571    0.000    0.000 
#    0.000    0.000    0.000    0.000    0.000    0.000 
#
# Total GULP energy -347084.745871 kJ/mol
# GULP energy per Si atom -12395.883781 kJ/mol
# Density = 1.854827 g / cm^3
# Si number density = 18.590582 Si / 1000 Ang^3
#
#
#
# Elastic Constant Matrix: (Units=GPa)
#
#
# Indices 1 2 3 4 5 6 
#
# 1 136.6714 37.6171 63.4458 0.0000 -2.1271 0.0000
# 2 37.6171 80.9985 45.8679 0.0000 0.6219 0.0000
# 3 63.4458 45.8679 99.2852 0.0000 10.0024 0.0000
# 4 0.0000 0.0000 0.0000 30.3734 0.0000 0.4494
# 5 -2.1271 0.6219 10.0024 0.0000 30.7360 0.0000
# 6 0.0000 0.0000 0.0000 0.4494 0.0000 31.2926
#
#
#
# Elastic Compliance Matrix: (Units=1/GPa)
#
#
# Indices 1 2 3 4 5 6 
#
# 1 0.010773 -0.001302 -0.006577 0.000000 0.002912 0.000000
# 2 -0.001302 0.017029 -0.007229 0.000000 0.001918 0.000000
# 3 -0.006577 -0.007229 0.018243 0.000000 -0.006246 0.000000
# 4 0.000000 0.000000 0.000000 0.032931 0.000000 -0.000473
# 5 0.002912 0.001918 -0.006246 0.000000 0.034730 0.000000
# 6 0.000000 0.000000 0.000000 -0.000473 0.000000 0.031963
#
#
# Mechanical properties :
#
#
# Convention : Reuss Voigt Hill
#
# Bulk Modulus (GPa) = 63.16186 67.86854 65.51520
# Shear Modulus (GPa) = 27.59983 29.81536 28.70760
#
# Velocity S-wave (km/s) = 3.85725 4.00908 3.93390
# Velocity P-wave (km/s) = 7.34076 7.61685 7.48008
#
# Compressibility (1/GPa) = 0.01583234
#
# Stress axis : x y z
#
# Youngs Moduli (GPa) = 92.82170 58.72324 54.81478
#
# Poissons Ratio (x) = 0.07643 0.36049
# Poissons Ratio (y) = 0.12081 0.39623
# Poissons Ratio (z) = 0.61045 0.42449
#
# Static dielectric constant tensor:
#      x y z
#    x 3.799390 0.000000 -0.038050 
#    y 0.000000 3.317170 0.000000 
#    z -0.038050 0.000000 3.472910 
# 
# 
# High freq. dielectric constant tensor:
#      x y z
#    x 1.741600 0.000000 0.001290 
#    y 0.000000 1.707080 0.000000 
#    z 0.001290 0.000000 1.717730 
# 
# From -- ./inp_files/166647.got.cif
#   From: 2010.06.25/outbox.cif.g09.slc.cpg/sg15_84_cif.got.tgz:166647.got - 2010.06.28 07:06:18.
