data_PCOD8132390
_publ_section_title
;
Structure prediction by ZEFSAII (Michael W. Deem and Ramdas Pophale) SiO2 
 PCOD8132390
Probable space group: C 2/C
;
_chemical_formula_sum "Si O2"
_cell_formula_units_Z 60
_cell_length_a 24.951293
_cell_length_b 9.496884
_cell_length_c 24.104486
_cell_angle_alpha 90.000000
_cell_angle_beta 34.453162
_cell_angle_gamma 90.000000
_cell_volume 3231.343097
_symmetry_space_group_name_H-M "C 2/C"
_symmetry_group_IT_number 15
_symmetry_cell_setting 'monoclinic'
loop_
_space_group_symop_operation_xyz
x,y,z
-x,y,1/2-z
-x,-y,-z
x,-y,1/2+z
1/2+x,1/2+y,z
1/2-x,1/2+y,1/2-z
1/2-x,1/2-y,-z
1/2+x,1/2-y,1/2+z
loop_
_atom_site_type_symbol
_atom_site_label
_atom_site_fract_x
_atom_site_fract_y
_atom_site_fract_z
Si Si1 0.010863 0.333650 0.974832
Si Si2 0.281582 0.057369 0.326316
Si Si3 0.689494 0.991285 0.930290
Si Si4 0.000000 0.719244 0.250000
Si Si5 0.198776 0.786958 0.368855
Si Si6 0.297556 0.292359 0.403714
Si Si7 0.809753 0.282155 0.166424
Si Si8 0.006649 0.570359 0.360925
O O1 0.098300 0.255642 0.928981
O O2 0.016279 0.314550 0.902902
O O3 0.000000 0.500000 0.000000
O O4 0.921120 0.245478 0.073912
O O5 0.273280 0.163651 0.384246
O O6 0.252588 0.146947 0.296936
O O7 0.389717 0.996704 0.229937
O O8 0.205176 0.930687 0.399650
O O9 0.754785 0.059728 0.921287
O O10 0.697960 0.085141 0.868017
O O11 0.732370 0.839017 0.880020
O O12 0.581141 0.971614 0.045158
O O13 0.090450 0.816477 0.184566
O O14 0.019537 0.629404 0.177489
O O15 0.274731 0.825494 0.256738
O O16 0.250000 0.250000 0.500000
#
# Coordination Sequence:
#
# PCOD8132390 Si02
#       8
#     8   8   8   4   8   8   8   8
#     4  11  20  35  59  82 114 161 197 224 289 362
#     4  10  22  34  56  88 116 144 199 239 288 335
#     4  10  21  36  62  82 114 156 195 229 293 348
#     4  10  20  34  66  86 108 146 202 256 272 326
#     4  12  21  35  56  86 123 154 179 247 288 346
#     4  10  20  40  62  86 108 149 198 248 283 347
#     4  10  20  35  54  82 114 157 192 228 272 353
#     4  10  18  37  58  86 106 156 204 231 280 356
#
# _framework density 18.56813
#
# number of rings (size 3 to 8) (size 9 to 14) (size 15 to 20)
#    0.000    1.600    5.333    1.600    0.000    0.533 
#    0.000    2.000    0.000    0.800    0.000    0.000 
#    0.000    0.000    0.000    0.000    0.000    0.000 
#
# Total GULP energy -371682.225662 kJ/mol
# GULP energy per Si atom -12389.407522 kJ/mol
# Density = 1.852587 g / cm^3
# Si number density = 18.568130 Si / 1000 Ang^3
#
#
#
# Elastic Constant Matrix: (Units=GPa)
#
#
# Indices 1 2 3 4 5 6 
#
# 1 99.5848 34.0370 33.1410 0.0037 -8.6669 -0.0017
# 2 34.0370 80.7844 19.8744 0.0121 -12.1893 -0.0065
# 3 33.1410 19.8744 81.0807 0.0063 -5.1473 -0.0044
# 4 0.0037 0.0121 0.0063 20.1262 -0.0013 -8.1220
# 5 -8.6669 -12.1893 -5.1473 -0.0013 31.6610 0.0005
# 6 -0.0017 -0.0065 -0.0044 -8.1220 0.0005 17.2469
#
#
#
# Elastic Compliance Matrix: (Units=1/GPa)
#
#
# Indices 1 2 3 4 5 6 
#
# 1 0.013000 -0.004260 -0.004191 0.000001 0.001237 -0.000001
# 2 -0.004260 0.015265 -0.001719 -0.000007 0.004431 0.000001
# 3 -0.004191 -0.001719 0.014503 -0.000002 0.000549 0.000002
# 4 0.000001 -0.000007 -0.000002 0.061345 -0.000001 0.028889
# 5 0.001237 0.004431 0.000549 -0.000001 0.033719 0.000001
# 6 -0.000001 0.000001 0.000002 0.028889 0.000001 0.071586
#
#
# Mechanical properties :
#
#
# Convention : Reuss Voigt Hill
#
# Bulk Modulus (GPa) = 44.58742 48.39498 46.49120
# Shear Modulus (GPa) = 21.07640 25.43331 23.25485
#
# Velocity S-wave (km/s) = 3.37276 3.70500 3.54278
# Velocity P-wave (km/s) = 6.26357 6.66504 6.46742
#
# Compressibility (1/GPa) = 0.02242785
#
# Stress axis : x y z
#
# Youngs Moduli (GPa) = 76.92331 65.50958 68.95279
#
# Poissons Ratio (x) = 0.27904 0.28898
# Poissons Ratio (y) = 0.32766 0.11855
# Poissons Ratio (z) = 0.32238 0.11263
#
# Static dielectric constant tensor:
#      x y z
#    x 10.712120 0.000360 4.542880 
#    y 0.000360 3.159350 0.000210 
#    z 4.542880 0.000210 6.487330 
# 
# 
# High freq. dielectric constant tensor:
#      x y z
#    x 1.729740 0.000000 -0.004970 
#    y 0.000000 1.677270 0.000000 
#    z -0.004970 0.000000 1.732730 
# 
# From -- ./inp_files/284293.got.cif
#   From: 2010.06.25/outbox.cif.g09.slc.cpg/sg15_143_cif.got.tgz:284293.got - 2010.06.28 07:06:18.
