data_PCOD8132001
_publ_section_title
;
Structure prediction by ZEFSAII (Michael W. Deem and Ramdas Pophale) SiO2 
 PCOD8132001
Probable space group: C 2/C
;
_chemical_formula_sum "Si O2"
_cell_formula_units_Z 60
_cell_length_a 13.498804
_cell_length_b 12.362598
_cell_length_c 22.499563
_cell_angle_alpha 90.000000
_cell_angle_beta 128.751659
_cell_angle_gamma 90.000000
_cell_volume 2928.190374
_symmetry_space_group_name_H-M "C 2/C"
_symmetry_group_IT_number 15
_symmetry_cell_setting 'monoclinic'
loop_
_space_group_symop_operation_xyz
x,y,z
-x,y,1/2-z
-x,-y,-z
x,-y,1/2+z
1/2+x,1/2+y,z
1/2-x,1/2+y,1/2-z
1/2-x,1/2-y,-z
1/2+x,1/2-y,1/2+z
loop_
_atom_site_type_symbol
_atom_site_label
_atom_site_fract_x
_atom_site_fract_y
_atom_site_fract_z
Si Si1 0.825008 0.642466 0.275688
Si Si2 0.458357 0.826609 0.480571
Si Si3 0.594625 0.629046 0.113687
Si Si4 0.500000 0.022192 0.250000
Si Si5 0.569124 0.245467 0.401444
Si Si6 0.712093 0.043226 0.405397
Si Si7 0.312540 0.033202 0.392262
Si Si8 0.132607 0.008269 0.923330
O O1 0.690960 0.681447 0.198339
O O2 0.899270 0.589432 0.249609
O O3 0.791604 0.557670 0.315283
O O4 0.915626 0.737635 0.334746
O O5 0.481288 0.727089 0.444820
O O6 0.394758 0.781857 0.517077
O O7 0.592045 0.881470 0.542956
O O8 0.362528 0.911257 0.415356
O O9 0.666576 0.556650 0.091479
O O10 0.497212 0.549586 0.108954
O O11 0.599620 0.964484 0.334028
O O12 0.644311 0.160395 0.388402
O O13 0.609730 0.365903 0.401992
O O14 0.759709 0.992479 0.485100
O O15 0.182868 0.043904 0.381052
#
# Coordination Sequence:
#
# PCOD8132001 Si02
#       8
#     8   8   8   4   8   8   8   8
#     4   9  21  40  58  87 122 155 200 254 301 364
#     4  10  20  38  61  87 117 160 199 252 300 368
#     4  11  23  36  56  86 128 160 197 244 309 363
#     4   8  18  34  60  82 118 154 188 246 304 344
#     4  10  19  37  65  89 115 151 206 262 309 347
#     4  10  18  35  58  89 116 150 198 253 295 356
#     4  10  22  38  63  89 119 156 206 249 303 358
#     4  12  22  34  62  94 118 158 202 259 303 361
#
# _framework density 20.490470999999999
#
# number of rings (size 3 to 8) (size 9 to 14) (size 15 to 20)
#    0.000    1.867    2.667    1.600    1.867    2.133 
#    0.000    4.000    0.000    0.000    0.000    0.000 
#    0.000    0.000    0.000    0.000    0.000    0.000 
#
# Total GULP energy -371764.728056 kJ/mol
# GULP energy per Si atom -12392.157602 kJ/mol
# Density = 2.044383 g / cm^3
# Si number density = 20.490471 Si / 1000 Ang^3
#
#
#
# Elastic Constant Matrix: (Units=GPa)
#
#
# Indices 1 2 3 4 5 6 
#
# 1 135.8249 38.8459 26.6975 0.0000 -10.8812 0.0000
# 2 38.8459 34.4655 9.7179 0.0000 -5.1201 0.0000
# 3 26.6975 9.7179 103.6049 0.0000 -2.5148 0.0000
# 4 0.0000 0.0000 0.0000 11.9525 0.0000 1.0092
# 5 -10.8812 -5.1201 -2.5148 0.0000 32.8842 0.0000
# 6 0.0000 0.0000 0.0000 1.0092 0.0000 18.8715
#
#
#
# Elastic Compliance Matrix: (Units=1/GPa)
#
#
# Indices 1 2 3 4 5 6 
#
# 1 0.011258 -0.011941 -0.001739 0.000000 0.001733 0.000000
# 2 -0.011941 0.043128 -0.000903 0.000000 0.002695 0.000000
# 3 -0.001739 -0.000903 0.010186 0.000000 0.000063 0.000000
# 4 0.000000 0.000000 0.000000 0.084044 0.000000 -0.004494
# 5 0.001733 0.002695 0.000063 0.000000 0.031408 0.000000
# 6 0.000000 0.000000 0.000000 -0.004494 0.000000 0.053230
#
#
# Mechanical properties :
#
#
# Convention : Reuss Voigt Hill
#
# Bulk Modulus (GPa) = 28.24316 47.15754 37.70035
# Shear Modulus (GPa) = 18.23326 25.98389 22.10858
#
# Velocity S-wave (km/s) = 2.98626 3.56490 3.28833
# Velocity P-wave (km/s) = 5.06989 6.32527 5.73205
#
# Compressibility (1/GPa) = 0.03540680
#
# Stress axis : x y z
#
# Youngs Moduli (GPa) = 88.82335 23.18653 98.17040
#
# Poissons Ratio (x) = 0.27688 0.17071
# Poissons Ratio (y) = 1.06068 0.08863
# Poissons Ratio (z) = 0.15446 0.02093
#
# Static dielectric constant tensor:
#      x y z
#    x 3.755540 0.000000 0.023170 
#    y 0.000000 3.306710 0.000000 
#    z 0.023170 0.000000 4.267000 
# 
# 
# High freq. dielectric constant tensor:
#      x y z
#    x 1.808260 0.000000 -0.001530 
#    y 0.000000 1.749830 0.000000 
#    z -0.001530 0.000000 1.819230 
# 
# From -- ./inp_files/273876.got.cif
#   From: 2010.06.25/outbox.cif.g09.slc.cpg/sg15_137_cif.got.tgz:273876.got - 2010.06.28 07:06:18.
