data_PCOD8132864
_publ_section_title
;
Structure prediction by ZEFSAII (Michael W. Deem and Ramdas Pophale) SiO2 
 PCOD8132864
Probable space group: C 2/C
;
_chemical_formula_sum "Si O2"
_cell_formula_units_Z 64
_cell_length_a 26.000181
_cell_length_b 18.433855
_cell_length_c 8.639815
_cell_angle_alpha 90.000000
_cell_angle_beta 90.000000
_cell_angle_gamma 90.000000
_cell_volume 4140.921347
_symmetry_space_group_name_H-M "C 2/C"
_symmetry_group_IT_number 15
_symmetry_cell_setting 'monoclinic'
loop_
_space_group_symop_operation_xyz
x,y,z
-x,y,1/2-z
-x,-y,-z
x,-y,1/2+z
1/2+x,1/2+y,z
1/2-x,1/2+y,1/2-z
1/2-x,1/2-y,-z
1/2+x,1/2-y,1/2+z
loop_
_atom_site_type_symbol
_atom_site_label
_atom_site_fract_x
_atom_site_fract_y
_atom_site_fract_z
Si Si1 0.352058 0.843302 0.819680
Si Si2 0.195076 0.212846 0.170115
Si Si3 0.695076 0.287154 0.329885
Si Si4 0.754349 0.422336 0.683599
Si Si5 0.554847 0.922637 0.182721
Si Si6 0.254349 0.922336 0.316401
Si Si7 0.445153 0.077363 0.182721
Si Si8 0.352058 0.156698 0.680320
O O1 0.340269 0.758174 0.788043
O O2 0.306768 0.895210 0.761142
O O3 0.404019 0.862302 0.729983
O O4 0.360133 0.855906 0.000000
O O5 0.250000 0.250000 0.156470
O O6 0.206333 0.130613 0.227035
O O7 0.159731 0.258174 0.288043
O O8 0.168849 0.213001 1.000000
O O9 0.706333 0.369387 0.272965
O O10 0.763073 0.424623 0.500000
O O11 0.739129 0.500000 0.750000
O O12 0.500000 0.898737 0.250000
O O13 0.595981 0.862302 0.229983
O O14 0.572475 0.000000 0.250000
O O15 0.550704 0.929020 1.000000
O O16 0.306768 0.895210 0.238858
O O17 0.500000 0.101263 0.250000
#
# Coordination Sequence:
#
# PCOD8132864 Si02
#       8
#     8   8   8   8   8   8   8   8
#     4  11  20  30  45  64  86 115 149 180 215 257
#     4   8  16  30  44  60  84 113 143 178 217 254
#     4   8  16  30  44  60  84 113 143 178 217 254
#     4  10  19  30  44  63  88 116 147 181 217 256
#     4  11  21  34  48  64  87 113 145 182 219 255
#     4  10  19  30  44  63  88 116 147 181 217 256
#     4  11  21  34  48  64  87 113 145 182 219 255
#     4  11  20  30  45  64  86 115 149 180 215 257
#
# _framework density 15.455496999999999
#
# number of rings (size 3 to 8) (size 9 to 14) (size 15 to 20)
#    0.000    2.000    0.000    8.250    0.000    5.500 
#    0.000    0.000    0.000    0.000    0.000    0.000 
#    0.000    1.000    0.000   10.500    0.000    5.750 
#
# Total GULP energy -396734.661554 kJ/mol
# GULP energy per Si atom -12397.958174 kJ/mol
# Density = 1.542032 g / cm^3
# Si number density = 15.455497 Si / 1000 Ang^3
#
#
#
# Elastic Constant Matrix: (Units=GPa)
#
#
# Indices 1 2 3 4 5 6 
#
# 1 66.3596 42.4724 35.1745 0.0000 0.0000 0.0000
# 2 42.4724 110.4282 37.4965 0.0000 0.0000 0.0000
# 3 35.1745 37.4965 115.1158 0.0000 0.0000 0.0000
# 4 0.0000 0.0000 0.0000 -0.0426 0.0000 -0.0002
# 5 0.0000 0.0000 0.0000 0.0000 21.5801 0.0000
# 6 0.0000 0.0000 0.0000 -0.0002 0.0000 16.2488
#
#
#
# Elastic Compliance Matrix: (Units=1/GPa)
#
#
# Indices 1 2 3 4 5 6 
#
# 1 0.021826 -0.006892 -0.004424 0.000000 0.000000 0.000000
# 2 -0.006892 0.012358 -0.001919 0.000000 0.000000 0.000000
# 3 -0.004424 -0.001919 0.010664 0.000000 0.000000 0.000000
# 4 0.000000 0.000000 0.000000-23.496496 0.000000 -0.000229
# 5 0.000000 0.000000 0.000000 0.000000 0.046339 0.000000
# 6 0.000000 0.000000 0.000000 -0.000229 0.000000 0.061543
#
#
# Mechanical properties :
#
#
# Convention : Reuss Voigt Hill
#
# Bulk Modulus (GPa) = 54.41756 58.02113 56.21934
# Shear Modulus (GPa) = -0.21449 19.34127 9.56339
#
# Velocity S-wave (km/s) = -0.37293 3.54138 2.49021
# Velocity P-wave (km/s) = 5.92454 7.37184 6.68746
#
# Compressibility (1/GPa) = 0.01837642
#
# Stress axis : x y z
#
# Youngs Moduli (GPa) = 45.81754 80.91725 93.77430
#
# Poissons Ratio (x) = 0.55771 0.41486
# Poissons Ratio (y) = 0.31579 0.18000
# Poissons Ratio (z) = 0.20270 0.15532
#
# Static dielectric constant tensor:
#      x y z
#    x 2.750660 0.000000 0.000000 
#    y 0.000000 3.317650 0.000000 
#    z 0.000000 0.000000 3.064670 
# 
# 
# High freq. dielectric constant tensor:
#      x y z
#    x 1.554970 0.000000 0.000000 
#    y 0.000000 1.585360 0.000000 
#    z 0.000000 0.000000 1.610180 
# 
# From -- ./inp_files/66720.got.cif
#   From: 2010.06.25/outbox.cif.g09.slc.cpg/sg15_34_cif.got.tgz:66720.got - 2010.06.28 07:06:18.
