data_PCOD8132700
_publ_section_title
;
Structure prediction by ZEFSAII (Michael W. Deem and Ramdas Pophale) SiO2 
 PCOD8132700
Probable space group: C 2/C
;
_chemical_formula_sum "Si O2"
_cell_formula_units_Z 56
_cell_length_a 11.449998
_cell_length_b 30.772138
_cell_length_c 8.476296
_cell_angle_alpha 90.000000
_cell_angle_beta 106.822522
_cell_angle_gamma 90.000000
_cell_volume 2858.739105
_symmetry_space_group_name_H-M "C 2/C"
_symmetry_group_IT_number 15
_symmetry_cell_setting 'monoclinic'
loop_
_space_group_symop_operation_xyz
x,y,z
-x,y,1/2-z
-x,-y,-z
x,-y,1/2+z
1/2+x,1/2+y,z
1/2-x,1/2+y,1/2-z
1/2-x,1/2-y,-z
1/2+x,1/2-y,1/2+z
loop_
_atom_site_type_symbol
_atom_site_label
_atom_site_fract_x
_atom_site_fract_y
_atom_site_fract_z
Si Si1 0.500000 0.870837 0.250000
Si Si2 0.125029 0.303094 0.509880
Si Si3 0.834463 0.394432 0.457680
Si Si4 0.091614 0.051050 0.560435
Si Si5 0.384034 0.640033 0.812718
Si Si6 0.600205 0.293290 0.912614
Si Si7 0.500000 0.844142 0.750000
Si Si8 0.840898 0.969746 0.063730
O O1 0.602418 0.840247 0.370551
O O2 0.434669 0.900813 0.356768
O O3 0.267236 0.301242 0.609370
O O4 0.075484 0.257528 0.425677
O O5 0.053126 0.312550 0.640049
O O6 0.731748 0.361114 0.350353
O O7 0.781623 0.440708 0.497398
O O8 0.894180 0.373874 0.635611
O O9 0.130674 0.101423 0.562610
O O10 0.115456 0.034077 0.743372
O O11 0.944859 0.046213 0.478102
O O12 0.175417 0.021529 0.476887
O O13 0.500000 0.629772 0.750000
O O14 0.403804 0.684439 0.915816
O O15 0.500000 0.311839 0.750000
#
# Coordination Sequence:
#
# PCOD8132700 Si02
#       8
#     4   8   8   8   8   8   4   8
#     4  10  18  40  62  75 118 174 204 235 306 352
#     4  10  22  41  57  87 119 165 202 252 304 356
#     4  10  20  39  61  88 116 161 208 248 291 370
#     4   9  17  34  55  87 115 151 179 239 315 359
#     4  11  21  38  60  89 122 154 195 256 316 357
#     4  11  24  39  60  91 124 155 209 260 301 363
#     4  10  24  38  64  87 118 170 212 241 298 364
#     4   9  17  34  57  82 118 148 191 236 296 371
#
# _framework density 19.589054999999998
#
# number of rings (size 3 to 8) (size 9 to 14) (size 15 to 20)
#    0.000    2.000    5.000    0.000    3.000    0.000 
#    7.714    1.429    0.000   10.286    0.000    0.000 
#    0.000    0.000    0.000    0.000    0.000    0.000 
#
# Total GULP energy -347026.673191 kJ/mol
# GULP energy per Si atom -12393.809757 kJ/mol
# Density = 1.954447 g / cm^3
# Si number density = 19.589055 Si / 1000 Ang^3
#
#
#
# Elastic Constant Matrix: (Units=GPa)
#
#
# Indices 1 2 3 4 5 6 
#
# 1 84.8635 47.2963 34.5555 0.0000 8.7151 0.0000
# 2 47.2963 88.8790 16.4136 0.0000 -0.8019 0.0000
# 3 34.5555 16.4136 60.0783 0.0000 17.2957 0.0000
# 4 0.0000 0.0000 0.0000 24.9463 0.0000 -5.4952
# 5 8.7151 -0.8019 17.2957 0.0000 32.4254 0.0000
# 6 0.0000 0.0000 0.0000 -5.4952 0.0000 36.4035
#
#
#
# Elastic Compliance Matrix: (Units=1/GPa)
#
#
# Indices 1 2 3 4 5 6 
#
# 1 0.020855 -0.009417 -0.009146 0.000000 -0.000960 0.000000
# 2 -0.009417 0.016260 0.000153 0.000000 0.002851 0.000000
# 3 -0.009146 0.000153 0.024993 0.000000 -0.010869 0.000000
# 4 0.000000 0.000000 0.000000 0.041465 0.000000 0.006259
# 5 -0.000960 0.002851 -0.010869 0.000000 0.036966 0.000000
# 6 0.000000 0.000000 0.000000 0.006259 0.000000 0.028415
#
#
# Mechanical properties :
#
#
# Convention : Reuss Voigt Hill
#
# Bulk Modulus (GPa) = 39.54512 47.81686 43.68099
# Shear Modulus (GPa) = 23.34242 27.79207 25.56724
#
# Velocity S-wave (km/s) = 3.45571 3.77072 3.61665
# Velocity P-wave (km/s) = 6.01280 6.58944 6.30771
#
# Compressibility (1/GPa) = 0.02528757
#
# Stress axis : x y z
#
# Youngs Moduli (GPa) = 47.95041 61.50047 40.01174
#
# Poissons Ratio (x) = 0.57917 0.36595
# Poissons Ratio (y) = 0.45157 -0.00614
# Poissons Ratio (z) = 0.43856 -0.00944
#
# Static dielectric constant tensor:
#      x y z
#    x 3.679010 0.000000 0.122330 
#    y 0.000000 3.656770 0.000000 
#    z 0.122330 0.000000 3.521660 
# 
# 
# High freq. dielectric constant tensor:
#      x y z
#    x 1.758500 0.000000 0.003880 
#    y 0.000000 1.752620 0.000000 
#    z 0.003880 0.000000 1.754700 
# 
# From -- ./inp_files/35334.got.cif
#   From: 2010.06.25/outbox.cif.g09.slc.cpg/sg15_18_cif.got.tgz:35334.got - 2010.06.28 07:06:18.
