data_PCOD8132261
_publ_section_title
;
Structure prediction by ZEFSAII (Michael W. Deem and Ramdas Pophale) SiO2 
 PCOD8132261
Probable space group: C 2/C
;
_chemical_formula_sum "Si O2"
_cell_formula_units_Z 44
_cell_length_a 15.912512
_cell_length_b 28.861843
_cell_length_c 9.532151
_cell_angle_alpha 90.000000
_cell_angle_beta 149.639880
_cell_angle_gamma 90.000000
_cell_volume 2212.674695
_symmetry_space_group_name_H-M "C 2/C"
_symmetry_group_IT_number 15
_symmetry_cell_setting 'monoclinic'
loop_
_space_group_symop_operation_xyz
x,y,z
-x,y,1/2-z
-x,-y,-z
x,-y,1/2+z
1/2+x,1/2+y,z
1/2-x,1/2+y,1/2-z
1/2-x,1/2-y,-z
1/2+x,1/2-y,1/2+z
loop_
_atom_site_type_symbol
_atom_site_label
_atom_site_fract_x
_atom_site_fract_y
_atom_site_fract_z
Si Si1 0.457215 0.209544 0.418431
Si Si2 0.733248 0.421688 0.987060
Si Si3 0.230866 0.199817 0.828567
Si Si4 0.500000 0.144534 0.750000
Si Si5 0.862396 0.099227 0.859467
Si Si6 0.381339 0.517219 0.709523
O O1 0.636230 0.207898 0.603198
O O2 0.413279 0.261986 0.399388
O O3 0.457305 0.176237 0.554046
O O4 0.313978 0.196816 0.101334
O O5 0.545651 0.413663 0.670781
O O6 0.761283 0.477789 0.019838
O O7 0.847869 0.390510 0.053979
O O8 0.763791 0.406980 0.192021
O O9 0.134973 0.152030 0.680790
O O10 0.800107 0.066038 0.642151
O O11 0.500000 0.526617 0.750000
O O12 0.500000 0.500000 0.000000
#
# Coordination Sequence:
#
# PCOD8132261 Si02
#       6
#     8   8   8   4   8   8
#     4  10  24  41  62  87 130 155 207 253 303 367
#     4  10  21  38  60  94 127 155 204 260 300 368
#     4  10  22  44  61  89 120 165 203 256 303 364
#     4  12  24  40  62  96 128 164 196 256 318 366
#     4  10  20  39  67  84 122 165 208 250 309 360
#     4  10  18  36  61  89 116 154 205 253 292 355
#
# _framework density 19.885435000000001
#
# number of rings (size 3 to 8) (size 9 to 14) (size 15 to 20)
#    0.000    1.818    5.455    0.000    2.545    5.091 
#    3.273    2.727    0.000    0.000    0.000    0.000 
#    0.000    0.000    0.000    0.000    0.000    0.000 
#
# Total GULP energy -272615.197971 kJ/mol
# GULP energy per Si atom -12391.599908 kJ/mol
# Density = 1.984017 g / cm^3
# Si number density = 19.885435 Si / 1000 Ang^3
#
#
#
# Elastic Constant Matrix: (Units=GPa)
#
#
# Indices 1 2 3 4 5 6 
#
# 1 118.7344 75.8151 32.2432 0.0000 -23.4087 0.0000
# 2 75.8151 189.2210 30.8136 0.0000 -7.6151 0.0000
# 3 32.2432 30.8136 32.5415 0.0000 -7.8943 0.0000
# 4 0.0000 0.0000 0.0000 18.4678 0.0000 -8.4203
# 5 -23.4087 -7.6151 -7.8943 0.0000 23.5735 0.0000
# 6 0.0000 0.0000 0.0000 -8.4203 0.0000 36.3333
#
#
#
# Elastic Compliance Matrix: (Units=1/GPa)
#
#
# Indices 1 2 3 4 5 6 
#
# 1 0.015920 -0.004495 -0.008746 0.000000 0.011428 0.000000
# 2 -0.004495 0.007517 -0.003438 0.000000 -0.003186 0.000000
# 3 -0.008746 -0.003438 0.043836 0.000000 0.004885 0.000000
# 4 0.000000 0.000000 0.000000 0.060546 0.000000 0.014032
# 5 0.011428 -0.003186 0.004885 0.000000 0.054375 0.000000
# 6 0.000000 0.000000 0.000000 0.014032 0.000000 0.030775
#
#
# Mechanical properties :
#
#
# Convention : Reuss Voigt Hill
#
# Bulk Modulus (GPa) = 29.48381 68.69340 49.08861
# Shear Modulus (GPa) = 19.40761 29.11659 24.26210
#
# Velocity S-wave (km/s) = 3.12744 3.83066 3.49677
# Velocity P-wave (km/s) = 5.28207 7.36104 6.40644
#
# Compressibility (1/GPa) = 0.03391692
#
# Stress axis : x y z
#
# Youngs Moduli (GPa) = 62.81358 133.02759 22.81247
#
# Poissons Ratio (x) = 0.59790 0.19952
# Poissons Ratio (y) = 0.28232 0.07842
# Poissons Ratio (z) = 0.54936 0.45730
#
# Static dielectric constant tensor:
#      x y z
#    x 3.921850 0.000000 -0.292650 
#    y 0.000000 4.778440 0.000000 
#    z -0.292650 0.000000 3.431980 
# 
# 
# High freq. dielectric constant tensor:
#      x y z
#    x 1.783290 0.000000 -0.019100 
#    y 0.000000 1.797910 0.000000 
#    z -0.019100 0.000000 1.742900 
# 
# From -- ./inp_files/26228.got.cif
#   From: 2010.06.25/outbox.cif.g09.slc.cpg/sg15_14_cif.got.tgz:26228.got - 2010.06.28 07:06:18.
