data_PCOD8132005
_publ_section_title
;
Structure prediction by ZEFSAII (Michael W. Deem and Ramdas Pophale) SiO2 
 PCOD8132005
Probable space group: C 2/C
;
_chemical_formula_sum "Si O2"
_cell_formula_units_Z 36
_cell_length_a 12.446265
_cell_length_b 17.607158
_cell_length_c 16.165978
_cell_angle_alpha 90.000000
_cell_angle_beta 151.513035
_cell_angle_gamma 90.000000
_cell_volume 1689.706081
_symmetry_space_group_name_H-M "C 2/C"
_symmetry_group_IT_number 15
_symmetry_cell_setting 'monoclinic'
loop_
_space_group_symop_operation_xyz
x,y,z
-x,y,1/2-z
-x,-y,-z
x,-y,1/2+z
1/2+x,1/2+y,z
1/2-x,1/2+y,1/2-z
1/2-x,1/2-y,-z
1/2+x,1/2-y,1/2+z
loop_
_atom_site_type_symbol
_atom_site_label
_atom_site_fract_x
_atom_site_fract_y
_atom_site_fract_z
Si Si1 0.291990 0.026315 0.250842
Si Si2 0.805819 0.976439 0.486358
Si Si3 0.753416 0.829502 0.547047
Si Si4 0.500000 0.409704 0.250000
Si Si5 0.584173 0.117730 0.557322
O O1 0.434167 0.098835 0.375807
O O2 0.034212 0.046751 0.093973
O O3 0.371481 0.954820 0.356683
O O4 0.347747 0.011796 0.191566
O O5 0.694025 0.899543 0.446321
O O6 0.846467 0.036054 0.587962
O O7 0.750000 0.750000 0.500000
O O8 0.556614 0.821976 0.483559
O O9 0.000000 0.846969 0.750000
O O10 0.669075 0.356145 0.310485
#
# Coordination Sequence:
#
# PCOD8132005 Si02
#       5
#     8   8   8   4   8
#     4   9  18  32  60  88 122 155 187 261 309 352
#     4  10  18  35  58  92 123 151 202 244 315 348
#     4  12  25  40  58  87 125 166 201 240 286 365
#     4  10  20  36  62  90 120 152 188 262 310 352
#     4  10  20  37  56  87 123 152 202 246 301 351
#
# _framework density 21.305481
#
# number of rings (size 3 to 8) (size 9 to 14) (size 15 to 20)
#    0.000    1.778    3.333    2.667    3.111    2.667 
#    0.000    0.000    0.000    1.333    0.000    0.000 
#    0.000    0.000    0.000    0.000    0.000    0.000 
#
# Total GULP energy -223061.297143 kJ/mol
# GULP energy per Si atom -12392.294286 kJ/mol
# Density = 2.125699 g / cm^3
# Si number density = 21.305481 Si / 1000 Ang^3
#
#
#
# Elastic Constant Matrix: (Units=GPa)
#
#
# Indices 1 2 3 4 5 6 
#
# 1 192.4316 57.6802 46.6848 -0.0148 19.0289 -0.0146
# 2 57.6802 54.8390 28.6084 0.2000 5.2071 0.0106
# 3 46.6848 28.6084 66.1102 0.1288 -31.0173 0.0142
# 4 -0.0148 0.2000 0.1288 13.8245 -0.0224 -3.5723
# 5 19.0289 5.2071 -31.0173 -0.0224 46.9264 -0.0191
# 6 -0.0146 0.0106 0.0142 -3.5723 -0.0191 32.3498
#
#
#
# Elastic Compliance Matrix: (Units=1/GPa)
#
#
# Indices 1 2 3 4 5 6 
#
# 1 0.009843 -0.004318 -0.009755 0.000153 -0.009960 0.000021
# 2 -0.004318 0.033403 -0.017861 -0.000357 -0.013761 -0.000053
# 3 -0.009755 -0.017861 0.047152 -0.000134 0.037104 -0.000012
# 4 0.000153 -0.000357 -0.000134 0.074467 -0.000072 0.008223
# 5 -0.009960 -0.013761 0.037104 -0.000072 0.051401 0.000006
# 6 0.000021 -0.000053 -0.000012 0.008223 0.000006 0.031820
#
#
# Mechanical properties :
#
#
# Convention : Reuss Voigt Hill
#
# Bulk Modulus (GPa) = 37.69365 64.36973 51.03169
# Shear Modulus (GPa) = 15.58618 30.64731 23.11675
#
# Velocity S-wave (km/s) = 2.70767 3.79683 3.29753
# Velocity P-wave (km/s) = 5.24459 7.03559 6.20505
#
# Compressibility (1/GPa) = 0.02652967
#
# Stress axis : x y z
#
# Youngs Moduli (GPa) = 101.59995 29.93743 21.20783
#
# Poissons Ratio (x) = 0.12928 0.20688
# Poissons Ratio (y) = 0.43875 0.37879
# Poissons Ratio (z) = 0.99109 0.53471
#
# Static dielectric constant tensor:
#      x y z
#    x 4.536680 0.000100 0.156620 
#    y 0.000100 3.146920 -0.000040 
#    z 0.156620 -0.000040 4.334320 
# 
# 
# High freq. dielectric constant tensor:
#      x y z
#    x 1.869800 0.000000 0.010920 
#    y 0.000000 1.753110 -0.000010 
#    z 0.010920 -0.000010 1.856560 
# 
# From -- ./inp_files/29802.got.cif
#   From: 2010.06.25/outbox.cif.g09.slc.cpg/sg15_15_cif.got.tgz:29802.got - 2010.06.28 07:06:18.
