data_PCOD8132258
_publ_section_title
;
Structure prediction by ZEFSAII (Michael W. Deem and Ramdas Pophale) SiO2 
 PCOD8132258
Probable space group: C 2/C
;
_chemical_formula_sum "Si O2"
_cell_formula_units_Z 64
_cell_length_a 11.635665
_cell_length_b 16.033851
_cell_length_c 26.543482
_cell_angle_alpha 90.000000
_cell_angle_beta 138.563210
_cell_angle_gamma 90.000000
_cell_volume 3277.248434
_symmetry_space_group_name_H-M "C 2/C"
_symmetry_group_IT_number 15
_symmetry_cell_setting 'monoclinic'
loop_
_space_group_symop_operation_xyz
x,y,z
-x,y,1/2-z
-x,-y,-z
x,-y,1/2+z
1/2+x,1/2+y,z
1/2-x,1/2+y,1/2-z
1/2-x,1/2-y,-z
1/2+x,1/2-y,1/2+z
loop_
_atom_site_type_symbol
_atom_site_label
_atom_site_fract_x
_atom_site_fract_y
_atom_site_fract_z
Si Si1 0.813875 0.635955 0.101243
Si Si2 0.322657 0.571565 0.163507
Si Si3 0.536336 0.617329 0.562889
Si Si4 0.516374 0.553765 0.850413
Si Si5 0.241347 0.311001 0.111662
Si Si6 0.013900 0.308256 0.566006
Si Si7 0.677183 0.924457 0.178741
Si Si8 0.402661 0.960500 0.166251
O O1 0.816265 0.717270 0.137643
O O2 0.901081 0.560867 0.160359
O O3 0.909415 0.653884 0.079201
O O4 0.612035 0.611640 0.027842
O O5 0.500000 0.595947 0.250000
O O6 0.388359 0.533064 0.132236
O O7 0.202780 0.652070 0.118342
O O8 0.200716 0.502723 0.149555
O O9 0.471225 0.557839 0.586021
O O10 0.550744 0.711435 0.588681
O O11 0.716353 0.582993 0.601279
O O12 0.600054 0.629879 0.848539
O O13 0.317913 0.562312 0.768628
O O14 0.177942 0.338433 0.146624
O O15 0.094583 0.321276 0.020640
O O16 0.495281 0.923652 0.147525
O O17 0.500000 0.937243 0.250000
#
# Coordination Sequence:
#
# PCOD8132258 Si02
#       8
#     8   8   8   8   8   8   8   8
#     4  11  22  41  61  89 121 156 202 247 290 361
#     4   9  20  35  57  87 120 146 196 251 297 341
#     4  11  22  40  61  86 122 158 197 244 303 352
#     4  10  18  36  61  87 117 154 196 246 295 345
#     4  10  20  37  63  91 116 155 202 246 291 350
#     4  11  20  38  63  90 118 154 201 246 296 354
#     4  10  21  38  59  87 124 154 195 249 295 356
#     4  12  25  40  60  86 123 159 200 244 303 359
#
# _framework density 19.528578
#
# number of rings (size 3 to 8) (size 9 to 14) (size 15 to 20)
#    0.000    1.500    5.000    2.250    0.000    4.500 
#    0.000    3.750    0.000    0.000    0.000    0.000 
#    0.000    0.000    0.000    0.000    0.000    0.000 
#
# Total GULP energy -396678.457470 kJ/mol
# GULP energy per Si atom -12396.201796 kJ/mol
# Density = 1.948413 g / cm^3
# Si number density = 19.528578 Si / 1000 Ang^3
#
#
#
# Elastic Constant Matrix: (Units=GPa)
#
#
# Indices 1 2 3 4 5 6 
#
# 1 99.1277 40.5349 18.1404 0.0000 19.7509 0.0000
# 2 40.5349 52.3620 23.0714 0.0000 9.3196 0.0000
# 3 18.1404 23.0714 21.4670 0.0000 8.6019 0.0000
# 4 0.0000 0.0000 0.0000 20.4573 0.0000 -8.8860
# 5 19.7509 9.3196 8.6019 0.0000 26.7979 0.0000
# 6 0.0000 0.0000 0.0000 -8.8860 0.0000 19.7521
#
#
#
# Elastic Compliance Matrix: (Units=1/GPa)
#
#
# Indices 1 2 3 4 5 6 
#
# 1 0.016358 -0.012461 0.003057 0.000000 -0.008704 0.000000
# 2 -0.012461 0.045769 -0.041270 0.000000 0.006514 0.000000
# 3 0.003057 -0.041270 0.095832 0.000000 -0.018662 0.000000
# 4 0.000000 0.000000 0.000000 0.060755 0.000000 0.027332
# 5 -0.008704 0.006514 -0.018662 0.000000 0.047456 0.000000
# 6 0.000000 0.000000 0.000000 0.027332 0.000000 0.062924
#
#
# Mechanical properties :
#
#
# Convention : Reuss Voigt Hill
#
# Bulk Modulus (GPa) = 17.66440 37.38335 27.52387
# Shear Modulus (GPa) = 11.12812 19.48212 15.30512
#
# Velocity S-wave (km/s) = 2.38972 3.16194 2.80255
# Velocity P-wave (km/s) = 4.08404 5.70219 4.95955
#
# Compressibility (1/GPa) = 0.05661103
#
# Stress axis : x y z
#
# Youngs Moduli (GPa) = 61.13034 21.84890 10.43496
#
# Poissons Ratio (x) = 0.27226 -0.03190
# Poissons Ratio (y) = 0.76176 0.43065
# Poissons Ratio (z) = -0.18686 0.90170
#
# Static dielectric constant tensor:
#      x y z
#    x 3.684930 0.000000 0.056450 
#    y 0.000000 3.621750 0.000000 
#    z 0.056450 0.000000 3.442620 
# 
# 
# High freq. dielectric constant tensor:
#      x y z
#    x 1.762150 0.000000 0.008990 
#    y 0.000000 1.753120 0.000000 
#    z 0.008990 0.000000 1.756380 
# 
# From -- ./inp_files/238759.got.cif
#   From: 2010.06.25/outbox.cif.g09.slc.cpg/sg15_120_cif.got.tgz:238759.got - 2010.06.28 07:06:18.
