data_PCOD8132800
_publ_section_title
;
Structure prediction by ZEFSAII (Michael W. Deem and Ramdas Pophale) SiO2 
 PCOD8132800
Probable space group: C 2/C
;
_chemical_formula_sum "Si O2"
_cell_formula_units_Z 36
_cell_length_a 20.530716
_cell_length_b 11.894768
_cell_length_c 14.425127
_cell_angle_alpha 90.000000
_cell_angle_beta 26.134813
_cell_angle_gamma 90.000000
_cell_volume 1551.710060
_symmetry_space_group_name_H-M "C 2/C"
_symmetry_group_IT_number 15
_symmetry_cell_setting 'monoclinic'
loop_
_space_group_symop_operation_xyz
x,y,z
-x,y,1/2-z
-x,-y,-z
x,-y,1/2+z
1/2+x,1/2+y,z
1/2-x,1/2+y,1/2-z
1/2-x,1/2-y,-z
1/2+x,1/2-y,1/2+z
loop_
_atom_site_type_symbol
_atom_site_label
_atom_site_fract_x
_atom_site_fract_y
_atom_site_fract_z
Si Si1 0.175217 0.481548 0.270952
Si Si2 0.500000 0.880845 0.250000
Si Si3 0.205996 0.974856 0.680358
Si Si4 0.841308 0.859823 0.411868
Si Si5 0.368427 0.239408 0.768533
O O1 0.259721 0.491216 0.259544
O O2 0.195673 0.350469 0.221358
O O3 0.000000 0.500000 0.500000
O O4 0.248561 0.566183 0.103729
O O5 0.356478 0.958321 0.429269
O O6 0.485640 0.806572 0.363491
O O7 0.105955 0.861029 0.810808
O O8 0.122288 0.070666 0.729029
O O9 0.750000 0.750000 0.500000
O O10 0.000000 0.823375 0.250000
O O11 0.250000 0.250000 0.000000
#
# Coordination Sequence:
#
# PCOD8132800 Si02
#       5
#     8   4   8   8   8
#     4  12  25  47  80 113 147 204 258 315 385 459
#     4  10  18  42  72 104 144 192 236 318 378 440
#     4  11  24  43  74 106 148 193 257 309 377 455
#     4  12  31  51  75 110 163 207 252 321 400 462
#     4  10  21  39  69 107 145 187 240 308 376 443
#
# _framework density 23.200209999999998
#
# number of rings (size 3 to 8) (size 9 to 14) (size 15 to 20)
#    0.000    0.889    6.667    0.000    9.333    0.889 
#    0.000    0.000    0.000    0.000    0.000    0.000 
#    0.000    0.000    0.000    0.000    0.000    0.000 
#
# Total GULP energy -223074.190101 kJ/mol
# GULP energy per Si atom -12393.010561 kJ/mol
# Density = 2.314741 g / cm^3
# Si number density = 23.200210 Si / 1000 Ang^3
#
#
#
# Elastic Constant Matrix: (Units=GPa)
#
#
# Indices 1 2 3 4 5 6 
#
# 1 208.8634 96.5529 25.7761 0.0000 8.9314 0.0000
# 2 96.5529 189.3894 24.0516 0.0000 5.5665 0.0000
# 3 25.7761 24.0516 75.9419 0.0000 -6.0660 0.0000
# 4 0.0000 0.0000 0.0000 22.2119 0.0000 4.8301
# 5 8.9314 5.5665 -6.0660 0.0000 36.2020 0.0000
# 6 0.0000 0.0000 0.0000 4.8301 0.0000 56.4813
#
#
#
# Elastic Compliance Matrix: (Units=1/GPa)
#
#
# Indices 1 2 3 4 5 6 
#
# 1 0.006426 -0.003070 -0.001315 0.000000 -0.001334 0.000000
# 2 -0.003070 0.007016 -0.001222 0.000000 -0.000526 0.000000
# 3 -0.001315 -0.001222 0.014233 0.000000 0.002897 0.000000
# 4 0.000000 0.000000 0.000000 0.045874 0.000000 -0.003923
# 5 -0.001334 -0.000526 0.002897 0.000000 0.028518 0.000000
# 6 0.000000 0.000000 0.000000 -0.003923 0.000000 0.018040
#
#
# Mechanical properties :
#
#
# Convention : Reuss Voigt Hill
#
# Bulk Modulus (GPa) = 60.75254 85.21733 72.98493
# Shear Modulus (GPa) = 36.54713 44.83331 40.69022
#
# Velocity S-wave (km/s) = 3.97330 4.40074 4.19247
# Velocity P-wave (km/s) = 6.87696 7.91410 7.41369
#
# Compressibility (1/GPa) = 0.01646022
#
# Stress axis : x y z
#
# Youngs Moduli (GPa) = 155.60856 142.53355 70.25964
#
# Poissons Ratio (x) = 0.43757 0.09243
# Poissons Ratio (y) = 0.47771 0.08586
# Poissons Ratio (z) = 0.20470 0.17418
#
# Static dielectric constant tensor:
#      x y z
#    x 4.708930 0.000000 -0.426720 
#    y 0.000000 4.897190 0.000000 
#    z -0.426720 0.000000 4.177940 
# 
# 
# High freq. dielectric constant tensor:
#      x y z
#    x 1.945350 0.000000 -0.003050 
#    y 0.000000 1.922690 0.000000 
#    z -0.003050 0.000000 1.897490 
# 
# From -- ./inp_files/167474.got.cif
#   From: 2010.06.25/outbox.cif.g09.slc.cpg/sg15_84_cif.got.tgz:167474.got - 2010.06.28 07:06:18.
