data_PCOD8132494
_publ_section_title
;
Structure prediction by ZEFSAII (Michael W. Deem and Ramdas Pophale) SiO2 
 PCOD8132494
Probable space group: C 2/C
;
_chemical_formula_sum "Si O2"
_cell_formula_units_Z 56
_cell_length_a 20.482935
_cell_length_b 16.628613
_cell_length_c 16.706650
_cell_angle_alpha 90.000000
_cell_angle_beta 33.087456
_cell_angle_gamma 90.000000
_cell_volume 3106.457620
_symmetry_space_group_name_H-M "C 2/C"
_symmetry_group_IT_number 15
_symmetry_cell_setting 'monoclinic'
loop_
_space_group_symop_operation_xyz
x,y,z
-x,y,1/2-z
-x,-y,-z
x,-y,1/2+z
1/2+x,1/2+y,z
1/2-x,1/2+y,1/2-z
1/2-x,1/2-y,-z
1/2+x,1/2-y,1/2+z
loop_
_atom_site_type_symbol
_atom_site_label
_atom_site_fract_x
_atom_site_fract_y
_atom_site_fract_z
Si Si1 0.994794 0.067248 0.844701
Si Si2 0.771767 0.948024 0.679745
Si Si3 0.335812 0.880947 0.218061
Si Si4 0.884073 0.844069 0.145242
Si Si5 0.403746 0.825767 0.569484
Si Si6 0.769234 0.767401 0.887072
Si Si7 0.928502 0.088973 0.164903
O O1 0.000000 0.099718 0.750000
O O2 0.085869 0.123840 0.798616
O O3 0.862018 0.075996 0.016547
O O4 0.039914 0.974850 0.798953
O O5 0.683228 0.874056 0.782917
O O6 0.839737 0.957208 0.694887
O O7 0.699756 0.027301 0.727563
O O8 0.259405 0.849465 0.219980
O O9 0.303499 0.821230 0.323018
O O10 0.477533 0.878720 0.060732
O O11 0.934820 0.754316 0.086178
O O12 0.948395 0.894969 0.008814
O O13 0.346778 0.802680 0.540830
O O14 0.876699 0.830436 0.759278
O O15 0.750000 0.750000 0.000000
#
# Coordination Sequence:
#
# PCOD8132494 Si02
#       7
#     8   8   8   8   8   8   8
#     4  11  22  35  60  86 110 145 192 247 287 324
#     4  10  20  37  58  84 110 147 196 236 270 348
#     4  11  19  36  58  81 113 155 190 222 281 342
#     4  10  19  38  58  83 108 148 199 232 277 343
#     4  10  22  36  60  84 110 155 192 232 279 343
#     4  10  23  35  56  90 125 147 184 234 288 345
#     4  10  18  38  57  82 115 148 195 227 278 349
#
# _framework density 18.026964
#
# number of rings (size 3 to 8) (size 9 to 14) (size 15 to 20)
#    0.000    1.714    4.286    1.286    4.000    0.571 
#    0.000    0.714    0.000    0.000    0.000    0.000 
#    0.000    0.000    0.000    0.000    0.000    0.000 
#
# Total GULP energy -347090.207115 kJ/mol
# GULP energy per Si atom -12396.078826 kJ/mol
# Density = 1.798593 g / cm^3
# Si number density = 18.026964 Si / 1000 Ang^3
#
#
#
# Elastic Constant Matrix: (Units=GPa)
#
#
# Indices 1 2 3 4 5 6 
#
# 1 95.2091 44.0140 64.2728 -0.0001 13.4187 0.0000
# 2 44.0140 89.0589 27.5013 0.0000 11.2435 0.0000
# 3 64.2728 27.5013 93.1616 -0.0001 5.0013 0.0001
# 4 -0.0001 0.0000 -0.0001 26.9055 0.0001 -6.2023
# 5 13.4187 11.2435 5.0013 0.0001 34.6646 0.0000
# 6 0.0000 0.0000 0.0001 -6.2023 0.0000 27.5976
#
#
#
# Elastic Compliance Matrix: (Units=1/GPa)
#
#
# Indices 1 2 3 4 5 6 
#
# 1 0.024000 -0.006819 -0.014275 0.000000 -0.005019 0.000000
# 2 -0.006819 0.014731 0.000475 0.000000 -0.002207 0.000000
# 3 -0.014275 0.000475 0.020311 0.000000 0.002442 0.000000
# 4 0.000000 0.000000 0.000000 0.039198 0.000000 0.008809
# 5 -0.005019 -0.002207 0.002442 0.000000 0.031154 0.000000
# 6 0.000000 0.000000 0.000000 0.008809 0.000000 0.038215
#
#
# Mechanical properties :
#
#
# Convention : Reuss Voigt Hill
#
# Bulk Modulus (GPa) = 56.17246 61.00066 58.58656
# Shear Modulus (GPa) = 23.27942 27.27631 25.27787
#
# Velocity S-wave (km/s) = 3.59746 3.89406 3.74869
# Velocity P-wave (km/s) = 6.96301 7.35733 7.16288
#
# Compressibility (1/GPa) = 0.01780232
#
# Stress axis : x y z
#
# Youngs Moduli (GPa) = 41.66734 67.88547 49.23359
#
# Poissons Ratio (x) = 0.46292 0.70281
# Poissons Ratio (y) = 0.28414 -0.02336
# Poissons Ratio (z) = 0.59480 -0.03221
#
# Static dielectric constant tensor:
#      x y z
#    x 3.277340 0.000000 -0.229740 
#    y 0.000000 3.473590 0.000000 
#    z -0.229740 0.000000 3.216730 
# 
# 
# High freq. dielectric constant tensor:
#      x y z
#    x 1.681190 0.000000 -0.020820 
#    y 0.000000 1.712360 0.000000 
#    z -0.020820 0.000000 1.684150 
# 
# From -- ./inp_files/113430.got.cif
#   From: 2010.06.25/outbox.cif.g09.slc.cpg/sg15_57_cif.got.tgz:113430.got - 2010.06.28 07:06:18.
