data_PCOD8132436
_publ_section_title
;
Structure prediction by ZEFSAII (Michael W. Deem and Ramdas Pophale) SiO2 
 PCOD8132436
Probable space group: C 2/C
;
_chemical_formula_sum "Si O2"
_cell_formula_units_Z 36
_cell_length_a 7.491503
_cell_length_b 18.619062
_cell_length_c 11.995817
_cell_angle_alpha 90.000000
_cell_angle_beta 85.150427
_cell_angle_gamma 90.000000
_cell_volume 1667.243611
_symmetry_space_group_name_H-M "C 2/C"
_symmetry_group_IT_number 15
_symmetry_cell_setting 'monoclinic'
loop_
_space_group_symop_operation_xyz
x,y,z
-x,y,1/2-z
-x,-y,-z
x,-y,1/2+z
1/2+x,1/2+y,z
1/2-x,1/2+y,1/2-z
1/2-x,1/2-y,-z
1/2+x,1/2-y,1/2+z
loop_
_atom_site_type_symbol
_atom_site_label
_atom_site_fract_x
_atom_site_fract_y
_atom_site_fract_z
Si Si1 0.064530 0.579524 0.017906
Si Si2 0.500000 0.863858 0.750000
Si Si3 0.797237 0.316286 0.418180
Si Si4 0.081296 0.837806 0.016187
Si Si5 0.224290 0.248614 0.312713
O O1 0.995771 0.585466 0.145360
O O2 0.973095 0.639303 0.943967
O O3 0.000000 0.500000 0.000000
O O4 0.279038 0.595502 0.001307
O O5 0.678431 0.817583 0.750047
O O6 0.750000 0.250000 0.500000
O O7 0.618068 0.366308 0.442425
O O8 0.844945 0.296316 0.287303
O O9 0.132064 0.789209 0.119032
O O10 0.073992 0.786013 0.904575
#
# Coordination Sequence:
#
# PCOD8132436 Si02
#       5
#     8   4   8   8   8
#     4  11  26  42  60  92 134 174 213 260 330 401
#     4  10  18  42  60  86 136 156 204 284 314 366
#     4  12  21  38  66  96 120 164 220 264 318 393
#     4  10  22  38  62  93 129 169 204 275 324 365
#     4  10  18  37  62  98 126 152 216 280 315 360
#
# _framework density 21.592525999999999
#
# number of rings (size 3 to 8) (size 9 to 14) (size 15 to 20)
#    0.000    1.333    4.444    2.667    0.000    6.222 
#    0.000    0.000    0.000    0.000    0.000    0.000 
#    0.000    0.000    0.000    0.000    0.000    0.000 
#
# Total GULP energy -223009.991255 kJ/mol
# GULP energy per Si atom -12389.443959 kJ/mol
# Density = 2.154338 g / cm^3
# Si number density = 21.592526 Si / 1000 Ang^3
#
#
#
# Elastic Constant Matrix: (Units=GPa)
#
#
# Indices 1 2 3 4 5 6 
#
# 1 93.2272 16.9378 43.0551 0.0000 -12.6056 0.0000
# 2 16.9378 95.4654 41.2066 0.0000 0.7147 0.0000
# 3 43.0551 41.2066 159.4385 0.0000 -0.3506 0.0000
# 4 0.0000 0.0000 0.0000 25.6673 0.0000 4.3003
# 5 -12.6056 0.7147 -0.3506 0.0000 30.9048 0.0000
# 6 0.0000 0.0000 0.0000 4.3003 0.0000 8.9013
#
#
#
# Elastic Compliance Matrix: (Units=1/GPa)
#
#
# Indices 1 2 3 4 5 6 
#
# 1 0.013142 -0.000951 -0.003291 0.000000 0.005345 0.000000
# 2 -0.000951 0.011862 -0.002810 0.000000 -0.000694 0.000000
# 3 -0.003291 -0.002810 0.007885 0.000000 -0.001188 0.000000
# 4 0.000000 0.000000 0.000000 0.042391 0.000000 -0.020480
# 5 0.005345 -0.000694 -0.001188 0.000000 0.034540 0.000000
# 6 0.000000 0.000000 0.000000 -0.020480 0.000000 0.122237
#
#
# Mechanical properties :
#
#
# Convention : Reuss Voigt Hill
#
# Bulk Modulus (GPa) = 53.23972 61.17002 57.20487
# Shear Modulus (GPa) = 19.80795 29.55678 24.68236
#
# Velocity S-wave (km/s) = 3.03207 3.70380 3.38464
# Velocity P-wave (km/s) = 6.08013 6.83239 6.46721
#
# Compressibility (1/GPa) = 0.01878297
#
# Stress axis : x y z
#
# Youngs Moduli (GPa) = 76.09170 84.30262 126.83036
#
# Poissons Ratio (x) = 0.08018 0.41744
# Poissons Ratio (y) = 0.07237 0.35645
# Poissons Ratio (z) = 0.25044 0.23693
#
# Static dielectric constant tensor:
#      x y z
#    x 4.310970 0.000000 -0.172930 
#    y 0.000000 -4.350050 0.000000 
#    z -0.172930 0.000000 4.574320 
# 
# 
# High freq. dielectric constant tensor:
#      x y z
#    x 1.868780 0.000000 -0.009670 
#    y 0.000000 1.793200 0.000000 
#    z -0.009670 0.000000 1.874140 
# 
# From -- ./inp_files/77335.got.cif
#   From: 2010.06.25/outbox.cif.g09.slc.cpg/sg15_39_cif.got.tgz:77335.got - 2010.06.28 07:06:18.
