data_PCOD8132751
_publ_section_title
;
Structure prediction by ZEFSAII (Michael W. Deem and Ramdas Pophale) SiO2 
 PCOD8132751
Probable space group: C 2/C
;
_chemical_formula_sum "Si O2"
_cell_formula_units_Z 36
_cell_length_a 17.573369
_cell_length_b 9.450563
_cell_length_c 13.071924
_cell_angle_alpha 90.000000
_cell_angle_beta 125.545954
_cell_angle_gamma 90.000000
_cell_volume 1766.402165
_symmetry_space_group_name_H-M "C 2/C"
_symmetry_group_IT_number 15
_symmetry_cell_setting 'monoclinic'
loop_
_space_group_symop_operation_xyz
x,y,z
-x,y,1/2-z
-x,-y,-z
x,-y,1/2+z
1/2+x,1/2+y,z
1/2-x,1/2+y,1/2-z
1/2-x,1/2-y,-z
1/2+x,1/2-y,1/2+z
loop_
_atom_site_type_symbol
_atom_site_label
_atom_site_fract_x
_atom_site_fract_y
_atom_site_fract_z
Si Si1 0.380156 0.841200 0.869099
Si Si2 0.168617 0.157351 0.482545
Si Si3 0.552061 0.968503 0.917784
Si Si4 0.216734 0.381489 0.909314
Si Si5 0.500000 0.782545 0.250000
O O1 0.363326 0.706805 0.929116
O O2 0.297306 0.843332 0.720859
O O3 0.483075 0.839628 0.894792
O O4 0.379694 0.987430 0.934965
O O5 0.250000 0.250000 0.500000
O O6 0.086432 0.175962 0.334862
O O7 0.201692 0.996560 0.516272
O O8 0.492780 0.111627 0.842729
O O9 0.115283 0.430345 0.870153
O O10 0.250000 0.250000 0.000000
#
# Coordination Sequence:
#
# PCOD8132751 Si02
#       5
#     8   8   8   8   4
#     4  10  21  38  71  93 126 173 227 265 332 397
#     4  11  22  41  68 100 129 175 226 278 326 404
#     4  10  19  41  68  96 125 181 220 271 330 409
#     4  12  25  42  64  98 139 175 217 279 339 405
#     4  10  18  40  68  94 130 172 228 276 324 396
#
# _framework density 20.380409
#
# number of rings (size 3 to 8) (size 9 to 14) (size 15 to 20)
#    0.000    1.333    6.667    0.000    3.111    0.000 
#    4.000    1.111    0.000    0.000    0.000    0.000 
#    0.000    0.000    0.000    0.000    0.000    0.000 
#
# Total GULP energy -223027.250346 kJ/mol
# GULP energy per Si atom -12390.402797 kJ/mol
# Density = 2.033402 g / cm^3
# Si number density = 20.380409 Si / 1000 Ang^3
#
#
#
# Elastic Constant Matrix: (Units=GPa)
#
#
# Indices 1 2 3 4 5 6 
#
# 1 97.6614 47.2394 43.9891 0.0000 1.7293 0.0000
# 2 47.2394 125.1494 69.2187 0.0000 7.5087 0.0000
# 3 43.9891 69.2187 169.4329 0.0000 -4.7775 0.0000
# 4 0.0000 0.0000 0.0000 21.8379 0.0000 1.7019
# 5 1.7293 7.5087 -4.7775 0.0000 32.1243 0.0000
# 6 0.0000 0.0000 0.0000 1.7019 0.0000 35.7018
#
#
#
# Elastic Compliance Matrix: (Units=1/GPa)
#
#
# Indices 1 2 3 4 5 6 
#
# 1 0.012920 -0.003899 -0.001763 0.000000 -0.000046 0.000000
# 2 -0.003899 0.011807 -0.003899 0.000000 -0.003130 0.000000
# 3 -0.001763 -0.003899 0.008015 0.000000 0.002198 0.000000
# 4 0.000000 0.000000 0.000000 0.045963 0.000000 -0.002191
# 5 -0.000046 -0.003130 0.002198 0.000000 0.032190 0.000000
# 6 0.000000 0.000000 0.000000 -0.002191 0.000000 0.028114
#
#
# Mechanical properties :
#
#
# Convention : Reuss Voigt Hill
#
# Bulk Modulus (GPa) = 73.42642 79.23757 76.33199
# Shear Modulus (GPa) = 30.73687 33.38591 32.06139
#
# Velocity S-wave (km/s) = 3.88771 4.05178 3.97060
# Velocity P-wave (km/s) = 7.50057 7.80083 7.65217
#
# Compressibility (1/GPa) = 0.01361908
#
# Stress axis : x y z
#
# Youngs Moduli (GPa) = 77.39726 84.69761 124.77075
#
# Poissons Ratio (x) = 0.33025 0.21995
# Poissons Ratio (y) = 0.30179 0.48652
# Poissons Ratio (z) = 0.13644 0.33026
#
# Static dielectric constant tensor:
#      x y z
#    x 3.775800 0.000000 -0.160880 
#    y 0.000000 3.607970 0.000000 
#    z -0.160880 0.000000 4.015860 
# 
# 
# High freq. dielectric constant tensor:
#      x y z
#    x 1.788200 0.000000 -0.011540 
#    y 0.000000 1.760240 0.000000 
#    z -0.011540 0.000000 1.821070 
# 
# From -- ./inp_files/171020.got.cif
#   From: 2010.06.25/outbox.cif.g09.slc.cpg/sg15_86_cif.got.tgz:171020.got - 2010.06.28 07:06:18.
