data_PCOD8132246
_publ_section_title
;
Structure prediction by ZEFSAII (Michael W. Deem and Ramdas Pophale) SiO2 
 PCOD8132246
Probable space group: C 2/C
;
_chemical_formula_sum "Si O2"
_cell_formula_units_Z 56
_cell_length_a 18.181656
_cell_length_b 11.605237
_cell_length_c 22.698153
_cell_angle_alpha 90.000000
_cell_angle_beta 35.211933
_cell_angle_gamma 90.000000
_cell_volume 2761.560000
_symmetry_space_group_name_H-M "C 2/C"
_symmetry_group_IT_number 15
_symmetry_cell_setting 'monoclinic'
loop_
_space_group_symop_operation_xyz
x,y,z
-x,y,1/2-z
-x,-y,-z
x,-y,1/2+z
1/2+x,1/2+y,z
1/2-x,1/2+y,1/2-z
1/2-x,1/2-y,-z
1/2+x,1/2-y,1/2+z
loop_
_atom_site_type_symbol
_atom_site_label
_atom_site_fract_x
_atom_site_fract_y
_atom_site_fract_z
Si Si1 0.782710 0.070637 0.450525
Si Si2 0.500000 0.905129 0.250000
Si Si3 0.225983 0.205678 0.935940
Si Si4 0.000000 0.935110 0.250000
Si Si5 0.631863 0.556933 0.893170
Si Si6 0.963054 0.819390 0.152902
Si Si7 0.872541 0.410156 0.760727
Si Si8 0.745431 0.356416 0.960609
O O1 0.845918 0.145257 0.462041
O O2 0.702980 0.156699 0.459675
O O3 0.886189 0.016841 0.341195
O O4 0.706798 0.968485 0.533994
O O5 0.622758 0.825194 0.157006
O O6 0.530893 0.986040 0.286813
O O7 0.165542 0.161338 0.915378
O O8 0.951582 0.858984 0.227575
O O9 0.633688 0.615312 0.827287
O O10 0.741693 0.460418 0.819548
O O11 0.500000 0.500000 0.000000
O O12 0.936155 0.681024 0.173481
O O13 0.098379 0.858655 0.036463
O O14 0.837041 0.343560 0.844909
O O15 0.750000 0.250000 0.000000
#
# Coordination Sequence:
#
# PCOD8132246 Si02
#       8
#     8   4   8   4   8   8   8   8
#     4  10  19  36  56  92 120 156 202 256 306 360
#     4  10  18  36  60  92 120 151 207 260 304 360
#     4  10  21  35  62  91 122 159 207 252 309 378
#     4  10  20  36  58  88 120 151 209 260 304 362
#     4  11  21  42  61  84 126 172 207 249 320 384
#     4  11  23  37  62  91 116 162 211 255 309 374
#     4  11  21  38  62  89 124 157 209 258 306 374
#     4  11  20  37  65  89 121 160 205 265 309 364
#
# _framework density 20.278393000000001
#
# number of rings (size 3 to 8) (size 9 to 14) (size 15 to 20)
#    0.000    1.429    4.286    4.286    0.000    1.143 
#    0.000    7.143    0.000    1.714    0.000    0.000 
#    0.000    0.000    0.000    0.000    0.000    0.000 
#
# Total GULP energy -346884.763656 kJ/mol
# GULP energy per Si atom -12388.741559 kJ/mol
# Density = 2.023224 g / cm^3
# Si number density = 20.278393 Si / 1000 Ang^3
#
#
#
# Elastic Constant Matrix: (Units=GPa)
#
#
# Indices 1 2 3 4 5 6 
#
# 1 115.5691 43.0323 18.8474 0.0000 6.3038 0.0000
# 2 43.0323 122.8670 6.3324 0.0000 -0.7319 0.0000
# 3 18.8474 6.3324 55.7520 0.0000 -4.4704 0.0000
# 4 0.0000 0.0000 0.0000 26.2124 0.0000 4.0119
# 5 6.3038 -0.7319 -4.4704 0.0000 30.9515 0.0000
# 6 0.0000 0.0000 0.0000 4.0119 0.0000 35.9468
#
#
#
# Elastic Compliance Matrix: (Units=1/GPa)
#
#
# Indices 1 2 3 4 5 6 
#
# 1 0.010698 -0.003587 -0.003431 0.000000 -0.002759 0.000000
# 2 -0.003587 0.009389 0.000225 0.000000 0.000985 0.000000
# 3 -0.003431 0.000225 0.019351 0.000000 0.003499 0.000000
# 4 0.000000 0.000000 0.000000 0.038813 0.000000 -0.004332
# 5 -0.002759 0.000985 0.003499 0.000000 0.033399 0.000000
# 6 0.000000 0.000000 0.000000 -0.004332 0.000000 0.028302
#
#
# Mechanical properties :
#
#
# Convention : Reuss Voigt Hill
#
# Bulk Modulus (GPa) = 38.67764 47.84581 43.26172
# Shear Modulus (GPa) = 30.83459 33.68721 32.26090
#
# Velocity S-wave (km/s) = 3.90367 4.08025 3.99294
# Velocity P-wave (km/s) = 6.27956 6.77079 6.52980
#
# Compressibility (1/GPa) = 0.02585473
#
# Stress axis : x y z
#
# Youngs Moduli (GPa) = 93.47329 106.50441 51.67611
#
# Poissons Ratio (x) = 0.38198 0.17728
# Poissons Ratio (y) = 0.33524 -0.01163
# Poissons Ratio (z) = 0.32066 -0.02396
#
# Static dielectric constant tensor:
#      x y z
#    x 3.722650 0.000000 -0.427270 
#    y 0.000000 4.090630 0.000000 
#    z -0.427270 0.000000 4.145710 
# 
# 
# High freq. dielectric constant tensor:
#      x y z
#    x 1.768330 0.000000 0.002340 
#    y 0.000000 1.805920 0.000000 
#    z 0.002340 0.000000 1.789710 
# 
# From -- ./inp_files/277054.got.cif
#   From: 2010.06.25/outbox.cif.g09.slc.cpg/sg15_139_cif.got.tgz:277054.got - 2010.06.28 07:06:18.
