data_PCOD8132637
_publ_section_title
;
Structure prediction by ZEFSAII (Michael W. Deem and Ramdas Pophale) SiO2 
 PCOD8132637
Probable space group: C 2/C
;
_chemical_formula_sum "Si O2"
_cell_formula_units_Z 56
_cell_length_a 23.817707
_cell_length_b 17.809409
_cell_length_c 9.869286
_cell_angle_alpha 90.000000
_cell_angle_beta 43.626674
_cell_angle_gamma 90.000000
_cell_volume 2888.397551
_symmetry_space_group_name_H-M "C 2/C"
_symmetry_group_IT_number 15
_symmetry_cell_setting 'monoclinic'
loop_
_space_group_symop_operation_xyz
x,y,z
-x,y,1/2-z
-x,-y,-z
x,-y,1/2+z
1/2+x,1/2+y,z
1/2-x,1/2+y,1/2-z
1/2-x,1/2-y,-z
1/2+x,1/2-y,1/2+z
loop_
_atom_site_type_symbol
_atom_site_label
_atom_site_fract_x
_atom_site_fract_y
_atom_site_fract_z
Si Si1 0.322610 0.684887 0.519356
Si Si2 0.566963 0.781445 0.884219
Si Si3 0.000000 0.211495 0.250000
Si Si4 0.702109 0.678901 0.635637
Si Si5 0.803428 0.403963 0.762958
Si Si6 0.584730 0.958908 0.391320
Si Si7 0.696566 0.142317 0.526430
Si Si8 0.500000 0.869450 0.750000
O O1 0.417990 0.661307 0.371832
O O2 0.277651 0.668003 0.740617
O O3 0.322130 0.772163 0.479604
O O4 0.273305 0.636838 0.495067
O O5 0.607415 0.700351 0.779067
O O6 0.631559 0.838194 0.834432
O O7 0.530154 0.815932 0.814934
O O8 0.502038 0.765592 0.114744
O O9 0.750000 0.750000 0.500000
O O10 0.728316 0.607235 0.499312
O O11 0.842025 0.483509 0.728487
O O12 0.774329 0.402480 0.658063
O O13 0.614351 0.895553 0.232538
O O14 0.571212 0.921301 0.562924
O O15 0.500000 0.000000 0.500000
#
# Coordination Sequence:
#
# PCOD8132637 Si02
#       8
#     8   8   4   8   8   8   8   4
#     4  10  21  35  62  85 112 155 193 265 288 350
#     4  10  21  34  57  82 112 155 191 250 287 342
#     4  10  18  39  56  90 115 144 188 248 324 332
#     4   9  18  36  55  76 108 146 200 238 302 328
#     4  11  22  38  54  77 117 163 198 237 284 351
#     4  12  26  38  55  83 126 169 197 228 285 359
#     4  11  23  37  57  85 114 159 210 236 292 349
#     4  12  24  35  54  82 119 160 202 232 278 356
#
# _framework density 19.387913000000001
#
# number of rings (size 3 to 8) (size 9 to 14) (size 15 to 20)
#    0.000    1.429    5.714    1.714    4.000    1.714 
#    0.000    0.000    0.000    0.000    0.000   10.000 
#    0.000    0.000    0.000    0.000    0.000    0.000 
#
# Total GULP energy -346941.465257 kJ/mol
# GULP energy per Si atom -12390.766616 kJ/mol
# Density = 1.934379 g / cm^3
# Si number density = 19.387913 Si / 1000 Ang^3
#
#
#
# Elastic Constant Matrix: (Units=GPa)
#
#
# Indices 1 2 3 4 5 6 
#
# 1 111.6084 32.1662 58.8057 0.0000 15.8232 0.0000
# 2 32.1662 68.1013 53.0008 0.0000 5.8294 0.0000
# 3 58.8057 53.0008 161.6482 0.0000 26.3275 0.0000
# 4 0.0000 0.0000 0.0000 31.1316 0.0000 -12.3569
# 5 15.8232 5.8294 26.3275 0.0000 32.3295 0.0000
# 6 0.0000 0.0000 0.0000 -12.3569 0.0000 24.4929
#
#
#
# Elastic Compliance Matrix: (Units=1/GPa)
#
#
# Indices 1 2 3 4 5 6 
#
# 1 0.011736 -0.003143 -0.002762 0.000000 -0.002928 0.000000
# 2 -0.003143 0.020666 -0.006083 0.000000 0.002766 0.000000
# 3 -0.002762 -0.006083 0.010130 0.000000 -0.005801 0.000000
# 4 0.000000 0.000000 0.000000 0.040165 0.000000 0.020263
# 5 -0.002928 0.002766 -0.005801 0.000000 0.036590 0.000000
# 6 0.000000 0.000000 0.000000 0.020263 0.000000 0.051051
#
#
# Mechanical properties :
#
#
# Convention : Reuss Voigt Hill
#
# Bulk Modulus (GPa) = 53.88992 69.92260 61.90626
# Shear Modulus (GPa) = 24.93767 30.74981 27.84374
#
# Velocity S-wave (km/s) = 3.59032 3.98682 3.79375
# Velocity P-wave (km/s) = 6.71142 7.57208 7.15470
#
# Compressibility (1/GPa) = 0.01855634
#
# Stress axis : x y z
#
# Youngs Moduli (GPa) = 85.20656 48.38876 98.71359
#
# Poissons Ratio (x) = 0.15209 0.27265
# Poissons Ratio (y) = 0.26781 0.60047
# Poissons Ratio (z) = 0.23534 0.29434
#
# Static dielectric constant tensor:
#      x y z
#    x 3.573210 0.000000 0.124560 
#    y 0.000000 3.528920 0.000000 
#    z 0.124560 0.000000 4.364740 
# 
# 
# High freq. dielectric constant tensor:
#      x y z
#    x 1.743500 0.000000 0.016860 
#    y 0.000000 1.716050 0.000000 
#    z 0.016860 0.000000 1.775360 
# 
# From -- ./inp_files/62712.got.cif
#   From: 2010.06.25/outbox.cif.g09.slc.cpg/sg15_32_cif.got.tgz:62712.got - 2010.06.28 07:06:18.
