data_PCOD8132085
_publ_section_title
;
Structure prediction by ZEFSAII (Michael W. Deem and Ramdas Pophale) SiO2 
 PCOD8132085
Probable space group: C 2/C
;
_chemical_formula_sum "Si O2"
_cell_formula_units_Z 60
_cell_length_a 19.883488
_cell_length_b 14.591781
_cell_length_c 14.451564
_cell_angle_alpha 90.000000
_cell_angle_beta 42.131418
_cell_angle_gamma 90.000000
_cell_volume 2812.745177
_symmetry_space_group_name_H-M "C 2/C"
_symmetry_group_IT_number 15
_symmetry_cell_setting 'monoclinic'
loop_
_space_group_symop_operation_xyz
x,y,z
-x,y,1/2-z
-x,-y,-z
x,-y,1/2+z
1/2+x,1/2+y,z
1/2-x,1/2+y,1/2-z
1/2-x,1/2-y,-z
1/2+x,1/2-y,1/2+z
loop_
_atom_site_type_symbol
_atom_site_label
_atom_site_fract_x
_atom_site_fract_y
_atom_site_fract_z
Si Si1 0.610997 0.495772 0.350249
Si Si2 0.135382 0.666585 0.457286
Si Si3 0.942308 0.358871 0.715068
Si Si4 0.853279 0.175864 0.280857
Si Si5 0.000000 0.724928 0.750000
Si Si6 0.165938 0.794864 0.254405
Si Si7 0.683703 0.987463 0.771887
Si Si8 0.622940 0.820266 0.396555
O O1 0.500000 0.500000 0.500000
O O2 0.620536 0.569704 0.259364
O O3 0.626054 0.397291 0.288540
O O4 0.694288 0.516682 0.345867
O O5 0.234534 0.686424 0.416199
O O6 0.038459 0.664924 0.623567
O O7 0.128919 0.746307 0.386991
O O8 0.139794 0.566400 0.405923
O O9 0.878719 0.264036 0.785905
O O10 0.862328 0.439808 0.773049
O O11 0.000000 0.382323 0.750000
O O12 0.022427 0.346470 0.551737
O O13 0.907163 0.210561 0.317915
O O14 0.894415 0.232632 0.150470
O O15 0.286903 0.796495 0.124592
O O16 0.652118 0.092983 0.803402
#
# Coordination Sequence:
#
# PCOD8132085 Si02
#       8
#     8   8   8   8   4   8   8   8
#     4  10  18  35  64  85 107 153 206 240 287 356
#     4   9  19  36  57  82 112 151 194 239 289 349
#     4  11  22  37  59  91 121 153 197 254 309 353
#     4  10  21  35  56  83 114 151 193 238 288 350
#     4  12  20  32  52  82 118 148 184 244 298 340
#     4   9  20  38  61  82 110 158 201 236 292 364
#     4   9  20  39  59  84 119 154 199 243 294 370
#     4  10  20  40  61  79 115 161 200 237 294 363
#
# _framework density 21.331475000000001
#
# number of rings (size 3 to 8) (size 9 to 14) (size 15 to 20)
#    0.000    2.133    0.000    4.800    0.000    0.533 
#    6.000    0.000   11.733    0.000    0.000    0.000 
#    0.000    0.000    0.000    0.000    0.000    0.000 
#
# Total GULP energy -371888.126808 kJ/mol
# GULP energy per Si atom -12396.270894 kJ/mol
# Density = 2.128292 g / cm^3
# Si number density = 21.331475 Si / 1000 Ang^3
#
#
#
# Elastic Constant Matrix: (Units=GPa)
#
#
# Indices 1 2 3 4 5 6 
#
# 1 125.1822 29.9604 10.3776 0.0000 -24.1760 0.0000
# 2 29.9604 113.3198 11.8702 0.0000 -3.8836 0.0000
# 3 10.3776 11.8702 59.2853 0.0000 -22.3386 0.0000
# 4 0.0000 0.0000 0.0000 13.7448 0.0000 -7.5481
# 5 -24.1760 -3.8836 -22.3386 0.0000 30.1271 0.0000
# 6 0.0000 0.0000 0.0000 -7.5481 0.0000 28.1256
#
#
#
# Elastic Compliance Matrix: (Units=1/GPa)
#
#
# Indices 1 2 3 4 5 6 
#
# 1 0.010292 -0.002638 0.002374 0.000000 0.009679 0.000000
# 2 -0.002638 0.009691 -0.002506 0.000000 -0.002726 0.000000
# 3 0.002374 -0.002506 0.024354 0.000000 0.019640 0.000000
# 4 0.000000 0.000000 0.000000 0.085331 0.000000 0.022900
# 5 0.009679 -0.002726 0.019640 0.000000 0.055171 0.000000
# 6 0.000000 0.000000 0.000000 0.022900 0.000000 0.041701
#
#
# Mechanical properties :
#
#
# Convention : Reuss Voigt Hill
#
# Bulk Modulus (GPa) = 25.77487 44.68929 35.23208
# Shear Modulus (GPa) = 20.40713 30.77143 25.58928
#
# Velocity S-wave (km/s) = 3.09636 3.80219 3.46728
# Velocity P-wave (km/s) = 4.98924 6.34594 5.70804
#
# Compressibility (1/GPa) = 0.03879748
#
# Stress axis : x y z
#
# Youngs Moduli (GPa) = 97.16037 103.18737 41.06101
#
# Poissons Ratio (x) = 0.27222 -0.09747
# Poissons Ratio (y) = 0.25632 0.10288
# Poissons Ratio (z) = -0.23063 0.25854
#
# Static dielectric constant tensor:
#      x y z
#    x 4.124520 0.000000 -0.508410 
#    y 0.000000 4.034640 0.000000 
#    z -0.508410 0.000000 3.532030 
# 
# 
# High freq. dielectric constant tensor:
#      x y z
#    x 1.843030 0.000000 -0.042150 
#    y 0.000000 1.844330 0.000000 
#    z -0.042150 0.000000 1.804370 
# 
# From -- ./inp_files/168614.got.cif
#   From: 2010.06.25/outbox.cif.g09.slc.cpg/sg15_85_cif.got.tgz:168614.got - 2010.06.28 07:06:18.
