data_PCOD8132539
_publ_section_title
;
Structure prediction by ZEFSAII (Michael W. Deem and Ramdas Pophale) SiO2 
 PCOD8132539
Probable space group: C 2/C
;
_chemical_formula_sum "Si O2"
_cell_formula_units_Z 44
_cell_length_a 21.047734
_cell_length_b 10.508482
_cell_length_c 12.885051
_cell_angle_alpha 90.000000
_cell_angle_beta 129.325923
_cell_angle_gamma 90.000000
_cell_volume 2204.559698
_symmetry_space_group_name_H-M "C 2/C"
_symmetry_group_IT_number 15
_symmetry_cell_setting 'monoclinic'
loop_
_space_group_symop_operation_xyz
x,y,z
-x,y,1/2-z
-x,-y,-z
x,-y,1/2+z
1/2+x,1/2+y,z
1/2-x,1/2+y,1/2-z
1/2-x,1/2-y,-z
1/2+x,1/2-y,1/2+z
loop_
_atom_site_type_symbol
_atom_site_label
_atom_site_fract_x
_atom_site_fract_y
_atom_site_fract_z
Si Si1 0.543129 0.192684 0.531452
Si Si2 0.000000 0.916557 0.250000
Si Si3 0.947039 0.502404 0.288808
Si Si4 0.788350 0.658568 0.125201
Si Si5 0.628442 0.564464 0.044879
Si Si6 0.600706 0.340124 0.160664
O O1 0.510237 0.096256 0.410898
O O2 0.611105 0.287588 0.553970
O O3 0.465294 0.279053 0.487139
O O4 0.580263 0.114998 0.666200
O O5 0.941021 0.837295 0.267019
O O6 0.063289 0.991367 0.391859
O O7 0.864812 0.573736 0.164208
O O8 0.000000 0.444718 0.250000
O O9 0.720276 0.559660 0.095618
O O10 0.819263 0.750628 0.250510
O O11 0.750000 0.750000 0.000000
O O12 0.623915 0.480016 0.144343
#
# Coordination Sequence:
#
# PCOD8132539 Si02
#       6
#     8   4   8   8   8   8
#     4   9  20  38  60  86 112 159 197 237 293 353
#     4  10  18  38  62  84 112 152 202 236 284 360
#     4  10  21  38  60  87 119 154 197 241 292 350
#     4  11  22  38  63  87 119 159 200 241 289 364
#     4  11  22  38  63  88 120 154 198 253 294 356
#     4  10  22  39  61  90 114 158 199 250 296 350
#
# _framework density 19.958635000000001
#
# number of rings (size 3 to 8) (size 9 to 14) (size 15 to 20)
#    0.000    1.818    1.818    3.273   11.455    0.000 
#    9.818    0.000    0.000    3.273    0.000    0.000 
#    0.000    0.000    0.000    0.000    0.000    0.000 
#
# Total GULP energy -272557.266813 kJ/mol
# GULP energy per Si atom -12388.966673 kJ/mol
# Density = 1.991321 g / cm^3
# Si number density = 19.958635 Si / 1000 Ang^3
#
#
#
# Elastic Constant Matrix: (Units=GPa)
#
#
# Indices 1 2 3 4 5 6 
#
# 1 102.2852 29.7655 48.6017 0.0000 4.5216 0.0000
# 2 29.7655 61.0445 25.5732 0.0000 -6.7988 0.0000
# 3 48.6017 25.5732 81.0179 0.0000 9.5190 0.0000
# 4 0.0000 0.0000 0.0000 30.7026 0.0000 0.6994
# 5 4.5216 -6.7988 9.5190 0.0000 29.2877 0.0000
# 6 0.0000 0.0000 0.0000 0.6994 0.0000 20.9399
#
#
#
# Elastic Compliance Matrix: (Units=1/GPa)
#
#
# Indices 1 2 3 4 5 6 
#
# 1 0.014468 -0.004090 -0.007293 0.000000 -0.000813 0.000000
# 2 -0.004090 0.021334 -0.005132 0.000000 0.007252 0.000000
# 3 -0.007293 -0.005132 0.019074 0.000000 -0.006265 0.000000
# 4 0.000000 0.000000 0.000000 0.032595 0.000000 -0.001089
# 5 -0.000813 0.007252 -0.006265 0.000000 0.037989 0.000000
# 6 0.000000 0.000000 0.000000 -0.001089 0.000000 0.047792
#
#
# Mechanical properties :
#
#
# Convention : Reuss Voigt Hill
#
# Bulk Modulus (GPa) = 45.77666 50.24760 48.01213
# Shear Modulus (GPa) = 23.41224 25.54654 24.47939
#
# Velocity S-wave (km/s) = 3.42868 3.58155 3.50595
# Velocity P-wave (km/s) = 6.21772 6.50645 6.36372
#
# Compressibility (1/GPa) = 0.02184519
#
# Stress axis : x y z
#
# Youngs Moduli (GPa) = 69.11866 46.87444 52.42796
#
# Poissons Ratio (x) = 0.19172 0.38233
# Poissons Ratio (y) = 0.28270 0.26908
# Poissons Ratio (z) = 0.50405 0.24058
#
# Static dielectric constant tensor:
#      x y z
#    x 3.600710 0.000000 0.209490 
#    y 0.000000 3.483500 0.000000 
#    z 0.209490 0.000000 3.745860 
# 
# 
# High freq. dielectric constant tensor:
#      x y z
#    x 1.771080 0.000000 0.014210 
#    y 0.000000 1.759600 0.000000 
#    z 0.014210 0.000000 1.771690 
# 
# From -- ./inp_files/104095.got.cif
#   From: 2010.06.25/outbox.cif.g09.slc.cpg/sg15_53_cif.got.tgz:104095.got - 2010.06.28 07:06:18.
