data_PCOD8132682
_publ_section_title
;
Structure prediction by ZEFSAII (Michael W. Deem and Ramdas Pophale) SiO2 
 PCOD8132682
Probable space group: C 2/C
;
_chemical_formula_sum "Si O2"
_cell_formula_units_Z 60
_cell_length_a 24.550762
_cell_length_b 19.743122
_cell_length_c 9.499550
_cell_angle_alpha 90.000000
_cell_angle_beta 134.015547
_cell_angle_gamma 90.000000
_cell_volume 3311.342450
_symmetry_space_group_name_H-M "C 2/C"
_symmetry_group_IT_number 15
_symmetry_cell_setting 'monoclinic'
loop_
_space_group_symop_operation_xyz
x,y,z
-x,y,1/2-z
-x,-y,-z
x,-y,1/2+z
1/2+x,1/2+y,z
1/2-x,1/2+y,1/2-z
1/2-x,1/2-y,-z
1/2+x,1/2-y,1/2+z
loop_
_atom_site_type_symbol
_atom_site_label
_atom_site_fract_x
_atom_site_fract_y
_atom_site_fract_z
Si Si1 0.747603 0.646628 0.927634
Si Si2 0.000000 0.288663 0.750000
Si Si3 0.906696 0.665397 0.834306
Si Si4 0.171928 0.530645 0.271186
Si Si5 0.154347 0.223518 0.967691
Si Si6 0.252394 0.601278 0.871118
Si Si7 0.678129 0.707704 0.325061
Si Si8 0.421334 0.043360 0.671903
O O1 0.672769 0.670101 0.877621
O O2 0.721122 0.604715 0.743475
O O3 0.799283 0.601947 0.122156
O O4 0.796712 0.709627 0.966066
O O5 0.969477 0.337113 0.570400
O O6 0.934365 0.240565 0.694143
O O7 0.828780 0.637750 0.759919
O O8 0.894485 0.744521 0.767247
O O9 0.932438 0.620331 0.748322
O O10 0.241094 0.476643 0.396680
O O11 0.102214 0.505314 0.242290
O O12 0.143750 0.541408 0.061891
O O13 0.178379 0.190877 0.159986
O O14 0.317911 0.636423 0.083899
O O15 0.750000 0.750000 0.500000
O O16 0.500000 0.016834 0.750000
#
# Coordination Sequence:
#
# PCOD8132682 Si02
#       8
#     8   4   8   8   8   8   8   8
#     4  11  21  36  54  86 104 145 191 239 272 320
#     4  10  18  40  52  86 116 146 180 222 300 344
#     4   9  20  33  57  78 107 154 179 228 274 329
#     4  11  24  38  54  78 114 151 194 233 270 332
#     4  10  22  33  60  81 109 146 181 238 282 330
#     4  10  19  37  54  79 110 148 186 229 275 326
#     4   9  16  33  55  77 104 140 185 226 284 322
#     4  11  24  38  51  77 113 160 197 220 268 328
#
# _framework density 18.119539
#
# number of rings (size 3 to 8) (size 9 to 14) (size 15 to 20)
#    0.000    1.867    5.333    0.400    7.467    0.000 
#    6.000    0.000    0.000    0.000    0.000    8.400 
#    0.000    0.000    0.000    0.000    0.000    0.000 
#
# Total GULP energy -371915.271497 kJ/mol
# GULP energy per Si atom -12397.175717 kJ/mol
# Density = 1.807830 g / cm^3
# Si number density = 18.119539 Si / 1000 Ang^3
#
#
#
# Elastic Constant Matrix: (Units=GPa)
#
#
# Indices 1 2 3 4 5 6 
#
# 1 90.4148 22.2808 17.0827 0.0000 -8.7421 0.0000
# 2 22.2808 53.0754 26.3365 0.0000 -7.8311 0.0000
# 3 17.0827 26.3365 89.1199 0.0000 -17.3226 0.0000
# 4 0.0000 0.0000 0.0000 26.3590 0.0000 -5.4370
# 5 -8.7421 -7.8311 -17.3226 0.0000 24.4557 0.0000
# 6 0.0000 0.0000 0.0000 -5.4370 0.0000 17.4770
#
#
#
# Elastic Compliance Matrix: (Units=1/GPa)
#
#
# Indices 1 2 3 4 5 6 
#
# 1 0.012553 -0.004618 -0.000530 0.000000 0.002633 0.000000
# 2 -0.004618 0.023949 -0.005824 0.000000 0.001892 0.000000
# 3 -0.000530 -0.005824 0.014663 0.000000 0.008332 0.000000
# 4 0.000000 0.000000 0.000000 0.040539 0.000000 0.012611
# 5 0.002633 0.001892 0.008332 0.000000 0.048339 0.000000
# 6 0.000000 0.000000 0.000000 0.012611 0.000000 0.061142
#
#
# Mechanical properties :
#
#
# Convention : Reuss Voigt Hill
#
# Bulk Modulus (GPa) = 34.22225 40.44555 37.33390
# Shear Modulus (GPa) = 21.47125 24.78567 23.12846
#
# Velocity S-wave (km/s) = 3.44609 3.70252 3.57660
# Velocity P-wave (km/s) = 5.89593 6.37559 6.14044
#
# Compressibility (1/GPa) = 0.02922076
#
# Stress axis : x y z
#
# Youngs Moduli (GPa) = 79.66293 41.75510 68.19879
#
# Poissons Ratio (x) = 0.19284 0.03611
# Poissons Ratio (y) = 0.36791 0.39721
# Poissons Ratio (z) = 0.04218 0.24319
#
# Static dielectric constant tensor:
#      x y z
#    x 3.399320 0.000000 -0.193670 
#    y 0.000000 3.961350 0.000000 
#    z -0.193670 0.000000 3.501000 
# 
# 
# High freq. dielectric constant tensor:
#      x y z
#    x 1.685560 0.000000 -0.029770 
#    y 0.000000 1.688790 0.000000 
#    z -0.029770 0.000000 1.693820 
# 
# From -- ./inp_files/63522.got.cif
#   From: 2010.06.25/outbox.cif.g09.slc.cpg/sg15_32_cif.got.tgz:63522.got - 2010.06.28 07:06:18.
