data_PCOD8132301
_publ_section_title
;
Structure prediction by ZEFSAII (Michael W. Deem and Ramdas Pophale) SiO2 
 PCOD8132301
Probable space group: C 2/C
;
_chemical_formula_sum "Si O2"
_cell_formula_units_Z 56
_cell_length_a 14.248488
_cell_length_b 18.473665
_cell_length_c 11.827524
_cell_angle_alpha 90.000000
_cell_angle_beta 110.458116
_cell_angle_gamma 90.000000
_cell_volume 2916.902250
_symmetry_space_group_name_H-M "C 2/C"
_symmetry_group_IT_number 15
_symmetry_cell_setting 'monoclinic'
loop_
_space_group_symop_operation_xyz
x,y,z
-x,y,1/2-z
-x,-y,-z
x,-y,1/2+z
1/2+x,1/2+y,z
1/2-x,1/2+y,1/2-z
1/2-x,1/2-y,-z
1/2+x,1/2-y,1/2+z
loop_
_atom_site_type_symbol
_atom_site_label
_atom_site_fract_x
_atom_site_fract_y
_atom_site_fract_z
Si Si1 0.462695 0.097354 0.049045
Si Si2 0.785065 0.884812 0.632338
Si Si3 0.000000 0.166094 0.250000
Si Si4 0.848165 0.496568 0.346089
Si Si5 0.500000 0.200782 0.250000
Si Si6 0.670444 0.750337 0.660420
Si Si7 0.305571 0.872528 0.155134
Si Si8 0.038996 0.290485 0.405797
O O1 0.558523 0.051286 0.130827
O O2 0.434006 0.150818 0.138251
O O3 0.483548 0.145969 0.947649
O O4 0.370310 0.047755 0.971611
O O5 0.753573 0.959290 0.679604
O O6 0.743872 0.819697 0.693935
O O7 0.740372 0.887439 0.487456
O O8 0.905341 0.883865 0.681376
O O9 0.027720 0.221281 0.158522
O O10 0.833019 0.446919 0.229649
O O11 0.418125 0.247906 0.283128
O O12 0.729916 0.675028 0.700435
O O13 0.625009 0.752731 0.516379
O O14 0.407501 0.826161 0.182455
#
# Coordination Sequence:
#
# PCOD8132301 Si02
#       8
#     8   8   4   8   4   8   8   8
#     4  10  22  36  57  96 121 155 194 247 322 373
#     4  11  22  39  59  93 121 157 207 250 296 355
#     4  12  20  34  70  88 116 158 214 254 286 350
#     4  11  23  36  58  90 129 153 198 240 317 365
#     4  10  20  36  64  82 130 158 186 252 310 356
#     4  10  19  39  59  89 119 155 197 253 302 352
#     4  11  20  39  64  86 125 155 196 260 298 354
#     4  10  18  36  63  92 115 144 205 262 301 339
#
# _framework density 19.198449
#
# number of rings (size 3 to 8) (size 9 to 14) (size 15 to 20)
#    0.000    1.429    7.143    1.714    2.000    0.000 
#    0.000    2.143    6.286    0.000    0.000    0.000 
#    0.000    0.000    0.000    0.000    0.000    0.000 
#
# Total GULP energy -346988.526621 kJ/mol
# GULP energy per Si atom -12392.447379 kJ/mol
# Density = 1.915475 g / cm^3
# Si number density = 19.198449 Si / 1000 Ang^3
#
#
#
# Elastic Constant Matrix: (Units=GPa)
#
#
# Indices 1 2 3 4 5 6 
#
# 1 82.4597 40.8995 34.9362 0.0000 -1.2874 0.0000
# 2 40.8995 90.4818 36.8277 0.0000 -1.8910 0.0000
# 3 34.9362 36.8277 62.0397 0.0000 -6.5586 0.0000
# 4 0.0000 0.0000 0.0000 28.4993 0.0000 0.0831
# 5 -1.2874 -1.8910 -6.5586 0.0000 31.3135 0.0000
# 6 0.0000 0.0000 0.0000 0.0831 0.0000 13.6153
#
#
#
# Elastic Compliance Matrix: (Units=1/GPa)
#
#
# Indices 1 2 3 4 5 6 
#
# 1 0.017620 -0.005146 -0.006978 0.000000 -0.001048 0.000000
# 2 -0.005146 0.016104 -0.006730 0.000000 -0.000649 0.000000
# 3 -0.006978 -0.006730 0.024513 0.000000 0.004441 0.000000
# 4 0.000000 0.000000 0.000000 0.035089 0.000000 -0.000214
# 5 -0.001048 -0.000649 0.004441 0.000000 0.032783 0.000000
# 6 0.000000 0.000000 0.000000 -0.000214 0.000000 0.073448
#
#
# Mechanical properties :
#
#
# Convention : Reuss Voigt Hill
#
# Bulk Modulus (GPa) = 48.71474 51.14533 49.93003
# Shear Modulus (GPa) = 20.48277 22.84015 21.66146
#
# Velocity S-wave (km/s) = 3.26988 3.45293 3.36265
# Velocity P-wave (km/s) = 6.29965 6.52649 6.41407
#
# Compressibility (1/GPa) = 0.02052767
#
# Stress axis : x y z
#
# Youngs Moduli (GPa) = 56.75477 62.09709 40.79505
#
# Poissons Ratio (x) = 0.31956 0.28467
# Poissons Ratio (y) = 0.29207 0.27455
# Poissons Ratio (z) = 0.39604 0.41792
#
# Static dielectric constant tensor:
#      x y z
#    x 3.311650 0.000000 0.111960 
#    y 0.000000 3.524370 0.000000 
#    z 0.111960 0.000000 3.549130 
# 
# 
# High freq. dielectric constant tensor:
#      x y z
#    x 1.717910 0.000000 0.008300 
#    y 0.000000 1.741330 0.000000 
#    z 0.008300 0.000000 1.751690 
# 
# From -- ./inp_files/98430.got.cif
#   From: 2010.06.25/outbox.cif.g09.slc.cpg/sg15_50_cif.got.tgz:98430.got - 2010.06.28 07:06:18.
