data_PCOD8132796
_publ_section_title
;
Structure prediction by ZEFSAII (Michael W. Deem and Ramdas Pophale) SiO2 
 PCOD8132796
Probable space group: C 2/C
;
_chemical_formula_sum "Si O2"
_cell_formula_units_Z 44
_cell_length_a 23.698195
_cell_length_b 7.888721
_cell_length_c 14.356401
_cell_angle_alpha 90.000000
_cell_angle_beta 49.903943
_cell_angle_gamma 90.000000
_cell_volume 2053.096787
_symmetry_space_group_name_H-M "C 2/C"
_symmetry_group_IT_number 15
_symmetry_cell_setting 'monoclinic'
loop_
_space_group_symop_operation_xyz
x,y,z
-x,y,1/2-z
-x,-y,-z
x,-y,1/2+z
1/2+x,1/2+y,z
1/2-x,1/2+y,1/2-z
1/2-x,1/2-y,-z
1/2+x,1/2-y,1/2+z
loop_
_atom_site_type_symbol
_atom_site_label
_atom_site_fract_x
_atom_site_fract_y
_atom_site_fract_z
Si Si1 0.336672 0.033573 0.167715
Si Si2 0.942632 0.604773 0.415550
Si Si3 0.265937 0.691200 0.623326
Si Si4 0.596629 0.234406 0.235288
Si Si5 0.354442 0.602329 0.354691
Si Si6 0.000000 0.700602 0.750000
O O1 0.323534 0.176386 0.104406
O O2 0.363654 0.108009 0.236404
O O3 0.259983 0.937348 0.268703
O O4 0.395640 0.902207 0.060311
O O5 0.892275 0.659790 0.380850
O O6 0.976870 0.418660 0.360953
O O7 0.009418 0.740405 0.354582
O O8 0.308449 0.585942 0.499100
O O9 0.192031 0.782089 0.665725
O O10 0.633576 0.418071 0.202982
O O11 0.433899 0.681844 0.287047
#
# Coordination Sequence:
#
# PCOD8132796 Si02
#       6
#     8   8   8   8   8   4
#     4  12  24  44  64  98 133 174 223 264 331 391
#     4  10  22  42  69  96 129 172 220 274 324 381
#     4  11  26  41  66  96 135 175 216 272 323 394
#     4  10  23  41  68  98 129 175 215 274 326 384
#     4  11  23  44  67  97 131 174 220 269 330 385
#     4  10  18  42  70  90 128 172 218 268 328 378
#
# _framework density 21.431041
#
# number of rings (size 3 to 8) (size 9 to 14) (size 15 to 20)
#    0.000    1.455    1.818    4.909    5.091    0.727 
#    0.000    1.818    0.000    0.000    0.000    0.000 
#    0.000    0.000    0.000    0.000    0.000    0.000 
#
# Total GULP energy -272857.835231 kJ/mol
# GULP energy per Si atom -12402.628874 kJ/mol
# Density = 2.138226 g / cm^3
# Si number density = 21.431041 Si / 1000 Ang^3
#
#
#
# Elastic Constant Matrix: (Units=GPa)
#
#
# Indices 1 2 3 4 5 6 
#
# 1 88.8603 22.0726 21.2819 0.0004 -8.5354 -0.0001
# 2 22.0726 68.6169 30.1377 0.0015 -1.6920 -0.0004
# 3 21.2819 30.1377 96.4487 0.0008 -1.2999 -0.0003
# 4 0.0004 0.0015 0.0008 35.4904 -0.0001 -5.1623
# 5 -8.5354 -1.6920 -1.2999 -0.0001 22.7230 0.0000
# 6 -0.0001 -0.0004 -0.0003 -5.1623 0.0000 24.0190
#
#
#
# Elastic Compliance Matrix: (Units=1/GPa)
#
#
# Indices 1 2 3 4 5 6 
#
# 1 0.012922 -0.003269 -0.001769 0.000000 0.004509 0.000000
# 2 -0.003269 0.017740 -0.004824 -0.000001 -0.000183 0.000000
# 3 -0.001769 -0.004824 0.012262 0.000000 -0.000322 0.000000
# 4 0.000000 -0.000001 0.000000 0.029086 0.000000 0.006251
# 5 0.004509 -0.000183 -0.000322 0.000000 0.045670 0.000000
# 6 0.000000 0.000000 0.000000 0.006251 0.000000 0.042977
#
#
# Mechanical properties :
#
#
# Convention : Reuss Voigt Hill
#
# Bulk Modulus (GPa) = 43.10485 44.54559 43.82522
# Shear Modulus (GPa) = 26.57957 28.47541 27.52749
#
# Velocity S-wave (km/s) = 3.52552 3.64909 3.58784
# Velocity P-wave (km/s) = 6.06047 6.21169 6.13655
#
# Compressibility (1/GPa) = 0.02319924
#
# Stress axis : x y z
#
# Youngs Moduli (GPa) = 77.38496 56.37127 81.55442
#
# Poissons Ratio (x) = 0.18425 0.14429
# Poissons Ratio (y) = 0.25294 0.39345
# Poissons Ratio (z) = 0.13691 0.27196
#
# Static dielectric constant tensor:
#      x y z
#    x 3.853160 0.000000 -0.055550 
#    y 0.000000 3.772940 0.000000 
#    z -0.055550 0.000000 3.853630 
# 
# 
# High freq. dielectric constant tensor:
#      x y z
#    x 1.843410 0.000000 -0.005080 
#    y 0.000000 1.832310 0.000000 
#    z -0.005080 0.000000 1.843550 
# 
# From -- ./inp_files/171699.got.cif
#   From: 2010.06.25/outbox.cif.g09.slc.cpg/sg15_86_cif.got.tgz:171699.got - 2010.06.28 07:06:18.
