data_PCOD8132644
_publ_section_title
;
Structure prediction by ZEFSAII (Michael W. Deem and Ramdas Pophale) SiO2 
 PCOD8132644
Probable space group: C 2/C
;
_chemical_formula_sum "Si O2"
_cell_formula_units_Z 48
_cell_length_a 13.813583
_cell_length_b 13.494975
_cell_length_c 33.339529
_cell_angle_alpha 90.000000
_cell_angle_beta 155.656470
_cell_angle_gamma 90.000000
_cell_volume 2561.845306
_symmetry_space_group_name_H-M "C 2/C"
_symmetry_group_IT_number 15
_symmetry_cell_setting 'monoclinic'
loop_
_space_group_symop_operation_xyz
x,y,z
-x,y,1/2-z
-x,-y,-z
x,-y,1/2+z
1/2+x,1/2+y,z
1/2-x,1/2+y,1/2-z
1/2-x,1/2-y,-z
1/2+x,1/2-y,1/2+z
loop_
_atom_site_type_symbol
_atom_site_label
_atom_site_fract_x
_atom_site_fract_y
_atom_site_fract_z
Si Si1 0.253324 0.655018 0.678984
Si Si2 0.841705 0.241861 0.990868
Si Si3 0.194144 0.400939 0.290069
Si Si4 0.904068 0.481347 0.825537
Si Si5 0.577436 0.486692 0.984348
Si Si6 0.163631 0.227179 0.224583
O O1 0.500000 0.652821 0.750000
O O2 0.199361 0.547913 0.677584
O O3 0.249701 0.736932 0.713168
O O4 0.063397 0.682753 0.572232
O O5 0.623070 0.268837 0.879099
O O6 0.750000 0.250000 0.000000
O O7 0.927939 0.130687 0.020100
O O8 0.088339 0.462586 0.213690
O O9 0.405109 0.462714 0.387935
O O10 0.274593 0.295506 0.301645
O O11 0.000000 0.381102 0.250000
O O12 0.750936 0.383043 0.765368
O O13 0.178592 0.461344 0.936335
O O14 0.500000 0.500000 0.000000
#
# Coordination Sequence:
#
# PCOD8132644 Si02
#       6
#     8   8   8   8   8   8
#     4  10  22  39  61  88 118 161 208 245 295 367
#     4  10  18  39  60  85 117 159 193 245 301 357
#     4  11  21  39  62  89 123 156 194 253 305 356
#     4  11  23  39  60  93 122 156 203 252 300 357
#     4  12  22  36  63  94 119 153 204 248 306 359
#     4  10  22  39  60  87 122 155 197 251 308 348
#
# _framework density 18.736494
#
# number of rings (size 3 to 8) (size 9 to 14) (size 15 to 20)
#    0.000    1.333    6.667    2.000    2.333    2.667 
#    0.000    0.833    0.000    0.000    0.000    0.000 
#    0.000    0.000    0.000    0.000    0.000    0.000 
#
# Total GULP energy -297418.550226 kJ/mol
# GULP energy per Si atom -12392.439593 kJ/mol
# Density = 1.869385 g / cm^3
# Si number density = 18.736494 Si / 1000 Ang^3
#
#
#
# Elastic Constant Matrix: (Units=GPa)
#
#
# Indices 1 2 3 4 5 6 
#
# 1 105.0760 46.1241 47.9564 0.0001 17.8100 -0.0002
# 2 46.1241 133.5901 30.9316 0.0003 4.8408 -0.0002
# 3 47.9564 30.9316 76.1739 -0.0007 21.1531 0.0006
# 4 0.0001 0.0003 -0.0007 38.5607 -0.0002 -3.4266
# 5 17.8100 4.8408 21.1531 -0.0002 30.0322 0.0002
# 6 -0.0002 -0.0002 0.0006 -3.4266 0.0002 18.9138
#
#
#
# Elastic Compliance Matrix: (Units=1/GPa)
#
#
# Indices 1 2 3 4 5 6 
#
# 1 0.014741 -0.003347 -0.007016 0.000000 -0.003261 0.000000
# 2 -0.003347 0.009062 -0.002136 0.000000 0.002029 0.000000
# 3 -0.007016 -0.002136 0.021334 0.000000 -0.010522 -0.000001
# 4 0.000000 0.000000 0.000000 0.026357 0.000000 0.004775
# 5 -0.003261 0.002029 -0.010522 0.000000 0.042315 0.000000
# 6 0.000000 0.000000 -0.000001 0.004775 0.000000 0.053736
#
#
# Mechanical properties :
#
#
# Convention : Reuss Voigt Hill
#
# Bulk Modulus (GPa) = 49.65378 62.76270 56.20824
# Shear Modulus (GPa) = 25.09326 30.15652 27.62489
#
# Velocity S-wave (km/s) = 3.66358 4.01622 3.84394
# Velocity P-wave (km/s) = 6.66741 7.42139 7.05448
#
# Compressibility (1/GPa) = 0.02013945
#
# Stress axis : x y z
#
# Youngs Moduli (GPa) = 67.83946 110.34788 46.87368
#
# Poissons Ratio (x) = 0.36932 0.32885
# Poissons Ratio (y) = 0.22705 0.10013
# Poissons Ratio (z) = 0.47594 0.23572
#
# Static dielectric constant tensor:
#      x y z
#    x 2.980600 0.000010 -1.226270 
#    y 0.000010 3.603720 0.000030 
#    z -1.226270 0.000030 -0.509930 
# 
# 
# High freq. dielectric constant tensor:
#      x y z
#    x 1.718860 0.000000 0.004620 
#    y 0.000000 1.728430 0.000000 
#    z 0.004620 0.000000 1.737130 
# 
# From -- ./inp_files/237729.got.cif
#   From: 2010.06.25/outbox.cif.g09.slc.cpg/sg15_119_cif.got.tgz:237729.got - 2010.06.28 07:06:18.
