data_PCOD8132935
_publ_section_title
;
Structure prediction by ZEFSAII (Michael W. Deem and Ramdas Pophale) SiO2 
 PCOD8132935
Probable space group: C 2/C
;
_chemical_formula_sum "Si O2"
_cell_formula_units_Z 64
_cell_length_a 21.069601
_cell_length_b 23.579459
_cell_length_c 8.944680
_cell_angle_alpha 90.000000
_cell_angle_beta 64.879049
_cell_angle_gamma 90.000000
_cell_volume 4023.481244
_symmetry_space_group_name_H-M "C 2/C"
_symmetry_group_IT_number 15
_symmetry_cell_setting 'monoclinic'
loop_
_space_group_symop_operation_xyz
x,y,z
-x,y,1/2-z
-x,-y,-z
x,-y,1/2+z
1/2+x,1/2+y,z
1/2-x,1/2+y,1/2-z
1/2-x,1/2-y,-z
1/2+x,1/2-y,1/2+z
loop_
_atom_site_type_symbol
_atom_site_label
_atom_site_fract_x
_atom_site_fract_y
_atom_site_fract_z
Si Si1 0.139238 0.229439 0.933691
Si Si2 0.228277 0.335723 0.845263
Si Si3 0.857466 0.559785 0.716325
Si Si4 0.360762 0.270562 0.712167
Si Si5 0.500000 0.243169 0.426922
Si Si6 0.500000 0.120389 0.574005
Si Si7 0.142534 0.559785 0.431258
Si Si8 0.271723 0.835723 0.301817
O O1 0.175237 0.287459 0.839934
O O2 0.067054 0.221786 0.917776
O O3 0.191416 0.177605 0.836179
O O4 0.124683 0.230534 0.125317
O O5 0.308585 0.322395 0.719010
O O6 0.202851 0.397008 0.812266
O O7 0.222088 0.333373 0.027912
O O8 0.932791 0.584023 0.592159
O O9 0.842480 0.500000 0.657520
O O10 0.797150 0.602992 0.717967
O O11 0.854212 0.551827 0.895787
O O12 0.432946 0.278214 0.551885
O O13 0.324763 0.212541 0.690409
O O14 0.500000 0.240969 0.250000
O O15 0.500000 0.179854 0.490518
O O16 0.500000 0.133716 0.750000
O O17 0.567209 0.084023 0.457741
#
# Coordination Sequence:
#
# PCOD8132935 Si02
#       8
#     8   8   8   8   8   8   8   8
#     4   9  16  31  52  68  87 120 158 195 231 274
#     4   8  15  29  51  71  86 115 162 200 226 267
#     4  10  19  31  47  69  94 125 161 194 228 269
#     4   9  16  31  52  68  87 120 158 195 231 274
#     4  12  22  29  43  72 102 125 150 189 241 287
#     4  10  19  33  49  62  90 133 171 195 214 259
#     4  10  19  31  47  69  94 125 161 194 228 269
#     4   8  15  29  51  71  86 115 162 200 226 267
#
# _framework density 15.906623
#
# number of rings (size 3 to 8) (size 9 to 14) (size 15 to 20)
#    0.000    2.500    2.500    3.000    0.000    1.000 
#    0.000    3.750    0.000    0.000    0.000    0.875 
#    0.000    0.000    0.000    0.000    0.000    0.000 
#
# Total GULP energy -396656.707734 kJ/mol
# GULP energy per Si atom -12395.522117 kJ/mol
# Density = 1.587042 g / cm^3
# Si number density = 15.906623 Si / 1000 Ang^3
#
#
#
# Elastic Constant Matrix: (Units=GPa)
#
#
# Indices 1 2 3 4 5 6 
#
# 1 104.9450 65.2391 51.4626 0.0000 -28.5325 0.0000
# 2 65.2391 112.0907 38.3950 0.0000 -19.4592 0.0000
# 3 51.4626 38.3950 50.0707 0.0000 -11.2455 0.0000
# 4 0.0000 0.0000 0.0000 23.4252 0.0000 -0.7894
# 5 -28.5325 -19.4592 -11.2455 0.0000 19.5921 0.0000
# 6 0.0000 0.0000 0.0000 -0.7894 0.0000 24.5142
#
#
#
# Elastic Compliance Matrix: (Units=1/GPa)
#
#
# Indices 1 2 3 4 5 6 
#
# 1 0.031056 -0.006148 -0.021145 0.000000 0.026985 0.000000
# 2 -0.006148 0.014415 -0.004053 0.000000 0.003038 0.000000
# 3 -0.021145 -0.004053 0.042466 0.000000 -0.010444 0.000000
# 4 0.000000 0.000000 0.000000 0.042735 0.000000 0.001376
# 5 0.026985 0.003038 -0.010444 0.000000 0.087363 0.000000
# 6 0.000000 0.000000 0.000000 0.001376 0.000000 0.040837
#
#
# Mechanical properties :
#
#
# Convention : Reuss Voigt Hill
#
# Bulk Modulus (GPa) = 39.60825 64.14445 51.87635
# Shear Modulus (GPa) = 15.15249 20.97361 18.06305
#
# Velocity S-wave (km/s) = 3.08975 3.63512 3.37347
# Velocity P-wave (km/s) = 6.13867 7.61787 6.91792
#
# Compressibility (1/GPa) = 0.02524726
#
# Stress axis : x y z
#
# Youngs Moduli (GPa) = 32.19970 69.37170 23.54817
#
# Poissons Ratio (x) = 0.42649 0.49791
# Poissons Ratio (y) = 0.19796 0.09543
# Poissons Ratio (z) = 0.68085 0.28114
#
# Static dielectric constant tensor:
#      x y z
#    x 3.174550 0.000000 -0.243360 
#    y 0.000000 3.127730 0.000000 
#    z -0.243360 0.000000 2.838840 
# 
# 
# High freq. dielectric constant tensor:
#      x y z
#    x 1.606970 0.000000 -0.012380 
#    y 0.000000 1.588430 0.000000 
#    z -0.012380 0.000000 1.589890 
# 
# From -- ./inp_files/58923.got.cif
#   From: 2010.06.25/outbox.cif.g09.slc.cpg/sg15_30_cif.got.tgz:58923.got - 2010.06.28 07:06:18.
