data_PCOD8132195
_publ_section_title
;
Structure prediction by ZEFSAII (Michael W. Deem and Ramdas Pophale) SiO2 
 PCOD8132195
Probable space group: C 2/C
;
_chemical_formula_sum "Si O2"
_cell_formula_units_Z 40
_cell_length_a 21.514301
_cell_length_b 10.019646
_cell_length_c 8.310900
_cell_angle_alpha 90.000000
_cell_angle_beta 74.411133
_cell_angle_gamma 90.000000
_cell_volume 1725.642479
_symmetry_space_group_name_H-M "C 2/C"
_symmetry_group_IT_number 15
_symmetry_cell_setting 'monoclinic'
loop_
_space_group_symop_operation_xyz
x,y,z
-x,y,1/2-z
-x,-y,-z
x,-y,1/2+z
1/2+x,1/2+y,z
1/2-x,1/2+y,1/2-z
1/2-x,1/2-y,-z
1/2+x,1/2-y,1/2+z
loop_
_atom_site_type_symbol
_atom_site_label
_atom_site_fract_x
_atom_site_fract_y
_atom_site_fract_z
Si Si1 0.406433 0.058308 0.340762
Si Si2 0.223068 0.835569 0.782527
Si Si3 0.902466 0.718845 0.735111
Si Si4 0.227775 0.574754 0.928852
Si Si5 0.969424 0.343747 0.494922
O O1 0.346345 0.120725 0.480218
O O2 0.463894 0.997032 0.418339
O O3 0.436068 0.164721 0.193587
O O4 0.373685 0.933213 0.266550
O O5 0.149809 0.831510 0.768380
O O6 0.250043 0.683510 0.778437
O O7 0.267811 0.921627 0.631555
O O8 0.224919 0.907872 0.953288
O O9 0.956949 0.711767 0.554667
O O10 0.932257 0.750755 0.891435
#
# Coordination Sequence:
#
# PCOD8132195 Si02
#       5
#     8   8   8   8   8
#     4  10  18  36  58  98 129 166 217 292 317 378
#     4  11  24  45  64  96 133 173 224 266 332 398
#     4   9  20  33  61  91 131 166 211 270 327 391
#     4  11  25  42  66  99 131 174 219 272 335 394
#     4   9  19  32  60  92 130 164 222 272 336 366
#
# _framework density 23.179773999999998
#
# number of rings (size 3 to 8) (size 9 to 14) (size 15 to 20)
#    1.200    0.800    0.000    4.200    0.000    3.200 
#    3.600    0.000    0.000    4.800    0.000    0.000 
#    0.000    0.000    0.000    0.000    0.000    0.000 
#
# Total GULP energy -247817.493253 kJ/mol
# GULP energy per Si atom -12390.874663 kJ/mol
# Density = 2.312702 g / cm^3
# Si number density = 23.179774 Si / 1000 Ang^3
#
#
#
# Elastic Constant Matrix: (Units=GPa)
#
#
# Indices 1 2 3 4 5 6 
#
# 1 138.9612 38.2943 49.1417 0.0000 0.1365 0.0000
# 2 38.2943 51.2429 35.1553 0.0000 -8.5046 0.0000
# 3 49.1417 35.1553 109.3826 0.0000 -14.7993 0.0000
# 4 0.0000 0.0000 0.0000 17.1139 0.0000 9.1213
# 5 0.1365 -8.5046 -14.7993 0.0000 31.3414 0.0000
# 6 0.0000 0.0000 0.0000 9.1213 0.0000 30.5574
#
#
#
# Elastic Compliance Matrix: (Units=1/GPa)
#
#
# Indices 1 2 3 4 5 6 
#
# 1 0.009854 -0.005835 -0.002961 0.000000 -0.003024 0.000000
# 2 -0.005835 0.028793 -0.005953 0.000000 0.005028 0.000000
# 3 -0.002961 -0.005953 0.012999 0.000000 0.004536 0.000000
# 4 0.000000 0.000000 0.000000 0.069487 0.000000 -0.020742
# 5 -0.003024 0.005028 0.004536 0.000000 0.035426 0.000000
# 6 0.000000 0.000000 0.000000 -0.020742 0.000000 0.038917
#
#
# Mechanical properties :
#
#
# Convention : Reuss Voigt Hill
#
# Bulk Modulus (GPa) = 45.14594 60.52992 52.83793
# Shear Modulus (GPa) = 21.51861 27.60221 24.56041
#
# Velocity S-wave (km/s) = 3.05017 3.45452 3.25862
# Velocity P-wave (km/s) = 5.65008 6.48703 6.08297
#
# Compressibility (1/GPa) = 0.02215039
#
# Stress axis : x y z
#
# Youngs Moduli (GPa) = 101.47881 34.73016 76.92660
#
# Poissons Ratio (x) = 0.20264 0.22779
# Poissons Ratio (y) = 0.59209 0.45791
# Poissons Ratio (z) = 0.30049 0.20673
#
# Static dielectric constant tensor:
#      x y z
#    x 4.155050 0.000000 0.374390 
#    y 0.000000 3.591390 0.000000 
#    z 0.374390 0.000000 4.314150 
# 
# 
# High freq. dielectric constant tensor:
#      x y z
#    x 1.928680 0.000000 0.029830 
#    y 0.000000 1.834490 0.000000 
#    z 0.029830 0.000000 1.934470 
# 
# From -- ./inp_files/59939.got.cif
#   From: 2010.06.25/outbox.cif.g09.slc.cpg/sg15_30_cif.got.tgz:59939.got - 2010.06.28 07:06:18.
