data_PCOD8132409
_publ_section_title
;
Structure prediction by ZEFSAII (Michael W. Deem and Ramdas Pophale) SiO2 
 PCOD8132409
Probable space group: C 2/C
;
_chemical_formula_sum "Si O2"
_cell_formula_units_Z 64
_cell_length_a 13.929946
_cell_length_b 13.277446
_cell_length_c 18.805422
_cell_angle_alpha 90.000000
_cell_angle_beta 83.604951
_cell_angle_gamma 90.000000
_cell_volume 3456.497450
_symmetry_space_group_name_H-M "C 2/C"
_symmetry_group_IT_number 15
_symmetry_cell_setting 'monoclinic'
loop_
_space_group_symop_operation_xyz
x,y,z
-x,y,1/2-z
-x,-y,-z
x,-y,1/2+z
1/2+x,1/2+y,z
1/2-x,1/2+y,1/2-z
1/2-x,1/2-y,-z
1/2+x,1/2-y,1/2+z
loop_
_atom_site_type_symbol
_atom_site_label
_atom_site_fract_x
_atom_site_fract_y
_atom_site_fract_z
Si Si1 0.100865 0.996912 0.264938
Si Si2 0.422141 0.280516 0.676663
Si Si3 0.270100 0.081064 0.499918
Si Si4 0.943364 0.102128 0.492090
Si Si5 0.383747 0.736886 0.023204
Si Si6 0.187043 0.935968 0.619699
Si Si7 0.859243 0.269192 0.327158
Si Si8 0.220599 0.067528 0.889053
O O1 0.071905 0.107144 0.293731
O O2 0.169347 0.995209 0.190020
O O3 0.000000 0.942197 0.250000
O O4 0.158677 0.942674 0.322674
O O5 0.361322 0.273466 0.609132
O O6 0.530642 0.240656 0.654408
O O7 0.364179 0.216863 0.741128
O O8 0.368598 0.146420 0.500450
O O9 0.183750 0.161804 0.516946
O O10 0.262750 0.993317 0.561104
O O11 0.261670 0.035187 0.421192
O O12 0.913032 0.087656 0.412993
O O13 0.849665 0.118602 0.547874
O O14 0.006759 0.201841 0.499413
O O15 0.000000 0.000000 0.500000
O O16 0.213651 0.823409 0.645264
O O17 0.814989 0.367435 0.366692
#
# Coordination Sequence:
#
# PCOD8132409 Si02
#       8
#     8   8   8   8   8   8   8   8
#     4  11  18  33  59  85 110 146 189 235 283 343
#     4  10  18  37  60  82 112 151 197 230 281 347
#     4  10  23  33  56  87 117 144 191 234 292 335
#     4  11  18  34  60  83 116 144 186 237 286 332
#     4  11  19  36  57  85 113 153 185 238 284 348
#     4  10  19  34  55  83 109 148 189 234 272 342
#     4  10  21  35  59  86 114 148 194 241 283 331
#     4  11  23  36  56  89 118 146 187 248 291 330
#
# _framework density 18.515854000000001
#
# number of rings (size 3 to 8) (size 9 to 14) (size 15 to 20)
#    0.000    1.500    7.500    0.750    1.750    2.000 
#    0.000    0.625    0.000    0.000    0.000    0.000 
#    0.000    0.000    0.000    0.000    0.000    0.000 
#
# Total GULP energy -396430.911765 kJ/mol
# GULP energy per Si atom -12388.465993 kJ/mol
# Density = 1.847371 g / cm^3
# Si number density = 18.515854 Si / 1000 Ang^3
#
#
#
# Elastic Constant Matrix: (Units=GPa)
#
#
# Indices 1 2 3 4 5 6 
#
# 1 61.4130 43.8664 30.8927 0.0000 -4.6490 0.0000
# 2 43.8664 84.6491 33.4913 0.0000 -10.0111 0.0000
# 3 30.8927 33.4913 101.9016 0.0000 6.5842 0.0000
# 4 0.0000 0.0000 0.0000 22.9643 0.0000 1.5907
# 5 -4.6490 -10.0111 6.5842 0.0000 28.0296 0.0000
# 6 0.0000 0.0000 0.0000 1.5907 0.0000 36.4139
#
#
#
# Elastic Compliance Matrix: (Units=1/GPa)
#
#
# Indices 1 2 3 4 5 6 
#
# 1 0.027346 -0.012330 -0.004312 0.000000 0.001145 0.000000
# 2 -0.012330 0.020206 -0.003287 0.000000 0.005944 0.000000
# 3 -0.004312 -0.003287 0.012513 0.000000 -0.004829 0.000000
# 4 0.000000 0.000000 0.000000 0.043678 0.000000 -0.001908
# 5 0.001145 0.005944 -0.004829 0.000000 0.039124 0.000000
# 6 0.000000 0.000000 0.000000 -0.001908 0.000000 0.027545
#
#
# Mechanical properties :
#
#
# Convention : Reuss Voigt Hill
#
# Bulk Modulus (GPa) = 49.48631 51.60718 50.54674
# Shear Modulus (GPa) = 23.04087 26.79579 24.91833
#
# Velocity S-wave (km/s) = 3.53141 3.80831 3.67247
# Velocity P-wave (km/s) = 6.58880 6.87532 6.73359
#
# Compressibility (1/GPa) = 0.02020761
#
# Stress axis : x y z
#
# Youngs Moduli (GPa) = 36.56884 49.48911 79.91688
#
# Poissons Ratio (x) = 0.61018 0.34459
# Poissons Ratio (y) = 0.45088 0.26271
# Poissons Ratio (z) = 0.15768 0.16269
#
# Static dielectric constant tensor:
#      x y z
#    x 2.831060 0.000000 1.249130 
#    y 0.000000 3.324060 0.000000 
#    z 1.249130 0.000000 1.363550 
# 
# 
# High freq. dielectric constant tensor:
#      x y z
#    x 1.688620 0.000000 0.013320 
#    y 0.000000 1.692390 0.000000 
#    z 0.013320 0.000000 1.733760 
# 
# From -- ./inp_files/205088.got.cif
#   From: 2010.06.25/outbox.cif.g09.slc.cpg/sg15_103_cif.got.tgz:205088.got - 2010.06.28 07:06:18.
