data_PCOD8132379
_publ_section_title
;
Structure prediction by ZEFSAII (Michael W. Deem and Ramdas Pophale) SiO2 
 PCOD8132379
Probable space group: C 2/C
;
_chemical_formula_sum "Si O2"
_cell_formula_units_Z 60
_cell_length_a 17.853591
_cell_length_b 20.820491
_cell_length_c 14.219961
_cell_angle_alpha 90.000000
_cell_angle_beta 32.110464
_cell_angle_gamma 90.000000
_cell_volume 2809.711684
_symmetry_space_group_name_H-M "C 2/C"
_symmetry_group_IT_number 15
_symmetry_cell_setting 'monoclinic'
loop_
_space_group_symop_operation_xyz
x,y,z
-x,y,1/2-z
-x,-y,-z
x,-y,1/2+z
1/2+x,1/2+y,z
1/2-x,1/2+y,1/2-z
1/2-x,1/2-y,-z
1/2+x,1/2-y,1/2+z
loop_
_atom_site_type_symbol
_atom_site_label
_atom_site_fract_x
_atom_site_fract_y
_atom_site_fract_z
Si Si1 0.500000 0.601829 0.750000
Si Si2 0.816550 0.109718 0.307903
Si Si3 0.956382 0.020528 0.396620
Si Si4 0.477486 0.178616 0.372168
Si Si5 0.061782 0.798438 0.509809
Si Si6 0.844576 0.197356 0.793090
Si Si7 0.046398 0.647232 0.499775
Si Si8 0.232247 0.614342 0.608466
O O1 0.555800 0.556441 0.604337
O O2 0.373571 0.644399 0.843145
O O3 0.696999 0.114147 0.355703
O O4 0.734958 0.106596 0.493627
O O5 0.912250 0.046103 0.179005
O O6 0.915195 0.172688 0.202570
O O7 0.808411 0.053709 0.580461
O O8 0.000000 0.053349 0.250000
O O9 0.500000 0.139070 0.250000
O O10 0.320818 0.207087 0.547051
O O11 0.590031 0.235895 0.243318
O O12 0.509740 0.135825 0.428961
O O13 0.086094 0.824685 0.378454
O O14 0.053989 0.721930 0.518688
O O15 0.190119 0.820363 0.440448
O O16 0.929121 0.613470 0.688150
#
# Coordination Sequence:
#
# PCOD8132379 Si02
#       8
#     4   8   8   8   8   8   8   8
#     4  10  20  40  72  90 112 168 222 254 306 366
#     4  10  20  34  60  83 130 165 206 256 306 350
#     4   7  17  37  61  84 115 156 210 263 284 348
#     4  11  24  41  62  93 135 159 193 254 314 382
#     4  10  21  34  52  93 128 159 204 252 296 396
#     4  11  23  39  67  94 124 163 203 248 320 376
#     4  11  22  32  57  91 126 165 204 244 316 378
#     4  10  18  37  56  83 129 164 206 257 306 352
#
# _framework density 21.354505
#
# number of rings (size 3 to 8) (size 9 to 14) (size 15 to 20)
#    0.400    1.600    2.000    2.800    5.600    3.200 
#    0.000    2.667    2.933    0.800    0.000    0.000 
#    0.000    0.000    0.000    0.000    0.000    0.000 
#
# Total GULP energy -371802.312512 kJ/mol
# GULP energy per Si atom -12393.410417 kJ/mol
# Density = 2.130590 g / cm^3
# Si number density = 21.354505 Si / 1000 Ang^3
#
#
#
# Elastic Constant Matrix: (Units=GPa)
#
#
# Indices 1 2 3 4 5 6 
#
# 1 106.6224 20.2500 33.2371 0.0123 -16.6718 -0.0032
# 2 20.2500 41.9282 10.8165 0.0118 -4.2618 -0.0044
# 3 33.2371 10.8165 77.8971 0.0208 -16.7632 -0.0075
# 4 0.0123 0.0118 0.0208 6.0512 -0.0113 -1.6987
# 5 -16.6718 -4.2618 -16.7632 -0.0113 43.4039 0.0033
# 6 -0.0032 -0.0044 -0.0075 -1.6987 0.0033 16.4299
#
#
#
# Elastic Compliance Matrix: (Units=1/GPa)
#
#
# Indices 1 2 3 4 5 6 
#
# 1 0.011840 -0.004454 -0.003871 0.000003 0.002616 -0.000001
# 2 -0.004454 0.026470 -0.001727 -0.000036 0.000221 0.000002
# 3 -0.003871 -0.001727 0.015675 -0.000034 0.004398 0.000002
# 4 0.000003 -0.000036 -0.000034 0.170196 0.000027 0.017597
# 5 0.002616 0.000221 0.004398 0.000027 0.025764 0.000000
# 6 -0.000001 0.000002 0.000002 0.017597 0.000000 0.062684
#
#
# Mechanical properties :
#
#
# Convention : Reuss Voigt Hill
#
# Bulk Modulus (GPa) = 29.51527 39.45056 34.48291
# Shear Modulus (GPa) = 14.53371 23.98662 19.26017
#
# Velocity S-wave (km/s) = 2.61165 3.35514 3.00647
# Velocity P-wave (km/s) = 4.79018 5.78995 5.31363
#
# Compressibility (1/GPa) = 0.03388077
#
# Stress axis : x y z
#
# Youngs Moduli (GPa) = 84.45637 37.77914 63.79502
#
# Poissons Ratio (x) = 0.16827 0.24693
# Poissons Ratio (y) = 0.37618 0.11020
# Poissons Ratio (z) = 0.32690 0.06526
#
# Static dielectric constant tensor:
#      x y z
#    x 4.075280 -0.000010 0.025750 
#    y -0.000010 3.415410 0.000010 
#    z 0.025750 0.000010 3.756490 
# 
# 
# High freq. dielectric constant tensor:
#      x y z
#    x 1.847710 0.000000 -0.004990 
#    y 0.000000 1.795760 0.000000 
#    z -0.004990 0.000000 1.835080 
# 
# From -- ./inp_files/164091.got.cif
#   From: 2010.06.25/outbox.cif.g09.slc.cpg/sg15_83_cif.got.tgz:164091.got - 2010.06.28 07:06:18.
