data_PCOD8132951
_publ_section_title
;
Structure prediction by ZEFSAII (Michael W. Deem and Ramdas Pophale) SiO2 
 PCOD8132951
Probable space group: C 2/C
;
_chemical_formula_sum "Si O2"
_cell_formula_units_Z 64
_cell_length_a 28.812799
_cell_length_b 14.584476
_cell_length_c 8.750250
_cell_angle_alpha 90.000000
_cell_angle_beta 72.320435
_cell_angle_gamma 90.000000
_cell_volume 3503.359859
_symmetry_space_group_name_H-M "C 2/C"
_symmetry_group_IT_number 15
_symmetry_cell_setting 'monoclinic'
loop_
_space_group_symop_operation_xyz
x,y,z
-x,y,1/2-z
-x,-y,-z
x,-y,1/2+z
1/2+x,1/2+y,z
1/2-x,1/2+y,1/2-z
1/2-x,1/2-y,-z
1/2+x,1/2-y,1/2+z
loop_
_atom_site_type_symbol
_atom_site_label
_atom_site_fract_x
_atom_site_fract_y
_atom_site_fract_z
Si Si1 0.325080 0.594306 0.853105
Si Si2 0.948051 0.595747 0.371999
Si Si3 0.277884 0.094776 0.043137
Si Si4 0.948051 0.595747 0.731899
Si Si5 0.631357 0.216920 0.192475
Si Si6 0.325080 0.594306 0.496734
Si Si7 0.777884 0.594776 0.401096
Si Si8 0.868643 0.283080 0.455188
O O1 0.364285 0.674479 0.844448
O O2 0.316471 0.579112 0.683529
O O3 0.345349 0.500000 0.904651
O O4 0.273603 0.623417 0.976225
O O5 0.953326 0.584144 0.546674
O O6 0.928785 0.500000 0.321215
O O7 0.910728 0.676853 0.371821
O O8 0.000000 0.622311 0.250000
O O9 0.270781 0.081520 0.229219
O O10 0.226397 0.123417 0.023432
O O11 0.316946 0.172375 0.964232
O O12 0.297140 0.000000 0.952860
O O13 0.910728 0.676853 0.806722
O O14 0.000000 0.622311 0.750000
O O15 0.683054 0.172375 0.098125
O O16 0.618094 0.197036 0.381906
O O17 0.364285 0.674479 0.426981
#
# Coordination Sequence:
#
# PCOD8132951 Si02
#       8
#     8   8   8   8   8   8   8   8
#     4  10  20  34  51  72 103 139 176 218 258 301
#     4  11  22  37  58  81 108 137 166 205 253 307
#     4  10  19  31  48  72 104 138 173 212 255 305
#     4  11  22  37  58  81 108 137 166 205 253 307
#     4  10  21  35  52  76 104 136 175 216 257 304
#     4  10  20  34  51  72 103 139 176 218 258 301
#     4  10  19  31  48  72 104 138 173 212 255 305
#     4  10  21  35  52  76 104 136 175 216 257 304
#
# _framework density 18.268177000000001
#
# number of rings (size 3 to 8) (size 9 to 14) (size 15 to 20)
#    0.000    1.750    0.000    7.500    0.000    6.000 
#    0.000    0.000    0.000    0.750    0.000    5.250 
#    0.000    0.000    0.000    0.000    0.000    0.000 
#
# Total GULP energy -396890.171564 kJ/mol
# GULP energy per Si atom -12402.817861 kJ/mol
# Density = 1.822660 g / cm^3
# Si number density = 18.268177 Si / 1000 Ang^3
#
#
#
# Elastic Constant Matrix: (Units=GPa)
#
#
# Indices 1 2 3 4 5 6 
#
# 1 80.1568 58.6273 51.2564 0.0000 8.0206 0.0000
# 2 58.6273 115.3106 56.8351 0.0000 -0.4966 0.0000
# 3 51.2564 56.8351 131.8584 0.0000 6.3047 0.0000
# 4 0.0000 0.0000 0.0000 28.3701 0.0000 -0.1802
# 5 8.0206 -0.4966 6.3047 0.0000 28.4484 0.0000
# 6 0.0000 0.0000 0.0000 -0.1802 0.0000 29.0203
#
#
#
# Elastic Compliance Matrix: (Units=1/GPa)
#
#
# Indices 1 2 3 4 5 6 
#
# 1 0.022803 -0.009371 -0.004558 0.000000 -0.005582 0.000000
# 2 -0.009371 0.014908 -0.002953 0.000000 0.003557 0.000000
# 3 -0.004558 -0.002953 0.010683 0.000000 -0.001134 0.000000
# 4 0.000000 0.000000 0.000000 0.035250 0.000000 0.000219
# 5 -0.005582 0.003557 -0.001134 0.000000 0.037039 0.000000
# 6 0.000000 0.000000 0.000000 0.000219 0.000000 0.034460
#
#
# Mechanical properties :
#
#
# Convention : Reuss Voigt Hill
#
# Bulk Modulus (GPa) = 68.35615 73.41817 70.88716
# Shear Modulus (GPa) = 25.80228 27.87490 26.83859
#
# Velocity S-wave (km/s) = 3.76229 3.91048 3.83710
# Velocity P-wave (km/s) = 7.50816 7.78880 7.64977
#
# Compressibility (1/GPa) = 0.01462926
#
# Stress axis : x y z
#
# Youngs Moduli (GPa) = 43.85436 67.08002 93.60998
#
# Poissons Ratio (x) = 0.62862 0.42665
# Poissons Ratio (y) = 0.41097 0.27642
# Poissons Ratio (z) = 0.19988 0.19808
#
# Static dielectric constant tensor:
#      x y z
#    x 3.155050 0.000000 0.078550 
#    y 0.000000 3.433350 0.000000 
#    z 0.078550 0.000000 3.438530 
# 
# 
# High freq. dielectric constant tensor:
#      x y z
#    x 1.685820 0.000000 0.009580 
#    y 0.000000 1.709550 0.000000 
#    z 0.009580 0.000000 1.720400 
# 
# From -- ./inp_files/66221.got.cif
#   From: 2010.06.25/outbox.cif.g09.slc.cpg/sg15_34_cif.got.tgz:66221.got - 2010.06.28 07:06:18.
