data_PCOD8132291
_publ_section_title
;
Structure prediction by ZEFSAII (Michael W. Deem and Ramdas Pophale) SiO2 
 PCOD8132291
Probable space group: C 2/C
;
_chemical_formula_sum "Si O2"
_cell_formula_units_Z 60
_cell_length_a 8.471795
_cell_length_b 29.398839
_cell_length_c 11.283945
_cell_angle_alpha 90.000000
_cell_angle_beta 89.352017
_cell_angle_gamma 90.000000
_cell_volume 2810.210190
_symmetry_space_group_name_H-M "C 2/C"
_symmetry_group_IT_number 15
_symmetry_cell_setting 'monoclinic'
loop_
_space_group_symop_operation_xyz
x,y,z
-x,y,1/2-z
-x,-y,-z
x,-y,1/2+z
1/2+x,1/2+y,z
1/2-x,1/2+y,1/2-z
1/2-x,1/2-y,-z
1/2+x,1/2-y,1/2+z
loop_
_atom_site_type_symbol
_atom_site_label
_atom_site_fract_x
_atom_site_fract_y
_atom_site_fract_z
Si Si1 0.036265 0.938298 0.885375
Si Si2 0.663498 0.250045 0.316571
Si Si3 0.000000 0.080560 0.750000
Si Si4 0.807087 0.972649 0.066366
Si Si5 0.666183 0.188280 0.523518
Si Si6 0.788455 0.880439 0.437237
Si Si7 0.542575 0.095234 0.612665
Si Si8 0.830312 0.280612 0.094153
O O1 0.000000 0.925591 0.750000
O O2 0.182159 0.973609 0.905905
O O3 0.091820 0.892991 0.956185
O O4 0.871016 0.959931 0.934599
O O5 0.500000 0.254663 0.250000
O O6 0.676182 0.200556 0.382387
O O7 0.678801 0.290436 0.414620
O O8 0.803578 0.258256 0.222498
O O9 0.937044 0.048853 0.648838
O O10 0.860178 0.110122 0.806598
O O11 0.632599 0.952785 0.094028
O O12 0.652709 0.134615 0.552523
O O13 0.516291 0.215024 0.576915
O O14 0.623472 0.908002 0.454788
O O15 0.754007 0.827909 0.431200
O O16 0.500000 0.106242 0.750000
O O17 0.750000 0.250000 0.000000
#
# Coordination Sequence:
#
# PCOD8132291 Si02
#       8
#     8   8   4   8   8   8   8   8
#     4  10  22  44  63  93 135 170 211 269 324 386
#     4  11  22  38  63  87 119 166 217 268 322 389
#     4  10  18  36  62  98 116 156 212 266 308 370
#     4  10  21  37  68  93 124 168 213 261 326 386
#     4  10  23  41  59  92 128 163 208 279 338 367
#     4  10  23  37  65  94 127 163 222 266 325 384
#     4  11  21  40  64  98 132 165 215 278 329 391
#     4  11  22  41  62  88 127 170 213 270 322 386
#
# _framework density 21.350717
#
# number of rings (size 3 to 8) (size 9 to 14) (size 15 to 20)
#    0.000    1.600    3.333    2.000    0.933    1.600 
#    2.400    0.667    0.000    0.000    0.000    0.000 
#    0.000    0.000    0.000    0.000    0.000    0.000 
#
# Total GULP energy -371815.572456 kJ/mol
# GULP energy per Si atom -12393.852415 kJ/mol
# Density = 2.130212 g / cm^3
# Si number density = 21.350717 Si / 1000 Ang^3
#
#
#
# Elastic Constant Matrix: (Units=GPa)
#
#
# Indices 1 2 3 4 5 6 
#
# 1 32.3520 23.8103 20.4191 0.0000 -8.9483 0.0000
# 2 23.8103 77.5251 37.1981 0.0000 -12.8671 0.0000
# 3 20.4191 37.1981 123.8584 0.0000 -0.8424 0.0000
# 4 0.0000 0.0000 0.0000 9.3663 0.0000 -11.4947
# 5 -8.9483 -12.8671 -0.8424 0.0000 28.2804 0.0000
# 6 0.0000 0.0000 0.0000 -11.4947 0.0000 31.1492
#
#
#
# Elastic Compliance Matrix: (Units=1/GPa)
#
#
# Indices 1 2 3 4 5 6 
#
# 1 0.043236 -0.009788 -0.004126 0.000000 0.009104 0.000000
# 2 -0.009788 0.018683 -0.003962 0.000000 0.005285 0.000000
# 3 -0.004126 -0.003962 0.009925 0.000000 -0.002812 0.000000
# 4 0.000000 0.000000 0.000000 0.195140 0.000000 0.072011
# 5 0.009104 0.005285 -0.002812 0.000000 0.040562 0.000000
# 6 0.000000 0.000000 0.000000 0.072011 0.000000 0.058677
#
#
# Mechanical properties :
#
#
# Convention : Reuss Voigt Hill
#
# Bulk Modulus (GPa) = 27.70679 44.06560 35.88619
# Shear Modulus (GPa) = 12.07711 23.91304 17.99508
#
# Velocity S-wave (km/s) = 2.38093 3.35029 2.90631
# Velocity P-wave (km/s) = 4.53471 5.97073 5.30157
#
# Compressibility (1/GPa) = 0.03609224
#
# Stress axis : x y z
#
# Youngs Moduli (GPa) = 23.12868 53.52356 100.75959
#
# Poissons Ratio (x) = 0.52390 0.41576
# Poissons Ratio (y) = 0.22639 0.39916
# Poissons Ratio (z) = 0.09544 0.21203
#
# Static dielectric constant tensor:
#      x y z
#    x 4.055830 0.000000 -0.271400 
#    y 0.000000 3.636190 0.000000 
#    z -0.271400 0.000000 4.140520 
# 
# 
# High freq. dielectric constant tensor:
#      x y z
#    x 1.837660 0.000000 0.002450 
#    y 0.000000 1.821530 0.000000 
#    z 0.002450 0.000000 1.838950 
# 
# From -- ./inp_files/82210.got.cif
#   From: 2010.06.25/outbox.cif.g09.slc.cpg/sg15_42_cif.got.tgz:82210.got - 2010.06.28 07:06:18.
