data_PCOD8132049
_publ_section_title
;
Structure prediction by ZEFSAII (Michael W. Deem and Ramdas Pophale) SiO2 
 PCOD8132049
Probable space group: C 2/C
;
_chemical_formula_sum "Si O2"
_cell_formula_units_Z 48
_cell_length_a 9.970329
_cell_length_b 12.847650
_cell_length_c 18.960279
_cell_angle_alpha 90.000000
_cell_angle_beta 67.967470
_cell_angle_gamma 90.000000
_cell_volume 2251.355445
_symmetry_space_group_name_H-M "C 2/C"
_symmetry_group_IT_number 15
_symmetry_cell_setting 'monoclinic'
loop_
_space_group_symop_operation_xyz
x,y,z
-x,y,1/2-z
-x,-y,-z
x,-y,1/2+z
1/2+x,1/2+y,z
1/2-x,1/2+y,1/2-z
1/2-x,1/2-y,-z
1/2+x,1/2-y,1/2+z
loop_
_atom_site_type_symbol
_atom_site_label
_atom_site_fract_x
_atom_site_fract_y
_atom_site_fract_z
Si Si1 0.313767 0.494253 0.963199
Si Si2 0.004698 0.162559 0.510296
Si Si3 0.750250 0.780709 0.145479
Si Si4 0.556511 0.139423 0.562730
Si Si5 0.878061 0.564488 0.724236
Si Si6 0.840748 0.061340 0.305647
O O1 0.344661 0.605510 0.996732
O O2 0.343209 0.511437 0.874357
O O3 0.428274 0.408921 0.967047
O O4 0.148936 0.454025 0.008022
O O5 0.908187 0.170388 0.600785
O O6 0.021699 0.280569 0.476393
O O7 0.662697 0.793324 0.090205
O O8 0.669221 0.830263 0.227695
O O9 0.760268 0.659143 0.157163
O O10 0.433879 0.086508 0.634530
O O11 0.736359 0.493860 0.745384
O O12 0.000000 0.510061 0.750000
O O13 0.000000 0.094848 0.250000
#
# Coordination Sequence:
#
# PCOD8132049 Si02
#       6
#     8   8   8   8   8   8
#     4  10  20  33  61  93 120 156 206 266 304 383
#     4  10  18  35  61  94 120 155 213 258 310 377
#     4  10  19  39  61  85 118 162 209 254 304 374
#     4  10  18  39  60  85 121 164 207 248 319 380
#     4  10  24  41  59  86 123 165 203 253 311 383
#     4  12  22  38  64  90 118 162 211 259 314 368
#
# _framework density 21.320489999999999
#
# number of rings (size 3 to 8) (size 9 to 14) (size 15 to 20)
#    0.000    1.667    3.333    3.500    0.000    2.000 
#    0.000    3.333    0.000    0.000    0.000    0.000 
#    0.000    0.000    0.000    0.000    0.000    0.000 
#
# Total GULP energy -297491.173802 kJ/mol
# GULP energy per Si atom -12395.465575 kJ/mol
# Density = 2.127196 g / cm^3
# Si number density = 21.320490 Si / 1000 Ang^3
#
#
#
# Elastic Constant Matrix: (Units=GPa)
#
#
# Indices 1 2 3 4 5 6 
#
# 1 81.1071 55.6872 33.3681 0.0000 1.5743 0.0000
# 2 55.6872 84.4158 23.1487 0.0000 0.8829 0.0000
# 3 33.3681 23.1487 105.0414 0.0000 -11.4915 0.0000
# 4 0.0000 0.0000 0.0000 25.1125 0.0000 6.7278
# 5 1.5743 0.8829 -11.4915 0.0000 20.1196 0.0000
# 6 0.0000 0.0000 0.0000 6.7278 0.0000 34.3443
#
#
#
# Elastic Compliance Matrix: (Units=1/GPa)
#
#
# Indices 1 2 3 4 5 6 
#
# 1 0.024676 -0.014859 -0.005018 0.000000 -0.004145 0.000000
# 2 -0.014859 0.021655 -0.000031 0.000000 0.000195 0.000000
# 3 -0.005018 -0.000031 0.011908 0.000000 0.007195 0.000000
# 4 0.000000 0.000000 0.000000 0.042026 0.000000 -0.008233
# 5 -0.004145 0.000195 0.007195 0.000000 0.054128 0.000000
# 6 0.000000 0.000000 0.000000 -0.008233 0.000000 0.030730
#
#
# Mechanical properties :
#
#
# Convention : Reuss Voigt Hill
#
# Bulk Modulus (GPa) = 54.27663 54.99689 54.63676
# Shear Modulus (GPa) = 21.63767 26.47266 24.05516
#
# Velocity S-wave (km/s) = 3.18917 3.52753 3.36261
# Velocity P-wave (km/s) = 6.25091 6.51480 6.38422
#
# Compressibility (1/GPa) = 0.01842414
#
# Stress axis : x y z
#
# Youngs Moduli (GPa) = 40.52502 46.17951 83.97791
#
# Poissons Ratio (x) = 0.68618 0.42137
# Poissons Ratio (y) = 0.60216 0.00257
# Poissons Ratio (z) = 0.20334 0.00142
#
# Static dielectric constant tensor:
#      x y z
#    x 3.741700 0.000000 -0.006020 
#    y 0.000000 3.630320 0.000000 
#    z -0.006020 0.000000 3.946860 
# 
# 
# High freq. dielectric constant tensor:
#      x y z
#    x 1.814090 0.000000 -0.004070 
#    y 0.000000 1.820380 0.000000 
#    z -0.004070 0.000000 1.842650 
# 
# From -- ./inp_files/196507.got.cif
#   From: 2010.06.25/outbox.cif.g09.slc.cpg/sg15_99_cif.got.tgz:196507.got - 2010.06.28 07:06:18.
