data_PCOD8132564
_publ_section_title
;
Structure prediction by ZEFSAII (Michael W. Deem and Ramdas Pophale) SiO2 
 PCOD8132564
Probable space group: C 2/C
;
_chemical_formula_sum "Si O2"
_cell_formula_units_Z 56
_cell_length_a 27.359592
_cell_length_b 9.534036
_cell_length_c 14.214271
_cell_angle_alpha 90.000000
_cell_angle_beta 129.443560
_cell_angle_gamma 90.000000
_cell_volume 2863.316491
_symmetry_space_group_name_H-M "C 2/C"
_symmetry_group_IT_number 15
_symmetry_cell_setting 'monoclinic'
loop_
_space_group_symop_operation_xyz
x,y,z
-x,y,1/2-z
-x,-y,-z
x,-y,1/2+z
1/2+x,1/2+y,z
1/2-x,1/2+y,1/2-z
1/2-x,1/2-y,-z
1/2+x,1/2-y,1/2+z
loop_
_atom_site_type_symbol
_atom_site_label
_atom_site_fract_x
_atom_site_fract_y
_atom_site_fract_z
Si Si1 0.115204 0.701400 0.064752
Si Si2 0.165767 0.014213 0.572574
Si Si3 0.744582 0.917722 0.977007
Si Si4 0.279928 0.988320 0.352287
Si Si5 0.484995 0.985487 0.588975
Si Si6 0.889197 0.365082 0.728959
Si Si7 0.114434 0.730531 0.479724
O O1 0.120319 0.850721 0.019804
O O2 0.182693 0.625237 0.135932
O O3 0.098932 0.714729 0.156965
O O4 0.060481 0.616435 0.940241
O O5 0.199067 0.983715 0.514031
O O6 0.218797 0.037228 0.715188
O O7 0.118992 0.883209 0.532546
O O8 0.677044 0.948787 0.843504
O O9 0.750000 0.750000 0.000000
O O10 0.746508 0.006152 0.074995
O O11 0.325649 0.853950 0.406309
O O12 0.553293 0.975378 0.724706
O O13 0.450275 0.838424 0.564929
O O14 0.500000 0.000000 0.500000
O O15 0.884119 0.260947 0.633073
#
# Coordination Sequence:
#
# PCOD8132564 Si02
#       7
#     8   8   8   8   8   8   8
#     4  10  21  35  57  90 122 152 191 262 302 329
#     4  12  21  34  60  91 128 147 192 257 304 349
#     4  11  20  36  61  91 116 160 203 233 296 372
#     4  10  20  35  56  86 122 158 198 234 295 364
#     4   9  20  39  62  85 109 153 207 242 290 354
#     4  10  18  38  63  82 111 163 210 233 273 379
#     4  10  21  36  63  87 110 167 206 230 289 375
#
# _framework density 19.557739000000002
#
# number of rings (size 3 to 8) (size 9 to 14) (size 15 to 20)
#    0.000    1.714    4.286    2.143    0.000    0.571 
#    0.000    2.857    3.143   10.286    0.000    0.000 
#    0.000    0.000    0.000    0.000    0.000    0.000 
#
# Total GULP energy -346979.313403 kJ/mol
# GULP energy per Si atom -12392.118336 kJ/mol
# Density = 1.951323 g / cm^3
# Si number density = 19.557739 Si / 1000 Ang^3
#
#
#
# Elastic Constant Matrix: (Units=GPa)
#
#
# Indices 1 2 3 4 5 6 
#
# 1 101.5774 51.8439 29.2024 0.0000 2.9325 0.0000
# 2 51.8439 133.1277 40.0215 0.0000 5.6005 0.0000
# 3 29.2024 40.0215 82.5126 0.0000 4.9889 0.0000
# 4 0.0000 0.0000 0.0000 15.8560 0.0000 -2.8854
# 5 2.9325 5.6005 4.9889 0.0000 31.6297 0.0000
# 6 0.0000 0.0000 0.0000 -2.8854 0.0000 28.5412
#
#
#
# Elastic Compliance Matrix: (Units=1/GPa)
#
#
# Indices 1 2 3 4 5 6 
#
# 1 0.012697 -0.004206 -0.002451 0.000000 -0.000046 0.000000
# 2 -0.004206 0.010212 -0.003411 0.000000 -0.000880 0.000000
# 3 -0.002451 -0.003411 0.014732 0.000000 -0.001492 0.000000
# 4 0.000000 0.000000 0.000000 0.064250 0.000000 0.006495
# 5 -0.000046 -0.000880 -0.001492 0.000000 0.032011 0.000000
# 6 0.000000 0.000000 0.000000 0.006495 0.000000 0.035694
#
#
# Mechanical properties :
#
#
# Convention : Reuss Voigt Hill
#
# Bulk Modulus (GPa) = 57.12858 62.15036 59.63947
# Shear Modulus (GPa) = 25.56664 28.28206 26.92435
#
# Velocity S-wave (km/s) = 3.61950 3.80686 3.71436
# Velocity P-wave (km/s) = 6.83676 7.15331 6.99682
#
# Compressibility (1/GPa) = 0.01750437
#
# Stress axis : x y z
#
# Youngs Moduli (GPa) = 78.75675 97.92297 67.88092
#
# Poissons Ratio (x) = 0.41186 0.16637
# Poissons Ratio (y) = 0.33125 0.23157
# Poissons Ratio (z) = 0.19303 0.33406
#
# Static dielectric constant tensor:
#      x y z
#    x 3.617030 0.000000 -0.333750 
#    y 0.000000 3.443300 0.000000 
#    z -0.333750 0.000000 3.033830 
# 
# 
# High freq. dielectric constant tensor:
#      x y z
#    x 1.776340 0.000000 0.001230 
#    y 0.000000 1.724590 0.000000 
#    z 0.001230 0.000000 1.760150 
# 
# From -- ./inp_files/171817.got.cif
#   From: 2010.06.25/outbox.cif.g09.slc.cpg/sg15_86_cif.got.tgz:171817.got - 2010.06.28 07:06:18.
