data_PCOD8132081
_publ_section_title
;
Structure prediction by ZEFSAII (Michael W. Deem and Ramdas Pophale) SiO2 
 PCOD8132081
Probable space group: C 2/C
;
_chemical_formula_sum "Si O2"
_cell_formula_units_Z 64
_cell_length_a 18.409440
_cell_length_b 10.628109
_cell_length_c 22.206536
_cell_angle_alpha 90.000000
_cell_angle_beta 135.152223
_cell_angle_gamma 90.000000
_cell_volume 3064.118075
_symmetry_space_group_name_H-M "C 2/C"
_symmetry_group_IT_number 15
_symmetry_cell_setting 'monoclinic'
loop_
_space_group_symop_operation_xyz
x,y,z
-x,y,1/2-z
-x,-y,-z
x,-y,1/2+z
1/2+x,1/2+y,z
1/2-x,1/2+y,1/2-z
1/2-x,1/2-y,-z
1/2+x,1/2-y,1/2+z
loop_
_atom_site_type_symbol
_atom_site_label
_atom_site_fract_x
_atom_site_fract_y
_atom_site_fract_z
Si Si1 0.057865 0.403607 0.411593
Si Si2 0.285425 0.907413 0.344362
Si Si3 0.332518 0.653584 0.522397
Si Si4 0.660462 0.132015 0.755963
Si Si5 0.320183 0.178480 0.405678
Si Si6 0.110991 0.822692 0.324416
Si Si7 0.156645 0.541658 0.360369
Si Si8 0.530579 0.161092 0.466602
O O1 0.137197 0.322525 0.500001
O O2 0.113704 0.441404 0.382800
O O3 0.023147 0.527924 0.428155
O O4 0.954811 0.323612 0.332550
O O5 0.275245 0.897540 0.266531
O O6 0.191363 0.828428 0.317085
O O7 0.395032 0.853740 0.431702
O O8 0.268604 0.047476 0.357683
O O9 0.250000 0.750000 0.500000
O O10 0.361278 0.587453 0.602123
O O11 0.279882 0.558361 0.444583
O O12 0.428646 0.726178 0.550494
O O13 0.727581 0.223342 0.838632
O O14 0.641870 0.005787 0.783693
O O15 0.417847 0.204398 0.420359
O O16 0.099568 0.674809 0.334787
O O17 0.000000 0.879759 0.250000
#
# Coordination Sequence:
#
# PCOD8132081 Si02
#       8
#     8   8   8   8   8   8   8   8
#     4  11  20  43  69  91 124 169 226 269 314 382
#     4  11  22  40  65  91 130 166 212 266 322 395
#     4  10  18  35  63  97 123 148 202 279 325 358
#     4  12  26  39  61  99 127 174 218 259 316 392
#     4  11  25  41  63  93 132 177 216 253 330 388
#     4  11  22  37  66 100 123 157 209 278 331 366
#     4  11  23  40  66  96 123 160 221 276 316 371
#     4  11  18  40  68  94 122 167 211 268 326 378
#
# _framework density 20.886922999999999
#
# number of rings (size 3 to 8) (size 9 to 14) (size 15 to 20)
#    0.000    1.000    7.500    2.625    3.500    0.500 
#    0.000    3.125    0.000    0.000    0.000    0.000 
#    0.000    0.000    0.000    0.000    0.000    0.000 
#
# Total GULP energy -396428.344389 kJ/mol
# GULP energy per Si atom -12388.385762 kJ/mol
# Density = 2.083938 g / cm^3
# Si number density = 20.886923 Si / 1000 Ang^3
#
#
#
# Elastic Constant Matrix: (Units=GPa)
#
#
# Indices 1 2 3 4 5 6 
#
# 1 87.8308 22.2686 48.7433 0.0000 -5.5581 0.0000
# 2 22.2686 36.8991 32.1713 0.0000 8.0840 0.0000
# 3 48.7433 32.1713 153.1042 0.0000 1.9995 0.0000
# 4 0.0000 0.0000 0.0000 30.8318 0.0000 1.8237
# 5 -5.5581 8.0840 1.9995 0.0000 45.8485 0.0000
# 6 0.0000 0.0000 0.0000 1.8237 0.0000 24.7572
#
#
#
# Elastic Compliance Matrix: (Units=1/GPa)
#
#
# Indices 1 2 3 4 5 6 
#
# 1 0.015253 -0.006904 -0.003447 0.000000 0.003217 0.000000
# 2 -0.006904 0.037779 -0.005646 0.000000 -0.007252 0.000000
# 3 -0.003447 -0.005646 0.008813 0.000000 0.000193 0.000000
# 4 0.000000 0.000000 0.000000 0.032576 0.000000 -0.002400
# 5 0.003217 -0.007252 0.000193 0.000000 0.023471 0.000000
# 6 0.000000 0.000000 0.000000 -0.002400 0.000000 0.040569
#
#
# Mechanical properties :
#
#
# Convention : Reuss Voigt Hill
#
# Bulk Modulus (GPa) = 33.50071 53.80006 43.65038
# Shear Modulus (GPa) = 24.94958 31.93087 28.44023
#
# Velocity S-wave (km/s) = 3.45991 3.91416 3.69403
# Velocity P-wave (km/s) = 5.65997 6.80009 6.25606
#
# Compressibility (1/GPa) = 0.02985012
#
# Stress axis : x y z
#
# Youngs Moduli (GPa) = 65.56227 26.47004 113.47232
#
# Poissons Ratio (x) = 0.18275 0.39116
# Poissons Ratio (y) = 0.45266 0.64061
# Poissons Ratio (z) = 0.22601 0.14944
#
# Static dielectric constant tensor:
#      x y z
#    x 3.722060 0.000000 0.022750 
#    y 0.000000 3.337990 0.000000 
#    z 0.022750 0.000000 4.410890 
# 
# 
# High freq. dielectric constant tensor:
#      x y z
#    x 1.819620 0.000000 -0.005370 
#    y 0.000000 1.761730 0.000000 
#    z -0.005370 0.000000 1.843170 
# 
# From -- ./inp_files/248632.got.cif
#   From: 2010.06.25/outbox.cif.g09.slc.cpg/sg15_125_cif.got.tgz:248632.got - 2010.06.28 07:06:18.
