data_PCOD8132287
_publ_section_title
;
Structure prediction by ZEFSAII (Michael W. Deem and Ramdas Pophale) SiO2 
 PCOD8132287
Probable space group: C 2/C
;
_chemical_formula_sum "Si O2"
_cell_formula_units_Z 64
_cell_length_a 20.605239
_cell_length_b 12.266953
_cell_length_c 14.131959
_cell_angle_alpha 90.000000
_cell_angle_beta 111.533685
_cell_angle_gamma 90.000000
_cell_volume 3322.721682
_symmetry_space_group_name_H-M "C 2/C"
_symmetry_group_IT_number 15
_symmetry_cell_setting 'monoclinic'
loop_
_space_group_symop_operation_xyz
x,y,z
-x,y,1/2-z
-x,-y,-z
x,-y,1/2+z
1/2+x,1/2+y,z
1/2-x,1/2+y,1/2-z
1/2-x,1/2-y,-z
1/2+x,1/2-y,1/2+z
loop_
_atom_site_type_symbol
_atom_site_label
_atom_site_fract_x
_atom_site_fract_y
_atom_site_fract_z
Si Si1 0.007173 0.330756 0.892148
Si Si2 0.286243 0.726077 0.919921
Si Si3 0.968436 0.286535 0.387486
Si Si4 0.840099 0.383827 0.235385
Si Si5 0.070462 0.099607 0.497968
Si Si6 0.989567 0.911796 0.138465
Si Si7 0.927061 0.457426 0.112666
Si Si8 0.634292 0.084025 0.120141
O O1 0.040616 0.424497 0.844823
O O2 0.030557 0.215076 0.860772
O O3 0.923312 0.346579 0.852080
O O4 0.038816 0.340477 0.013827
O O5 0.237257 0.660728 0.821728
O O6 0.302237 0.837693 0.873989
O O7 0.250000 0.750000 0.000000
O O8 0.357112 0.660270 0.979308
O O9 0.891030 0.285884 0.299623
O O10 0.006184 0.169237 0.417393
O O11 0.012755 0.366933 0.344210
O O12 0.864153 0.430494 0.147813
O O13 0.835527 0.482981 0.305870
O O14 0.056540 0.081546 0.603053
O O15 0.071494 0.983813 0.443707
O O16 0.000000 0.959151 0.250000
O O17 0.900339 0.462325 0.992152
#
# Coordination Sequence:
#
# PCOD8132287 Si02
#       8
#     8   8   8   8   8   8   8   8
#     4  10  19  36  64  89 129 152 198 275 322 349
#     4  12  24  45  62  87 135 179 203 257 320 385
#     4  10  18  36  62  92 117 154 210 267 300 358
#     4  12  24  35  64  99 119 165 216 253 325 374
#     4  10  22  44  62  88 132 164 217 262 311 373
#     4  10  22  38  64  94 119 166 209 262 318 375
#     4  11  19  35  65  93 123 149 204 270 315 365
#     4  11  21  42  58  90 126 162 206 260 314 372
#
# _framework density 19.261317999999999
#
# number of rings (size 3 to 8) (size 9 to 14) (size 15 to 20)
#    0.000    1.250    7.500    1.125    1.750    2.000 
#    9.000    0.000    0.000    1.500    0.000    0.000 
#    0.000    0.000    0.000    0.000    0.000    0.000 
#
# Total GULP energy -396647.840931 kJ/mol
# GULP energy per Si atom -12395.245029 kJ/mol
# Density = 1.921748 g / cm^3
# Si number density = 19.261318 Si / 1000 Ang^3
#
#
#
# Elastic Constant Matrix: (Units=GPa)
#
#
# Indices 1 2 3 4 5 6 
#
# 1 85.4631 47.5123 36.1142 0.0000 8.1172 0.0000
# 2 47.5123 107.4321 43.6214 0.0000 11.1701 0.0000
# 3 36.1142 43.6214 89.7809 0.0000 2.5567 0.0000
# 4 0.0000 0.0000 0.0000 23.9664 0.0000 5.6016
# 5 8.1172 11.1701 2.5567 0.0000 29.7606 0.0000
# 6 0.0000 0.0000 0.0000 5.6016 0.0000 34.4378
#
#
#
# Elastic Compliance Matrix: (Units=1/GPa)
#
#
# Indices 1 2 3 4 5 6 
#
# 1 0.016650 -0.005541 -0.003945 0.000000 -0.002123 0.000000
# 2 -0.005541 0.013904 -0.004432 0.000000 -0.003327 0.000000
# 3 -0.003945 -0.004432 0.014837 0.000000 0.001465 0.000000
# 4 0.000000 0.000000 0.000000 0.043374 0.000000 -0.007055
# 5 -0.002123 -0.003327 0.001465 0.000000 0.035303 0.000000
# 6 0.000000 0.000000 0.000000 -0.007055 0.000000 0.030185
#
#
# Mechanical properties :
#
#
# Convention : Reuss Voigt Hill
#
# Bulk Modulus (GPa) = 56.96310 59.68574 58.32442
# Shear Modulus (GPa) = 26.60412 27.99484 27.29948
#
# Velocity S-wave (km/s) = 3.72051 3.81651 3.76882
# Velocity P-wave (km/s) = 6.93500 7.10462 7.02033
#
# Compressibility (1/GPa) = 0.01755522
#
# Stress axis : x y z
#
# Youngs Moduli (GPa) = 60.05995 71.92069 67.40086
#
# Poissons Ratio (x) = 0.39852 0.26588
# Poissons Ratio (y) = 0.33280 0.29872
# Poissons Ratio (z) = 0.23692 0.31875
#
# Static dielectric constant tensor:
#      x y z
#    x 3.358740 0.000000 -0.106650 
#    y 0.000000 3.619000 0.000000 
#    z -0.106650 0.000000 3.575050 
# 
# 
# High freq. dielectric constant tensor:
#      x y z
#    x 1.719490 0.000000 -0.016740 
#    y 0.000000 1.755380 0.000000 
#    z -0.016740 0.000000 1.756180 
# 
# From -- ./inp_files/167649.got.cif
#   From: 2010.06.25/outbox.cif.g09.slc.cpg/sg15_84_cif.got.tgz:167649.got - 2010.06.28 07:06:18.
