data_PCOD8132947
_publ_section_title
;
Structure prediction by ZEFSAII (Michael W. Deem and Ramdas Pophale) SiO2 
 PCOD8132947
Probable space group: C 2/C
;
_chemical_formula_sum "Si O2"
_cell_formula_units_Z 48
_cell_length_a 20.236578
_cell_length_b 17.035072
_cell_length_c 9.062493
_cell_angle_alpha 90.000000
_cell_angle_beta 63.395622
_cell_angle_gamma 90.000000
_cell_volume 2793.344837
_symmetry_space_group_name_H-M "C 2/C"
_symmetry_group_IT_number 15
_symmetry_cell_setting 'monoclinic'
loop_
_space_group_symop_operation_xyz
x,y,z
-x,y,1/2-z
-x,-y,-z
x,-y,1/2+z
1/2+x,1/2+y,z
1/2-x,1/2+y,1/2-z
1/2-x,1/2-y,-z
1/2+x,1/2-y,1/2+z
loop_
_atom_site_type_symbol
_atom_site_label
_atom_site_fract_x
_atom_site_fract_y
_atom_site_fract_z
Si Si1 0.584725 0.223809 0.836682
Si Si2 0.415275 0.776191 0.506131
Si Si3 0.804334 0.823281 0.612007
Si Si4 0.310754 0.920117 0.266030
Si Si5 0.189246 0.579883 0.387538
Si Si6 0.304334 0.323281 0.279325
O O1 0.593948 0.243787 0.656052
O O2 0.618433 0.296999 0.892720
O O3 0.626036 0.143037 0.834237
O O4 0.500000 0.213554 0.968188
O O5 0.373964 0.856963 0.586309
O O6 0.381567 0.703001 0.629586
O O7 0.768040 0.893384 0.742118
O O8 0.750000 0.750000 0.669385
O O9 0.818688 0.852666 0.431312
O O10 0.301049 0.933275 0.448951
O O11 0.231960 0.893384 0.278198
O O12 0.336675 1.000000 0.163325
#
# Coordination Sequence:
#
# PCOD8132947 Si02
#       6
#     8   8   8   8   8   8
#     4   9  18  32  49  70  97 128 159 192 234 282
#     4   9  18  32  49  70  97 128 159 192 234 282
#     4   9  17  30  48  69  92 121 160 200 234 274
#     4  10  19  31  48  70  97 128 160 195 235 279
#     4  10  19  31  48  70  97 128 160 195 235 279
#     4   9  17  30  48  69  92 121 160 200 234 274
#
# _framework density 17.183700000000002
#
# number of rings (size 3 to 8) (size 9 to 14) (size 15 to 20)
#    0.000    2.667    0.000    2.000    0.000    6.667 
#    0.000    0.000    0.000    1.000    0.000    0.000 
#    0.000    0.000    0.000    0.000    0.000    0.000 
#
# Total GULP energy -297625.721287 kJ/mol
# GULP energy per Si atom -12401.071720 kJ/mol
# Density = 1.714459 g / cm^3
# Si number density = 17.183700 Si / 1000 Ang^3
#
#
#
# Elastic Constant Matrix: (Units=GPa)
#
#
# Indices 1 2 3 4 5 6 
#
# 1 114.8741 45.6476 60.1286 0.0000 -4.5380 0.0000
# 2 45.6476 32.8204 33.9083 0.0000 -8.4606 0.0000
# 3 60.1286 33.9083 102.8485 0.0000 -4.1289 0.0000
# 4 0.0000 0.0000 0.0000 29.6135 0.0000 6.4076
# 5 -4.5380 -8.4606 -4.1289 0.0000 24.5193 0.0000
# 6 0.0000 0.0000 0.0000 6.4076 0.0000 20.7229
#
#
#
# Elastic Compliance Matrix: (Units=1/GPa)
#
#
# Indices 1 2 3 4 5 6 
#
# 1 0.021242 -0.027355 -0.003646 0.000000 -0.006122 0.000000
# 2 -0.027355 0.086323 -0.011553 0.000000 0.022778 0.000000
# 3 -0.003646 -0.011553 0.015581 0.000000 -0.002037 0.000000
# 4 0.000000 0.000000 0.000000 0.036190 0.000000 -0.011190
# 5 -0.006122 0.022778 -0.002037 0.000000 0.047168 0.000000
# 6 0.000000 0.000000 0.000000 -0.011190 0.000000 0.051716
#
#
# Mechanical properties :
#
#
# Convention : Reuss Voigt Hill
#
# Bulk Modulus (GPa) = 26.28887 58.87912 42.58399
# Shear Modulus (GPa) = 14.04470 22.36170 18.20320
#
# Velocity S-wave (km/s) = 2.86199 3.61131 3.25827
# Velocity P-wave (km/s) = 5.12380 7.19219 6.24424
#
# Compressibility (1/GPa) = 0.03803891
#
# Stress axis : x y z
#
# Youngs Moduli (GPa) = 47.07712 11.58442 64.17910
#
# Poissons Ratio (x) = 0.31690 0.23397
# Poissons Ratio (y) = 1.28781 0.74144
# Poissons Ratio (z) = 0.17162 0.13383
#
# Static dielectric constant tensor:
#      x y z
#    x 3.199280 0.000000 0.076520 
#    y 0.000000 3.053480 0.000000 
#    z 0.076520 0.000000 3.305450 
# 
# 
# High freq. dielectric constant tensor:
#      x y z
#    x 1.653810 0.000000 0.011650 
#    y 0.000000 1.642070 0.000000 
#    z 0.011650 0.000000 1.669970 
# 
# From -- ./inp_files/48694.got.cif
#   From: 2010.06.25/outbox.cif.g09.slc.cpg/sg15_25_cif.got.tgz:48694.got - 2010.06.28 07:06:18.
