data_PCOD8132703
_publ_section_title
;
Structure prediction by ZEFSAII (Michael W. Deem and Ramdas Pophale) SiO2 
 PCOD8132703
Probable space group: C 2/C
;
_chemical_formula_sum "Si O2"
_cell_formula_units_Z 44
_cell_length_a 30.363248
_cell_length_b 14.854364
_cell_length_c 14.740074
_cell_angle_alpha 90.000000
_cell_angle_beta 19.843633
_cell_angle_gamma 90.000000
_cell_volume 2256.749308
_symmetry_space_group_name_H-M "C 2/C"
_symmetry_group_IT_number 15
_symmetry_cell_setting 'monoclinic'
loop_
_space_group_symop_operation_xyz
x,y,z
-x,y,1/2-z
-x,-y,-z
x,-y,1/2+z
1/2+x,1/2+y,z
1/2-x,1/2+y,1/2-z
1/2-x,1/2-y,-z
1/2+x,1/2-y,1/2+z
loop_
_atom_site_type_symbol
_atom_site_label
_atom_site_fract_x
_atom_site_fract_y
_atom_site_fract_z
Si Si1 0.000000 0.792046 0.250000
Si Si2 0.474791 0.139505 0.423954
Si Si3 0.729721 0.867502 0.813130
Si Si4 0.123818 0.704038 0.703845
Si Si5 0.914699 0.208106 0.499242
Si Si6 0.197052 0.428335 0.393539
O O1 0.039727 0.732575 0.261673
O O2 0.882193 0.852123 0.512463
O O3 0.438361 0.138397 0.599902
O O4 0.345116 0.128672 0.613726
O O5 0.581990 0.063657 0.192134
O O6 0.656154 0.803816 0.883536
O O7 0.720354 0.972639 0.809616
O O8 0.668327 0.852350 0.031016
O O9 0.250000 0.750000 0.500000
O O10 0.011946 0.776726 0.895545
O O11 0.817784 0.124460 0.705656
O O12 0.000000 0.176124 0.250000
#
# Coordination Sequence:
#
# PCOD8132703 Si02
#       6
#     4   8   8   8   8   8
#     4  10  18  40  62  80 120 160 196 240 308 352
#     4  10  20  40  63  82 126 160 197 252 296 353
#     4  11  22  40  63  90 118 163 202 243 309 363
#     4  11  22  39  63  88 122 162 204 252 298 352
#     4  10  21  38  61  86 121 160 201 245 301 362
#     4  10  22  39  60  91 120 157 205 245 303 365
#
# _framework density 19.497070000000001
#
# number of rings (size 3 to 8) (size 9 to 14) (size 15 to 20)
#    0.000    1.818    5.455    1.091    8.909    1.455 
#    0.000    0.909    0.000    0.000    0.000    0.000 
#    0.000    0.000    0.000    0.000    0.000    0.000 
#
# Total GULP energy -272624.827874 kJ/mol
# GULP energy per Si atom -12392.037631 kJ/mol
# Density = 1.945269 g / cm^3
# Si number density = 19.497070 Si / 1000 Ang^3
#
#
#
# Elastic Constant Matrix: (Units=GPa)
#
#
# Indices 1 2 3 4 5 6 
#
# 1 75.0778 12.7726 24.6077 -0.0001 -3.7829 0.0000
# 2 12.7726 93.2208 32.1382 0.0000 -8.8080 0.0000
# 3 24.6077 32.1382 101.4046 -0.0001 -2.7475 0.0000
# 4 -0.0001 0.0000 -0.0001 23.8386 0.0000 2.2016
# 5 -3.7829 -8.8080 -2.7475 0.0000 39.8334 0.0000
# 6 0.0000 0.0000 0.0000 2.2016 0.0000 10.4582
#
#
#
# Elastic Compliance Matrix: (Units=1/GPa)
#
#
# Indices 1 2 3 4 5 6 
#
# 1 0.014571 -0.000778 -0.003262 0.000000 0.000987 0.000000
# 2 -0.000778 0.012319 -0.003650 0.000000 0.002398 0.000000
# 3 -0.003262 -0.003650 0.011802 0.000000 -0.000303 0.000000
# 4 0.000000 0.000000 0.000000 0.042781 0.000000 -0.009006
# 5 0.000987 0.002398 -0.000303 0.000000 0.025708 0.000000
# 6 0.000000 0.000000 0.000000 -0.009006 0.000000 0.097514
#
#
# Mechanical properties :
#
#
# Convention : Reuss Voigt Hill
#
# Bulk Modulus (GPa) = 42.90145 45.41558 44.15851
# Shear Modulus (GPa) = 21.94459 28.17169 25.05814
#
# Velocity S-wave (km/s) = 3.35854 3.80533 3.58889
# Velocity P-wave (km/s) = 6.09028 6.53081 6.31439
#
# Compressibility (1/GPa) = 0.02330924
#
# Stress axis : x y z
#
# Youngs Moduli (GPa) = 68.62956 81.17573 84.73225
#
# Poissons Ratio (x) = 0.06319 0.27644
# Poissons Ratio (y) = 0.05343 0.30930
# Poissons Ratio (z) = 0.22390 0.29632
#
# Static dielectric constant tensor:
#      x y z
#    x 3.506740 0.000000 0.006400 
#    y 0.000000 3.356850 0.000000 
#    z 0.006400 0.000000 3.871430 
# 
# 
# High freq. dielectric constant tensor:
#      x y z
#    x 1.733000 0.000000 -0.002740 
#    y 0.000000 1.739320 0.000000 
#    z -0.002740 0.000000 1.778940 
# 
# From -- ./inp_files/142975.got.cif
#   From: 2010.06.25/outbox.cif.g09.slc.cpg/sg15_72_cif.got.tgz:142975.got - 2010.06.28 07:06:18.
