data_PCOD8132111
_publ_section_title
;
Structure prediction by ZEFSAII (Michael W. Deem and Ramdas Pophale) SiO2 
 PCOD8132111
Probable space group: C 2/C
;
_chemical_formula_sum "Si O2"
_cell_formula_units_Z 56
_cell_length_a 14.202749
_cell_length_b 21.874454
_cell_length_c 9.128912
_cell_angle_alpha 90.000000
_cell_angle_beta 79.836425
_cell_angle_gamma 90.000000
_cell_volume 2791.641616
_symmetry_space_group_name_H-M "C 2/C"
_symmetry_group_IT_number 15
_symmetry_cell_setting 'monoclinic'
loop_
_space_group_symop_operation_xyz
x,y,z
-x,y,1/2-z
-x,-y,-z
x,-y,1/2+z
1/2+x,1/2+y,z
1/2-x,1/2+y,1/2-z
1/2-x,1/2-y,-z
1/2+x,1/2-y,1/2+z
loop_
_atom_site_type_symbol
_atom_site_label
_atom_site_fract_x
_atom_site_fract_y
_atom_site_fract_z
Si Si1 0.134803 0.072806 0.515316
Si Si2 0.267205 0.494137 0.773681
Si Si3 0.771494 0.583095 0.958146
Si Si4 0.500000 0.284860 0.750000
Si Si5 0.809988 0.795189 0.389367
Si Si6 0.000000 0.796035 0.250000
Si Si7 0.943797 0.875641 0.014815
Si Si8 0.190728 0.711316 0.634332
O O1 0.181785 0.051211 0.351934
O O2 0.175663 0.140429 0.534140
O O3 0.020619 0.070802 0.521272
O O4 0.156134 0.029371 0.646879
O O5 0.207076 0.543111 0.693772
O O6 0.199542 0.454639 0.902735
O O7 0.832726 0.645493 0.934181
O O8 0.657180 0.596936 0.007024
O O9 0.494543 0.328290 0.890855
O O10 0.594720 0.242754 0.719782
O O11 0.750000 0.750000 0.500000
O O12 0.760288 0.803878 0.247717
O O13 0.914910 0.759761 0.353362
O O14 0.068247 0.839308 0.330571
O O15 0.250000 0.750000 0.500000
#
# Coordination Sequence:
#
# PCOD8132111 Si02
#       8
#     8   8   8   4   8   4   8   8
#     4  10  21  36  55  86 120 162 193 241 295 362
#     4  10  22  36  56  85 122 164 203 239 291 367
#     4  11  21  38  57  86 119 163 198 251 297 359
#     4  12  24  38  60  93 121 160 206 252 310 372
#     4  11  22  36  60  85 119 157 197 244 307 354
#     4  10  18  36  52  83 121 154 178 240 290 356
#     4  11  20  35  57  85 128 153 193 244 297 370
#     4  12  23  40  62  89 120 162 202 257 311 360
#
# _framework density 20.05988
#
# number of rings (size 3 to 8) (size 9 to 14) (size 15 to 20)
#    0.000    1.143    4.286    3.429    2.000    3.429 
#    0.000    0.000    0.000    0.857    0.000    0.000 
#    0.000    0.000    0.000    0.000    0.000    0.000 
#
# Total GULP energy -346922.418678 kJ/mol
# GULP energy per Si atom -12390.086381 kJ/mol
# Density = 2.001422 g / cm^3
# Si number density = 20.059880 Si / 1000 Ang^3
#
#
#
# Elastic Constant Matrix: (Units=GPa)
#
#
# Indices 1 2 3 4 5 6 
#
# 1 56.4035 26.4290 22.0887 0.0000 -12.0837 0.0000
# 2 26.4290 106.9048 52.5200 0.0000 -5.9596 0.0000
# 3 22.0887 52.5200 109.4149 0.0000 5.8613 0.0000
# 4 0.0000 0.0000 0.0000 33.8314 0.0000 0.0058
# 5 -12.0837 -5.9596 5.8613 0.0000 27.3717 0.0000
# 6 0.0000 0.0000 0.0000 0.0058 0.0000 28.4338
#
#
#
# Elastic Compliance Matrix: (Units=1/GPa)
#
#
# Indices 1 2 3 4 5 6 
#
# 1 0.022855 -0.003340 -0.003553 0.000000 0.010123 0.000000
# 2 -0.003340 0.013171 -0.005789 0.000000 0.002632 0.000000
# 3 -0.003553 -0.005789 0.012935 0.000000 -0.005599 0.000000
# 4 0.000000 0.000000 0.000000 0.029558 0.000000 -0.000006
# 5 0.010123 0.002632 -0.005599 0.000000 0.042775 0.000000
# 6 0.000000 0.000000 0.000000 -0.000006 0.000000 0.035169
#
#
# Mechanical properties :
#
#
# Convention : Reuss Voigt Hill
#
# Bulk Modulus (GPa) = 42.37848 52.75537 47.56692
# Shear Modulus (GPa) = 26.35848 29.37310 27.86579
#
# Velocity S-wave (km/s) = 3.62883 3.83073 3.73115
# Velocity P-wave (km/s) = 6.22332 6.77658 6.50584
#
# Compressibility (1/GPa) = 0.02359688
#
# Stress axis : x y z
#
# Youngs Moduli (GPa) = 43.75474 75.92726 77.30811
#
# Poissons Ratio (x) = 0.25363 0.27466
# Poissons Ratio (y) = 0.14616 0.44751
# Poissons Ratio (z) = 0.15545 0.43951
#
# Static dielectric constant tensor:
#      x y z
#    x 3.595310 0.000000 0.423260 
#    y 0.000000 4.315110 0.000000 
#    z 0.423260 0.000000 4.881540 
# 
# 
# High freq. dielectric constant tensor:
#      x y z
#    x 1.741490 0.000000 0.009990 
#    y 0.000000 1.783830 0.000000 
#    z 0.009990 0.000000 1.809950 
# 
# From -- ./inp_files/42140.got.cif
#   From: 2010.06.25/outbox.cif.g09.slc.cpg/sg15_22_cif.got.tgz:42140.got - 2010.06.28 07:06:18.
