data_PCOD8132408
_publ_section_title
;
Structure prediction by ZEFSAII (Michael W. Deem and Ramdas Pophale) SiO2 
 PCOD8132408
Probable space group: C 2/C
;
_chemical_formula_sum "Si O2"
_cell_formula_units_Z 40
_cell_length_a 9.685106
_cell_length_b 11.583273
_cell_length_c 30.609507
_cell_angle_alpha 90.000000
_cell_angle_beta 145.544476
_cell_angle_gamma 90.000000
_cell_volume 1942.804533
_symmetry_space_group_name_H-M "C 2/C"
_symmetry_group_IT_number 15
_symmetry_cell_setting 'monoclinic'
loop_
_space_group_symop_operation_xyz
x,y,z
-x,y,1/2-z
-x,-y,-z
x,-y,1/2+z
1/2+x,1/2+y,z
1/2-x,1/2+y,1/2-z
1/2-x,1/2-y,-z
1/2+x,1/2-y,1/2+z
loop_
_atom_site_type_symbol
_atom_site_label
_atom_site_fract_x
_atom_site_fract_y
_atom_site_fract_z
Si Si1 0.869266 0.119137 0.454867
Si Si2 0.513674 0.428321 0.821803
Si Si3 0.245944 0.021974 0.162159
Si Si4 0.680246 0.178179 0.885108
Si Si5 0.104197 0.517812 0.145177
O O1 0.828133 0.122730 0.391727
O O2 0.606457 0.117040 0.410609
O O3 0.060705 0.213735 0.523519
O O4 0.000000 0.000000 0.500000
O O5 0.462922 0.487122 0.855343
O O6 0.541015 0.291456 0.833990
O O7 0.758913 0.484648 0.865642
O O8 0.287286 0.448907 0.731325
O O9 0.500000 0.060354 0.250000
O O10 0.270708 0.898410 0.145235
O O11 0.509230 0.107744 0.874401
#
# Coordination Sequence:
#
# PCOD8132408 Si02
#       5
#     8   8   8   8   8
#     4   8  17  38  58  78 117 153 177 232 287 325
#     4  11  21  34  60  87 110 146 192 232 278 332
#     4  10  18  37  60  82 111 148 190 226 274 342
#     4  10  22  40  59  80 119 153 179 232 293 324
#     4   9  20  37  55  86 118 138 193 243 266 329
#
# _framework density 20.588792999999999
#
# number of rings (size 3 to 8) (size 9 to 14) (size 15 to 20)
#    0.000    2.800    4.000    0.000    2.800    1.600 
#    3.600   13.000    0.000    0.000    0.000    0.000 
#    0.000    0.000    0.000    0.000    0.000    0.000 
#
# Total GULP energy -247813.300207 kJ/mol
# GULP energy per Si atom -12390.665010 kJ/mol
# Density = 2.054193 g / cm^3
# Si number density = 20.588793 Si / 1000 Ang^3
#
#
#
# Elastic Constant Matrix: (Units=GPa)
#
#
# Indices 1 2 3 4 5 6 
#
# 1 188.4256 27.0198 41.3792 0.0001 12.0167 0.0000
# 2 27.0198 54.6906 3.0222 0.0000 3.0245 0.0000
# 3 41.3792 3.0222 124.1169 0.0000 5.5015 0.0000
# 4 0.0001 0.0000 0.0000 2.8047 0.0000 0.8275
# 5 12.0167 3.0245 5.5015 0.0000 34.9800 0.0000
# 6 0.0000 0.0000 0.0000 0.8275 0.0000 15.6778
#
#
#
# Elastic Compliance Matrix: (Units=1/GPa)
#
#
# Indices 1 2 3 4 5 6 
#
# 1 0.006250 -0.002892 -0.001943 0.000000 -0.001591 0.000000
# 2 -0.002892 0.019729 0.000519 0.000000 -0.000794 0.000000
# 3 -0.001943 0.000519 0.008725 0.000000 -0.000750 0.000000
# 4 0.000000 0.000000 0.000000 0.362186 0.000000 -0.019117
# 5 -0.001591 -0.000794 -0.000750 0.000000 0.029321 0.000000
# 6 0.000000 0.000000 0.000000 -0.019117 0.000000 0.064794
#
#
# Mechanical properties :
#
#
# Convention : Reuss Voigt Hill
#
# Bulk Modulus (GPa) = 38.35531 56.67507 47.51519
# Shear Modulus (GPa) = 9.83618 30.41329 20.12473
#
# Velocity S-wave (km/s) = 2.18811 3.84758 3.12983
# Velocity P-wave (km/s) = 5.00534 6.87934 6.01576
#
# Compressibility (1/GPa) = 0.02607201
#
# Stress axis : x y z
#
# Youngs Moduli (GPa) = 159.99922 50.68701 114.61061
#
# Poissons Ratio (x) = 0.14661 0.22266
# Poissons Ratio (y) = 0.46279 -0.05950
# Poissons Ratio (z) = 0.31083 -0.02631
#
# Static dielectric constant tensor:
#      x y z
#    x 4.168710 0.000000 0.063780 
#    y 0.000000 3.202980 0.000000 
#    z 0.063780 0.000000 4.861840 
# 
# 
# High freq. dielectric constant tensor:
#      x y z
#    x 1.814940 0.000000 0.005770 
#    y 0.000000 1.750010 0.000000 
#    z 0.005770 0.000000 1.823270 
# 
# From -- ./inp_files/307357.got.cif
#   From: 2010.06.25/outbox.cif.g09.slc.cpg/sg15_154_cif.got.tgz:307357.got - 2010.06.28 07:06:18.
