data_PCOD8132435
_publ_section_title
;
Structure prediction by ZEFSAII (Michael W. Deem and Ramdas Pophale) SiO2 
 PCOD8132435
Probable space group: C 2/C
;
_chemical_formula_sum "Si O2"
_cell_formula_units_Z 64
_cell_length_a 21.851805
_cell_length_b 13.766938
_cell_length_c 32.244331
_cell_angle_alpha 90.000000
_cell_angle_beta 18.487670
_cell_angle_gamma 90.000000
_cell_volume 3075.920221
_symmetry_space_group_name_H-M "C 2/C"
_symmetry_group_IT_number 15
_symmetry_cell_setting 'monoclinic'
loop_
_space_group_symop_operation_xyz
x,y,z
-x,y,1/2-z
-x,-y,-z
x,-y,1/2+z
1/2+x,1/2+y,z
1/2-x,1/2+y,1/2-z
1/2-x,1/2-y,-z
1/2+x,1/2-y,1/2+z
loop_
_atom_site_type_symbol
_atom_site_label
_atom_site_fract_x
_atom_site_fract_y
_atom_site_fract_z
Si Si1 0.663758 0.879698 0.679106
Si Si2 0.916763 0.442773 0.210410
Si Si3 0.634951 0.176378 0.407656
Si Si4 0.678357 0.500636 0.188632
Si Si5 0.770884 0.799864 0.307334
Si Si6 0.523745 0.762012 0.189648
Si Si7 0.781575 0.066898 0.431031
Si Si8 0.582221 0.664646 0.878327
O O1 0.500000 0.867351 0.750000
O O2 0.640266 0.796386 0.729147
O O3 0.867699 0.874763 0.524294
O O4 0.645938 0.982188 0.713965
O O5 0.042235 0.353074 0.147654
O O6 0.727017 0.410030 0.307580
O O7 0.079397 0.482593 0.074739
O O8 0.460035 0.210010 0.550578
O O9 0.827578 0.206204 0.306729
O O10 0.608590 0.227381 0.379992
O O11 0.666394 0.059678 0.382042
O O12 0.714846 0.386457 0.168395
O O13 0.455901 0.518509 0.345275
O O14 0.702642 0.538956 0.126783
O O15 0.878252 0.827249 0.195953
O O16 0.500000 0.808420 0.250000
O O17 0.701072 0.684871 0.074051
#
# Coordination Sequence:
#
# PCOD8132435 Si02
#       8
#     8   8   8   8   8   8   8   8
#     4  11  27  46  62  92 132 172 216 257 312 389
#     4  11  23  40  67  93 127 173 206 254 321 392
#     4   9  19  39  59  91 125 157 204 266 325 366
#     4  10  20  37  61  91 124 156 209 270 313 360
#     4  11  24  40  65  89 121 174 215 265 311 374
#     4  10  18  37  62  93 133 155 198 265 320 382
#     4  10  20  36  62  97 122 153 206 263 322 365
#     4  10  24  42  65  93 123 163 215 264 318 380
#
# _framework density 20.806781000000001
#
# number of rings (size 3 to 8) (size 9 to 14) (size 15 to 20)
#    0.000    1.750    2.500    2.250    3.500    3.500 
#    0.000    0.000    0.000    0.000    0.000    0.000 
#    0.000    0.000    0.000    0.000    0.000    0.000 
#
# Total GULP energy -396551.494011 kJ/mol
# GULP energy per Si atom -12392.234188 kJ/mol
# Density = 2.075942 g / cm^3
# Si number density = 20.806781 Si / 1000 Ang^3
#
#
#
# Elastic Constant Matrix: (Units=GPa)
#
#
# Indices 1 2 3 4 5 6 
#
# 1 94.4657 43.7227 51.4642 0.0679 0.2304 -0.0164
# 2 43.7227 98.8956 37.9926 -0.0097 5.8898 0.0028
# 3 51.4642 37.9926 139.4629 0.0807 -0.1072 0.0681
# 4 0.0679 -0.0097 0.0807 15.9500 0.0439 -0.8936
# 5 0.2304 5.8898 -0.1072 0.0439 25.3641 0.0121
# 6 -0.0164 0.0028 0.0681 -0.8936 0.0121 16.8498
#
#
#
# Elastic Compliance Matrix: (Units=1/GPa)
#
#
# Indices 1 2 3 4 5 6 
#
# 1 0.015292 -0.005200 -0.004226 -0.000048 0.001051 0.000030
# 2 -0.005200 0.013241 -0.001691 0.000047 -0.003035 0.000004
# 3 -0.004226 -0.001691 0.009191 -0.000033 0.000470 -0.000043
# 4 -0.000048 0.000047 -0.000033 0.062884 -0.000121 0.003335
# 5 0.001051 -0.003035 0.000470 -0.000121 0.040123 -0.000036
# 6 0.000030 0.000004 -0.000043 0.003335 -0.000036 0.059525
#
#
# Mechanical properties :
#
#
# Convention : Reuss Voigt Hill
#
# Bulk Modulus (GPa) = 64.55273 66.57591 65.56432
# Shear Modulus (GPa) = 21.96338 24.94243 23.45290
#
# Velocity S-wave (km/s) = 3.25251 3.46607 3.36099
# Velocity P-wave (km/s) = 6.72289 6.93433 6.82943
#
# Compressibility (1/GPa) = 0.01549121
#
# Stress axis : x y z
#
# Youngs Moduli (GPa) = 65.39262 75.52383 108.80618
#
# Poissons Ratio (x) = 0.39273 0.45978
# Poissons Ratio (y) = 0.34005 0.18394
# Poissons Ratio (z) = 0.27633 0.12768
#
# Static dielectric constant tensor:
#      x y z
#    x 3.659200 -0.000040 -0.167470 
#    y -0.000040 3.963540 0.000970 
#    z -0.167470 0.000970 3.879040 
# 
# 
# High freq. dielectric constant tensor:
#      x y z
#    x 1.806000 0.000010 -0.008350 
#    y 0.000010 1.811330 0.000070 
#    z -0.008350 0.000070 1.824420 
# 
# From -- ./inp_files/317997.got.cif
#   From: 2010.06.25/outbox.cif.g09.slc.cpg/sg15_159_cif.got.tgz:317997.got - 2010.06.28 07:06:18.
