data_PCOD8132422
_publ_section_title
;
Structure prediction by ZEFSAII (Michael W. Deem and Ramdas Pophale) SiO2 
 PCOD8132422
Probable space group: C 2/C
;
_chemical_formula_sum "Si O2"
_cell_formula_units_Z 56
_cell_length_a 9.091119
_cell_length_b 19.725053
_cell_length_c 17.819578
_cell_angle_alpha 90.000000
_cell_angle_beta 62.796148
_cell_angle_gamma 90.000000
_cell_volume 2841.993299
_symmetry_space_group_name_H-M "C 2/C"
_symmetry_group_IT_number 15
_symmetry_cell_setting 'monoclinic'
loop_
_space_group_symop_operation_xyz
x,y,z
-x,y,1/2-z
-x,-y,-z
x,-y,1/2+z
1/2+x,1/2+y,z
1/2-x,1/2+y,1/2-z
1/2-x,1/2-y,-z
1/2+x,1/2-y,1/2+z
loop_
_atom_site_type_symbol
_atom_site_label
_atom_site_fract_x
_atom_site_fract_y
_atom_site_fract_z
Si Si1 0.773197 0.028291 0.510159
Si Si2 0.995332 0.797119 0.165825
Si Si3 0.279185 0.829251 0.864861
Si Si4 0.469031 0.391631 0.474448
Si Si5 0.493412 0.965598 0.832839
Si Si6 0.318751 0.715045 0.277434
Si Si7 0.823569 0.072453 0.328988
O O1 0.790818 0.042200 0.418393
O O2 0.845919 0.091931 0.540182
O O3 0.869501 0.960231 0.505473
O O4 0.588543 0.014217 0.584612
O O5 0.815822 0.773240 0.178166
O O6 0.000000 0.822614 0.250000
O O7 0.123658 0.735823 0.126856
O O8 0.040442 0.862856 0.107205
O O9 0.400801 0.893355 0.844245
O O10 0.214300 0.818656 0.795965
O O11 0.114322 0.836225 0.952198
O O12 0.500000 0.002139 0.750000
O O13 0.683560 0.956969 0.808569
O O14 0.500000 0.747791 0.250000
O O15 0.305258 0.653710 0.340244
O O16 0.000000 0.052625 0.250000
#
# Coordination Sequence:
#
# PCOD8132422 Si02
#       7
#     8   8   8   8   8   8   8
#     4  10  24  38  58  88 126 158 199 245 286 355
#     4  10  20  37  61  86 115 149 195 243 299 358
#     4  10  18  37  61  88 109 152 203 246 293 352
#     4  10  21  38  59  82 120 158 194 239 298 350
#     4  11  20  38  62  87 117 160 201 248 297 348
#     4  10  19  34  61  87 116 146 196 250 296 351
#     4  11  21  36  63  92 115 152 205 249 296 346
#
# _framework density 19.704481000000001
#
# number of rings (size 3 to 8) (size 9 to 14) (size 15 to 20)
#    0.000    1.714    2.857    3.000    4.000    0.571 
#    0.000    3.571    9.429    0.000    0.000    0.000 
#    0.000    0.000    0.000    0.000    0.000    0.000 
#
# Total GULP energy -347030.180618 kJ/mol
# GULP energy per Si atom -12393.935022 kJ/mol
# Density = 1.965963 g / cm^3
# Si number density = 19.704481 Si / 1000 Ang^3
#
#
#
# Elastic Constant Matrix: (Units=GPa)
#
#
# Indices 1 2 3 4 5 6 
#
# 1 120.3033 23.8982 29.7193 0.0000 -14.5549 0.0000
# 2 23.8982 42.1683 37.5160 0.0000 -1.2237 0.0000
# 3 29.7193 37.5160 110.9339 0.0000 -4.2627 0.0000
# 4 0.0000 0.0000 0.0000 20.6384 0.0000 12.4307
# 5 -14.5549 -1.2237 -4.2627 0.0000 31.8983 0.0000
# 6 0.0000 0.0000 0.0000 12.4307 0.0000 12.8890
#
#
#
# Elastic Compliance Matrix: (Units=1/GPa)
#
#
# Indices 1 2 3 4 5 6 
#
# 1 0.009992 -0.004725 -0.000915 0.000000 0.004256 0.000000
# 2 -0.004725 0.036156 -0.011048 0.000000 -0.002245 0.000000
# 3 -0.000915 -0.011048 0.013030 0.000000 0.000900 0.000000
# 4 0.000000 0.000000 0.000000 0.115613 0.000000 -0.111503
# 5 0.004256 -0.002245 0.000900 0.000000 0.033326 0.000000
# 6 0.000000 0.000000 0.000000 -0.111503 0.000000 0.185124
#
#
# Mechanical properties :
#
#
# Convention : Reuss Voigt Hill
#
# Bulk Modulus (GPa) = 38.75652 50.63027 44.69339
# Shear Modulus (GPa) = 11.48850 25.23660 18.36255
#
# Velocity S-wave (km/s) = 2.41724 3.58265 3.05601
# Velocity P-wave (km/s) = 5.24427 6.54709 5.93156
#
# Compressibility (1/GPa) = 0.02580211
#
# Stress axis : x y z
#
# Youngs Moduli (GPa) = 100.08080 27.65795 76.74362
#
# Poissons Ratio (x) = 0.13068 0.07026
# Poissons Ratio (y) = 0.47286 0.84785
# Poissons Ratio (z) = 0.09162 0.30556
#
# Static dielectric constant tensor:
#      x y z
#    x 3.838010 0.000000 -0.167530 
#    y 0.000000 3.398370 0.000000 
#    z -0.167530 0.000000 3.711470 
# 
# 
# High freq. dielectric constant tensor:
#      x y z
#    x 1.778590 0.000000 0.000040 
#    y 0.000000 1.741440 0.000000 
#    z 0.000040 0.000000 1.769790 
# 
# From -- ./inp_files/192010.got.cif
#   From: 2010.06.25/outbox.cif.g09.slc.cpg/sg15_97_cif.got.tgz:192010.got - 2010.06.28 07:06:18.
