data_PCOD8132761
_publ_section_title
;
Structure prediction by ZEFSAII (Michael W. Deem and Ramdas Pophale) SiO2 
 PCOD8132761
Probable space group: C 2/C
;
_chemical_formula_sum "Si O2"
_cell_formula_units_Z 60
_cell_length_a 21.621790
_cell_length_b 8.447897
_cell_length_c 17.811687
_cell_angle_alpha 90.000000
_cell_angle_beta 60.775094
_cell_angle_gamma 90.000000
_cell_volume 2839.325779
_symmetry_space_group_name_H-M "C 2/C"
_symmetry_group_IT_number 15
_symmetry_cell_setting 'monoclinic'
loop_
_space_group_symop_operation_xyz
x,y,z
-x,y,1/2-z
-x,-y,-z
x,-y,1/2+z
1/2+x,1/2+y,z
1/2-x,1/2+y,1/2-z
1/2-x,1/2-y,-z
1/2+x,1/2-y,1/2+z
loop_
_atom_site_type_symbol
_atom_site_label
_atom_site_fract_x
_atom_site_fract_y
_atom_site_fract_z
Si Si1 0.215258 0.376043 0.833863
Si Si2 0.759809 0.071310 0.470270
Si Si3 0.463396 0.365846 0.131516
Si Si4 0.432164 0.893758 0.536256
Si Si5 0.825344 0.019142 0.662284
Si Si6 0.884156 0.902718 0.475030
Si Si7 0.000000 0.650850 0.250000
Si Si8 0.384866 0.045926 0.421323
O O1 0.253526 0.444670 0.884617
O O2 0.136176 0.453103 0.874443
O O3 0.205532 0.187298 0.845633
O O4 0.261475 0.419069 0.734806
O O5 0.750000 0.250000 0.500000
O O6 0.835312 0.994827 0.444825
O O7 0.697613 0.975172 0.550982
O O8 0.453970 0.276205 0.056388
O O9 0.391614 0.469254 0.181511
O O10 0.535244 0.470409 0.081516
O O11 0.467211 0.254057 0.202150
O O12 0.500000 0.000000 0.500000
O O13 0.406520 0.900179 0.464375
O O14 0.852189 0.921366 0.575655
O O15 0.893070 0.716146 0.455475
O O16 0.936179 0.540143 0.318455
#
# Coordination Sequence:
#
# PCOD8132761 Si02
#       8
#     8   8   8   8   8   8   4   8
#     4  10  25  39  64  92 128 166 210 274 315 375
#     4  11  23  44  62  88 133 167 212 264 323 380
#     4  10  23  39  66  95 130 167 210 277 308 390
#     4  10  18  41  61  90 126 166 208 256 320 373
#     4  11  24  42  62  98 125 167 218 263 321 380
#     4  11  22  41  67  93 122 174 217 250 324 396
#     4  10  20  38  60 102 122 160 216 254 326 366
#     4  10  23  39  69  93 123 174 213 267 314 391
#
# _framework density 21.131778000000001
#
# number of rings (size 3 to 8) (size 9 to 14) (size 15 to 20)
#    0.000    1.600    4.000    0.800    7.467    2.133 
#    0.000    1.333    0.000    0.000    0.000    0.000 
#    0.000    0.000    0.000    0.000    0.000    0.000 
#
# Total GULP energy -371759.695218 kJ/mol
# GULP energy per Si atom -12391.989841 kJ/mol
# Density = 2.108368 g / cm^3
# Si number density = 21.131778 Si / 1000 Ang^3
#
#
#
# Elastic Constant Matrix: (Units=GPa)
#
#
# Indices 1 2 3 4 5 6 
#
# 1 139.8506 27.0950 51.9855 -0.0001 -23.7180 0.0000
# 2 27.0950 51.3482 32.3184 -0.0004 -7.2776 0.0001
# 3 51.9855 32.3184 148.5886 -0.0002 -28.3665 0.0001
# 4 -0.0001 -0.0004 -0.0002 29.0382 0.0001 -2.5170
# 5 -23.7180 -7.2776 -28.3665 0.0001 41.8748 0.0000
# 6 0.0000 0.0001 0.0001 -2.5170 0.0000 27.6540
#
#
#
# Elastic Compliance Matrix: (Units=1/GPa)
#
#
# Indices 1 2 3 4 5 6 
#
# 1 0.009000 -0.003123 -0.001838 0.000000 0.003310 0.000000
# 2 -0.003123 0.023665 -0.004143 0.000000 -0.000463 0.000000
# 3 -0.001838 -0.004143 0.009117 0.000000 0.004415 0.000000
# 4 0.000000 0.000000 0.000000 0.034711 0.000000 0.003159
# 5 0.003310 -0.000463 0.004415 0.000000 0.028666 0.000000
# 6 0.000000 0.000000 0.000000 0.003159 0.000000 0.036449
#
#
# Mechanical properties :
#
#
# Convention : Reuss Voigt Hill
#
# Bulk Modulus (GPa) = 42.41888 62.50947 52.46417
# Shear Modulus (GPa) = 29.81994 34.93930 32.37962
#
# Velocity S-wave (km/s) = 3.76059 4.07061 3.91867
# Velocity P-wave (km/s) = 6.24285 7.19293 6.73466
#
# Compressibility (1/GPa) = 0.02357441
#
# Stress axis : x y z
#
# Youngs Moduli (GPa) = 111.11070 42.25673 109.68779
#
# Poissons Ratio (x) = 0.13199 0.20155
# Poissons Ratio (y) = 0.34704 0.45441
# Poissons Ratio (z) = 0.20417 0.17506
#
# Static dielectric constant tensor:
#      x y z
#    x 4.524390 0.000000 -0.218520 
#    y 0.000000 3.730090 0.000000 
#    z -0.218520 0.000000 4.057500 
# 
# 
# High freq. dielectric constant tensor:
#      x y z
#    x 1.850580 0.000000 -0.018160 
#    y 0.000000 1.798360 0.000000 
#    z -0.018160 0.000000 1.827310 
# 
# From -- ./inp_files/214288.got.cif
#   From: 2010.06.25/outbox.cif.g09.slc.cpg/sg15_108_cif.got.tgz:214288.got - 2010.06.28 07:06:18.
