data_PCOD8132765
_publ_section_title
;
Structure prediction by ZEFSAII (Michael W. Deem and Ramdas Pophale) SiO2 
 PCOD8132765
Probable space group: C 2/C
;
_chemical_formula_sum "Si O2"
_cell_formula_units_Z 40
_cell_length_a 7.235711
_cell_length_b 23.714071
_cell_length_c 10.696560
_cell_angle_alpha 90.000000
_cell_angle_beta 83.392181
_cell_angle_gamma 90.000000
_cell_volume 1823.210644
_symmetry_space_group_name_H-M "C 2/C"
_symmetry_group_IT_number 15
_symmetry_cell_setting 'monoclinic'
loop_
_space_group_symop_operation_xyz
x,y,z
-x,y,1/2-z
-x,-y,-z
x,-y,1/2+z
1/2+x,1/2+y,z
1/2-x,1/2+y,1/2-z
1/2-x,1/2-y,-z
1/2+x,1/2-y,1/2+z
loop_
_atom_site_type_symbol
_atom_site_label
_atom_site_fract_x
_atom_site_fract_y
_atom_site_fract_z
Si Si1 0.000000 0.558772 0.750000
Si Si2 0.755671 0.622151 0.586631
Si Si3 0.024075 0.286223 0.103287
Si Si4 0.600997 0.665444 0.000785
Si Si5 0.654566 0.951084 0.650764
Si Si6 0.000000 0.096755 0.250000
O O1 0.169100 0.597485 0.788078
O O2 0.099347 0.517436 0.639795
O O3 0.533841 0.632077 0.586961
O O4 0.837487 0.577983 0.482411
O O5 0.842555 0.683840 0.561083
O O6 0.042934 0.230445 0.020099
O O7 0.000000 0.270460 0.250000
O O8 0.192130 0.331862 0.072290
O O9 0.593234 0.635704 0.136311
O O10 0.500000 0.920292 0.750000
O O11 0.851241 0.945606 0.703993
#
# Coordination Sequence:
#
# PCOD8132765 Si02
#       6
#     4   8   8   8   8   4
#     4  10  22  41  60  92 130 165 216 264 310 374
#     4  11  21  42  61  91 128 168 210 258 318 374
#     4  11  22  41  63  95 129 163 207 260 316 387
#     4  10  23  39  67  92 128 165 208 259 321 381
#     4   9  21  37  61  87 123 169 210 261 313 365
#     4  10  18  41  62  94 124 167 218 254 318 382
#
# _framework density 21.939319000000001
#
# number of rings (size 3 to 8) (size 9 to 14) (size 15 to 20)
#    0.600    1.200    2.000    2.400    0.000    0.800 
#    3.600    2.000    0.000    0.000    0.000    0.000 
#    0.000    0.000    0.000    0.000    0.000    0.000 
#
# Total GULP energy -247826.321673 kJ/mol
# GULP energy per Si atom -12391.316084 kJ/mol
# Density = 2.188938 g / cm^3
# Si number density = 21.939319 Si / 1000 Ang^3
#
#
#
# Elastic Constant Matrix: (Units=GPa)
#
#
# Indices 1 2 3 4 5 6 
#
# 1 63.0781 3.2343 17.7463 0.0000 4.8941 0.0000
# 2 3.2343 67.2189 0.1959 0.0000 14.2290 0.0000
# 3 17.7463 0.1959 56.7552 0.0000 11.5176 0.0000
# 4 0.0000 0.0000 0.0000 14.5358 0.0000 -1.0829
# 5 4.8941 14.2290 11.5176 0.0000 35.3782 0.0000
# 6 0.0000 0.0000 0.0000 -1.0829 0.0000 34.8636
#
#
#
# Elastic Compliance Matrix: (Units=1/GPa)
#
#
# Indices 1 2 3 4 5 6 
#
# 1 0.017432 -0.000747 -0.005375 0.000000 -0.000361 0.000000
# 2 -0.000747 0.016392 0.001599 0.000000 -0.007010 0.000000
# 3 -0.005375 0.001599 0.020638 0.000000 -0.006619 0.000000
# 4 0.000000 0.000000 0.000000 0.068955 0.000000 0.002142
# 5 -0.000361 -0.007010 -0.006619 0.000000 0.033290 0.000000
# 6 0.000000 0.000000 0.000000 0.002142 0.000000 0.028750
#
#
# Mechanical properties :
#
#
# Convention : Reuss Voigt Hill
#
# Bulk Modulus (GPa) = 22.01772 25.48946 23.75359
# Shear Modulus (GPa) = 23.85049 28.01391 25.93220
#
# Velocity S-wave (km/s) = 3.30071 3.57722 3.44175
# Velocity P-wave (km/s) = 4.95821 5.35775 5.16184
#
# Compressibility (1/GPa) = 0.04541796
#
# Stress axis : x y z
#
# Youngs Moduli (GPa) = 57.36645 61.00550 48.45503
#
# Poissons Ratio (x) = 0.04554 0.26043
# Poissons Ratio (y) = 0.04283 -0.07750
# Poissons Ratio (z) = 0.30833 -0.09758
#
# Static dielectric constant tensor:
#      x y z
#    x 3.994720 0.000000 -0.054350 
#    y 0.000000 3.837730 0.000000 
#    z -0.054350 0.000000 3.858180 
# 
# 
# High freq. dielectric constant tensor:
#      x y z
#    x 1.866530 0.000000 0.007390 
#    y 0.000000 1.865720 0.000000 
#    z 0.007390 0.000000 1.850450 
# 
# From -- ./inp_files/73265.got.cif
#   From: 2010.06.25/outbox.cif.g09.slc.cpg/sg15_37_cif.got.tgz:73265.got - 2010.06.28 07:06:18.
