data_PCOD8132526
_publ_section_title
;
Structure prediction by ZEFSAII (Michael W. Deem and Ramdas Pophale) SiO2 
 PCOD8132526
Probable space group: C 2/C
;
_chemical_formula_sum "Si O2"
_cell_formula_units_Z 44
_cell_length_a 25.042240
_cell_length_b 11.770238
_cell_length_c 12.372230
_cell_angle_alpha 90.000000
_cell_angle_beta 37.727090
_cell_angle_gamma 90.000000
_cell_volume 2231.452340
_symmetry_space_group_name_H-M "C 2/C"
_symmetry_group_IT_number 15
_symmetry_cell_setting 'monoclinic'
loop_
_space_group_symop_operation_xyz
x,y,z
-x,y,1/2-z
-x,-y,-z
x,-y,1/2+z
1/2+x,1/2+y,z
1/2-x,1/2+y,1/2-z
1/2-x,1/2-y,-z
1/2+x,1/2-y,1/2+z
loop_
_atom_site_type_symbol
_atom_site_label
_atom_site_fract_x
_atom_site_fract_y
_atom_site_fract_z
Si Si1 0.635097 0.525095 0.186909
Si Si2 0.845125 0.112117 0.636403
Si Si3 0.899466 0.341945 0.533561
Si Si4 0.100741 0.707262 0.712099
Si Si5 0.297450 0.954365 0.294157
Si Si6 0.500000 0.469227 0.750000
O O1 0.637636 0.486876 0.305818
O O2 0.616636 0.659579 0.207987
O O3 0.553115 0.460644 0.256950
O O4 0.724863 0.486518 0.986634
O O5 0.850079 0.239300 0.676577
O O6 0.751299 0.096190 0.732190
O O7 0.924941 0.110646 0.422175
O O8 0.870531 0.333973 0.453628
O O9 0.869296 0.457910 0.637212
O O10 0.001905 0.330604 0.388093
O O11 0.158521 0.645682 0.709414
#
# Coordination Sequence:
#
# PCOD8132526 Si02
#       6
#     8   8   8   8   8   4
#     4  11  21  38  64  92 121 164 209 259 312 371
#     4  11  22  37  63  91 126 158 212 261 310 365
#     4  11  22  41  63  90 124 164 208 262 308 376
#     4  11  21  42  66  85 123 170 213 247 316 381
#     4  11  24  36  61  93 123 161 209 258 313 368
#     4  10  18  38  60  94 114 164 202 256 310 366
#
# _framework density 19.718098999999999
#
# number of rings (size 3 to 8) (size 9 to 14) (size 15 to 20)
#    0.000    1.091    5.455    2.727    2.545    0.727 
#    0.000    0.000    0.000    0.000    0.000    0.000 
#    0.000    0.000    0.000    0.000    0.000    0.000 
#
# Total GULP energy -272623.224947 kJ/mol
# GULP energy per Si atom -12391.964770 kJ/mol
# Density = 1.967322 g / cm^3
# Si number density = 19.718099 Si / 1000 Ang^3
#
#
#
# Elastic Constant Matrix: (Units=GPa)
#
#
# Indices 1 2 3 4 5 6 
#
# 1 171.6642 48.7181 40.2900 0.0000 -0.6305 0.0000
# 2 48.7181 72.8559 48.2560 0.0000 5.3332 0.0000
# 3 40.2900 48.2560 78.8230 0.0000 -7.8059 0.0000
# 4 0.0000 0.0000 0.0000 23.3926 0.0000 1.5912
# 5 -0.6305 5.3332 -7.8059 0.0000 27.3279 0.0000
# 6 0.0000 0.0000 0.0000 1.5912 0.0000 31.6459
#
#
#
# Elastic Compliance Matrix: (Units=1/GPa)
#
#
# Indices 1 2 3 4 5 6 
#
# 1 0.007273 -0.004197 -0.001081 0.000000 0.000678 0.000000
# 2 -0.004197 0.027762 -0.015845 0.000000 -0.010041 0.000000
# 3 -0.001081 -0.015845 0.023920 0.000000 0.009900 0.000000
# 4 0.000000 0.000000 0.000000 0.042895 0.000000 -0.002157
# 5 0.000678 -0.010041 0.009900 0.000000 0.041396 0.000000
# 6 0.000000 0.000000 0.000000 -0.002157 0.000000 0.031708
#
#
# Mechanical properties :
#
#
# Convention : Reuss Voigt Hill
#
# Bulk Modulus (GPa) = 59.84860 66.43014 63.13937
# Shear Modulus (GPa) = 22.44466 28.87855 25.66161
#
# Velocity S-wave (km/s) = 3.37750 3.83112 3.61144
# Velocity P-wave (km/s) = 6.75485 7.30295 7.03424
#
# Compressibility (1/GPa) = 0.01670883
#
# Stress axis : x y z
#
# Youngs Moduli (GPa) = 137.50336 36.01997 41.80563
#
# Poissons Ratio (x) = 0.15117 0.04519
# Poissons Ratio (y) = 0.57708 0.66243
# Poissons Ratio (z) = 0.14862 0.57075
#
# Static dielectric constant tensor:
#      x y z
#    x 4.017700 0.000000 -0.107220 
#    y 0.000000 3.335120 0.000000 
#    z -0.107220 0.000000 3.537310 
# 
# 
# High freq. dielectric constant tensor:
#      x y z
#    x 1.794720 0.000000 -0.012400 
#    y 0.000000 1.740560 0.000000 
#    z -0.012400 0.000000 1.761190 
# 
# From -- ./inp_files/104328.got.cif
#   From: 2010.06.25/outbox.cif.g09.slc.cpg/sg15_53_cif.got.tgz:104328.got - 2010.06.28 07:06:18.
