data_PCOD8132190
_publ_section_title
;
Structure prediction by ZEFSAII (Michael W. Deem and Ramdas Pophale) SiO2 
 PCOD8132190
Probable space group: C 2/C
;
_chemical_formula_sum "Si O2"
_cell_formula_units_Z 52
_cell_length_a 8.559967
_cell_length_b 20.851152
_cell_length_c 19.484459
_cell_angle_alpha 90.000000
_cell_angle_beta 47.361653
_cell_angle_gamma 90.000000
_cell_volume 2558.339260
_symmetry_space_group_name_H-M "C 2/C"
_symmetry_group_IT_number 15
_symmetry_cell_setting 'monoclinic'
loop_
_space_group_symop_operation_xyz
x,y,z
-x,y,1/2-z
-x,-y,-z
x,-y,1/2+z
1/2+x,1/2+y,z
1/2-x,1/2+y,1/2-z
1/2-x,1/2-y,-z
1/2+x,1/2-y,1/2+z
loop_
_atom_site_type_symbol
_atom_site_label
_atom_site_fract_x
_atom_site_fract_y
_atom_site_fract_z
Si Si1 0.536068 0.048945 0.908233
Si Si2 0.341417 0.198853 0.169264
Si Si3 0.949799 0.207013 0.376672
Si Si4 0.286714 0.158864 0.930333
Si Si5 0.486817 0.663882 0.620007
Si Si6 0.409753 0.089348 0.459771
Si Si7 0.000000 0.914538 0.250000
O O1 0.437924 0.097448 0.883326
O O2 0.793584 0.040957 0.826812
O O3 0.407281 0.983258 0.931976
O O4 0.480732 0.080877 0.998379
O O5 0.216737 0.200504 0.134992
O O6 0.506906 0.258917 0.126212
O O7 0.460779 0.131376 0.132938
O O8 0.188528 0.195089 0.280467
O O9 0.899000 0.159394 0.455850
O O10 0.936219 0.280815 0.404825
O O11 0.200636 0.158062 0.878959
O O12 0.689035 0.626940 0.530359
O O13 0.428101 0.630617 0.708896
#
# Coordination Sequence:
#
# PCOD8132190 Si02
#       7
#     8   8   8   8   8   8   4
#     4  10  21  38  61  83 122 156 199 237 288 359
#     4  10  18  36  58  89 117 152 194 247 280 353
#     4   9  19  32  61  90 114 149 202 234 295 336
#     4  10  19  38  61  86 116 158 190 245 288 354
#     4  10  22  38  62  85 116 152 200 241 302 343
#     4  10  21  38  56  88 119 160 191 236 299 345
#     4  10  22  40  60  90 110 158 198 248 292 356
#
# _framework density 20.325685
#
# number of rings (size 3 to 8) (size 9 to 14) (size 15 to 20)
#    0.000    2.154    1.538    1.385    0.000    3.692 
#    5.538    0.000    3.385    0.000    0.000    0.000 
#    0.000    0.000    0.000    0.000    0.000    0.000 
#
# Total GULP energy -322155.630945 kJ/mol
# GULP energy per Si atom -12390.601190 kJ/mol
# Density = 2.027942 g / cm^3
# Si number density = 20.325685 Si / 1000 Ang^3
#
#
#
# Elastic Constant Matrix: (Units=GPa)
#
#
# Indices 1 2 3 4 5 6 
#
# 1 50.8729 31.8083 24.5133 0.0000 1.5185 0.0000
# 2 31.8083 105.9190 41.3877 0.0000 -18.6807 0.0000
# 3 24.5133 41.3877 117.6117 0.0000 -6.2775 0.0000
# 4 0.0000 0.0000 0.0000 18.9990 0.0000 -2.6364
# 5 1.5185 -18.6807 -6.2775 0.0000 28.4876 0.0000
# 6 0.0000 0.0000 0.0000 -2.6364 0.0000 25.4280
#
#
#
# Elastic Compliance Matrix: (Units=1/GPa)
#
#
# Indices 1 2 3 4 5 6 
#
# 1 0.026363 -0.008012 -0.003067 0.000000 -0.007335 0.000000
# 2 -0.008012 0.014673 -0.002992 0.000000 0.009389 0.000000
# 3 -0.003067 -0.002992 0.010219 0.000000 0.000453 0.000000
# 4 0.000000 0.000000 0.000000 0.053403 0.000000 0.005537
# 5 -0.007335 0.009389 0.000453 0.000000 0.041751 0.000000
# 6 0.000000 0.000000 0.000000 0.005537 0.000000 0.039901
#
#
# Mechanical properties :
#
#
# Convention : Reuss Voigt Hill
#
# Bulk Modulus (GPa) = 43.26751 52.20249 47.73500
# Shear Modulus (GPa) = 22.50676 26.36254 24.43465
#
# Velocity S-wave (km/s) = 3.33123 3.60530 3.47097
# Velocity P-wave (km/s) = 6.01078 6.56275 6.29282
#
# Compressibility (1/GPa) = 0.02311203
#
# Stress axis : x y z
#
# Youngs Moduli (GPa) = 37.93156 68.15466 97.85830
#
# Poissons Ratio (x) = 0.54609 0.30010
# Poissons Ratio (y) = 0.30393 0.29280
# Poissons Ratio (z) = 0.11632 0.20393
#
# Static dielectric constant tensor:
#      x y z
#    x 3.358010 0.000000 0.068200 
#    y 0.000000 3.739600 0.000000 
#    z 0.068200 0.000000 3.776800 
# 
# 
# High freq. dielectric constant tensor:
#      x y z
#    x 1.767350 0.000000 0.002690 
#    y 0.000000 1.788280 0.000000 
#    z 0.002690 0.000000 1.800430 
# 
# From -- ./inp_files/179006.got.cif
#   From: 2010.06.25/outbox.cif.g09.slc.cpg/sg15_90_cif.got.tgz:179006.got - 2010.06.28 07:06:18.
