data_PCOD8132823
_publ_section_title
;
Structure prediction by ZEFSAII (Michael W. Deem and Ramdas Pophale) SiO2 
 PCOD8132823
Probable space group: C 2/C
;
_chemical_formula_sum "Si O2"
_cell_formula_units_Z 56
_cell_length_a 30.697226
_cell_length_b 25.925857
_cell_length_c 5.216950
_cell_angle_alpha 90.000000
_cell_angle_beta 67.801027
_cell_angle_gamma 90.000000
_cell_volume 3844.168278
_symmetry_space_group_name_H-M "C 2/C"
_symmetry_group_IT_number 15
_symmetry_cell_setting 'monoclinic'
loop_
_space_group_symop_operation_xyz
x,y,z
-x,y,1/2-z
-x,-y,-z
x,-y,1/2+z
1/2+x,1/2+y,z
1/2-x,1/2+y,1/2-z
1/2-x,1/2-y,-z
1/2+x,1/2-y,1/2+z
loop_
_atom_site_type_symbol
_atom_site_label
_atom_site_fract_x
_atom_site_fract_y
_atom_site_fract_z
Si Si1 0.590730 0.374406 0.606840
Si Si2 0.206360 0.298583 0.340172
Si Si3 0.945721 0.759234 0.820764
Si Si4 0.447647 0.478683 0.666581
Si Si5 0.143158 0.855096 0.986881
Si Si6 0.893210 0.260305 0.936276
Si Si7 0.757010 0.817753 0.727412
O O1 0.563584 0.320389 0.666920
O O2 0.552266 0.418935 0.746547
O O3 0.617553 0.383933 0.279282
O O4 0.629148 0.379631 0.746700
O O5 0.149727 0.300594 0.443623
O O6 0.224097 0.240202 0.308189
O O7 0.222898 0.327072 0.561819
O O8 0.227977 0.328881 0.050494
O O9 0.929575 0.733005 0.590629
O O10 0.000000 0.749264 0.750000
O O11 0.918509 0.730589 0.109686
O O12 0.500000 0.500000 0.500000
O O13 0.421909 0.488303 0.450585
O O14 0.127655 0.796336 0.015814
O O15 0.199543 0.857604 0.891555
#
# Coordination Sequence:
#
# PCOD8132823 Si02
#       7
#     8   8   8   8   8   8   8
#     4  10  19  31  43  55  71  92 108 150 197 220
#     4   9  15  23  37  52  74  92 110 133 162 196
#     4  10  19  28  40  52  68  93 123 150 183 228
#     4  10  21  34  45  58  69  86 115 157 186 240
#     4   9  17  28  41  56  75  88 110 133 173 231
#     4   9  17  28  36  53  72  92 115 144 172 207
#     4   9  15  23  37  57  70  92 110 128 157 210
#
# _framework density 14.567520999999999
#
# number of rings (size 3 to 8) (size 9 to 14) (size 15 to 20)
#    0.000    2.571    0.000    3.000    2.000    6.857 
#    5.143    0.000    0.000    0.000    0.000    0.000 
#    0.000    0.000    0.000    0.000    0.000    0.000 
#
# Total GULP energy -347011.354223 kJ/mol
# GULP energy per Si atom -12393.262651 kJ/mol
# Density = 1.453436 g / cm^3
# Si number density = 14.567521 Si / 1000 Ang^3
#
#
#
# Elastic Constant Matrix: (Units=GPa)
#
#
# Indices 1 2 3 4 5 6 
#
# 1 108.6014 15.8444 49.9936 0.0000 5.4419 0.0000
# 2 15.8444 11.9226 14.7945 0.0000 -4.8940 0.0000
# 3 49.9936 14.7945 108.7501 0.0000 16.6884 0.0000
# 4 0.0000 0.0000 0.0000 16.8918 0.0000 -2.3611
# 5 5.4419 -4.8940 16.6884 0.0000 32.1102 0.0000
# 6 0.0000 0.0000 0.0000 -2.3611 0.0000 10.1090
#
#
#
# Elastic Compliance Matrix: (Units=1/GPa)
#
#
# Indices 1 2 3 4 5 6 
#
# 1 0.013054 -0.013581 -0.003799 0.000000 -0.002308 0.000000
# 2 -0.013581 0.136484 -0.017245 0.000000 0.032066 0.000000
# 3 -0.003799 -0.017245 0.014771 0.000000 -0.009661 0.000000
# 4 0.000000 0.000000 0.000000 0.061198 0.000000 0.014294
# 5 -0.002308 0.032066 -0.009661 0.000000 0.041442 0.000000
# 6 0.000000 0.000000 0.000000 0.014294 0.000000 0.102260
#
#
# Mechanical properties :
#
#
# Convention : Reuss Voigt Hill
#
# Bulk Modulus (GPa) = 10.51982 43.39324 26.95653
# Shear Modulus (GPa) = 10.63497 21.73162 16.18330
#
# Velocity S-wave (km/s) = 2.70487 3.86655 3.33666
# Velocity P-wave (km/s) = 4.12216 7.05592 5.77833
#
# Compressibility (1/GPa) = 0.09505865
#
# Stress axis : x y z
#
# Youngs Moduli (GPa) = 76.60491 7.32684 67.70176
#
# Poissons Ratio (x) = 0.09950 0.25723
# Poissons Ratio (y) = 1.04034 1.16753
# Poissons Ratio (z) = 0.29105 0.12635
#
# Static dielectric constant tensor:
#      x y z
#    x 2.146470 0.000000 -0.777440 
#    y 0.000000 2.302620 0.000000 
#    z -0.777440 0.000000 2.011590 
# 
# 
# High freq. dielectric constant tensor:
#      x y z
#    x 1.558310 0.000000 0.018910 
#    y 0.000000 1.470440 0.000000 
#    z 0.018910 0.000000 1.578920 
# 
# From -- ./inp_files/16295.got.cif
#   From: 2010.06.25/outbox.cif.g09.slc.cpg/sg15_9_cif.got.tgz:16295.got - 2010.06.28 07:06:18.
