data_PCOD8132474
_publ_section_title
;
Structure prediction by ZEFSAII (Michael W. Deem and Ramdas Pophale) SiO2 
 PCOD8132474
Probable space group: C 2/C
;
_chemical_formula_sum "Si O2"
_cell_formula_units_Z 48
_cell_length_a 8.701766
_cell_length_b 28.356154
_cell_length_c 21.024468
_cell_angle_alpha 90.000000
_cell_angle_beta 151.209945
_cell_angle_gamma 90.000000
_cell_volume 2498.432556
_symmetry_space_group_name_H-M "C 2/C"
_symmetry_group_IT_number 15
_symmetry_cell_setting 'monoclinic'
loop_
_space_group_symop_operation_xyz
x,y,z
-x,y,1/2-z
-x,-y,-z
x,-y,1/2+z
1/2+x,1/2+y,z
1/2-x,1/2+y,1/2-z
1/2-x,1/2-y,-z
1/2+x,1/2-y,1/2+z
loop_
_atom_site_type_symbol
_atom_site_label
_atom_site_fract_x
_atom_site_fract_y
_atom_site_fract_z
Si Si1 0.034850 0.314141 0.951561
Si Si2 0.720544 0.088868 0.190785
Si Si3 0.768840 0.461832 0.608828
Si Si4 0.585221 0.799008 0.444415
Si Si5 0.283712 0.720021 0.809279
Si Si6 0.643396 0.368980 0.628654
O O1 0.941680 0.367531 0.904170
O O2 0.809562 0.276762 0.831991
O O3 0.388714 0.305345 0.052598
O O4 0.025079 0.308178 0.023988
O O5 0.473215 0.046872 0.118363
O O6 0.890153 0.108908 0.314393
O O7 0.000000 0.065909 0.250000
O O8 0.500000 0.500000 0.500000
O O9 0.609778 0.411350 0.565997
O O10 0.000000 0.478428 0.750000
O O11 0.750000 0.750000 0.500000
O O12 0.282117 0.794779 0.287628
O O13 0.847640 0.834746 0.511324
O O14 0.000000 0.699809 0.750000
O O15 0.000000 0.345285 0.750000
#
# Coordination Sequence:
#
# PCOD8132474 Si02
#       6
#     8   8   8   8   8   8
#     4  11  23  39  56  83 121 162 210 253 299 352
#     4  10  18  37  66  87 115 158 200 244 298 370
#     4   9  21  42  65  94 119 157 198 258 313 384
#     4  12  22  37  57  85 126 164 206 258 291 355
#     4  11  24  37  54  83 120 166 212 249 302 345
#     4   9  21  36  61  89 119 157 203 243 304 363
#
# _framework density 19.212045
#
# number of rings (size 3 to 8) (size 9 to 14) (size 15 to 20)
#    0.000    2.000    3.333    2.000    4.667    1.333 
#    3.000    3.333    0.000    0.000    0.000    0.000 
#    0.000    0.000    0.000    0.000    0.000    0.000 
#
# Total GULP energy -297435.091291 kJ/mol
# GULP energy per Si atom -12393.128804 kJ/mol
# Density = 1.916832 g / cm^3
# Si number density = 19.212045 Si / 1000 Ang^3
#
#
#
# Elastic Constant Matrix: (Units=GPa)
#
#
# Indices 1 2 3 4 5 6 
#
# 1 148.1224 44.2365 47.8840 0.0011 14.1864 0.0000
# 2 44.2365 83.1094 51.4317 -0.0010 14.6544 -0.0003
# 3 47.8840 51.4317 92.3017 0.0084 10.7911 0.0009
# 4 0.0011 -0.0010 0.0084 28.8119 0.0019 10.0406
# 5 14.1864 14.6544 10.7911 0.0019 35.6915 0.0001
# 6 0.0000 -0.0003 0.0009 10.0406 0.0001 25.3270
#
#
#
# Elastic Compliance Matrix: (Units=1/GPa)
#
#
# Indices 1 2 3 4 5 6 
#
# 1 0.008576 -0.002526 -0.002866 0.000001 -0.001505 0.000000
# 2 -0.002526 0.019871 -0.009253 0.000004 -0.004357 -0.000001
# 3 -0.002866 -0.009253 0.017518 -0.000006 -0.000359 0.000002
# 4 0.000001 0.000004 -0.000006 0.040272 -0.000002 -0.015965
# 5 -0.001505 -0.004357 -0.000359 -0.000002 0.030514 0.000001
# 6 0.000000 -0.000001 0.000002 -0.015965 0.000001 0.045813
#
#
# Mechanical properties :
#
#
# Convention : Reuss Voigt Hill
#
# Bulk Modulus (GPa) = 59.96267 67.84866 63.90566
# Shear Modulus (GPa) = 25.32792 29.96483 27.64637
#
# Velocity S-wave (km/s) = 3.63483 3.95358 3.79755
# Velocity P-wave (km/s) = 6.99247 7.49889 7.25011
#
# Compressibility (1/GPa) = 0.01667704
#
# Stress axis : x y z
#
# Youngs Moduli (GPa) = 116.60319 50.32454 57.08356
#
# Poissons Ratio (x) = 0.12712 0.16358
# Poissons Ratio (y) = 0.29454 0.52817
# Poissons Ratio (z) = 0.33413 0.46563
#
# Static dielectric constant tensor:
#      x y z
#    x 3.761820 0.000020 0.223140 
#    y 0.000020 3.187000 0.000010 
#    z 0.223140 0.000010 3.340220 
# 
# 
# High freq. dielectric constant tensor:
#      x y z
#    x 1.770250 0.000000 0.005050 
#    y 0.000000 1.710890 0.000000 
#    z 0.005050 0.000000 1.742120 
# 
# From -- ./inp_files/80933.got.cif
#   From: 2010.06.25/outbox.cif.g09.slc.cpg/sg15_41_cif.got.tgz:80933.got - 2010.06.28 07:06:18.
