data_PCOD8132003
_publ_section_title
;
Structure prediction by ZEFSAII (Michael W. Deem and Ramdas Pophale) SiO2 
 PCOD8132003
Probable space group: C 2/C
;
_chemical_formula_sum "Si O2"
_cell_formula_units_Z 44
_cell_length_a 15.691410
_cell_length_b 9.893164
_cell_length_c 31.273603
_cell_angle_alpha 90.000000
_cell_angle_beta 153.786505
_cell_angle_gamma 90.000000
_cell_volume 2144.467073
_symmetry_space_group_name_H-M "C 2/C"
_symmetry_group_IT_number 15
_symmetry_cell_setting 'monoclinic'
loop_
_space_group_symop_operation_xyz
x,y,z
-x,y,1/2-z
-x,-y,-z
x,-y,1/2+z
1/2+x,1/2+y,z
1/2-x,1/2+y,1/2-z
1/2-x,1/2-y,-z
1/2+x,1/2-y,1/2+z
loop_
_atom_site_type_symbol
_atom_site_label
_atom_site_fract_x
_atom_site_fract_y
_atom_site_fract_z
Si Si1 0.487910 0.155539 0.407765
Si Si2 0.223141 0.647078 0.427081
Si Si3 0.459017 0.127873 0.579344
Si Si4 0.500000 0.952089 0.750000
Si Si5 0.443035 0.421892 0.567198
Si Si6 0.785764 0.391770 0.224497
O O1 0.644725 0.220203 0.510208
O O2 0.567467 0.149166 0.395043
O O3 0.292976 0.241531 0.320066
O O4 0.449597 0.999746 0.405340
O O5 0.357061 0.512572 0.490169
O O6 0.118593 0.646852 0.334534
O O7 0.514065 0.272859 0.582853
O O8 0.226196 0.107472 0.474426
O O9 0.539210 0.122797 0.663942
O O10 0.642590 0.047578 0.787794
O O11 0.617726 0.507816 0.667153
#
# Coordination Sequence:
#
# PCOD8132003 Si02
#       6
#     8   8   8   4   8   8
#     4   9  18  35  58  85 111 151 199 237 283 345
#     4   9  19  37  57  86 112 151 196 247 278 351
#     4  10  18  35  58  91 110 146 199 245 280 347
#     4  12  22  36  58  92 122 146 204 242 302 338
#     4   9  19  34  57  87 114 147 192 244 283 337
#     4  11  21  34  59  88 116 154 194 247 283 347
#
# _framework density 20.517918999999999
#
# number of rings (size 3 to 8) (size 9 to 14) (size 15 to 20)
#    0.000    2.182    3.636    2.182    0.000    2.909 
#    0.000    0.000    0.000    6.545    0.000    0.000 
#    0.000    0.000    0.000    0.000    0.000    0.000 
#
# Total GULP energy -272622.113734 kJ/mol
# GULP energy per Si atom -12391.914261 kJ/mol
# Density = 2.047122 g / cm^3
# Si number density = 20.517919 Si / 1000 Ang^3
#
#
#
# Elastic Constant Matrix: (Units=GPa)
#
#
# Indices 1 2 3 4 5 6 
#
# 1 42.2635 16.6620 37.2572 0.0000 -4.2805 0.0000
# 2 16.6620 173.3025 41.2468 0.0001 -7.3617 -0.0001
# 3 37.2572 41.2468 99.6059 0.0004 -9.6162 -0.0001
# 4 0.0000 0.0001 0.0004 14.7857 0.0000 5.3177
# 5 -4.2805 -7.3617 -9.6162 0.0000 31.7048 0.0000
# 6 0.0000 -0.0001 -0.0001 5.3177 0.0000 23.7967
#
#
#
# Elastic Compliance Matrix: (Units=1/GPa)
#
#
# Indices 1 2 3 4 5 6 
#
# 1 0.035331 -0.000263 -0.013034 0.000000 0.000756 0.000000
# 2 -0.000263 0.006418 -0.002492 0.000000 0.000699 0.000000
# 3 -0.013034 -0.002492 0.016195 0.000000 0.002574 0.000000
# 4 0.000000 0.000000 0.000000 0.073543 0.000000 -0.016434
# 5 0.000756 0.000699 0.002574 0.000000 0.032586 0.000000
# 6 0.000000 0.000000 0.000000 -0.016434 0.000000 0.045695
#
#
# Mechanical properties :
#
#
# Convention : Reuss Voigt Hill
#
# Bulk Modulus (GPa) = 37.92531 56.16711 47.04621
# Shear Modulus (GPa) = 19.98922 28.72451 24.35687
#
# Velocity S-wave (km/s) = 3.12466 3.74568 3.44917
# Velocity P-wave (km/s) = 5.61623 6.79271 6.23229
#
# Compressibility (1/GPa) = 0.02636761
#
# Stress axis : x y z
#
# Youngs Moduli (GPa) = 28.30382 155.80367 61.74667
#
# Poissons Ratio (x) = 0.04093 0.80478
# Poissons Ratio (y) = 0.00743 0.15388
# Poissons Ratio (z) = 0.36890 0.38828
#
# Static dielectric constant tensor:
#      x y z
#    x 3.112740 0.000000 0.286500 
#    y 0.000000 4.356070 0.000000 
#    z 0.286500 0.000000 3.800770 
# 
# 
# High freq. dielectric constant tensor:
#      x y z
#    x 1.730070 0.000000 0.025770 
#    y 0.000000 1.823360 0.000000 
#    z 0.025770 0.000000 1.809200 
# 
# From -- ./inp_files/203437.got.cif
#   From: 2010.06.25/outbox.cif.g09.slc.cpg/sg15_102_cif.got.tgz:203437.got - 2010.06.28 07:06:18.
