data_PCOD8132629
_publ_section_title
;
Structure prediction by ZEFSAII (Michael W. Deem and Ramdas Pophale) SiO2 
 PCOD8132629
Probable space group: C 2/C
;
_chemical_formula_sum "Si O2"
_cell_formula_units_Z 52
_cell_length_a 11.641463
_cell_length_b 9.956611
_cell_length_c 29.887560
_cell_angle_alpha 90.000000
_cell_angle_beta 40.234359
_cell_angle_gamma 90.000000
_cell_volume 2237.614866
_symmetry_space_group_name_H-M "C 2/C"
_symmetry_group_IT_number 15
_symmetry_cell_setting 'monoclinic'
loop_
_space_group_symop_operation_xyz
x,y,z
-x,y,1/2-z
-x,-y,-z
x,-y,1/2+z
1/2+x,1/2+y,z
1/2-x,1/2+y,1/2-z
1/2-x,1/2-y,-z
1/2+x,1/2-y,1/2+z
loop_
_atom_site_type_symbol
_atom_site_label
_atom_site_fract_x
_atom_site_fract_y
_atom_site_fract_z
Si Si1 0.179402 0.709824 0.793683
Si Si2 0.500000 0.261706 0.250000
Si Si3 0.551628 0.254284 0.004665
Si Si4 0.841331 0.002179 0.683419
Si Si5 0.795006 0.352115 0.433542
Si Si6 0.216819 0.592404 0.127094
Si Si7 0.309242 0.456397 0.462488
O O1 0.326133 0.655292 0.786497
O O2 0.206348 0.867654 0.774638
O O3 0.213016 0.621446 0.739620
O O4 0.989434 0.711049 0.874508
O O5 0.538586 0.167273 0.195616
O O6 0.646828 0.295216 0.930466
O O7 0.623670 0.109088 0.000040
O O8 0.342234 0.256548 0.053204
O O9 0.591867 0.362669 0.030956
O O10 0.800286 0.987261 0.643436
O O11 0.054601 0.032575 0.620381
O O12 0.825726 0.493933 0.400350
O O13 0.732893 0.395214 0.502788
#
# Coordination Sequence:
#
# PCOD8132629 Si02
#       7
#     8   4   8   8   8   8   8
#     4  11  26  41  67  89 135 169 235 273 345 410
#     4  10  22  42  58  86 122 188 210 274 340 414
#     4  10  19  35  65 102 126 173 225 281 332 422
#     4  11  22  45  65  98 124 184 218 285 331 416
#     4  11  20  40  61 103 127 175 223 285 338 420
#     4  10  18  38  69  86 126 169 234 264 331 408
#     4  10  20  37  67  96 139 171 228 279 342 412
#
# _framework density 23.23903
#
# number of rings (size 3 to 8) (size 9 to 14) (size 15 to 20)
#    0.000    1.538    3.077    3.692    0.000    3.077 
#    2.769    0.769    0.000    0.000    0.000    0.000 
#    0.000    0.000    0.000    0.000    0.000    0.000 
#
# Total GULP energy -322134.433218 kJ/mol
# GULP energy per Si atom -12389.785893 kJ/mol
# Density = 2.318614 g / cm^3
# Si number density = 23.239030 Si / 1000 Ang^3
#
#
#
# Elastic Constant Matrix: (Units=GPa)
#
#
# Indices 1 2 3 4 5 6 
#
# 1 115.7106 22.9299 35.7849 -0.0001 -30.7330 0.0000
# 2 22.9299 64.6982 29.1801 -0.0001 -4.6797 0.0000
# 3 35.7849 29.1801 130.5916 0.0000 -17.5575 0.0000
# 4 -0.0001 -0.0001 0.0000 34.3841 0.0000 1.7101
# 5 -30.7330 -4.6797 -17.5575 0.0000 43.4884 0.0000
# 6 0.0000 0.0000 0.0000 1.7101 0.0000 17.3801
#
#
#
# Elastic Compliance Matrix: (Units=1/GPa)
#
#
# Indices 1 2 3 4 5 6 
#
# 1 0.011631 -0.002891 -0.001563 0.000000 0.007278 0.000000
# 2 -0.002891 0.017911 -0.003411 0.000000 -0.001493 0.000000
# 3 -0.001563 -0.003411 0.009146 0.000000 0.002221 0.000000
# 4 0.000000 0.000000 0.000000 0.029226 0.000000 -0.002876
# 5 0.007278 -0.001493 0.002221 0.000000 0.028874 0.000000
# 6 0.000000 0.000000 0.000000 -0.002876 0.000000 0.057820
#
#
# Mechanical properties :
#
#
# Convention : Reuss Voigt Hill
#
# Bulk Modulus (GPa) = 43.55373 54.08778 48.82076
# Shear Modulus (GPa) = 28.09117 33.92424 31.00770
#
# Velocity S-wave (km/s) = 3.48054 3.82487 3.65676
# Velocity P-wave (km/s) = 5.91055 6.54456 6.23562
#
# Compressibility (1/GPa) = 0.02296014
#
# Stress axis : x y z
#
# Youngs Moduli (GPa) = 85.97352 55.83057 109.33222
#
# Poissons Ratio (x) = 0.16141 0.17086
# Poissons Ratio (y) = 0.24856 0.37290
# Poissons Ratio (z) = 0.13436 0.19042
#
# Static dielectric constant tensor:
#      x y z
#    x 4.037400 0.000000 -0.153450 
#    y 0.000000 4.088590 0.000000 
#    z -0.153450 0.000000 4.507690 
# 
# 
# High freq. dielectric constant tensor:
#      x y z
#    x 1.903460 0.000000 -0.014720 
#    y 0.000000 1.900290 0.000000 
#    z -0.014720 0.000000 1.933640 
# 
# From -- ./inp_files/310761.got.cif
#   From: 2010.06.25/outbox.cif.g09.slc.cpg/sg15_156_cif.got.tgz:310761.got - 2010.06.28 07:06:18.
