data_PCOD8132271
_publ_section_title
;
Structure prediction by ZEFSAII (Michael W. Deem and Ramdas Pophale) SiO2 
 PCOD8132271
Probable space group: C 2/C
;
_chemical_formula_sum "Si O2"
_cell_formula_units_Z 64
_cell_length_a 17.873991
_cell_length_b 10.699644
_cell_length_c 21.609375
_cell_angle_alpha 90.000000
_cell_angle_beta 49.896186
_cell_angle_gamma 90.000000
_cell_volume 3161.007564
_symmetry_space_group_name_H-M "C 2/C"
_symmetry_group_IT_number 15
_symmetry_cell_setting 'monoclinic'
loop_
_space_group_symop_operation_xyz
x,y,z
-x,y,1/2-z
-x,-y,-z
x,-y,1/2+z
1/2+x,1/2+y,z
1/2-x,1/2+y,1/2-z
1/2-x,1/2-y,-z
1/2+x,1/2-y,1/2+z
loop_
_atom_site_type_symbol
_atom_site_label
_atom_site_fract_x
_atom_site_fract_y
_atom_site_fract_z
Si Si1 0.950156 0.054322 0.358338
Si Si2 0.034765 0.320872 0.300495
Si Si3 0.521392 0.886335 0.442325
Si Si4 0.779496 0.255503 0.137671
Si Si5 0.078167 0.824077 0.437461
Si Si6 0.381154 0.434697 0.509694
Si Si7 0.644354 0.475160 0.215033
Si Si8 0.263164 0.298478 0.782552
O O1 0.973921 0.199595 0.353847
O O2 0.898858 0.043480 0.320786
O O3 0.051858 0.974630 0.311641
O O4 0.870577 0.002958 0.449567
O O5 0.017955 0.415590 0.368856
O O6 0.000000 0.370696 0.250000
O O7 0.149711 0.286672 0.235528
O O8 0.628973 0.846204 0.405230
O O9 0.443634 0.774736 0.496024
O O10 0.500000 0.000000 0.500000
O O11 0.790306 0.156241 0.075470
O O12 0.681766 0.336962 0.179299
O O13 0.772119 0.179092 0.204886
O O14 0.160186 0.767789 0.349063
O O15 0.977069 0.847625 0.455616
O O16 0.114526 0.957666 0.441616
O O17 0.733260 0.561367 0.191903
#
# Coordination Sequence:
#
# PCOD8132271 Si02
#       8
#     8   8   8   8   8   8   8   8
#     4  10  18  36  62  83 115 157 200 241 294 360
#     4  10  18  37  59  87 117 155 200 245 296 358
#     4  10  20  36  57  86 120 155 191 244 303 351
#     4  10  22  34  54  85 117 149 191 249 296 348
#     4  10  20  34  57  85 115 152 194 244 293 354
#     4  10  21  35  56  85 116 154 198 239 292 362
#     4  10  20  35  58  88 112 151 196 243 299 354
#     4  10  20  33  57  86 114 143 198 248 298 343
#
# _framework density 20.246708999999999
#
# number of rings (size 3 to 8) (size 9 to 14) (size 15 to 20)
#    0.000    2.000    3.750    1.500    7.000    0.500 
#    0.000    3.750    0.000    0.000    0.000    0.000 
#    0.000    0.000    0.000    0.000    0.000    0.000 
#
# Total GULP energy -396425.939970 kJ/mol
# GULP energy per Si atom -12388.310624 kJ/mol
# Density = 2.020063 g / cm^3
# Si number density = 20.246709 Si / 1000 Ang^3
#
#
#
# Elastic Constant Matrix: (Units=GPa)
#
#
# Indices 1 2 3 4 5 6 
#
# 1 33.6655 22.6423 23.7600 0.0000 4.4850 0.0000
# 2 22.6423 81.2310 39.0237 0.0000 0.2814 0.0000
# 3 23.7600 39.0237 95.5128 0.0000 14.3883 0.0000
# 4 0.0000 0.0000 0.0000 37.6856 0.0000 4.9592
# 5 4.4850 0.2814 14.3883 0.0000 22.6142 0.0000
# 6 0.0000 0.0000 0.0000 4.9592 0.0000 18.5509
#
#
#
# Elastic Compliance Matrix: (Units=1/GPa)
#
#
# Indices 1 2 3 4 5 6 
#
# 1 0.040018 -0.008274 -0.005966 0.000000 -0.004038 0.000000
# 2 -0.008274 0.017396 -0.005822 0.000000 0.005129 0.000000
# 3 -0.005966 -0.005822 0.015643 0.000000 -0.008697 0.000000
# 4 0.000000 0.000000 0.000000 0.027503 0.000000 -0.007352
# 5 -0.004038 0.005129 -0.008697 0.000000 0.050490 0.000000
# 6 0.000000 0.000000 0.000000 -0.007352 0.000000 0.055871
#
#
# Mechanical properties :
#
#
# Convention : Reuss Voigt Hill
#
# Bulk Modulus (GPa) = 30.36559 42.36236 36.36397
# Shear Modulus (GPa) = 19.37819 24.10237 21.74028
#
# Velocity S-wave (km/s) = 3.09707 3.45401 3.28040
# Velocity P-wave (km/s) = 5.27441 6.07251 5.68748
#
# Compressibility (1/GPa) = 0.03293201
#
# Stress axis : x y z
#
# Youngs Moduli (GPa) = 24.98905 57.48451 63.92788
#
# Poissons Ratio (x) = 0.47565 0.38139
# Poissons Ratio (y) = 0.20677 0.37217
# Poissons Ratio (z) = 0.14908 0.33466
#
# Static dielectric constant tensor:
#      x y z
#    x 3.487780 0.000000 -0.047220 
#    y 0.000000 3.512960 0.000000 
#    z -0.047220 0.000000 4.090500 
# 
# 
# High freq. dielectric constant tensor:
#      x y z
#    x 1.758610 0.000000 0.004860 
#    y 0.000000 1.772400 0.000000 
#    z 0.004860 0.000000 1.804210 
# 
# From -- ./inp_files/248625.got.cif
#   From: 2010.06.25/outbox.cif.g09.slc.cpg/sg15_125_cif.got.tgz:248625.got - 2010.06.28 07:06:18.
