data_PCOD8132183
_publ_section_title
;
Structure prediction by ZEFSAII (Michael W. Deem and Ramdas Pophale) SiO2 
 PCOD8132183
Probable space group: C 2/C
;
_chemical_formula_sum "Si O2"
_cell_formula_units_Z 60
_cell_length_a 20.067370
_cell_length_b 8.498340
_cell_length_c 18.565095
_cell_angle_alpha 90.000000
_cell_angle_beta 115.141907
_cell_angle_gamma 90.000000
_cell_volume 2866.119193
_symmetry_space_group_name_H-M "C 2/C"
_symmetry_group_IT_number 15
_symmetry_cell_setting 'monoclinic'
loop_
_space_group_symop_operation_xyz
x,y,z
-x,y,1/2-z
-x,-y,-z
x,-y,1/2+z
1/2+x,1/2+y,z
1/2-x,1/2+y,1/2-z
1/2-x,1/2-y,-z
1/2+x,1/2-y,1/2+z
loop_
_atom_site_type_symbol
_atom_site_label
_atom_site_fract_x
_atom_site_fract_y
_atom_site_fract_z
Si Si1 0.089574 0.546594 0.244494
Si Si2 0.783846 0.905962 0.670438
Si Si3 0.950045 0.408510 0.124690
Si Si4 0.000000 0.167418 0.750000
Si Si5 0.253361 0.060170 0.708141
Si Si6 0.180038 0.558492 0.512494
Si Si7 0.695093 0.411732 0.542926
Si Si8 0.912437 0.061656 0.119304
O O1 0.084667 0.438501 0.312937
O O2 0.068055 0.725217 0.254873
O O3 0.171792 0.543021 0.252236
O O4 0.032720 0.477964 0.158585
O O5 0.772051 0.740566 0.703763
O O6 0.860634 0.907628 0.664107
O O7 0.786523 0.040155 0.733230
O O8 0.718020 0.936683 0.584186
O O9 0.951182 0.221943 0.111661
O O10 0.901027 0.494337 0.041737
O O11 0.974835 0.061688 0.671129
O O12 0.199508 0.995305 0.621807
O O13 0.225899 0.570556 0.459365
O O14 0.174932 0.729705 0.546180
O O15 0.631700 0.493369 0.468013
#
# Coordination Sequence:
#
# PCOD8132183 Si02
#       8
#     8   8   8   4   8   8   8   8
#     4  10  21  35  59  86 117 158 188 244 291 348
#     4  11  25  36  60  85 123 156 195 236 297 346
#     4  10  18  36  58  86 116 145 197 241 291 336
#     4  10  22  34  60  90 118 144 202 244 290 340
#     4  12  23  41  57  88 122 160 192 238 293 357
#     4  10  19  36  58  88 113 152 196 247 287 340
#     4  10  20  33  61  84 118 147 198 246 288 337
#     4  11  21  37  62  94 112 153 194 252 288 340
#
# _framework density 20.934228999999998
#
# number of rings (size 3 to 8) (size 9 to 14) (size 15 to 20)
#    0.000    1.600    2.667    4.000    5.600    2.133 
#    0.000    0.667    0.000    0.800    0.000    0.000 
#    0.000    0.000    0.000    0.000    0.000    0.000 
#
# Total GULP energy -372125.706468 kJ/mol
# GULP energy per Si atom -12404.190216 kJ/mol
# Density = 2.088658 g / cm^3
# Si number density = 20.934229 Si / 1000 Ang^3
#
#
#
# Elastic Constant Matrix: (Units=GPa)
#
#
# Indices 1 2 3 4 5 6 
#
# 1 30.5786 14.1043 28.5606 0.0000 8.2802 0.0000
# 2 14.1043 113.9393 19.8650 0.0000 14.3032 0.0000
# 3 28.5606 19.8650 86.3379 0.0000 16.7439 0.0000
# 4 0.0000 0.0000 0.0000 37.2650 0.0000 5.4296
# 5 8.2802 14.3032 16.7439 0.0000 30.7283 0.0000
# 6 0.0000 0.0000 0.0000 5.4296 0.0000 21.4954
#
#
#
# Elastic Compliance Matrix: (Units=1/GPa)
#
#
# Indices 1 2 3 4 5 6 
#
# 1 0.048881 -0.003010 -0.014754 0.000000 -0.003731 0.000000
# 2 -0.003010 0.009674 -0.000575 0.000000 -0.003378 0.000000
# 3 -0.014754 -0.000575 0.017636 0.000000 -0.005367 0.000000
# 4 0.000000 0.000000 0.000000 0.027860 0.000000 -0.007037
# 5 -0.003731 -0.003378 -0.005367 0.000000 0.038046 0.000000
# 6 0.000000 0.000000 0.000000 -0.007037 0.000000 0.048299
#
#
# Mechanical properties :
#
#
# Convention : Reuss Voigt Hill
#
# Bulk Modulus (GPa) = 25.30782 39.54615 32.42698
# Shear Modulus (GPa) = 20.81211 29.11946 24.96579
#
# Velocity S-wave (km/s) = 3.15646 3.73365 3.45712
# Velocity P-wave (km/s) = 5.03982 6.12524 5.60885
#
# Compressibility (1/GPa) = 0.03951349
#
# Stress axis : x y z
#
# Youngs Moduli (GPa) = 20.45767 103.37467 56.70220
#
# Poissons Ratio (x) = 0.31118 0.83657
# Poissons Ratio (y) = 0.06158 0.03259
# Poissons Ratio (z) = 0.30183 0.05941
#
# Static dielectric constant tensor:
#      x y z
#    x 3.475960 0.000000 0.227130 
#    y 0.000000 3.848110 0.000000 
#    z 0.227130 0.000000 3.758880 
# 
# 
# High freq. dielectric constant tensor:
#      x y z
#    x 1.779300 0.000000 0.025010 
#    y 0.000000 1.836390 0.000000 
#    z 0.025010 0.000000 1.824060 
# 
# From -- ./inp_files/213969.got.cif
#   From: 2010.06.25/outbox.cif.g09.slc.cpg/sg15_107_cif.got.tgz:213969.got - 2010.06.28 07:06:18.
