data_PCOD8132294
_publ_section_title
;
Structure prediction by ZEFSAII (Michael W. Deem and Ramdas Pophale) SiO2 
 PCOD8132294
Probable space group: C 2/C
;
_chemical_formula_sum "Si O2"
_cell_formula_units_Z 52
_cell_length_a 20.242508
_cell_length_b 9.486523
_cell_length_c 14.285682
_cell_angle_alpha 90.000000
_cell_angle_beta 99.785285
_cell_angle_gamma 90.000000
_cell_volume 2703.383459
_symmetry_space_group_name_H-M "C 2/C"
_symmetry_group_IT_number 15
_symmetry_cell_setting 'monoclinic'
loop_
_space_group_symop_operation_xyz
x,y,z
-x,y,1/2-z
-x,-y,-z
x,-y,1/2+z
1/2+x,1/2+y,z
1/2-x,1/2+y,1/2-z
1/2-x,1/2-y,-z
1/2+x,1/2-y,1/2+z
loop_
_atom_site_type_symbol
_atom_site_label
_atom_site_fract_x
_atom_site_fract_y
_atom_site_fract_z
Si Si1 0.343370 0.424174 0.175254
Si Si2 0.950435 0.061266 0.862694
Si Si3 0.857228 0.615507 0.218074
Si Si4 0.275771 0.884987 0.880560
Si Si5 0.672164 0.849318 0.408530
Si Si6 0.574693 0.610353 0.433066
Si Si7 0.000000 0.706703 0.250000
O O1 0.390041 0.465533 0.275560
O O2 0.335042 0.257154 0.158521
O O3 0.269528 0.487707 0.169123
O O4 0.376141 0.487523 0.089983
O O5 0.997312 0.190033 0.839554
O O6 0.919001 0.106015 0.953668
O O7 0.997792 0.921324 0.882341
O O8 0.834141 0.635723 0.319251
O O9 0.830485 0.475227 0.165297
O O10 0.937187 0.603774 0.232950
O O11 0.231948 0.744809 0.882332
O O12 0.310209 0.919267 0.987733
O O13 0.602642 0.759966 0.400691
#
# Coordination Sequence:
#
# PCOD8132294 Si02
#       7
#     8   8   8   8   8   8   4
#     4  10  20  37  61  83 116 152 198 238 279 352
#     4  10  18  36  63  85 112 153 201 234 282 349
#     4  11  21  39  59  86 120 151 192 241 298 340
#     4  10  22  40  61  83 115 162 196 234 289 344
#     4  10  22  39  59  88 118 151 196 246 288 342
#     4  10  19  35  61  87 112 152 195 238 287 344
#     4  10  20  38  60  86 116 158 182 244 290 354
#
# _framework density 19.235154000000001
#
# number of rings (size 3 to 8) (size 9 to 14) (size 15 to 20)
#    0.000    1.846    3.077    2.769    0.000    3.077 
#    5.538    6.154    0.000    0.000    0.000    0.000 
#    0.000    0.000    0.000    0.000    0.000    0.000 
#
# Total GULP energy -322305.421184 kJ/mol
# GULP energy per Si atom -12396.362353 kJ/mol
# Density = 1.919137 g / cm^3
# Si number density = 19.235154 Si / 1000 Ang^3
#
#
#
# Elastic Constant Matrix: (Units=GPa)
#
#
# Indices 1 2 3 4 5 6 
#
# 1 64.8413 17.9171 25.4415 0.0000 -5.5804 0.0000
# 2 17.9171 80.9645 39.7521 0.0000 0.3647 0.0000
# 3 25.4415 39.7521 107.4226 0.0000 -19.7816 0.0000
# 4 0.0000 0.0000 0.0000 24.5575 0.0000 0.8589
# 5 -5.5804 0.3647 -19.7816 0.0000 34.0371 0.0000
# 6 0.0000 0.0000 0.0000 0.8589 0.0000 27.8667
#
#
#
# Elastic Compliance Matrix: (Units=1/GPa)
#
#
# Indices 1 2 3 4 5 6 
#
# 1 0.017360 -0.002356 -0.003036 0.000000 0.001107 0.000000
# 2 -0.002356 0.015869 -0.006066 0.000000 -0.004082 0.000000
# 3 -0.003036 -0.006066 0.013654 0.000000 0.007503 0.000000
# 4 0.000000 0.000000 0.000000 0.040765 0.000000 -0.001256
# 5 0.001107 -0.004082 0.007503 0.000000 0.033965 0.000000
# 6 0.000000 0.000000 0.000000 -0.001256 0.000000 0.035924
#
#
# Mechanical properties :
#
#
# Convention : Reuss Voigt Hill
#
# Bulk Modulus (GPa) = 41.72309 46.60554 44.16432
# Shear Modulus (GPa) = 26.53333 28.63345 27.58339
#
# Velocity S-wave (km/s) = 3.71808 3.86242 3.79094
# Velocity P-wave (km/s) = 6.33801 6.64628 6.49397
#
# Compressibility (1/GPa) = 0.02396754
#
# Stress axis : x y z
#
# Youngs Moduli (GPa) = 57.60478 63.01503 73.23651
#
# Poissons Ratio (x) = 0.14847 0.22232
# Poissons Ratio (y) = 0.13573 0.44426
# Poissons Ratio (z) = 0.17487 0.38226
#
# Static dielectric constant tensor:
#      x y z
#    x 3.711520 0.000000 -0.110390 
#    y 0.000000 3.377850 0.000000 
#    z -0.110390 0.000000 3.476150 
# 
# 
# High freq. dielectric constant tensor:
#      x y z
#    x 1.756860 0.000000 -0.016190 
#    y 0.000000 1.731060 0.000000 
#    z -0.016190 0.000000 1.748490 
# 
# From -- ./inp_files/166278.got.cif
#   From: 2010.06.25/outbox.cif.g09.slc.cpg/sg15_84_cif.got.tgz:166278.got - 2010.06.28 07:06:18.
