data_PCOD8132404
_publ_section_title
;
Structure prediction by ZEFSAII (Michael W. Deem and Ramdas Pophale) SiO2 
 PCOD8132404
Probable space group: C 2/C
;
_chemical_formula_sum "Si O2"
_cell_formula_units_Z 64
_cell_length_a 9.569001
_cell_length_b 13.994025
_cell_length_c 30.607789
_cell_angle_alpha 90.000000
_cell_angle_beta 127.515301
_cell_angle_gamma 90.000000
_cell_volume 3251.014002
_symmetry_space_group_name_H-M "C 2/C"
_symmetry_group_IT_number 15
_symmetry_cell_setting 'monoclinic'
loop_
_space_group_symop_operation_xyz
x,y,z
-x,y,1/2-z
-x,-y,-z
x,-y,1/2+z
1/2+x,1/2+y,z
1/2-x,1/2+y,1/2-z
1/2-x,1/2-y,-z
1/2+x,1/2-y,1/2+z
loop_
_atom_site_type_symbol
_atom_site_label
_atom_site_fract_x
_atom_site_fract_y
_atom_site_fract_z
Si Si1 0.161672 0.723674 0.808240
Si Si2 0.040165 0.210258 0.865375
Si Si3 0.847247 0.924701 0.185272
Si Si4 0.459241 0.099993 0.640279
Si Si5 0.134988 0.586278 0.419798
Si Si6 0.100473 0.828938 0.472092
Si Si7 0.247815 0.751308 0.948178
Si Si8 0.764075 0.600519 0.386389
O O1 0.334001 0.702438 0.811708
O O2 0.091665 0.629981 0.820262
O O3 0.229841 0.802208 0.854298
O O4 0.000000 0.765998 0.750000
O O5 0.145653 0.167619 0.844596
O O6 0.110782 0.317812 0.886274
O O7 0.060519 0.146537 0.913719
O O8 0.665915 0.923160 0.177358
O O9 0.000000 0.929306 0.250000
O O10 0.860546 0.016553 0.155363
O O11 0.413993 0.184959 0.597959
O O12 0.348294 0.004284 0.608945
O O13 0.312564 0.585244 0.483265
O O14 0.967799 0.570627 0.419918
O O15 0.250000 0.750000 0.500000
O O16 0.927280 0.791358 0.462782
O O17 0.225801 0.863283 0.928708
O O18 0.250000 0.750000 0.000000
#
# Coordination Sequence:
#
# PCOD8132404 Si02
#       8
#     8   8   8   8   8   8   8   8
#     4  10  18  37  60  76 108 151 189 238 291 337
#     4  10  20  37  58  81 109 151 196 226 284 351
#     4  11  23  38  60  87 113 150 199 246 287 339
#     4  10  22  38  54  87 119 142 194 244 285 335
#     4   9  19  36  61  78 114 160 185 224 283 358
#     4  10  18  37  61  80 114 157 192 214 289 356
#     4  11  22  37  59  93 121 149 189 248 293 340
#     4   9  19  39  56  84 113 149 194 231 288 348
#
# _framework density 19.686167000000001
#
# number of rings (size 3 to 8) (size 9 to 14) (size 15 to 20)
#    0.000    2.000    5.000    1.125    3.500    1.500 
#    2.250    3.125    0.000    0.000    0.000    0.000 
#    0.000    0.000    0.000    0.000    0.000    0.000 
#
# Total GULP energy -396588.890637 kJ/mol
# GULP energy per Si atom -12393.402832 kJ/mol
# Density = 1.964136 g / cm^3
# Si number density = 19.686167 Si / 1000 Ang^3
#
#
#
# Elastic Constant Matrix: (Units=GPa)
#
#
# Indices 1 2 3 4 5 6 
#
# 1 47.4495 10.6315 19.0885 0.0000 3.2476 0.0000
# 2 10.6315 69.9076 6.5739 0.0000 -4.9534 0.0000
# 3 19.0885 6.5739 80.8349 0.0000 12.6083 0.0000
# 4 0.0000 0.0000 0.0000 22.3790 0.0000 -0.2907
# 5 3.2476 -4.9534 12.6083 0.0000 36.7084 0.0000
# 6 0.0000 0.0000 0.0000 -0.2907 0.0000 21.7958
#
#
#
# Elastic Compliance Matrix: (Units=1/GPa)
#
#
# Indices 1 2 3 4 5 6 
#
# 1 0.023969 -0.003200 -0.005285 0.000000 -0.000737 0.000000
# 2 -0.003200 0.015059 -0.000877 0.000000 0.002616 0.000000
# 3 -0.005285 -0.000877 0.014408 0.000000 -0.004599 0.000000
# 4 0.000000 0.000000 0.000000 0.044692 0.000000 0.000596
# 5 -0.000737 0.002616 -0.004599 0.000000 0.029240 0.000000
# 6 0.000000 0.000000 0.000000 0.000596 0.000000 0.045888
#
#
# Mechanical properties :
#
#
# Convention : Reuss Voigt Hill
#
# Bulk Modulus (GPa) = 28.80934 30.08665 29.44799
# Shear Modulus (GPa) = 24.56393 26.96986 25.76690
#
# Velocity S-wave (km/s) = 3.53622 3.70535 3.62177
# Velocity P-wave (km/s) = 5.59814 5.79849 5.69920
#
# Compressibility (1/GPa) = 0.03471097
#
# Stress axis : x y z
#
# Youngs Moduli (GPa) = 41.72130 66.40464 69.40806
#
# Poissons Ratio (x) = 0.21252 0.36680
# Poissons Ratio (y) = 0.13353 0.06087
# Poissons Ratio (z) = 0.22049 0.05824
#
# Static dielectric constant tensor:
#      x y z
#    x 3.920860 0.000000 0.513060 
#    y 0.000000 3.694580 0.000000 
#    z 0.513060 0.000000 4.611070 
# 
# 
# High freq. dielectric constant tensor:
#      x y z
#    x 1.756160 0.000000 0.015050 
#    y 0.000000 1.752770 0.000000 
#    z 0.015050 0.000000 1.772600 
# 
# From -- ./inp_files/308036.got.cif
#   From: 2010.06.25/outbox.cif.g09.slc.cpg/sg15_155_cif.got.tgz:308036.got - 2010.06.28 07:06:18.
