data_PCOD8132387
_publ_section_title
;
Structure prediction by ZEFSAII (Michael W. Deem and Ramdas Pophale) SiO2 
 PCOD8132387
Probable space group: C 2/C
;
_chemical_formula_sum "Si O2"
_cell_formula_units_Z 56
_cell_length_a 15.974321
_cell_length_b 12.024423
_cell_length_c 20.395742
_cell_angle_alpha 90.000000
_cell_angle_beta 132.510692
_cell_angle_gamma 90.000000
_cell_volume 2887.904116
_symmetry_space_group_name_H-M "C 2/C"
_symmetry_group_IT_number 15
_symmetry_cell_setting 'monoclinic'
loop_
_space_group_symop_operation_xyz
x,y,z
-x,y,1/2-z
-x,-y,-z
x,-y,1/2+z
1/2+x,1/2+y,z
1/2-x,1/2+y,1/2-z
1/2-x,1/2-y,-z
1/2+x,1/2-y,1/2+z
loop_
_atom_site_type_symbol
_atom_site_label
_atom_site_fract_x
_atom_site_fract_y
_atom_site_fract_z
Si Si1 0.413921 0.123396 0.569417
Si Si2 0.865321 0.529508 0.672450
Si Si3 0.791489 0.627822 0.372991
Si Si4 0.613951 0.209814 0.348690
Si Si5 0.653088 0.195409 0.729409
Si Si6 0.220905 0.371483 0.129009
Si Si7 0.475800 0.876860 0.567160
O O1 0.335929 0.105015 0.592965
O O2 0.333213 0.165441 0.467823
O O3 0.518930 0.206297 0.641125
O O4 0.471765 0.005726 0.583565
O O5 0.821423 0.402792 0.641380
O O6 0.815797 0.585500 0.711467
O O7 0.000000 0.521161 0.750000
O O8 0.685586 0.698930 0.290984
O O9 0.748157 0.501299 0.351034
O O10 0.893150 0.651252 0.375565
O O11 0.500000 0.234658 0.250000
O O12 0.696651 0.313537 0.380081
O O13 0.580472 0.200962 0.407353
O O14 0.729095 0.186899 0.704140
O O15 0.091392 0.358498 0.036102
#
# Coordination Sequence:
#
# PCOD8132387 Si02
#       7
#     8   8   8   8   8   8   8
#     4   9  17  37  56  79 108 145 198 240 269 338
#     4   8  18  33  56  79 107 149 198 235 271 334
#     4  11  21  34  59  84 113 149 189 236 292 341
#     4  10  20  34  58  85 114 145 189 241 286 337
#     4  11  20  32  55  83 110 148 188 235 283 339
#     4  11  21  34  57  86 115 145 193 240 287 340
#     4  10  18  37  58  83 110 146 195 241 282 333
#
# _framework density 19.391226
#
# number of rings (size 3 to 8) (size 9 to 14) (size 15 to 20)
#    0.000    2.000    2.857    3.000    2.000    0.571 
#    0.000    2.143    0.000    5.143    0.000    0.000 
#    0.000    0.000    0.000    0.000    0.000    0.000 
#
# Total GULP energy -347113.998099 kJ/mol
# GULP energy per Si atom -12396.928504 kJ/mol
# Density = 1.934709 g / cm^3
# Si number density = 19.391226 Si / 1000 Ang^3
#
#
#
# Elastic Constant Matrix: (Units=GPa)
#
#
# Indices 1 2 3 4 5 6 
#
# 1 68.0008 39.6718 24.3219 0.0000 -14.3945 0.0000
# 2 39.6718 98.3860 48.3921 0.0000 1.8570 0.0000
# 3 24.3219 48.3921 115.2578 0.0000 -13.4035 0.0000
# 4 0.0000 0.0000 0.0000 28.9692 0.0000 -3.5942
# 5 -14.3945 1.8570 -13.4035 0.0000 29.6413 0.0000
# 6 0.0000 0.0000 0.0000 -3.5942 0.0000 24.7559
#
#
#
# Elastic Compliance Matrix: (Units=1/GPa)
#
#
# Indices 1 2 3 4 5 6 
#
# 1 0.022633 -0.009682 0.000673 0.000000 0.011902 0.000000
# 2 -0.009682 0.017287 -0.006215 0.000000 -0.008595 0.000000
# 3 0.000673 -0.006215 0.011850 0.000000 0.006075 0.000000
# 4 0.000000 0.000000 0.000000 0.035153 0.000000 0.005104
# 5 0.011902 -0.008595 0.006075 0.000000 0.042802 0.000000
# 6 0.000000 0.000000 0.000000 0.005104 0.000000 0.041135
#
#
# Mechanical properties :
#
#
# Convention : Reuss Voigt Hill
#
# Bulk Modulus (GPa) = 46.89775 56.26845 51.58310
# Shear Modulus (GPa) = 23.99079 27.95722 25.97400
#
# Velocity S-wave (km/s) = 3.52120 3.80115 3.66385
# Velocity P-wave (km/s) = 6.38509 6.95309 6.67513
#
# Compressibility (1/GPa) = 0.02132298
#
# Stress axis : x y z
#
# Youngs Moduli (GPa) = 44.18379 57.84728 84.38958
#
# Poissons Ratio (x) = 0.56007 -0.05680
# Poissons Ratio (y) = 0.42778 0.52444
# Poissons Ratio (z) = -0.02974 0.35949
#
# Static dielectric constant tensor:
#      x y z
#    x 3.455350 0.000000 -0.469440 
#    y 0.000000 3.358930 0.000000 
#    z -0.469440 0.000000 3.840650 
# 
# 
# High freq. dielectric constant tensor:
#      x y z
#    x 1.735640 0.000000 -0.032040 
#    y 0.000000 1.727910 0.000000 
#    z -0.032040 0.000000 1.764390 
# 
# From -- ./inp_files/248419.got.cif
#   From: 2010.06.25/outbox.cif.g09.slc.cpg/sg15_125_cif.got.tgz:248419.got - 2010.06.28 07:06:18.
