data_PCOD8132240
_publ_section_title
;
Structure prediction by ZEFSAII (Michael W. Deem and Ramdas Pophale) SiO2 
 PCOD8132240
Probable space group: C 2/C
;
_chemical_formula_sum "Si O2"
_cell_formula_units_Z 52
_cell_length_a 19.243732
_cell_length_b 13.727114
_cell_length_c 21.813719
_cell_angle_alpha 90.000000
_cell_angle_beta 26.410970
_cell_angle_gamma 90.000000
_cell_volume 2563.123557
_symmetry_space_group_name_H-M "C 2/C"
_symmetry_group_IT_number 15
_symmetry_cell_setting 'monoclinic'
loop_
_space_group_symop_operation_xyz
x,y,z
-x,y,1/2-z
-x,-y,-z
x,-y,1/2+z
1/2+x,1/2+y,z
1/2-x,1/2+y,1/2-z
1/2-x,1/2-y,-z
1/2+x,1/2-y,1/2+z
loop_
_atom_site_type_symbol
_atom_site_label
_atom_site_fract_x
_atom_site_fract_y
_atom_site_fract_z
Si Si1 0.988122 0.474669 0.688164
Si Si2 0.868896 0.673389 0.748385
Si Si3 0.771575 0.950165 0.893303
Si Si4 0.029485 0.293383 0.579617
Si Si5 0.888165 0.154784 0.782964
Si Si6 0.915422 0.306631 0.532396
Si Si7 0.000000 0.792355 0.750000
O O1 0.159202 0.505342 0.532326
O O2 0.944364 0.375653 0.687892
O O3 0.000000 0.452711 0.750000
O O4 0.863780 0.558584 0.768281
O O5 0.693935 0.713059 0.894018
O O6 0.930682 0.697209 0.631492
O O7 0.994324 0.724220 0.694743
O O8 0.680001 0.905837 0.907056
O O9 0.851694 0.863137 0.867375
O O10 0.883202 0.036743 0.780877
O O11 0.217340 0.299622 0.430788
O O12 0.967444 0.191996 0.657121
O O13 0.969678 0.307976 0.558658
O O14 0.000000 0.186943 0.750000
#
# Coordination Sequence:
#
# PCOD8132240 Si02
#       7
#     8   8   8   8   8   8   4
#     4  10  21  36  57  91 113 154 191 249 287 342
#     4  10  21  35  63  86 122 149 199 235 296 347
#     4   9  21  36  62  84 120 149 196 236 301 349
#     4  11  24  40  61  82 128 152 200 238 289 352
#     4  11  22  41  63  87 109 162 199 250 283 340
#     4  10  22  39  57  93 116 164 186 236 295 357
#     4  10  18  36  60  90 118 146 186 254 284 346
#
# _framework density 20.287747
#
# number of rings (size 3 to 8) (size 9 to 14) (size 15 to 20)
#    0.000    1.846    1.538    1.846    2.154    9.846 
#    0.000    0.000    0.000    4.615    0.000    0.000 
#    0.000    0.000    0.000    0.000    0.000    0.000 
#
# Total GULP energy -322361.718933 kJ/mol
# GULP energy per Si atom -12398.527651 kJ/mol
# Density = 2.024157 g / cm^3
# Si number density = 20.287747 Si / 1000 Ang^3
#
#
#
# Elastic Constant Matrix: (Units=GPa)
#
#
# Indices 1 2 3 4 5 6 
#
# 1 142.5215 23.7982 27.9904 0.0014 14.7835 -0.0014
# 2 23.7982 62.9475 11.1614 0.0137 0.0005 -0.0028
# 3 27.9904 11.1614 45.0173 0.0143 -1.5262 -0.0044
# 4 0.0014 0.0137 0.0143 31.9928 -0.0026 4.6866
# 5 14.7835 0.0005 -1.5262 -0.0026 36.2028 0.0001
# 6 -0.0014 -0.0028 -0.0044 4.6866 0.0001 20.7338
#
#
#
# Elastic Compliance Matrix: (Units=1/GPa)
#
#
# Indices 1 2 3 4 5 6 
#
# 1 0.008800 -0.002441 -0.004995 0.000003 -0.003804 -0.000001
# 2 -0.002441 0.017295 -0.002740 -0.000006 0.000881 0.000003
# 3 -0.004995 -0.002740 0.026105 -0.000011 0.003140 0.000007
# 4 0.000003 -0.000006 -0.000011 0.032327 0.000001 -0.007307
# 5 -0.003804 0.000881 0.003140 0.000001 0.029308 0.000000
# 6 -0.000001 0.000003 0.000007 -0.007307 0.000000 0.049882
#
#
# Mechanical properties :
#
#
# Convention : Reuss Voigt Hill
#
# Bulk Modulus (GPa) = 31.40022 41.82071 36.61046
# Shear Modulus (GPa) = 25.68232 30.28830 27.98531
#
# Velocity S-wave (km/s) = 3.56181 3.86804 3.71808
# Velocity P-wave (km/s) = 5.69442 6.37241 6.04293
#
# Compressibility (1/GPa) = 0.03184692
#
# Stress axis : x y z
#
# Youngs Moduli (GPa) = 113.64048 57.82004 38.30626
#
# Poissons Ratio (x) = 0.14115 0.19134
# Poissons Ratio (y) = 0.27741 0.10497
# Poissons Ratio (z) = 0.56764 0.15845
#
# Static dielectric constant tensor:
#      x y z
#    x 3.653880 0.000000 -0.053420 
#    y 0.000000 4.035890 0.000010 
#    z -0.053420 0.000010 3.617200 
# 
# 
# High freq. dielectric constant tensor:
#      x y z
#    x 1.792300 0.000000 0.001540 
#    y 0.000000 1.800170 0.000000 
#    z 0.001540 0.000000 1.782060 
# 
# From -- ./inp_files/66126.got.cif
#   From: 2010.06.25/outbox.cif.g09.slc.cpg/sg15_34_cif.got.tgz:66126.got - 2010.06.28 07:06:18.
