data_PCOD8132160
_publ_section_title
;
Structure prediction by ZEFSAII (Michael W. Deem and Ramdas Pophale) SiO2 
 PCOD8132160
Probable space group: C 2/C
;
_chemical_formula_sum "Si O2"
_cell_formula_units_Z 52
_cell_length_a 14.415706
_cell_length_b 11.403903
_cell_length_c 27.357465
_cell_angle_alpha 90.000000
_cell_angle_beta 36.239149
_cell_angle_gamma 90.000000
_cell_volume 2658.692147
_symmetry_space_group_name_H-M "C 2/C"
_symmetry_group_IT_number 15
_symmetry_cell_setting 'monoclinic'
loop_
_space_group_symop_operation_xyz
x,y,z
-x,y,1/2-z
-x,-y,-z
x,-y,1/2+z
1/2+x,1/2+y,z
1/2-x,1/2+y,1/2-z
1/2-x,1/2-y,-z
1/2+x,1/2-y,1/2+z
loop_
_atom_site_type_symbol
_atom_site_label
_atom_site_fract_x
_atom_site_fract_y
_atom_site_fract_z
Si Si1 0.432010 0.045702 0.952748
Si Si2 0.835943 0.376387 0.599206
Si Si3 0.542307 0.843628 0.313315
Si Si4 0.000000 0.843768 0.750000
Si Si5 0.653510 0.621477 0.864631
Si Si6 0.793933 0.125174 0.002587
Si Si7 0.858126 0.548596 0.338820
O O1 0.490690 0.151386 0.892178
O O2 0.563896 0.945092 0.902815
O O3 0.279374 0.981979 0.996351
O O4 0.398303 0.103506 0.018616
O O5 0.656930 0.422020 0.682190
O O6 0.843148 0.236905 0.603088
O O7 0.492183 0.729369 0.304199
O O8 0.731548 0.857250 0.230469
O O9 0.456615 0.949936 0.323971
O O10 0.720019 0.508736 0.865176
O O11 0.478241 0.598066 0.921346
O O12 0.729738 0.131591 0.085365
O O13 0.750000 0.250000 0.000000
O O14 0.000000 0.618082 0.250000
#
# Coordination Sequence:
#
# PCOD8132160 Si02
#       7
#     8   8   8   4   8   8   8
#     4  10  22  36  55  79 113 146 176 214 277 325
#     4  10  20  37  57  78 111 146 173 224 272 319
#     4   9  17  34  57  80 105 137 182 225 262 313
#     4  10  18  36  62  78 102 142 182 230 266 306
#     4  10  18  36  58  79 107 139 180 223 269 312
#     4  11  21  34  55  81 110 141 176 219 268 322
#     4   9  17  35  58  78 102 141 179 221 264 315
#
# _framework density 19.558489999999999
#
# number of rings (size 3 to 8) (size 9 to 14) (size 15 to 20)
#    0.000    2.154    5.385    0.462    0.000    1.846 
#    0.000    1.538    5.077    0.000    0.000    0.000 
#    0.000    0.000    0.000    0.000    0.000    0.000 
#
# Total GULP energy -322187.053927 kJ/mol
# GULP energy per Si atom -12391.809766 kJ/mol
# Density = 1.951397 g / cm^3
# Si number density = 19.558490 Si / 1000 Ang^3
#
#
#
# Elastic Constant Matrix: (Units=GPa)
#
#
# Indices 1 2 3 4 5 6 
#
# 1 107.7644 22.4406 61.2129 0.0000 -23.6874 0.0000
# 2 22.4406 45.0265 27.0445 0.0000 -1.6287 0.0000
# 3 61.2129 27.0445 101.4172 0.0001 -23.9868 0.0000
# 4 0.0000 0.0000 0.0001 25.2586 0.0000 0.9810
# 5 -23.6874 -1.6287 -23.9868 0.0000 45.0810 0.0000
# 6 0.0000 0.0000 0.0000 0.9810 0.0000 14.8813
#
#
#
# Elastic Compliance Matrix: (Units=1/GPa)
#
#
# Indices 1 2 3 4 5 6 
#
# 1 0.014867 -0.002887 -0.007299 0.000000 0.003824 0.000000
# 2 -0.002887 0.027415 -0.006512 0.000000 -0.003992 0.000000
# 3 -0.007299 -0.006512 0.017205 0.000000 0.005084 0.000000
# 4 0.000000 0.000000 0.000000 0.039692 0.000000 -0.002617
# 5 0.003824 -0.003992 0.005084 0.000000 0.026752 0.000000
# 6 0.000000 0.000000 0.000000 -0.002617 0.000000 0.067371
#
#
# Mechanical properties :
#
#
# Convention : Reuss Voigt Hill
#
# Bulk Modulus (GPa) = 38.32848 52.84488 45.58668
# Shear Modulus (GPa) = 21.24074 26.61151 23.92612
#
# Velocity S-wave (km/s) = 3.29904 3.69265 3.50138
# Velocity P-wave (km/s) = 5.84388 6.72744 6.30117
#
# Compressibility (1/GPa) = 0.02609026
#
# Stress axis : x y z
#
# Youngs Moduli (GPa) = 67.26129 36.47622 58.12307
#
# Poissons Ratio (x) = 0.10531 0.42426
# Poissons Ratio (y) = 0.19420 0.37850
# Poissons Ratio (z) = 0.49096 0.23754
#
# Static dielectric constant tensor:
#      x y z
#    x -1.897010 0.000000 -6.695270 
#    y 0.000000 3.224350 0.000000 
#    z -6.695270 0.000000 -3.504860 
# 
# 
# High freq. dielectric constant tensor:
#      x y z
#    x 1.764070 0.000000 -0.012900 
#    y 0.000000 1.723030 0.000000 
#    z -0.012900 0.000000 1.778250 
# 
# From -- ./inp_files/295747.got.cif
#   From: 2010.06.25/outbox.cif.g09.slc.cpg/sg15_148_cif.got.tgz:295747.got - 2010.06.28 07:06:18.
