data_PCOD8132541
_publ_section_title
;
Structure prediction by ZEFSAII (Michael W. Deem and Ramdas Pophale) SiO2 
 PCOD8132541
Probable space group: C 2/C
;
_chemical_formula_sum "Si O2"
_cell_formula_units_Z 44
_cell_length_a 11.113274
_cell_length_b 11.549588
_cell_length_c 18.031724
_cell_angle_alpha 90.000000
_cell_angle_beta 60.889069
_cell_angle_gamma 90.000000
_cell_volume 2022.077855
_symmetry_space_group_name_H-M "C 2/C"
_symmetry_group_IT_number 15
_symmetry_cell_setting 'monoclinic'
loop_
_space_group_symop_operation_xyz
x,y,z
-x,y,1/2-z
-x,-y,-z
x,-y,1/2+z
1/2+x,1/2+y,z
1/2-x,1/2+y,1/2-z
1/2-x,1/2-y,-z
1/2+x,1/2-y,1/2+z
loop_
_atom_site_type_symbol
_atom_site_label
_atom_site_fract_x
_atom_site_fract_y
_atom_site_fract_z
Si Si1 0.171929 0.131516 0.466420
Si Si2 0.760600 0.623984 0.595075
Si Si3 0.416388 0.742678 0.622975
Si Si4 0.060525 0.502861 0.850374
Si Si5 0.788749 0.554588 0.842590
Si Si6 0.000000 0.854169 0.250000
O O1 0.257508 0.236140 0.402824
O O2 0.259975 0.081040 0.510089
O O3 0.025244 0.178933 0.536933
O O4 0.163673 0.028387 0.408730
O O5 0.899791 0.592062 0.596176
O O6 0.627226 0.570828 0.678825
O O7 0.426540 0.880186 0.610921
O O8 0.267874 0.686640 0.645287
O O9 0.441245 0.724593 0.702214
O O10 0.169172 0.510106 0.750893
O O11 0.912444 0.541231 0.864106
#
# Coordination Sequence:
#
# PCOD8132541 Si02
#       6
#     8   8   8   8   8   4
#     4  10  22  38  65  93 126 166 216 264 322 384
#     4  10  20  39  64  93 122 172 214 263 319 388
#     4  11  22  40  65  95 125 171 216 265 329 390
#     4  11  23  40  66  92 130 171 215 265 327 389
#     4  11  23  41  64  96 130 168 213 273 324 385
#     4  10  18  38  62  84 120 162 224 250 306 388
#
# _framework density 21.759795
#
# number of rings (size 3 to 8) (size 9 to 14) (size 15 to 20)
#    0.000    1.455    1.818    6.000    0.000    2.909 
#    0.000    9.091    0.000    0.000    0.000    0.000 
#    0.000    0.000    0.000    0.000    0.000    0.000 
#
# Total GULP energy -272607.139142 kJ/mol
# GULP energy per Si atom -12391.233597 kJ/mol
# Density = 2.171027 g / cm^3
# Si number density = 21.759795 Si / 1000 Ang^3
#
#
#
# Elastic Constant Matrix: (Units=GPa)
#
#
# Indices 1 2 3 4 5 6 
#
# 1 111.2534 68.2498 48.8197 0.0000 1.8926 0.0000
# 2 68.2498 75.3573 36.8460 0.0000 5.8686 0.0000
# 3 48.8197 36.8460 100.4385 0.0000 -0.3767 0.0000
# 4 0.0000 0.0000 0.0000 22.6398 0.0000 -1.2016
# 5 1.8926 5.8686 -0.3767 0.0000 20.2128 0.0000
# 6 0.0000 0.0000 0.0000 -1.2016 0.0000 33.5172
#
#
#
# Elastic Compliance Matrix: (Units=1/GPa)
#
#
# Indices 1 2 3 4 5 6 
#
# 1 0.021672 -0.017944 -0.003940 0.000000 0.003107 0.000000
# 2 -0.017944 0.031508 -0.002865 0.000000 -0.007521 0.000000
# 3 -0.003940 -0.002865 0.012928 0.000000 0.001442 0.000000
# 4 0.000000 0.000000 0.000000 0.044254 0.000000 0.001587
# 5 0.003107 -0.007521 0.001442 0.000000 0.051393 0.000000
# 6 0.000000 0.000000 0.000000 0.001587 0.000000 0.029892
#
#
# Mechanical properties :
#
#
# Convention : Reuss Voigt Hill
#
# Bulk Modulus (GPa) = 60.20189 66.09782 63.14986
# Shear Modulus (GPa) = 20.26891 24.14953 22.20922
#
# Velocity S-wave (km/s) = 3.05533 3.33502 3.19823
# Velocity P-wave (km/s) = 6.33825 6.72844 6.53625
#
# Compressibility (1/GPa) = 0.01661077
#
# Stress axis : x y z
#
# Youngs Moduli (GPa) = 46.14147 31.73761 77.35244
#
# Poissons Ratio (x) = 0.56950 0.30475
# Poissons Ratio (y) = 0.82796 0.22163
# Poissons Ratio (z) = 0.18179 0.09093
#
# Static dielectric constant tensor:
#      x y z
#    x 3.907650 0.000000 -0.038050 
#    y 0.000000 3.677440 0.000000 
#    z -0.038050 0.000000 4.152970 
# 
# 
# High freq. dielectric constant tensor:
#      x y z
#    x 1.845310 0.000000 -0.003510 
#    y 0.000000 1.817700 0.000000 
#    z -0.003510 0.000000 1.883020 
# 
# From -- ./inp_files/196320.got.cif
#   From: 2010.06.25/outbox.cif.g09.slc.cpg/sg15_99_cif.got.tgz:196320.got - 2010.06.28 07:06:18.
