data_PCOD8132662
_publ_section_title
;
Structure prediction by ZEFSAII (Michael W. Deem and Ramdas Pophale) SiO2 
 PCOD8132662
Probable space group: C 2/C
;
_chemical_formula_sum "Si O2"
_cell_formula_units_Z 56
_cell_length_a 20.141645
_cell_length_b 8.773139
_cell_length_c 17.436671
_cell_angle_alpha 90.000000
_cell_angle_beta 46.172547
_cell_angle_gamma 90.000000
_cell_volume 2222.832924
_symmetry_space_group_name_H-M "C 2/C"
_symmetry_group_IT_number 15
_symmetry_cell_setting 'monoclinic'
loop_
_space_group_symop_operation_xyz
x,y,z
-x,y,1/2-z
-x,-y,-z
x,-y,1/2+z
1/2+x,1/2+y,z
1/2-x,1/2+y,1/2-z
1/2-x,1/2-y,-z
1/2+x,1/2-y,1/2+z
loop_
_atom_site_type_symbol
_atom_site_label
_atom_site_fract_x
_atom_site_fract_y
_atom_site_fract_z
Si Si1 0.191790 0.047611 0.343542
Si Si2 0.461652 0.402306 0.941949
Si Si3 0.831294 0.401721 0.349420
Si Si4 0.626290 0.406533 0.256744
Si Si5 0.937376 0.582344 0.161933
Si Si6 0.584654 0.830632 0.433751
Si Si7 0.176646 0.085735 0.083368
O O1 0.178380 0.230742 0.367141
O O2 0.089907 0.981214 0.445462
O O3 0.270396 0.974258 0.330562
O O4 0.202895 0.996510 0.246236
O O5 0.525397 0.525397 0.849950
O O6 0.512587 0.252022 0.932733
O O7 0.385133 0.361664 0.938942
O O8 0.930245 0.480868 0.247669
O O9 0.836115 0.218364 0.341496
O O10 0.782731 0.437737 0.470015
O O11 0.628435 0.227770 0.273612
O O12 0.649800 0.429950 0.147632
O O13 0.892960 0.490245 0.125562
O O14 0.040141 0.634606 0.053853
#
# Coordination Sequence:
#
# PCOD8132662 Si02
#       7
#     8   8   8   8   8   8   8
#     4  10  19  38  66  89 124 162 225 270 328 393
#     4  10  18  39  64  89 119 173 217 272 333 394
#     4  10  23  42  60  94 126 176 214 270 335 398
#     4  11  20  36  62  95 123 171 219 272 324 386
#     4  11  22  36  62  94 132 162 218 281 327 380
#     4  10  20  39  64  97 127 166 222 283 324 388
#     4  10  23  41  64  87 134 173 221 265 334 415
#
# _framework density 25.193076999999999
#
# number of rings (size 3 to 8) (size 9 to 14) (size 15 to 20)
#    0.000    1.714    2.857    3.000    0.000    2.857 
#    2.571    2.857    0.000    0.000    0.000    0.000 
#    0.000    0.000    0.000    0.000    0.000    0.000 
#
# Total GULP energy -346884.772068 kJ/mol
# GULP energy per Si atom -12388.741860 kJ/mol
# Density = 2.513574 g / cm^3
# Si number density = 25.193077 Si / 1000 Ang^3
#
#
#
# Elastic Constant Matrix: (Units=GPa)
#
#
# Indices 1 2 3 4 5 6 
#
# 1 43.3325 13.3318 -1.1971 0.0000 11.1908 0.0000
# 2 13.3318 126.5341 51.3699 -0.0001 14.7979 -0.0001
# 3 -1.1971 51.3699 127.1436 0.0000 22.0718 0.0000
# 4 0.0000 -0.0001 0.0000 57.2761 0.0000 6.8876
# 5 11.1908 14.7979 22.0718 0.0000 18.5738 0.0000
# 6 0.0000 -0.0001 0.0000 6.8876 0.0000 23.7879
#
#
#
# Elastic Compliance Matrix: (Units=1/GPa)
#
#
# Indices 1 2 3 4 5 6 
#
# 1 0.029694 -0.002661 0.005156 0.000000 -0.021898 0.000000
# 2 -0.002661 0.009906 -0.003699 0.000000 -0.001894 0.000000
# 3 0.005156 -0.003699 0.011888 0.000000 -0.014287 0.000000
# 4 0.000000 0.000000 0.000000 0.018089 0.000000 -0.005238
# 5 -0.021898 -0.001894 -0.014287 0.000000 0.085519 0.000000
# 6 0.000000 0.000000 0.000000 -0.005238 0.000000 0.043555
#
#
# Mechanical properties :
#
#
# Convention : Reuss Voigt Hill
#
# Bulk Modulus (GPa) = 20.37447 47.11328 33.74387
# Shear Modulus (GPa) = 22.99709 35.49459 29.24584
#
# Velocity S-wave (km/s) = 3.02459 3.75761 3.41085
# Velocity P-wave (km/s) = 4.50582 6.12924 5.37913
#
# Compressibility (1/GPa) = 0.04908104
#
# Stress axis : x y z
#
# Youngs Moduli (GPa) = 33.67723 100.94394 84.11675
#
# Poissons Ratio (x) = 0.26860 -0.43371
# Poissons Ratio (y) = 0.08961 0.31113
# Poissons Ratio (z) = -0.17364 0.37337
#
# Static dielectric constant tensor:
#      x y z
#    x 3.981950 0.000000 -0.175070 
#    y 0.000000 4.644710 0.000000 
#    z -0.175070 0.000000 5.197600 
# 
# 
# High freq. dielectric constant tensor:
#      x y z
#    x 1.959730 0.000000 -0.008480 
#    y 0.000000 2.006100 0.000000 
#    z -0.008480 0.000000 2.030360 
# 
# From -- ./inp_files/218505.got.cif
#   From: 2010.06.25/outbox.cif.g09.slc.cpg/sg15_110_cif.got.tgz:218505.got - 2010.06.28 07:06:18.
