data_PCOD8132176
_publ_section_title
;
Structure prediction by ZEFSAII (Michael W. Deem and Ramdas Pophale) SiO2 
 PCOD8132176
Probable space group: C 2/C
;
_chemical_formula_sum "Si O2"
_cell_formula_units_Z 60
_cell_length_a 20.134453
_cell_length_b 9.417142
_cell_length_c 20.360868
_cell_angle_alpha 90.000000
_cell_angle_beta 55.234008
_cell_angle_gamma 90.000000
_cell_volume 3171.439037
_symmetry_space_group_name_H-M "C 2/C"
_symmetry_group_IT_number 15
_symmetry_cell_setting 'monoclinic'
loop_
_space_group_symop_operation_xyz
x,y,z
-x,y,1/2-z
-x,-y,-z
x,-y,1/2+z
1/2+x,1/2+y,z
1/2-x,1/2+y,1/2-z
1/2-x,1/2-y,-z
1/2+x,1/2-y,1/2+z
loop_
_atom_site_type_symbol
_atom_site_label
_atom_site_fract_x
_atom_site_fract_y
_atom_site_fract_z
Si Si1 0.380048 0.158091 0.721406
Si Si2 0.500000 0.269032 0.750000
Si Si3 0.311958 0.897886 0.702252
Si Si4 0.833773 0.101071 0.748347
Si Si5 0.643512 0.532014 0.127646
Si Si6 0.574404 0.587737 0.391167
Si Si7 0.766519 0.258088 0.606149
Si Si8 0.608449 0.534175 0.006826
O O1 0.462017 0.167630 0.716572
O O2 0.379785 0.278450 0.665752
O O3 0.300939 0.179603 0.811092
O O4 0.382374 0.002590 0.687265
O O5 0.432439 0.366464 0.819894
O O6 0.306846 0.763560 0.754563
O O7 0.328811 0.839692 0.619743
O O8 0.230909 0.991431 0.745220
O O9 0.850489 0.080970 0.816496
O O10 0.911876 0.055768 0.660648
O O11 0.724351 0.629191 0.081263
O O12 0.628062 0.456119 0.065671
O O13 0.478217 0.612624 0.446462
O O14 0.611197 0.573520 0.443964
O O15 0.819741 0.148611 0.535978
#
# Coordination Sequence:
#
# PCOD8132176 Si02
#       8
#     8   4   8   8   8   8   8   8
#     4  11  20  37  62  86 114 162 202 245 277 369
#     4  10  18  36  58  84 114 164 196 232 298 354
#     4  11  19  34  62  91 117 142 217 242 286 343
#     4  11  19  36  60  93 110 163 197 245 289 358
#     4  10  19  34  58  85 121 149 197 242 298 352
#     4  11  20  35  60  84 118 159 200 238 295 347
#     4  10  20  33  60  86 112 155 197 246 290 349
#     4  11  21  34  57  91 120 151 196 251 297 357
#
# _framework density 18.918855000000001
#
# number of rings (size 3 to 8) (size 9 to 14) (size 15 to 20)
#    0.000    1.333    8.000    0.400    0.000    0.000 
#    0.000    2.667    0.000   14.400    0.000    0.000 
#    0.000    0.000    0.000    0.000    0.000    0.000 
#
# Total GULP energy -371762.949150 kJ/mol
# GULP energy per Si atom -12392.098305 kJ/mol
# Density = 1.887580 g / cm^3
# Si number density = 18.918855 Si / 1000 Ang^3
#
#
#
# Elastic Constant Matrix: (Units=GPa)
#
#
# Indices 1 2 3 4 5 6 
#
# 1 131.8933 52.8391 43.9956 0.0000 38.4728 0.0001
# 2 52.8391 101.7252 25.0654 -0.0001 14.4204 0.0007
# 3 43.9956 25.0654 62.2582 0.0001 20.5874 -0.0002
# 4 0.0000 -0.0001 0.0001 12.7601 0.0000 4.0278
# 5 38.4728 14.4204 20.5874 0.0000 42.6798 0.0000
# 6 0.0001 0.0007 -0.0002 4.0278 0.0000 31.9461
#
#
#
# Elastic Compliance Matrix: (Units=1/GPa)
#
#
# Indices 1 2 3 4 5 6 
#
# 1 0.013475 -0.004617 -0.004953 0.000000 -0.008198 0.000000
# 2 -0.004617 0.012621 -0.002124 0.000000 0.000922 0.000000
# 3 -0.004953 -0.002124 0.022253 0.000000 -0.005552 0.000000
# 4 0.000000 0.000000 0.000000 0.081618 0.000000 -0.010290
# 5 -0.008198 0.000922 -0.005552 0.000000 0.033187 0.000000
# 6 0.000000 0.000000 0.000000 -0.010290 0.000000 0.032600
#
#
# Mechanical properties :
#
#
# Convention : Reuss Voigt Hill
#
# Bulk Modulus (GPa) = 40.05952 59.96409 50.01180
# Shear Modulus (GPa) = 21.98191 29.07566 25.52879
#
# Velocity S-wave (km/s) = 3.41237 3.92454 3.67738
# Velocity P-wave (km/s) = 6.06185 7.23189 6.67256
#
# Compressibility (1/GPa) = 0.02496286
#
# Stress axis : x y z
#
# Youngs Moduli (GPa) = 74.21332 79.23258 44.93800
#
# Poissons Ratio (x) = 0.36580 0.22256
# Poissons Ratio (y) = 0.34262 0.09543
# Poissons Ratio (z) = 0.36755 0.16826
#
# Static dielectric constant tensor:
#      x y z
#    x 3.874330 0.000000 0.172010 
#    y 0.000000 3.331260 0.000000 
#    z 0.172010 0.000000 3.490060 
# 
# 
# High freq. dielectric constant tensor:
#      x y z
#    x 1.752070 0.000000 0.011000 
#    y 0.000000 1.698740 0.000000 
#    z 0.011000 0.000000 1.725570 
# 
# From -- ./inp_files/252097.got.cif
#   From: 2010.06.25/outbox.cif.g09.slc.cpg/sg15_127_cif.got.tgz:252097.got - 2010.06.28 07:06:18.
