data_PCOD8132002
_publ_section_title
;
Structure prediction by ZEFSAII (Michael W. Deem and Ramdas Pophale) SiO2 
 PCOD8132002
Probable space group: C 2/C
;
_chemical_formula_sum "Si O2"
_cell_formula_units_Z 52
_cell_length_a 29.368453
_cell_length_b 16.406986
_cell_length_c 14.369720
_cell_angle_alpha 90.000000
_cell_angle_beta 19.161059
_cell_angle_gamma 90.000000
_cell_volume 2272.633892
_symmetry_space_group_name_H-M "C 2/C"
_symmetry_group_IT_number 15
_symmetry_cell_setting 'monoclinic'
loop_
_space_group_symop_operation_xyz
x,y,z
-x,y,1/2-z
-x,-y,-z
x,-y,1/2+z
1/2+x,1/2+y,z
1/2-x,1/2+y,1/2-z
1/2-x,1/2-y,-z
1/2+x,1/2-y,1/2+z
loop_
_atom_site_type_symbol
_atom_site_label
_atom_site_fract_x
_atom_site_fract_y
_atom_site_fract_z
Si Si1 0.500000 0.991617 0.250000
Si Si2 0.375001 0.884373 0.329409
Si Si3 0.559366 0.254011 0.531314
Si Si4 0.510535 0.570091 0.337890
Si Si5 0.683031 0.027924 0.736493
Si Si6 0.803767 0.861627 0.547714
Si Si7 0.406041 0.398910 0.553533
O O1 0.398780 0.047722 0.508799
O O2 0.413017 0.933511 0.349487
O O3 0.461935 0.801251 0.154165
O O4 0.406412 0.940215 0.178669
O O5 0.210917 0.862485 0.652713
O O6 0.500000 0.252593 0.750000
O O7 0.561371 0.346298 0.488758
O O8 0.718073 0.221895 0.221801
O O9 0.500000 0.556688 0.250000
O O10 0.435271 0.492461 0.530086
O O11 0.673023 0.575840 0.046569
O O12 0.705708 0.929696 0.688056
O O13 0.849500 0.897710 0.558093
O O14 0.949710 0.848158 0.211294
#
# Coordination Sequence:
#
# PCOD8132002 Si02
#       7
#     4   8   8   8   8   8   8
#     4  12  20  38  60 100 124 158 208 274 298 362
#     4  12  21  36  67  94 119 166 212 260 305 366
#     4  11  20  35  61  89 126 167 206 247 322 372
#     4  10  20  37  60  87 125 174 200 248 322 374
#     4  11  22  36  64  94 124 160 216 255 307 370
#     4  10  18  35  58  89 118 163 202 259 296 368
#     4  10  18  37  62  85 123 156 212 261 296 363
#
# _framework density 22.880939000000001
#
# number of rings (size 3 to 8) (size 9 to 14) (size 15 to 20)
#    0.000    1.231    8.462    0.462    0.000    3.077 
#    0.000    0.000   10.154    5.538    4.000    0.000 
#    0.000    0.000    0.000    0.000    0.000    0.000 
#
# Total GULP energy -322269.392753 kJ/mol
# GULP energy per Si atom -12394.976644 kJ/mol
# Density = 2.282886 g / cm^3
# Si number density = 22.880939 Si / 1000 Ang^3
#
#
#
# Elastic Constant Matrix: (Units=GPa)
#
#
# Indices 1 2 3 4 5 6 
#
# 1 46.3694 -11.9285 17.2931 0.0005 6.2297 -0.0004
# 2 -11.9285 102.2455 61.4776 0.0005 -17.0808 -0.0003
# 3 17.2931 61.4776 126.3074 -0.0002 -19.5111 0.0000
# 4 0.0005 0.0005 -0.0002 29.6321 0.0001 -6.5256
# 5 6.2297 -17.0808 -19.5111 0.0001 14.9775 0.0006
# 6 -0.0004 -0.0003 0.0000 -6.5256 0.0006 18.5848
#
#
#
# Elastic Compliance Matrix: (Units=1/GPa)
#
#
# Indices 1 2 3 4 5 6 
#
# 1 0.029259 0.006372 -0.009846 0.000000 -0.017730 0.000001
# 2 0.006372 0.016199 -0.007903 0.000000 0.005529 0.000000
# 3 -0.009846 -0.007903 0.015464 0.000000 0.015228 -0.000001
# 4 0.000000 0.000000 0.000000 0.036575 -0.000001 0.012843
# 5 -0.017730 0.005529 0.015228 -0.000001 0.100283 -0.000004
# 6 0.000001 0.000000 -0.000001 0.012843 -0.000004 0.058317
#
#
# Mechanical properties :
#
#
# Convention : Reuss Voigt Hill
#
# Bulk Modulus (GPa) = 26.19998 45.40074 35.80036
# Shear Modulus (GPa) = 17.14827 26.51091 21.82959
#
# Velocity S-wave (km/s) = 2.74059 3.40758 3.09212
# Velocity P-wave (km/s) = 4.63572 5.94705 5.33185
#
# Compressibility (1/GPa) = 0.03816797
#
# Stress axis : x y z
#
# Youngs Moduli (GPa) = 34.17734 61.73132 64.66570
#
# Poissons Ratio (x) = -0.39334 0.63671
# Poissons Ratio (y) = -0.21777 0.51106
# Poissons Ratio (z) = 0.33651 0.48786
#
# Static dielectric constant tensor:
#      x y z
#    x 4.575280 0.000000 -0.305510 
#    y 0.000000 3.926320 0.000000 
#    z -0.305510 0.000000 4.630670 
# 
# 
# High freq. dielectric constant tensor:
#      x y z
#    x 1.896630 0.000000 -0.015090 
#    y 0.000000 1.865120 0.000000 
#    z -0.015090 0.000000 1.916800 
# 
# From -- ./inp_files/182815.got.cif
#   From: 2010.06.25/outbox.cif.g09.slc.cpg/sg15_92_cif.got.tgz:182815.got - 2010.06.28 07:06:18.
