data_PCOD8132719
_publ_section_title
;
Structure prediction by ZEFSAII (Michael W. Deem and Ramdas Pophale) SiO2 
 PCOD8132719
Probable space group: C 2/C
;
_chemical_formula_sum "Si O2"
_cell_formula_units_Z 36
_cell_length_a 10.115217
_cell_length_b 14.284632
_cell_length_c 12.047735
_cell_angle_alpha 90.000000
_cell_angle_beta 75.960034
_cell_angle_gamma 90.000000
_cell_volume 1688.799698
_symmetry_space_group_name_H-M "C 2/C"
_symmetry_group_IT_number 15
_symmetry_cell_setting 'monoclinic'
loop_
_space_group_symop_operation_xyz
x,y,z
-x,y,1/2-z
-x,-y,-z
x,-y,1/2+z
1/2+x,1/2+y,z
1/2-x,1/2+y,1/2-z
1/2-x,1/2-y,-z
1/2+x,1/2-y,1/2+z
loop_
_atom_site_type_symbol
_atom_site_label
_atom_site_fract_x
_atom_site_fract_y
_atom_site_fract_z
Si Si1 0.765196 0.536872 0.439836
Si Si2 0.889648 0.651072 0.597250
Si Si3 0.500000 0.979775 0.250000
Si Si4 0.304119 0.154429 0.039447
Si Si5 0.140337 0.847520 0.787764
O O1 0.773249 0.609711 0.540412
O O2 0.913129 0.542825 0.351129
O O3 0.733807 0.432061 0.488370
O O4 0.649870 0.568106 0.375010
O O5 0.846513 0.753340 0.644406
O O6 0.894929 0.586055 0.704594
O O7 0.034257 0.650527 0.505192
O O8 0.265950 0.147184 0.176615
O O9 0.250000 0.250000 0.000000
O O10 0.000000 0.854095 0.750000
#
# Coordination Sequence:
#
# PCOD8132719 Si02
#       5
#     8   8   4   8   8
#     4  11  23  37  66  94 117 157 212 251 293 361
#     4  11  21  41  64  91 121 157 208 251 295 358
#     4  10  18  40  64  92 116 156 202 254 302 344
#     4  11  22  41  65  88 122 161 200 248 308 359
#     4  12  23  41  62  88 128 163 196 249 313 360
#
# _framework density 21.316915000000002
#
# number of rings (size 3 to 8) (size 9 to 14) (size 15 to 20)
#    0.000    0.889    3.333    7.333    0.000    0.889 
#    0.000    0.000    0.000    0.000    0.000    0.000 
#    0.000    0.000    0.000    0.000    0.000    0.000 
#
# Total GULP energy -223236.682679 kJ/mol
# GULP energy per Si atom -12402.037927 kJ/mol
# Density = 2.126840 g / cm^3
# Si number density = 21.316915 Si / 1000 Ang^3
#
#
#
# Elastic Constant Matrix: (Units=GPa)
#
#
# Indices 1 2 3 4 5 6 
#
# 1 33.3607 34.6457 32.4128 0.0000 15.3644 0.0000
# 2 34.6457 149.8518 68.0871 0.0000 28.6345 0.0000
# 3 32.4128 68.0871 131.0068 0.0000 13.6948 0.0000
# 4 0.0000 0.0000 0.0000 40.7514 0.0000 -0.1793
# 5 15.3644 28.6345 13.6948 0.0000 38.6107 0.0000
# 6 0.0000 0.0000 0.0000 -0.1793 0.0000 21.1500
#
#
#
# Elastic Compliance Matrix: (Units=1/GPa)
#
#
# Indices 1 2 3 4 5 6 
#
# 1 0.049199 -0.005242 -0.008109 0.000000 -0.012814 0.000000
# 2 -0.005242 0.010361 -0.003638 0.000000 -0.004308 0.000000
# 3 -0.008109 -0.003638 0.011331 0.000000 0.001906 0.000000
# 4 0.000000 0.000000 0.000000 0.024540 0.000000 0.000208
# 5 -0.012814 -0.004308 0.001906 0.000000 0.033518 0.000000
# 6 0.000000 0.000000 0.000000 0.000208 0.000000 0.047283
#
#
# Mechanical properties :
#
#
# Convention : Reuss Voigt Hill
#
# Bulk Modulus (GPa) = 27.08953 64.94562 46.01758
# Shear Modulus (GPa) = 22.47055 32.04067 27.25561
#
# Velocity S-wave (km/s) = 3.25024 3.88114 3.57962
# Velocity P-wave (km/s) = 5.17890 7.11458 6.22247
#
# Compressibility (1/GPa) = 0.03691463
#
# Stress axis : x y z
#
# Youngs Moduli (GPa) = 20.32551 96.51385 88.25526
#
# Poissons Ratio (x) = 0.50592 0.71563
# Poissons Ratio (y) = 0.10655 0.32105
# Poissons Ratio (z) = 0.16481 0.35109
#
# Static dielectric constant tensor:
#      x y z
#    x 3.601670 0.000000 0.002780 
#    y 0.000000 3.986890 0.000000 
#    z 0.002780 0.000000 4.235910 
# 
# 
# High freq. dielectric constant tensor:
#      x y z
#    x 1.802770 0.000000 0.007830 
#    y 0.000000 1.844210 0.000000 
#    z 0.007830 0.000000 1.858950 
# 
# From -- ./inp_files/84350.got.cif
#   From: 2010.06.25/outbox.cif.g09.slc.cpg/sg15_43_cif.got.tgz:84350.got - 2010.06.28 07:06:18.
