data_PCOD8132345
_publ_section_title
;
Structure prediction by ZEFSAII (Michael W. Deem and Ramdas Pophale) SiO2 
 PCOD8132345
Probable space group: C 2/C
;
_chemical_formula_sum "Si O2"
_cell_formula_units_Z 44
_cell_length_a 18.274011
_cell_length_b 8.892998
_cell_length_c 19.638199
_cell_angle_alpha 90.000000
_cell_angle_beta 44.697845
_cell_angle_gamma 90.000000
_cell_volume 2244.741415
_symmetry_space_group_name_H-M "C 2/C"
_symmetry_group_IT_number 15
_symmetry_cell_setting 'monoclinic'
loop_
_space_group_symop_operation_xyz
x,y,z
-x,y,1/2-z
-x,-y,-z
x,-y,1/2+z
1/2+x,1/2+y,z
1/2-x,1/2+y,1/2-z
1/2-x,1/2-y,-z
1/2+x,1/2-y,1/2+z
loop_
_atom_site_type_symbol
_atom_site_label
_atom_site_fract_x
_atom_site_fract_y
_atom_site_fract_z
Si Si1 0.395746 0.408433 0.580727
Si Si2 0.602829 0.067168 0.964110
Si Si3 0.387739 0.864541 0.425562
Si Si4 0.000000 0.832999 0.750000
Si Si5 0.683192 0.404105 0.714532
Si Si6 0.729362 0.639380 0.912198
O O1 0.500000 0.500000 0.500000
O O2 0.403850 0.242840 0.545595
O O3 0.366236 0.422860 0.679069
O O4 0.306023 0.483012 0.595136
O O5 0.714332 0.007456 0.861846
O O6 0.500000 0.000000 0.000000
O O7 0.589300 0.025059 0.053501
O O8 0.480562 0.781814 0.325363
O O9 0.362857 0.750751 0.504072
O O10 0.294029 0.897370 0.436674
O O11 0.096693 0.938015 0.711317
O O12 0.708322 0.227674 0.687855
#
# Coordination Sequence:
#
# PCOD8132345 Si02
#       6
#     8   8   8   4   8   8
#     4  12  23  36  59  90 123 158 198 246 300 355
#     4  11  23  38  59  88 124 158 198 248 295 350
#     4   9  19  37  59  83 111 153 198 238 288 347
#     4  10  18  36  66  86 112 158 204 240 294 358
#     4  10  21  39  62  87 117 158 201 242 292 357
#     4   9  19  37  59  82 114 153 195 238 287 349
#
# _framework density 19.601367
#
# number of rings (size 3 to 8) (size 9 to 14) (size 15 to 20)
#    0.000    1.818    0.000    6.545    0.000    2.182 
#    0.000    0.000    0.000    2.182    0.000    0.000 
#    0.000    0.000    0.000    0.000    0.000    0.000 
#
# Total GULP energy -272544.031635 kJ/mol
# GULP energy per Si atom -12388.365074 kJ/mol
# Density = 1.955675 g / cm^3
# Si number density = 19.601367 Si / 1000 Ang^3
#
#
#
# Elastic Constant Matrix: (Units=GPa)
#
#
# Indices 1 2 3 4 5 6 
#
# 1 121.4301 76.7706 54.4280 0.0000 -6.4711 0.0000
# 2 76.7706 134.2958 45.5503 0.0000 1.0955 0.0000
# 3 54.4280 45.5503 130.8317 0.0000 5.8520 0.0000
# 4 0.0000 0.0000 0.0000 26.4315 0.0000 4.9738
# 5 -6.4711 1.0955 5.8520 0.0000 35.3358 0.0000
# 6 0.0000 0.0000 0.0000 4.9738 0.0000 36.9901
#
#
#
# Elastic Compliance Matrix: (Units=1/GPa)
#
#
# Indices 1 2 3 4 5 6 
#
# 1 0.014593 -0.007096 -0.003758 0.000000 0.003515 0.000000
# 2 -0.007096 0.011896 -0.001123 0.000000 -0.001482 0.000000
# 3 -0.003758 -0.001123 0.009699 0.000000 -0.002260 0.000000
# 4 0.000000 0.000000 0.000000 0.038816 0.000000 -0.005219
# 5 0.003515 -0.001482 -0.002260 0.000000 0.029364 0.000000
# 6 0.000000 0.000000 0.000000 -0.005219 0.000000 0.027736
#
#
# Mechanical properties :
#
#
# Convention : Reuss Voigt Hill
#
# Bulk Modulus (GPa) = 81.74180 82.22838 81.98509
# Shear Modulus (GPa) = 31.22353 33.73874 32.48113
#
# Velocity S-wave (km/s) = 3.99548 4.15329 4.07515
# Velocity P-wave (km/s) = 7.94215 8.06481 8.00371
#
# Compressibility (1/GPa) = 0.01223364
#
# Stress axis : x y z
#
# Youngs Moduli (GPa) = 68.52489 84.06184 103.10651
#
# Poissons Ratio (x) = 0.59654 0.38743
# Poissons Ratio (y) = 0.48628 0.11581
# Poissons Ratio (z) = 0.25748 0.09442
#
# Static dielectric constant tensor:
#      x y z
#    x 3.869460 0.000000 -0.001740 
#    y 0.000000 3.577820 0.000000 
#    z -0.001740 0.000000 3.801340 
# 
# 
# High freq. dielectric constant tensor:
#      x y z
#    x 1.782320 0.000000 -0.002210 
#    y 0.000000 1.737210 0.000000 
#    z -0.002210 0.000000 1.773820 
# 
# From -- ./inp_files/159213.got.cif
#   From: 2010.06.25/outbox.cif.g09.slc.cpg/sg15_80_cif.got.tgz:159213.got - 2010.06.28 07:06:18.
