data_PCOD8132386
_publ_section_title
;
Structure prediction by ZEFSAII (Michael W. Deem and Ramdas Pophale) SiO2 
 PCOD8132386
Probable space group: C 2/C
;
_chemical_formula_sum "Si O2"
_cell_formula_units_Z 60
_cell_length_a 15.929508
_cell_length_b 12.177968
_cell_length_c 14.956345
_cell_angle_alpha 90.000000
_cell_angle_beta 90.992873
_cell_angle_gamma 90.000000
_cell_volume 2900.931373
_symmetry_space_group_name_H-M "C 2/C"
_symmetry_group_IT_number 15
_symmetry_cell_setting 'monoclinic'
loop_
_space_group_symop_operation_xyz
x,y,z
-x,y,1/2-z
-x,-y,-z
x,-y,1/2+z
1/2+x,1/2+y,z
1/2-x,1/2+y,1/2-z
1/2-x,1/2-y,-z
1/2+x,1/2-y,1/2+z
loop_
_atom_site_type_symbol
_atom_site_label
_atom_site_fract_x
_atom_site_fract_y
_atom_site_fract_z
Si Si1 0.216174 0.629179 0.410303
Si Si2 0.745822 0.152608 0.677334
Si Si3 0.260084 0.246235 0.364990
Si Si4 0.948616 0.251671 0.559933
Si Si5 0.500000 0.178060 0.250000
Si Si6 0.163776 0.551511 0.219303
Si Si7 0.148675 0.042626 0.955294
Si Si8 0.884122 0.202133 0.019941
O O1 0.265146 0.745349 0.391664
O O2 0.125164 0.657386 0.454195
O O3 0.203090 0.561631 0.319126
O O4 0.271441 0.553627 0.475911
O O5 0.778018 0.197309 0.771589
O O6 0.818298 0.070916 0.643545
O O7 0.662884 0.077339 0.690292
O O8 0.279870 0.116897 0.352667
O O9 0.164123 0.259936 0.397940
O O10 0.323450 0.301392 0.434171
O O11 0.920941 0.133235 0.523288
O O12 0.969315 0.246921 0.666844
O O13 0.032045 0.272335 0.501291
O O14 0.570690 0.097651 0.213280
O O15 0.101887 0.926067 0.957260
#
# Coordination Sequence:
#
# PCOD8132386 Si02
#       8
#     8   8   8   8   4   8   8   8
#     4   9  21  37  59  84 114 156 197 233 295 353
#     4  10  19  35  57  81 111 148 195 232 282 351
#     4  10  21  36  57  84 113 151 185 241 285 342
#     4  10  20  35  58  84 120 148 191 248 285 349
#     4  10  20  36  56  84 112 154 194 234 294 334
#     4  10  18  37  58  81 110 150 196 235 279 349
#     4  11  21  37  60  87 113 159 191 235 298 356
#     4  11  21  36  60  87 118 145 197 244 293 337
#
# _framework density 20.683012000000002
#
# number of rings (size 3 to 8) (size 9 to 14) (size 15 to 20)
#    0.000    1.867    2.667    3.600    0.000    0.000 
#    0.000    2.667    0.000   11.200    0.000    0.000 
#    0.000    0.000    0.000    0.000    0.000    0.000 
#
# Total GULP energy -371761.508125 kJ/mol
# GULP energy per Si atom -12392.050271 kJ/mol
# Density = 2.063594 g / cm^3
# Si number density = 20.683012 Si / 1000 Ang^3
#
#
#
# Elastic Constant Matrix: (Units=GPa)
#
#
# Indices 1 2 3 4 5 6 
#
# 1 96.1916 12.4880 31.3327 0.0000 -20.6686 0.0000
# 2 12.4880 63.0893 12.2958 0.0000 -5.9673 0.0000
# 3 31.3327 12.2958 82.1691 0.0000 -17.4271 0.0000
# 4 0.0000 0.0000 0.0000 13.3421 0.0000 -2.2326
# 5 -20.6686 -5.9673 -17.4271 0.0000 35.2251 0.0000
# 6 0.0000 0.0000 0.0000 -2.2326 0.0000 23.2877
#
#
#
# Elastic Compliance Matrix: (Units=1/GPa)
#
#
# Indices 1 2 3 4 5 6 
#
# 1 0.012928 -0.001339 -0.003540 0.000000 0.005607 0.000000
# 2 -0.001339 0.016561 -0.001720 0.000000 0.001169 0.000000
# 3 -0.003540 -0.001720 0.014831 0.000000 0.004969 0.000000
# 4 0.000000 0.000000 0.000000 0.076173 0.000000 0.007303
# 5 0.005607 0.001169 0.004969 0.000000 0.034335 0.000000
# 6 0.000000 0.000000 0.000000 0.007303 0.000000 0.043641
#
#
# Mechanical properties :
#
#
# Convention : Reuss Voigt Hill
#
# Bulk Modulus (GPa) = 32.13041 39.29811 35.71426
# Shear Modulus (GPa) = 22.51843 26.72656 24.62249
#
# Velocity S-wave (km/s) = 3.30319 3.59862 3.45406
# Velocity P-wave (km/s) = 5.48785 6.02562 5.76301
#
# Compressibility (1/GPa) = 0.03112316
#
# Stress axis : x y z
#
# Youngs Moduli (GPa) = 77.35375 60.38172 67.42578
#
# Poissons Ratio (x) = 0.08083 0.23869
# Poissons Ratio (y) = 0.10355 0.11596
# Poissons Ratio (z) = 0.27383 0.10384
#
# Static dielectric constant tensor:
#      x y z
#    x 3.697710 0.000000 -0.228880 
#    y 0.000000 3.686410 0.000000 
#    z -0.228880 0.000000 3.822070 
# 
# 
# High freq. dielectric constant tensor:
#      x y z
#    x 1.790940 0.000000 -0.015740 
#    y 0.000000 1.798830 0.000000 
#    z -0.015740 0.000000 1.813300 
# 
# From -- ./inp_files/160890.got.cif
#   From: 2010.06.25/outbox.cif.g09.slc.cpg/sg15_81_cif.got.tgz:160890.got - 2010.06.28 07:06:18.
