data_PCOD8132468
_publ_section_title
;
Structure prediction by ZEFSAII (Michael W. Deem and Ramdas Pophale) SiO2 
 PCOD8132468
Probable space group: C 2/C
;
_chemical_formula_sum "Si O2"
_cell_formula_units_Z 48
_cell_length_a 8.670559
_cell_length_b 18.641779
_cell_length_c 16.673450
_cell_angle_alpha 90.000000
_cell_angle_beta 123.780451
_cell_angle_gamma 90.000000
_cell_volume 2240.020495
_symmetry_space_group_name_H-M "C 2/C"
_symmetry_group_IT_number 15
_symmetry_cell_setting 'monoclinic'
loop_
_space_group_symop_operation_xyz
x,y,z
-x,y,1/2-z
-x,-y,-z
x,-y,1/2+z
1/2+x,1/2+y,z
1/2-x,1/2+y,1/2-z
1/2-x,1/2-y,-z
1/2+x,1/2-y,1/2+z
loop_
_atom_site_type_symbol
_atom_site_label
_atom_site_fract_x
_atom_site_fract_y
_atom_site_fract_z
Si Si1 0.813330 0.164024 0.349639
Si Si2 0.467850 0.872134 0.861083
Si Si3 0.885396 0.045174 0.030117
Si Si4 0.007430 0.535382 0.847475
Si Si5 0.832162 0.296596 0.454314
Si Si6 0.175847 0.068076 0.852181
O O1 0.717256 0.160611 0.233943
O O2 0.655988 0.139850 0.365875
O O3 0.878228 0.245312 0.391066
O O4 0.991706 0.111668 0.403097
O O5 0.456653 0.957051 0.867001
O O6 0.486339 0.837275 0.955758
O O7 0.810066 0.995950 0.080261
O O8 0.701522 0.070464 0.930465
O O9 0.000000 0.000000 0.000000
O O10 0.848191 0.581957 0.842139
O O11 0.000000 0.535969 0.750000
O O12 0.750000 0.250000 0.500000
O O13 0.667222 0.354001 0.390819
O O14 0.000000 0.049355 0.750000
#
# Coordination Sequence:
#
# PCOD8132468 Si02
#       6
#     8   8   8   8   8   8
#     4  10  20  36  63  94 128 172 214 266 325 399
#     4  10  18  37  65  88 130 171 216 259 334 388
#     4  12  21  42  65  99 132 172 218 272 338 396
#     4  12  23  42  67  96 134 173 217 282 339 395
#     4  10  22  38  61  98 127 173 220 273 320 407
#     4  12  26  40  68 103 129 169 230 281 330 400
#
# _framework density 21.428374999999999
#
# number of rings (size 3 to 8) (size 9 to 14) (size 15 to 20)
#    0.000    1.000    5.000    3.500    4.667    0.000 
#    0.000    0.833    0.000    1.000    0.000    0.000 
#    0.000    0.000    0.000    0.000    0.000    0.000 
#
# Total GULP energy -297423.949807 kJ/mol
# GULP energy per Si atom -12392.664575 kJ/mol
# Density = 2.137960 g / cm^3
# Si number density = 21.428375 Si / 1000 Ang^3
#
#
#
# Elastic Constant Matrix: (Units=GPa)
#
#
# Indices 1 2 3 4 5 6 
#
# 1 86.7577 11.3943 35.3068 0.0000 14.2877 0.0000
# 2 11.3943 86.0566 38.3644 0.0000 0.2353 0.0000
# 3 35.3068 38.3644 147.3236 0.0000 21.1186 0.0000
# 4 0.0000 0.0000 0.0000 23.0504 0.0000 7.3676
# 5 14.2877 0.2353 21.1186 0.0000 29.3752 0.0000
# 6 0.0000 0.0000 0.0000 7.3676 0.0000 22.5400
#
#
#
# Elastic Compliance Matrix: (Units=1/GPa)
#
#
# Indices 1 2 3 4 5 6 
#
# 1 0.013361 -0.000720 -0.002323 0.000000 -0.004822 0.000000
# 2 -0.000720 0.013370 -0.003728 0.000000 0.002923 0.000000
# 3 -0.002323 -0.003728 0.009085 0.000000 -0.005372 0.000000
# 4 0.000000 0.000000 0.000000 0.048445 0.000000 -0.015835
# 5 -0.004822 0.002923 -0.005372 0.000000 0.040227 0.000000
# 6 0.000000 0.000000 0.000000 -0.015835 0.000000 0.049541
#
#
# Mechanical properties :
#
#
# Convention : Reuss Voigt Hill
#
# Bulk Modulus (GPa) = 44.89751 54.47432 49.68592
# Shear Modulus (GPa) = 25.64169 30.66462 28.15316
#
# Velocity S-wave (km/s) = 3.46298 3.78700 3.62861
# Velocity P-wave (km/s) = 6.08173 6.67822 6.38694
#
# Compressibility (1/GPa) = 0.02227295
#
# Stress axis : x y z
#
# Youngs Moduli (GPa) = 74.84729 74.79657 110.06684
#
# Poissons Ratio (x) = 0.05387 0.25569
# Poissons Ratio (y) = 0.05390 0.41033
# Poissons Ratio (z) = 0.17388 0.27884
#
# Static dielectric constant tensor:
#      x y z
#    x 3.484600 0.000000 -0.160320 
#    y 0.000000 5.108200 0.000000 
#    z -0.160320 0.000000 4.370750 
# 
# 
# High freq. dielectric constant tensor:
#      x y z
#    x 1.807370 0.000000 -0.001830 
#    y 0.000000 1.835050 0.000000 
#    z -0.001830 0.000000 1.865730 
# 
# From -- ./inp_files/192313.got.cif
#   From: 2010.06.25/outbox.cif.g09.slc.cpg/sg15_97_cif.got.tgz:192313.got - 2010.06.28 07:06:18.
