data_PCOD8132349
_publ_section_title
;
Structure prediction by ZEFSAII (Michael W. Deem and Ramdas Pophale) SiO2 
 PCOD8132349
Probable space group: C 2/C
;
_chemical_formula_sum "Si O2"
_cell_formula_units_Z 64
_cell_length_a 9.958071
_cell_length_b 19.532231
_cell_length_c 22.955943
_cell_angle_alpha 90.000000
_cell_angle_beta 128.249981
_cell_angle_gamma 90.000000
_cell_volume 3506.447026
_symmetry_space_group_name_H-M "C 2/C"
_symmetry_group_IT_number 15
_symmetry_cell_setting 'monoclinic'
loop_
_space_group_symop_operation_xyz
x,y,z
-x,y,1/2-z
-x,-y,-z
x,-y,1/2+z
1/2+x,1/2+y,z
1/2-x,1/2+y,1/2-z
1/2-x,1/2-y,-z
1/2+x,1/2-y,1/2+z
loop_
_atom_site_type_symbol
_atom_site_label
_atom_site_fract_x
_atom_site_fract_y
_atom_site_fract_z
Si Si1 0.007285 0.709071 0.398910
Si Si2 0.750786 0.824822 0.066940
Si Si3 0.017129 0.516923 0.911082
Si Si4 0.551777 0.826351 0.431889
Si Si5 0.200074 0.791873 0.900319
Si Si6 0.021173 0.080793 0.190172
Si Si7 0.230511 0.979993 0.427282
Si Si8 0.083154 0.412175 0.709979
O O1 0.083918 0.776509 0.389088
O O2 0.149715 0.676143 0.478887
O O3 0.963351 0.655472 0.337652
O O4 0.837265 0.729742 0.388433
O O5 0.622758 0.801227 0.084015
O O6 0.819080 0.901168 0.095481
O O7 0.026133 0.597603 0.900295
O O8 0.985514 0.479053 0.841896
O O9 0.865714 0.495978 0.914615
O O10 0.193266 0.491903 0.987853
O O11 0.706512 0.827057 0.519764
O O12 0.596078 0.775762 0.390968
O O13 0.067267 0.845358 0.838323
O O14 0.216344 0.085498 0.224969
O O15 0.000000 0.053457 0.250000
O O16 0.937698 0.025808 0.124238
O O17 0.000000 0.409098 0.750000
#
# Coordination Sequence:
#
# PCOD8132349 Si02
#       8
#     8   8   8   8   8   8   8   8
#     4  10  19  38  58  85 119 157 194 242 294 357
#     4   9  19  34  62  89 116 150 198 246 294 343
#     4  10  18  38  63  89 119 158 201 251 299 349
#     4   9  19  34  62  90 116 147 199 253 289 340
#     4  10  19  36  59  90 116 150 198 247 292 352
#     4  12  22  39  63  89 118 161 206 244 302 368
#     4  10  18  36  66  91 113 156 211 249 285 361
#     4  12  26  41  59  87 127 163 195 250 315 362
#
# _framework density 18.252095000000001
#
# number of rings (size 3 to 8) (size 9 to 14) (size 15 to 20)
#    0.000    1.750    5.000    0.000    1.750    0.000 
#    2.250    3.125    0.000    0.000    0.000    0.000 
#    0.000    0.000    0.000    0.000    0.000    0.000 
#
# Total GULP energy -396914.505436 kJ/mol
# GULP energy per Si atom -12403.578295 kJ/mol
# Density = 1.821055 g / cm^3
# Si number density = 18.252095 Si / 1000 Ang^3
#
#
#
# Elastic Constant Matrix: (Units=GPa)
#
#
# Indices 1 2 3 4 5 6 
#
# 1 123.7604 64.1886 52.3525 0.0000 6.9262 0.0000
# 2 64.1886 116.0601 55.9406 0.0000 8.3712 0.0000
# 3 52.3525 55.9406 84.2758 0.0000 14.3216 0.0000
# 4 0.0000 0.0000 0.0000 29.9596 0.0000 5.0725
# 5 6.9262 8.3712 14.3216 0.0000 28.6954 0.0000
# 6 0.0000 0.0000 0.0000 5.0725 0.0000 31.1722
#
#
#
# Elastic Compliance Matrix: (Units=1/GPa)
#
#
# Indices 1 2 3 4 5 6 
#
# 1 0.012474 -0.004642 -0.004793 0.000000 0.000735 0.000000
# 2 -0.004642 0.014405 -0.006725 0.000000 0.000274 0.000000
# 3 -0.004793 -0.006725 0.020517 0.000000 -0.007121 0.000000
# 4 0.000000 0.000000 0.000000 0.034324 0.000000 -0.005585
# 5 0.000735 0.000274 -0.007121 0.000000 0.038145 0.000000
# 6 0.000000 0.000000 0.000000 -0.005585 0.000000 0.032989
#
#
# Mechanical properties :
#
#
# Convention : Reuss Voigt Hill
#
# Bulk Modulus (GPa) = 66.32517 74.33997 70.33257
# Shear Modulus (GPa) = 26.28837 28.07309 27.18073
#
# Velocity S-wave (km/s) = 3.79924 3.92608 3.86318
# Velocity P-wave (km/s) = 7.46076 7.83391 7.64961
#
# Compressibility (1/GPa) = 0.01507723
#
# Stress axis : x y z
#
# Youngs Moduli (GPa) = 80.16797 69.42012 48.74014
#
# Poissons Ratio (x) = 0.32224 0.23359
# Poissons Ratio (y) = 0.37213 0.32777
# Poissons Ratio (z) = 0.38421 0.46684
#
# Static dielectric constant tensor:
#      x y z
#    x 3.293190 0.000000 0.059630 
#    y 0.000000 3.372140 0.000000 
#    z 0.059630 0.000000 3.168170 
# 
# 
# High freq. dielectric constant tensor:
#      x y z
#    x 1.694620 0.000000 0.006630 
#    y 0.000000 1.712670 0.000000 
#    z 0.006630 0.000000 1.698680 
# 
# From -- ./inp_files/266125.got.cif
#   From: 2010.06.25/outbox.cif.g09.slc.cpg/sg15_134_cif.got.tgz:266125.got - 2010.06.28 07:06:18.
