data_PCOD8132642
_publ_section_title
;
Structure prediction by ZEFSAII (Michael W. Deem and Ramdas Pophale) SiO2 
 PCOD8132642
Probable space group: C 2/C
;
_chemical_formula_sum "Si O2"
_cell_formula_units_Z 36
_cell_length_a 12.080591
_cell_length_b 7.672107
_cell_length_c 28.033248
_cell_angle_alpha 90.000000
_cell_angle_beta 130.992591
_cell_angle_gamma 90.000000
_cell_volume 1961.123421
_symmetry_space_group_name_H-M "C 2/C"
_symmetry_group_IT_number 15
_symmetry_cell_setting 'monoclinic'
loop_
_space_group_symop_operation_xyz
x,y,z
-x,y,1/2-z
-x,-y,-z
x,-y,1/2+z
1/2+x,1/2+y,z
1/2-x,1/2+y,1/2-z
1/2-x,1/2-y,-z
1/2+x,1/2-y,1/2+z
loop_
_atom_site_type_symbol
_atom_site_label
_atom_site_fract_x
_atom_site_fract_y
_atom_site_fract_z
Si Si1 0.500000 0.157076 0.250000
Si Si2 0.271058 0.434620 0.345082
Si Si3 0.316160 0.923630 0.077120
Si Si4 0.569728 0.579625 0.434898
Si Si5 0.512074 0.728120 0.857235
O O1 0.485727 0.279436 0.199583
O O2 0.641530 0.035016 0.281196
O O3 0.209007 0.352678 0.376393
O O4 0.396310 0.572275 0.397419
O O5 0.344695 0.289688 0.330917
O O6 0.399705 0.774490 0.072530
O O7 0.419171 0.092418 0.105252
O O8 0.162788 0.967566 0.008121
O O9 0.606282 0.435845 0.403924
#
# Coordination Sequence:
#
# PCOD8132642 Si02
#       5
#     4   8   8   8   8
#     4  10  20  40  54  74 118 148 188 240 254 318
#     4   9  21  37  56  82 107 151 185 222 278 325
#     4  10  18  39  60  81 122 134 175 242 277 332
#     4   9  20  37  58  91 107 143 185 223 285 337
#     4   9  21  38  56  81 111 149 185 225 279 325
#
# _framework density 18.356825000000001
#
# number of rings (size 3 to 8) (size 9 to 14) (size 15 to 20)
#    1.333    1.333    0.000    1.333    0.000    3.556 
#   12.000    3.333    0.000    0.000    0.000    0.000 
#    0.000    0.000    0.000    0.000    0.000    0.000 
#
# Total GULP energy -223036.597065 kJ/mol
# GULP energy per Si atom -12390.922059 kJ/mol
# Density = 1.831504 g / cm^3
# Si number density = 18.356825 Si / 1000 Ang^3
#
#
#
# Elastic Constant Matrix: (Units=GPa)
#
#
# Indices 1 2 3 4 5 6 
#
# 1 61.7255 17.2727 17.3276 0.0000 8.8232 0.0000
# 2 17.2727 76.3084 30.5716 0.0000 -0.7927 0.0000
# 3 17.3276 30.5716 82.1183 0.0000 -6.4628 0.0000
# 4 0.0000 0.0000 0.0000 18.0996 0.0000 0.6713
# 5 8.8232 -0.7927 -6.4628 0.0000 34.5334 0.0000
# 6 0.0000 0.0000 0.0000 0.6713 0.0000 23.8444
#
#
#
# Elastic Compliance Matrix: (Units=1/GPa)
#
#
# Indices 1 2 3 4 5 6 
#
# 1 0.018737 -0.002987 -0.003272 0.000000 -0.005468 0.000000
# 2 -0.002987 0.015896 -0.005277 0.000000 0.000141 0.000000
# 3 -0.003272 -0.005277 0.015111 0.000000 0.003543 0.000000
# 4 0.000000 0.000000 0.000000 0.055308 0.000000 -0.001557
# 5 -0.005468 0.000141 0.003543 0.000000 0.031021 0.000000
# 6 0.000000 0.000000 0.000000 -0.001557 0.000000 0.041982
#
#
# Mechanical properties :
#
#
# Convention : Reuss Voigt Hill
#
# Bulk Modulus (GPa) = 37.49109 38.94401 38.21755
# Shear Modulus (GPa) = 23.80756 25.62751 24.71753
#
# Velocity S-wave (km/s) = 3.60520 3.74046 3.67345
# Velocity P-wave (km/s) = 6.14799 6.31790 6.23352
#
# Compressibility (1/GPa) = 0.02667300
#
# Stress axis : x y z
#
# Youngs Moduli (GPa) = 53.37101 62.90775 66.17609
#
# Poissons Ratio (x) = 0.18791 0.21652
# Poissons Ratio (y) = 0.15943 0.34919
# Poissons Ratio (z) = 0.17462 0.33194
#
# Static dielectric constant tensor:
#      x y z
#    x 3.226540 0.000000 0.045230 
#    y 0.000000 3.039100 0.000000 
#    z 0.045230 0.000000 3.502640 
# 
# 
# High freq. dielectric constant tensor:
#      x y z
#    x 1.705060 0.000000 -0.000340 
#    y 0.000000 1.690100 0.000000 
#    z -0.000340 0.000000 1.724680 
# 
# From -- ./inp_files/194948.got.cif
#   From: 2010.06.25/outbox.cif.g09.slc.cpg/sg15_98_cif.got.tgz:194948.got - 2010.06.28 07:06:18.
