data_PCOD8132534
_publ_section_title
;
Structure prediction by ZEFSAII (Michael W. Deem and Ramdas Pophale) SiO2 
 PCOD8132534
Probable space group: C 2/C
;
_chemical_formula_sum "Si O2"
_cell_formula_units_Z 60
_cell_length_a 5.612216
_cell_length_b 27.509410
_cell_length_c 19.212854
_cell_angle_alpha 90.000000
_cell_angle_beta 93.925991
_cell_angle_gamma 90.000000
_cell_volume 2959.287703
_symmetry_space_group_name_H-M "C 2/C"
_symmetry_group_IT_number 15
_symmetry_cell_setting 'monoclinic'
loop_
_space_group_symop_operation_xyz
x,y,z
-x,y,1/2-z
-x,-y,-z
x,-y,1/2+z
1/2+x,1/2+y,z
1/2-x,1/2+y,1/2-z
1/2-x,1/2-y,-z
1/2+x,1/2-y,1/2+z
loop_
_atom_site_type_symbol
_atom_site_label
_atom_site_fract_x
_atom_site_fract_y
_atom_site_fract_z
Si Si1 0.500000 0.671451 0.750000
Si Si2 0.350779 0.947342 0.567649
Si Si3 0.562208 0.679201 0.384850
Si Si4 0.485642 0.622683 0.515588
Si Si5 0.455388 0.135019 0.168854
Si Si6 0.377062 0.944755 0.066934
Si Si7 0.872076 0.281095 0.174544
Si Si8 0.667789 0.132812 0.633539
O O1 0.399903 0.707110 0.808624
O O2 0.312423 0.635843 0.708818
O O3 0.450560 0.918435 0.635570
O O4 0.551314 0.948815 0.512330
O O5 0.117727 0.920546 0.534444
O O6 0.290099 0.002377 0.591140
O O7 0.582125 0.664891 0.466609
O O8 0.300645 0.662190 0.350047
O O9 0.585596 0.736984 0.377205
O O10 0.803463 0.660363 0.353374
O O11 0.678402 0.596826 0.568291
O O12 0.302810 0.647739 0.565111
O O13 0.500000 0.128214 0.250000
O O14 0.583592 0.923334 0.121646
O O15 0.000000 0.269905 0.250000
O O16 0.955138 0.328835 0.135434
#
# Coordination Sequence:
#
# PCOD8132534 Si02
#       8
#     4   8   8   8   8   8   8   8
#     4  10  22  42  60  86 122 162 212 256 310 376
#     4   9  20  35  61  87 121 161 210 254 310 379
#     4  11  24  39  66  93 128 167 211 258 320 376
#     4  10  20  38  61  92 126 160 205 259 316 374
#     4  11  22  40  60  94 129 164 208 265 318 378
#     4  10  18  38  61  87 118 162 210 254 312 372
#     4  10  22  39  61  87 118 165 211 251 312 378
#     4  10  22  38  61  88 122 160 208 263 308 373
#
# _framework density 20.275148000000002
#
# number of rings (size 3 to 8) (size 9 to 14) (size 15 to 20)
#    0.000    1.867    1.333    2.400    4.667    0.533 
#    0.000    6.000    0.000    0.000    0.000    0.000 
#    0.000    0.000    0.000    0.000    0.000    0.000 
#
# Total GULP energy -371684.082612 kJ/mol
# GULP energy per Si atom -12389.469420 kJ/mol
# Density = 2.022900 g / cm^3
# Si number density = 20.275148 Si / 1000 Ang^3
#
#
#
# Elastic Constant Matrix: (Units=GPa)
#
#
# Indices 1 2 3 4 5 6 
#
# 1 104.0011 36.5378 30.0766 0.0000 -8.9891 0.0000
# 2 36.5378 129.3996 56.6725 0.0000 -8.7740 0.0000
# 3 30.0766 56.6725 70.1384 0.0000 -6.7826 0.0000
# 4 0.0000 0.0000 0.0000 22.8845 0.0000 -3.8752
# 5 -8.9891 -8.7740 -6.7826 0.0000 30.9262 0.0000
# 6 0.0000 0.0000 0.0000 -3.8752 0.0000 19.2034
#
#
#
# Elastic Compliance Matrix: (Units=1/GPa)
#
#
# Indices 1 2 3 4 5 6 
#
# 1 0.011328 -0.001575 -0.003382 0.000000 0.002104 0.000000
# 2 -0.001575 0.012231 -0.009109 0.000000 0.001014 0.000000
# 3 -0.003382 -0.009109 0.023216 0.000000 0.001524 0.000000
# 4 0.000000 0.000000 0.000000 0.045244 0.000000 0.009130
# 5 0.002104 0.001014 0.001524 0.000000 0.033569 0.000000
# 6 0.000000 0.000000 0.000000 0.009130 0.000000 0.053917
#
#
# Mechanical properties :
#
#
# Convention : Reuss Voigt Hill
#
# Bulk Modulus (GPa) = 53.63972 61.12365 57.38169
# Shear Modulus (GPa) = 23.38080 26.61964 25.00022
#
# Velocity S-wave (km/s) = 3.39953 3.62735 3.51529
# Velocity P-wave (km/s) = 6.47475 6.91058 6.69621
#
# Compressibility (1/GPa) = 0.01864290
#
# Stress axis : x y z
#
# Youngs Moduli (GPa) = 88.27315 81.75892 43.07460
#
# Poissons Ratio (x) = 0.12877 0.14567
# Poissons Ratio (y) = 0.13903 0.39238
# Poissons Ratio (z) = 0.29852 0.74477
#
# Static dielectric constant tensor:
#      x y z
#    x 3.972650 0.000000 -0.054050 
#    y 0.000000 3.681860 0.000000 
#    z -0.054050 0.000000 3.609450 
# 
# 
# High freq. dielectric constant tensor:
#      x y z
#    x 1.802130 0.000000 -0.004940 
#    y 0.000000 1.784000 0.000000 
#    z -0.004940 0.000000 1.782780 
# 
# From -- ./inp_files/186180.got.cif
#   From: 2010.06.25/outbox.cif.g09.slc.cpg/sg15_94_cif.got.tgz:186180.got - 2010.06.28 07:06:18.
