data_PCOD8132806
_publ_section_title
;
Structure prediction by ZEFSAII (Michael W. Deem and Ramdas Pophale) SiO2 
 PCOD8132806
Probable space group: C 2/C
;
_chemical_formula_sum "Si O2"
_cell_formula_units_Z 44
_cell_length_a 9.282501
_cell_length_b 21.396906
_cell_length_c 15.107983
_cell_angle_alpha 90.000000
_cell_angle_beta 135.407188
_cell_angle_gamma 90.000000
_cell_volume 2106.682086
_symmetry_space_group_name_H-M "C 2/C"
_symmetry_group_IT_number 15
_symmetry_cell_setting 'monoclinic'
loop_
_space_group_symop_operation_xyz
x,y,z
-x,y,1/2-z
-x,-y,-z
x,-y,1/2+z
1/2+x,1/2+y,z
1/2-x,1/2+y,1/2-z
1/2-x,1/2-y,-z
1/2+x,1/2-y,1/2+z
loop_
_atom_site_type_symbol
_atom_site_label
_atom_site_fract_x
_atom_site_fract_y
_atom_site_fract_z
Si Si1 0.721659 0.645859 0.845845
Si Si2 0.436640 0.027747 0.123214
Si Si3 0.500000 0.337888 0.750000
Si Si4 0.311690 0.165934 0.071780
Si Si5 0.247719 0.774806 0.714113
Si Si6 0.140356 0.572102 0.044512
O O1 0.500000 0.609805 0.750000
O O2 0.725264 0.699844 0.772908
O O3 0.722308 0.684602 0.938076
O O4 0.915536 0.600515 0.922152
O O5 0.500000 0.003954 0.250000
O O6 0.304352 0.090418 0.079351
O O7 0.625685 0.040666 0.136330
O O8 0.304552 0.975244 0.012101
O O9 0.575799 0.291285 0.708493
O O10 0.679976 0.377922 0.873131
O O11 0.546363 0.187667 0.175610
O O12 0.173861 0.198931 0.086130
#
# Coordination Sequence:
#
# PCOD8132806 Si02
#       6
#     8   8   4   8   8   8
#     4  11  22  40  64  93 123 164 217 268 301 371
#     4  10  18  43  66  84 125 168 218 259 306 384
#     4  12  22  44  60  92 132 168 200 256 340 378
#     4  10  19  41  63  93 116 168 221 247 313 376
#     4  11  21  37  69  88 123 169 207 260 312 384
#     4  10  24  41  62  94 129 166 209 266 320 375
#
# _framework density 20.885922999999998
#
# number of rings (size 3 to 8) (size 9 to 14) (size 15 to 20)
#    0.000    1.455    7.273    0.545    0.000    0.727 
#   19.636    1.818    0.000    0.000    0.000    0.000 
#    0.000    0.000    0.000    0.000    0.000    0.000 
#
# Total GULP energy -272544.496104 kJ/mol
# GULP energy per Si atom -12388.386187 kJ/mol
# Density = 2.083839 g / cm^3
# Si number density = 20.885923 Si / 1000 Ang^3
#
#
#
# Elastic Constant Matrix: (Units=GPa)
#
#
# Indices 1 2 3 4 5 6 
#
# 1 109.2006 33.0061 36.4460 0.0007 -9.4536 0.0001
# 2 33.0061 80.4838 28.3541 0.0001 5.5267 -0.0001
# 3 36.4460 28.3541 81.3347 0.0024 0.4187 0.0004
# 4 0.0007 0.0001 0.0024 28.2570 0.0009 -8.0898
# 5 -9.4536 5.5267 0.4187 0.0009 42.6367 0.0002
# 6 0.0001 -0.0001 0.0004 -8.0898 0.0002 19.0348
#
#
#
# Elastic Compliance Matrix: (Units=1/GPa)
#
#
# Indices 1 2 3 4 5 6 
#
# 1 0.011895 -0.003661 -0.004070 0.000000 0.003152 0.000000
# 2 -0.003661 0.015429 -0.003724 0.000001 -0.002775 0.000000
# 3 -0.004070 -0.003724 0.015420 -0.000001 -0.000571 -0.000001
# 4 0.000000 0.000001 -0.000001 0.040292 -0.000001 0.017124
# 5 0.003152 -0.002775 -0.000571 -0.000001 0.024518 -0.000001
# 6 0.000000 0.000000 -0.000001 0.017124 -0.000001 0.059813
#
#
# Mechanical properties :
#
#
# Convention : Reuss Voigt Hill
#
# Bulk Modulus (GPa) = 50.41877 51.84795 51.13336
# Shear Modulus (GPa) = 25.39512 29.53321 27.46416
#
# Velocity S-wave (km/s) = 3.49075 3.76443 3.63017
# Velocity P-wave (km/s) = 6.35922 6.61610 6.48893
#
# Compressibility (1/GPa) = 0.01983388
#
# Stress axis : x y z
#
# Youngs Moduli (GPa) = 84.06712 64.81479 64.85118
#
# Poissons Ratio (x) = 0.23727 0.26397
# Poissons Ratio (y) = 0.30774 0.24150
# Poissons Ratio (z) = 0.34218 0.24137
#
# Static dielectric constant tensor:
#      x y z
#    x 3.778390 0.000000 -0.454340 
#    y 0.000000 3.749120 0.000000 
#    z -0.454340 0.000000 4.024350 
# 
# 
# High freq. dielectric constant tensor:
#      x y z
#    x 1.794920 0.000000 -0.020770 
#    y 0.000000 1.821220 0.000000 
#    z -0.020770 0.000000 1.813240 
# 
# From -- ./inp_files/137568.got.cif
#   From: 2010.06.25/outbox.cif.g09.slc.cpg/sg15_69_cif.got.tgz:137568.got - 2010.06.28 07:06:18.
