data_PCOD8132462
_publ_section_title
;
Structure prediction by ZEFSAII (Michael W. Deem and Ramdas Pophale) SiO2 
 PCOD8132462
Probable space group: C 2/C
;
_chemical_formula_sum "Si O2"
_cell_formula_units_Z 60
_cell_length_a 14.068181
_cell_length_b 20.190461
_cell_length_c 14.120909
_cell_angle_alpha 90.000000
_cell_angle_beta 45.848589
_cell_angle_gamma 90.000000
_cell_volume 2877.860205
_symmetry_space_group_name_H-M "C 2/C"
_symmetry_group_IT_number 15
_symmetry_cell_setting 'monoclinic'
loop_
_space_group_symop_operation_xyz
x,y,z
-x,y,1/2-z
-x,-y,-z
x,-y,1/2+z
1/2+x,1/2+y,z
1/2-x,1/2+y,1/2-z
1/2-x,1/2-y,-z
1/2+x,1/2-y,1/2+z
loop_
_atom_site_type_symbol
_atom_site_label
_atom_site_fract_x
_atom_site_fract_y
_atom_site_fract_z
Si Si1 0.000000 0.772741 0.250000
Si Si2 0.145515 0.956310 0.111307
Si Si3 0.691465 0.214296 0.254115
Si Si4 0.905458 0.145547 0.992497
Si Si5 0.320594 0.348039 0.118606
Si Si6 0.355567 0.609577 0.389941
Si Si7 0.663804 0.052137 0.846115
Si Si8 0.372469 0.908321 0.597546
O O1 0.122846 0.731605 0.203383
O O2 0.063396 0.811519 0.120190
O O3 0.175361 0.917517 0.992155
O O4 0.257901 0.935459 0.109428
O O5 0.000000 0.934904 0.250000
O O6 0.145070 0.032520 0.082291
O O7 0.705004 0.275127 0.318768
O O8 0.600367 0.154407 0.355327
O O9 0.834469 0.186366 0.125327
O O10 0.040109 0.121118 0.946843
O O11 0.214006 0.401095 0.227943
O O12 0.318097 0.345107 0.006404
O O13 0.500000 0.630944 0.250000
O O14 0.239331 0.620372 0.395321
O O15 0.682308 0.973805 0.809523
O O16 0.509156 0.070231 0.955347
#
# Coordination Sequence:
#
# PCOD8132462 Si02
#       8
#     4   8   8   8   8   8   8   8
#     4  10  22  38  58  94 128 168 202 252 332 384
#     4  10  18  37  64  98 127 162 201 262 323 380
#     4  11  25  38  63  93 129 165 216 263 315 384
#     4  11  21  38  62  98 127 160 208 257 321 390
#     4  11  24  40  66  92 125 172 212 264 324 367
#     4  10  23  42  65  93 125 165 222 268 317 383
#     4  10  22  42  65  90 134 166 208 264 319 382
#     4  10  24  44  62  93 128 171 214 262 315 376
#
# _framework density 20.848824
#
# number of rings (size 3 to 8) (size 9 to 14) (size 15 to 20)
#    0.000    1.600    2.000    2.000    7.467    1.600 
#    0.000    0.000    0.000    0.000    0.000    0.000 
#    0.000    0.000    0.000    0.000    0.000    0.000 
#
# Total GULP energy -371821.092776 kJ/mol
# GULP energy per Si atom -12394.036426 kJ/mol
# Density = 2.080137 g / cm^3
# Si number density = 20.848824 Si / 1000 Ang^3
#
#
#
# Elastic Constant Matrix: (Units=GPa)
#
#
# Indices 1 2 3 4 5 6 
#
# 1 77.2401 8.8692 25.1307 0.0052 -14.0232 -0.0004
# 2 8.8692 78.8983 34.3367 0.0007 7.2298 0.0000
# 3 25.1307 34.3367 91.7504 0.0078 2.8146 -0.0005
# 4 0.0052 0.0007 0.0078 616.8464 -0.0047 -45.0988
# 5 -14.0232 7.2298 2.8146 -0.0047 31.2058 0.0003
# 6 -0.0004 0.0000 -0.0005 -45.0988 0.0003 15.9604
#
#
#
# Elastic Compliance Matrix: (Units=1/GPa)
#
#
# Indices 1 2 3 4 5 6 
#
# 1 0.015814 -0.000586 -0.004347 0.000000 0.007634 0.000000
# 2 -0.000586 0.015448 -0.005518 0.000000 -0.003345 0.000000
# 3 -0.004347 -0.005518 0.014215 0.000000 -0.001957 0.000000
# 4 0.000000 0.000000 0.000000 0.002043 0.000000 0.005774
# 5 0.007634 -0.003345 -0.001957 0.000000 0.036427 0.000000
# 6 0.000000 0.000000 0.000000 0.005774 0.000000 0.078969
#
#
# Mechanical properties :
#
#
# Convention : Reuss Voigt Hill
#
# Bulk Modulus (GPa) = 40.68971 42.72912 41.70942
# Shear Modulus (GPa) = 26.04022 144.77268 85.40645
#
# Velocity S-wave (km/s) = 3.53796 8.34206 6.40731
# Velocity P-wave (km/s) = 6.02067 10.64546 8.64796
#
# Compressibility (1/GPa) = 0.02457624
#
# Stress axis : x y z
#
# Youngs Moduli (GPa) = 63.23473 64.73122 70.34869
#
# Poissons Ratio (x) = 0.03791 0.30577
# Poissons Ratio (y) = 0.03703 0.38821
# Poissons Ratio (z) = 0.27485 0.35721
#
# Static dielectric constant tensor:
#      x y z
#    x 4.256440 0.000000 0.111840 
#    y 0.000000 4.013450 0.000000 
#    z 0.111840 0.000000 3.724810 
# 
# 
# High freq. dielectric constant tensor:
#      x y z
#    x 1.816020 0.000000 -0.006690 
#    y 0.000000 1.821470 0.000000 
#    z -0.006690 0.000000 1.806970 
# 
# From -- ./inp_files/156347.got.cif
#   From: 2010.06.25/outbox.cif.g09.slc.cpg/sg15_79_cif.got.tgz:156347.got - 2010.06.28 07:06:18.
