data_PCOD8132943
_publ_section_title
;
Structure prediction by ZEFSAII (Michael W. Deem and Ramdas Pophale) SiO2 
 PCOD8132943
Probable space group: C 2/C
;
_chemical_formula_sum "Si O2"
_cell_formula_units_Z 56
_cell_length_a 17.450482
_cell_length_b 23.407589
_cell_length_c 13.173447
_cell_angle_alpha 90.000000
_cell_angle_beta 139.016994
_cell_angle_gamma 90.000000
_cell_volume 3529.053399
_symmetry_space_group_name_H-M "C 2/C"
_symmetry_group_IT_number 15
_symmetry_cell_setting 'monoclinic'
loop_
_space_group_symop_operation_xyz
x,y,z
-x,y,1/2-z
-x,-y,-z
x,-y,1/2+z
1/2+x,1/2+y,z
1/2-x,1/2+y,1/2-z
1/2-x,1/2-y,-z
1/2+x,1/2-y,1/2+z
loop_
_atom_site_type_symbol
_atom_site_label
_atom_site_fract_x
_atom_site_fract_y
_atom_site_fract_z
Si Si1 0.500000 0.373027 0.369357
Si Si2 0.227160 0.188118 0.095065
Si Si3 0.295758 0.500000 0.295758
Si Si4 0.500000 0.492323 0.633124
Si Si5 0.634613 0.080234 0.267873
Si Si6 0.227160 0.188118 0.859254
Si Si7 0.634613 0.080234 0.501354
O O1 0.500000 0.364436 0.250000
O O2 0.614344 0.342887 0.531752
O O3 0.500000 0.440089 0.391680
O O4 0.385656 0.342887 0.303064
O O5 0.339456 0.147370 0.223090
O O6 0.250000 0.250000 0.169761
O O7 0.201176 0.198123 0.951176
O O8 0.381270 0.468063 0.462787
O O9 0.381271 0.531937 0.299754
O O10 0.214152 0.544471 0.271800
O O11 0.214152 0.455529 0.156503
O O12 0.500000 0.475699 0.750000
O O13 0.664725 0.063385 0.414725
O O14 0.500000 0.068333 0.108305
O O15 0.339456 0.147370 0.955822
#
# Coordination Sequence:
#
# PCOD8132943 Si02
#       7
#     8   8   8   8   8   8   8
#     4   9  15  27  43  60  87 118 151 183 220 269
#     4   9  17  27  42  63  89 124 156 181 218 272
#     4  11  19  30  48  66  91 127 156 196 230 273
#     4  10  19  31  48  69  93 122 152 193 237 274
#     4  10  20  32  45  65  96 130 160 188 224 273
#     4   9  17  27  42  63  89 124 156 181 218 272
#     4  10  20  32  45  65  96 130 160 188 224 273
#
# _framework density 15.868278
#
# number of rings (size 3 to 8) (size 9 to 14) (size 15 to 20)
#    0.000    2.286    2.857    1.286    2.000    0.000 
#    0.000    0.000    0.000    0.000    0.000    0.000 
#    0.000    4.571    1.714    0.000    0.000    0.000 
#
# Total GULP energy -346948.773027 kJ/mol
# GULP energy per Si atom -12391.027608 kJ/mol
# Density = 1.583216 g / cm^3
# Si number density = 15.868278 Si / 1000 Ang^3
#
#
#
# Elastic Constant Matrix: (Units=GPa)
#
#
# Indices 1 2 3 4 5 6 
#
# 1 99.6126 35.6825 43.1895 0.0000 10.0463 0.0000
# 2 35.6825 71.4000 35.8463 0.0000 6.6927 0.0000
# 3 43.1895 35.8463 100.1028 0.0000 9.9738 0.0000
# 4 0.0000 0.0000 0.0000 16.9832 0.0000 4.6554
# 5 10.0463 6.6927 9.9738 0.0000 25.3716 0.0000
# 6 0.0000 0.0000 0.0000 4.6554 0.0000 16.8692
#
#
#
# Elastic Compliance Matrix: (Units=1/GPa)
#
#
# Indices 1 2 3 4 5 6 
#
# 1 0.013680 -0.004582 -0.003999 0.000000 -0.002636 0.000000
# 2 -0.004582 0.018727 -0.004598 0.000000 -0.001318 0.000000
# 3 -0.003999 -0.004598 0.013616 0.000000 -0.002556 0.000000
# 4 0.000000 0.000000 0.000000 0.063701 0.000000 -0.017580
# 5 -0.002636 -0.001318 -0.002556 0.000000 0.041811 0.000000
# 6 0.000000 0.000000 0.000000 -0.017580 0.000000 0.064131
#
#
# Mechanical properties :
#
#
# Convention : Reuss Voigt Hill
#
# Bulk Modulus (GPa) = 50.84869 55.61687 53.23278
# Shear Modulus (GPa) = 20.11435 22.27126 21.19281
#
# Velocity S-wave (km/s) = 3.56418 3.75041 3.65848
# Velocity P-wave (km/s) = 7.00368 7.34025 7.17394
#
# Compressibility (1/GPa) = 0.01966619
#
# Stress axis : x y z
#
# Youngs Moduli (GPa) = 73.10039 53.39767 73.44173
#
# Poissons Ratio (x) = 0.24466 0.29368
# Poissons Ratio (y) = 0.33494 0.33768
# Poissons Ratio (z) = 0.29231 0.24552
#
# Static dielectric constant tensor:
#      x y z
#    x 3.059370 0.000000 0.312640 
#    y 0.000000 3.016920 0.000000 
#    z 0.312640 0.000000 3.067020 
# 
# 
# High freq. dielectric constant tensor:
#      x y z
#    x 1.595320 0.000000 0.036080 
#    y 0.000000 1.591520 0.000000 
#    z 0.036080 0.000000 1.596200 
# 
# From -- ./inp_files/107994.got.cif
#   From: 2010.06.25/outbox.cif.g09.slc.cpg/sg15_54_cif.got.tgz:107994.got - 2010.06.28 07:06:18.
