data_PCOD8132771
_publ_section_title
;
Structure prediction by ZEFSAII (Michael W. Deem and Ramdas Pophale) SiO2 
 PCOD8132771
Probable space group: C 2/C
;
_chemical_formula_sum "Si O2"
_cell_formula_units_Z 56
_cell_length_a 7.810607
_cell_length_b 26.278776
_cell_length_c 17.953458
_cell_angle_alpha 90.000000
_cell_angle_beta 45.892204
_cell_angle_gamma 90.000000
_cell_volume 2645.949723
_symmetry_space_group_name_H-M "C 2/C"
_symmetry_group_IT_number 15
_symmetry_cell_setting 'monoclinic'
loop_
_space_group_symop_operation_xyz
x,y,z
-x,y,1/2-z
-x,-y,-z
x,-y,1/2+z
1/2+x,1/2+y,z
1/2-x,1/2+y,1/2-z
1/2-x,1/2-y,-z
1/2+x,1/2-y,1/2+z
loop_
_atom_site_type_symbol
_atom_site_label
_atom_site_fract_x
_atom_site_fract_y
_atom_site_fract_z
Si Si1 0.482378 0.775279 0.397820
Si Si2 0.074229 0.171629 0.314032
Si Si3 0.014693 0.537769 0.870009
Si Si4 0.500000 0.109464 0.250000
Si Si5 0.134260 0.430742 0.559333
Si Si6 0.500000 0.840315 0.250000
Si Si7 0.430623 0.867669 0.500632
Si Si8 0.830889 0.068309 0.652051
O O1 0.250000 0.750000 0.500000
O O2 0.646997 0.727275 0.325902
O O3 0.421773 0.806467 0.342521
O O4 0.577938 0.816603 0.430049
O O5 0.311028 0.140137 0.257862
O O6 0.000000 0.176523 0.250000
O O7 0.850538 0.144878 0.423577
O O8 0.993978 0.484370 0.919862
O O9 0.011913 0.584478 0.927346
O O10 0.788713 0.543204 0.883865
O O11 0.260200 0.536653 0.747796
O O12 0.355385 0.075889 0.354188
O O13 0.389715 0.431038 0.443200
O O14 0.990038 0.383153 0.567390
O O15 0.269921 0.875016 0.302558
#
# Coordination Sequence:
#
# PCOD8132771 Si02
#       8
#     8   8   8   4   8   4   8   8
#     4  10  21  39  71  94 128 177 221 276 344 396
#     4  11  23  45  68  97 131 180 225 278 344 401
#     4  10  21  41  64  93 131 181 226 272 340 402
#     4  12  26  45  66 100 140 176 227 284 336 404
#     4  12  25  40  65 100 136 177 227 279 337 405
#     4  10  18  41  64  92 128 178 219 276 338 398
#     4  11  22  43  64  97 135 174 221 287 336 400
#     4  10  21  39  65  91 129 178 231 271 337 402
#
# _framework density 21.164421999999998
#
# number of rings (size 3 to 8) (size 9 to 14) (size 15 to 20)
#    0.000    1.429    5.000    2.571    2.000    1.714 
#    2.571    0.714    0.000    0.000    0.000    0.000 
#    0.000    0.000    0.000    0.000    0.000    0.000 
#
# Total GULP energy -346951.470617 kJ/mol
# GULP energy per Si atom -12391.123951 kJ/mol
# Density = 2.111625 g / cm^3
# Si number density = 21.164422 Si / 1000 Ang^3
#
#
#
# Elastic Constant Matrix: (Units=GPa)
#
#
# Indices 1 2 3 4 5 6 
#
# 1 61.3933 32.2209 36.8122 0.0000 1.2798 0.0000
# 2 32.2209 132.0408 54.6224 0.0000 5.6019 0.0000
# 3 36.8122 54.6224 126.3353 0.0000 -0.5291 0.0000
# 4 0.0000 0.0000 0.0000 39.9845 0.0000 13.6799
# 5 1.2798 5.6019 -0.5291 0.0000 35.9392 0.0000
# 6 0.0000 0.0000 0.0000 13.6799 0.0000 21.1927
#
#
#
# Elastic Compliance Matrix: (Units=1/GPa)
#
#
# Indices 1 2 3 4 5 6 
#
# 1 0.020744 -0.003102 -0.004705 0.000000 -0.000324 0.000000
# 2 -0.003102 0.009768 -0.003326 0.000000 -0.001461 0.000000
# 3 -0.004705 -0.003326 0.010728 0.000000 0.000844 0.000000
# 4 0.000000 0.000000 0.000000 0.032098 0.000000 -0.020719
# 5 -0.000324 -0.001461 0.000844 0.000000 0.028077 0.000000
# 6 0.000000 0.000000 0.000000 -0.020719 0.000000 0.060560
#
#
# Mechanical properties :
#
#
# Convention : Reuss Voigt Hill
#
# Bulk Modulus (GPa) = 52.69988 63.00892 57.85440
# Shear Modulus (GPa) = 26.23775 32.49753 29.36764
#
# Velocity S-wave (km/s) = 3.52477 3.92277 3.72908
# Velocity P-wave (km/s) = 6.44357 7.09600 6.77764
#
# Compressibility (1/GPa) = 0.01897538
#
# Stress axis : x y z
#
# Youngs Moduli (GPa) = 48.20615 102.37419 93.21666
#
# Poissons Ratio (x) = 0.31757 0.43856
# Poissons Ratio (y) = 0.14954 0.31000
# Poissons Ratio (z) = 0.22680 0.34045
#
# Static dielectric constant tensor:
#      x y z
#    x 3.560810 0.000000 0.317130 
#    y 0.000000 4.291280 0.000000 
#    z 0.317130 0.000000 4.082930 
# 
# 
# High freq. dielectric constant tensor:
#      x y z
#    x 1.786160 0.000000 0.023230 
#    y 0.000000 1.844080 0.000000 
#    z 0.023230 0.000000 1.852340 
# 
# From -- ./inp_files/193867.got.cif
#   From: 2010.06.25/outbox.cif.g09.slc.cpg/sg15_97_cif.got.tgz:193867.got - 2010.06.28 07:06:18.
