data_PCOD8132714
_publ_section_title
;
Structure prediction by ZEFSAII (Michael W. Deem and Ramdas Pophale) SiO2 
 PCOD8132714
Probable space group: C 2/C
;
_chemical_formula_sum "Si O2"
_cell_formula_units_Z 52
_cell_length_a 13.495889
_cell_length_b 19.254880
_cell_length_c 15.001277
_cell_angle_alpha 90.000000
_cell_angle_beta 141.508776
_cell_angle_gamma 90.000000
_cell_volume 2426.255149
_symmetry_space_group_name_H-M "C 2/C"
_symmetry_group_IT_number 15
_symmetry_cell_setting 'monoclinic'
loop_
_space_group_symop_operation_xyz
x,y,z
-x,y,1/2-z
-x,-y,-z
x,-y,1/2+z
1/2+x,1/2+y,z
1/2-x,1/2+y,1/2-z
1/2-x,1/2-y,-z
1/2+x,1/2-y,1/2+z
loop_
_atom_site_type_symbol
_atom_site_label
_atom_site_fract_x
_atom_site_fract_y
_atom_site_fract_z
Si Si1 0.380598 0.309516 0.298929
Si Si2 0.516070 0.912640 0.422885
Si Si3 0.795408 0.682217 0.654668
Si Si4 0.000000 0.082955 0.750000
Si Si5 0.151984 0.554332 0.512644
Si Si6 0.137330 0.297135 0.978974
Si Si7 0.324111 0.339192 0.624733
O O1 0.349020 0.330337 0.378494
O O2 0.494126 0.366309 0.332262
O O3 0.211603 0.300882 0.130431
O O4 0.462823 0.234422 0.357321
O O5 0.446897 0.862034 0.297279
O O6 0.394029 0.925705 0.417701
O O7 0.684841 0.881376 0.579175
O O8 0.553755 0.988764 0.407139
O O9 0.734020 0.656657 0.517499
O O10 0.843785 0.763083 0.682312
O O11 0.158873 0.036165 0.861284
O O12 0.121977 0.623565 0.432022
O O13 0.250000 0.250000 0.000000
O O14 0.500000 0.374235 0.750000
#
# Coordination Sequence:
#
# PCOD8132714 Si02
#       7
#     8   8   8   4   8   8   8
#     4  11  21  35  65  95 134 175 220 282 335 406
#     4  11  22  43  67  97 133 177 228 277 348 411
#     4  11  22  42  66  93 132 173 228 283 343 396
#     4  10  18  40  64 102 134 178 220 272 346 408
#     4  10  22  38  69  96 134 185 219 271 347 419
#     4  11  19  37  59 100 134 174 222 271 337 406
#     4  11  25  41  65  97 127 175 229 289 336 399
#
# _framework density 21.432206999999998
#
# number of rings (size 3 to 8) (size 9 to 14) (size 15 to 20)
#    0.000    1.231    6.154    3.231    3.231    0.000 
#    0.000    3.077    0.000    4.615    0.000    0.000 
#    0.000    0.000    0.000    0.000    0.000    0.000 
#
# Total GULP energy -322184.894935 kJ/mol
# GULP energy per Si atom -12391.726728 kJ/mol
# Density = 2.138343 g / cm^3
# Si number density = 21.432207 Si / 1000 Ang^3
#
#
#
# Elastic Constant Matrix: (Units=GPa)
#
#
# Indices 1 2 3 4 5 6 
#
# 1 122.4360 29.2118 33.0638 0.0000 13.0909 0.0000
# 2 29.2118 132.7865 41.3893 0.0000 9.9402 0.0000
# 3 33.0638 41.3893 73.4765 0.0000 19.2379 0.0000
# 4 0.0000 0.0000 0.0000 37.8590 0.0000 9.2772
# 5 13.0909 9.9402 19.2379 0.0000 39.0815 0.0000
# 6 0.0000 0.0000 0.0000 9.2772 0.0000 31.9891
#
#
#
# Elastic Compliance Matrix: (Units=1/GPa)
#
#
# Indices 1 2 3 4 5 6 
#
# 1 0.009440 -0.000923 -0.003400 0.000000 -0.001254 0.000000
# 2 -0.000923 0.009227 -0.004877 0.000000 0.000363 0.000000
# 3 -0.003400 -0.004877 0.019818 0.000000 -0.007376 0.000000
# 4 0.000000 0.000000 0.000000 0.028434 0.000000 -0.008246
# 5 -0.001254 0.000363 -0.007376 0.000000 0.029546 0.000000
# 6 0.000000 0.000000 0.000000 -0.008246 0.000000 0.033652
#
#
# Mechanical properties :
#
#
# Convention : Reuss Voigt Hill
#
# Bulk Modulus (GPa) = 49.78810 59.55874 54.67342
# Shear Modulus (GPa) = 32.21379 36.78820 34.50099
#
# Velocity S-wave (km/s) = 3.88113 4.14755 4.01655
# Velocity P-wave (km/s) = 6.58522 7.12642 6.86116
#
# Compressibility (1/GPa) = 0.02008512
#
# Stress axis : x y z
#
# Youngs Moduli (GPa) = 105.93334 108.37738 50.45864
#
# Poissons Ratio (x) = 0.10005 0.17154
# Poissons Ratio (y) = 0.09780 0.24610
# Poissons Ratio (z) = 0.36013 0.52858
#
# Static dielectric constant tensor:
#      x y z
#    x 4.309800 0.000000 0.426690 
#    y 0.000000 4.234180 0.000000 
#    z 0.426690 0.000000 3.916570 
# 
# 
# High freq. dielectric constant tensor:
#      x y z
#    x 1.862250 0.000000 0.021210 
#    y 0.000000 1.836870 0.000000 
#    z 0.021210 0.000000 1.808820 
# 
# From -- ./inp_files/155563.got.cif
#   From: 2010.06.25/outbox.cif.g09.slc.cpg/sg15_78_cif.got.tgz:155563.got - 2010.06.28 07:06:18.
