data_PCOD8132217
_publ_section_title
;
Structure prediction by ZEFSAII (Michael W. Deem and Ramdas Pophale) SiO2 
 PCOD8132217
Probable space group: C 2/C
;
_chemical_formula_sum "Si O2"
_cell_formula_units_Z 44
_cell_length_a 26.796731
_cell_length_b 16.824915
_cell_length_c 16.144335
_cell_angle_alpha 90.000000
_cell_angle_beta 19.723425
_cell_angle_gamma 90.000000
_cell_volume 2456.422588
_symmetry_space_group_name_H-M "C 2/C"
_symmetry_group_IT_number 15
_symmetry_cell_setting 'monoclinic'
loop_
_space_group_symop_operation_xyz
x,y,z
-x,y,1/2-z
-x,-y,-z
x,-y,1/2+z
1/2+x,1/2+y,z
1/2-x,1/2+y,1/2-z
1/2-x,1/2-y,-z
1/2+x,1/2-y,1/2+z
loop_
_atom_site_type_symbol
_atom_site_label
_atom_site_fract_x
_atom_site_fract_y
_atom_site_fract_z
Si Si1 0.000000 0.441504 0.750000
Si Si2 0.270001 0.663210 0.135100
Si Si3 0.400930 0.443855 0.979999
Si Si4 0.532759 0.391550 0.318691
Si Si5 0.200515 0.156203 0.717820
Si Si6 0.091666 0.481872 0.938797
O O1 0.142450 0.386221 0.537123
O O2 0.007694 0.495408 0.655272
O O3 0.220472 0.749939 0.186362
O O4 0.128078 0.612369 0.386418
O O5 0.338118 0.616469 0.950418
O O6 0.395046 0.666420 0.011310
O O7 0.500000 0.412946 0.750000
O O8 0.477702 0.517635 0.906939
O O9 0.383781 0.369711 0.067818
O O10 0.241225 0.468278 0.196061
O O11 0.591872 0.366680 0.314350
O O12 0.000000 0.500000 0.000000
#
# Coordination Sequence:
#
# PCOD8132217 Si02
#       6
#     4   8   8   8   8   8
#     4  10  22  34  54  88 108 144 194 230 272 350
#     4  10  20  35  55  85 113 140 185 237 275 329
#     4  10  20  38  56  82 110 150 192 222 266 351
#     4  10  18  36  60  77 110 149 187 224 280 328
#     4  11  22  34  58  87 109 141 189 238 275 321
#     4  10  20  37  58  80 115 151 183 233 285 330
#
# _framework density 17.912227999999999
#
# number of rings (size 3 to 8) (size 9 to 14) (size 15 to 20)
#    0.000    1.818    3.636    3.273    0.000    2.909 
#    1.636    0.000    0.000    2.182    0.000    0.000 
#    0.000    0.000    0.000    0.000    0.000    0.000 
#
# Total GULP energy -272803.315717 kJ/mol
# GULP energy per Si atom -12400.150714 kJ/mol
# Density = 1.787146 g / cm^3
# Si number density = 17.912228 Si / 1000 Ang^3
#
#
#
# Elastic Constant Matrix: (Units=GPa)
#
#
# Indices 1 2 3 4 5 6 
#
# 1 136.2217 32.3133 61.0788 -0.0009 -7.0028 0.0032
# 2 32.3133 75.4539 42.3947 0.0082 0.9566 -0.0051
# 3 61.0788 42.3947 92.4572 0.0067 12.7099 -0.0053
# 4 -0.0009 0.0082 0.0067 19.9777 -0.0024 -5.0368
# 5 -7.0028 0.9566 12.7099 -0.0024 26.5943 0.0028
# 6 0.0032 -0.0051 -0.0053 -5.0368 0.0028 10.9111
#
#
#
# Elastic Compliance Matrix: (Units=1/GPa)
#
#
# Indices 1 2 3 4 5 6 
#
# 1 0.011588 -0.000271 -0.008511 0.000002 0.007128 -0.000008
# 2 -0.000271 0.018169 -0.008618 -0.000004 0.003394 0.000002
# 3 -0.008511 -0.008618 0.022108 -0.000003 -0.012497 0.000011
# 4 0.000002 -0.000004 -0.000003 0.056649 0.000005 0.026151
# 5 0.007128 0.003394 -0.012497 0.000005 0.045329 -0.000016
# 6 -0.000008 0.000002 0.000011 0.026151 -0.000016 0.103721
#
#
# Mechanical properties :
#
#
# Convention : Reuss Voigt Hill
#
# Bulk Modulus (GPa) = 58.60338 63.96739 61.28538
# Shear Modulus (GPa) = 16.77558 22.71969 19.74764
#
# Velocity S-wave (km/s) = 3.06362 3.56531 3.32394
# Velocity P-wave (km/s) = 6.73070 7.26207 7.00143
#
# Compressibility (1/GPa) = 0.01706386
#
# Stress axis : x y z
#
# Youngs Moduli (GPa) = 86.29814 55.04026 45.23274
#
# Poissons Ratio (x) = 0.01492 0.38496
# Poissons Ratio (y) = 0.02339 0.38983
# Poissons Ratio (z) = 0.73446 0.47436
#
# Static dielectric constant tensor:
#      x y z
#    x 3.670540 0.000000 0.059870 
#    y 0.000000 3.252870 0.000000 
#    z 0.059870 0.000000 3.474520 
# 
# 
# High freq. dielectric constant tensor:
#      x y z
#    x 1.700970 0.000000 -0.006750 
#    y 0.000000 1.682850 0.000000 
#    z -0.006750 0.000000 1.692870 
# 
# From -- ./inp_files/86057.got.cif
#   From: 2010.06.25/outbox.cif.g09.slc.cpg/sg15_44_cif.got.tgz:86057.got - 2010.06.28 07:06:18.
