data_PCOD8132340
_publ_section_title
;
Structure prediction by ZEFSAII (Michael W. Deem and Ramdas Pophale) SiO2 
 PCOD8132340
Probable space group: C 2/C
;
_chemical_formula_sum "Si O2"
_cell_formula_units_Z 40
_cell_length_a 23.152313
_cell_length_b 16.604764
_cell_length_c 14.519143
_cell_angle_alpha 90.000000
_cell_angle_beta 161.544338
_cell_angle_gamma 90.000000
_cell_volume 1767.009161
_symmetry_space_group_name_H-M "C 2/C"
_symmetry_group_IT_number 15
_symmetry_cell_setting 'monoclinic'
loop_
_space_group_symop_operation_xyz
x,y,z
-x,y,1/2-z
-x,-y,-z
x,-y,1/2+z
1/2+x,1/2+y,z
1/2-x,1/2+y,1/2-z
1/2-x,1/2-y,-z
1/2+x,1/2-y,1/2+z
loop_
_atom_site_type_symbol
_atom_site_label
_atom_site_fract_x
_atom_site_fract_y
_atom_site_fract_z
Si Si1 0.343670 0.339285 0.865945
Si Si2 0.665816 0.977611 0.374067
Si Si3 0.000000 0.278244 0.750000
Si Si4 0.234972 0.487748 0.275153
Si Si5 0.167265 0.105315 0.746224
Si Si6 0.000000 0.653900 0.750000
O O1 0.295193 0.419916 0.849868
O O2 0.153963 0.297970 0.541347
O O3 0.453815 0.277044 0.093588
O O4 0.470755 0.357838 0.970717
O O5 0.768083 0.962966 0.431380
O O6 0.620757 0.897254 0.361248
O O7 0.802357 0.028346 0.643121
O O8 0.477669 0.025372 0.071559
O O9 0.824810 0.331279 0.508053
O O10 0.341663 0.423993 0.372991
#
# Coordination Sequence:
#
# PCOD8132340 Si02
#       6
#     8   8   4   8   8   4
#     4  11  24  41  67  99 137 184 219 288 340 407
#     4  10  18  36  65  97 131 173 220 286 331 391
#     4  12  25  44  68 105 138 178 230 280 349 406
#     4  10  20  36  65  98 134 174 230 276 340 392
#     4  12  21  43  66 102 138 179 229 286 333 408
#     4  10  21  44  62  91 138 176 222 282 341 390
#
# _framework density 22.637122000000002
#
# number of rings (size 3 to 8) (size 9 to 14) (size 15 to 20)
#    0.000    1.200    6.000    2.400    0.000    0.000 
#    3.600    1.000    0.000    0.000    0.000    0.000 
#    0.000    0.000    0.000    0.000    0.000    0.000 
#
# Total GULP energy -247965.413531 kJ/mol
# GULP energy per Si atom -12398.270677 kJ/mol
# Density = 2.258560 g / cm^3
# Si number density = 22.637122 Si / 1000 Ang^3
#
#
#
# Elastic Constant Matrix: (Units=GPa)
#
#
# Indices 1 2 3 4 5 6 
#
# 1 160.3567 28.5690 35.0777 0.0000 -8.1048 0.0000
# 2 28.5690 53.5562 25.8226 0.0000 -4.7836 0.0000
# 3 35.0777 25.8226 93.8043 0.0000 4.8076 0.0000
# 4 0.0000 0.0000 0.0000 27.9062 0.0000 -6.7479
# 5 -8.1048 -4.7836 4.8076 0.0000 30.9642 0.0000
# 6 0.0000 0.0000 0.0000 -6.7479 0.0000 14.5526
#
#
#
# Elastic Compliance Matrix: (Units=1/GPa)
#
#
# Indices 1 2 3 4 5 6 
#
# 1 0.007262 -0.002720 -0.002059 0.000000 0.001800 0.000000
# 2 -0.002720 0.023126 -0.005540 0.000000 0.003721 0.000000
# 3 -0.002059 -0.005540 0.013131 0.000000 -0.003434 0.000000
# 4 0.000000 0.000000 0.000000 0.040360 0.000000 0.018715
# 5 0.001800 0.003721 -0.003434 0.000000 0.033875 0.000000
# 6 0.000000 0.000000 0.000000 0.018715 0.000000 0.077394
#
#
# Mechanical properties :
#
#
# Convention : Reuss Voigt Hill
#
# Bulk Modulus (GPa) = 43.70282 54.07285 48.88783
# Shear Modulus (GPa) = 22.37998 29.23445 25.80721
#
# Velocity S-wave (km/s) = 3.14768 3.59756 3.38011
# Velocity P-wave (km/s) = 5.70598 6.41835 6.07262
#
# Compressibility (1/GPa) = 0.02288182
#
# Stress axis : x y z
#
# Youngs Moduli (GPa) = 137.70019 43.24049 76.15317
#
# Poissons Ratio (x) = 0.11763 0.15680
# Poissons Ratio (y) = 0.37459 0.42187
# Poissons Ratio (z) = 0.28353 0.23954
#
# Static dielectric constant tensor:
#      x y z
#    x 4.310030 0.000000 -0.016640 
#    y 0.000000 3.728600 0.000000 
#    z -0.016640 0.000000 4.385180 
# 
# 
# High freq. dielectric constant tensor:
#      x y z
#    x 1.902120 0.000000 0.002480 
#    y 0.000000 1.846330 0.000000 
#    z 0.002480 0.000000 1.912670 
# 
# From -- ./inp_files/174149.got.cif
#   From: 2010.06.25/outbox.cif.g09.slc.cpg/sg15_88_cif.got.tgz:174149.got - 2010.06.28 07:06:18.
