data_PCOD8132296
_publ_section_title
;
Structure prediction by ZEFSAII (Michael W. Deem and Ramdas Pophale) SiO2 
 PCOD8132296
Probable space group: C 2/C
;
_chemical_formula_sum "Si O2"
_cell_formula_units_Z 48
_cell_length_a 9.225130
_cell_length_b 29.369852
_cell_length_c 8.819139
_cell_angle_alpha 90.000000
_cell_angle_beta 112.718115
_cell_angle_gamma 90.000000
_cell_volume 2204.079644
_symmetry_space_group_name_H-M "C 2/C"
_symmetry_group_IT_number 15
_symmetry_cell_setting 'monoclinic'
loop_
_space_group_symop_operation_xyz
x,y,z
-x,y,1/2-z
-x,-y,-z
x,-y,1/2+z
1/2+x,1/2+y,z
1/2-x,1/2+y,1/2-z
1/2-x,1/2-y,-z
1/2+x,1/2-y,1/2+z
loop_
_atom_site_type_symbol
_atom_site_label
_atom_site_fract_x
_atom_site_fract_y
_atom_site_fract_z
Si Si1 0.325780 0.033763 0.748518
Si Si2 0.120103 0.281176 0.656920
Si Si3 0.843233 0.384631 0.477482
Si Si4 0.167584 0.962357 0.876301
Si Si5 0.798331 0.621804 0.299114
Si Si6 0.184290 0.717079 0.604661
O O1 0.500000 0.035528 0.750000
O O2 0.287065 0.077815 0.835076
O O3 0.193022 0.030803 0.565012
O O4 0.307104 0.988850 0.844072
O O5 0.238043 0.324377 0.699399
O O6 0.226793 0.235700 0.709478
O O7 0.000000 0.290374 0.750000
O O8 0.005925 0.277154 0.464057
O O9 0.779510 0.395690 0.619100
O O10 0.772927 0.335797 0.397969
O O11 0.030385 0.384867 0.559571
O O12 0.178690 0.908338 0.847924
O O13 0.000000 0.981030 0.750000
O O14 0.250000 0.750000 0.500000
#
# Coordination Sequence:
#
# PCOD8132296 Si02
#       6
#     8   8   8   8   8   8
#     4  12  25  43  69  93 118 166 216 253 310 382
#     4   9  15  28  53  86 120 152 200 252 292 346
#     4  10  19  35  63  97 119 156 216 261 288 364
#     4  12  27  45  62  91 131 159 201 266 324 373
#     4  10  18  36  63  87 125 162 205 251 311 358
#     4   9  15  30  51  89 123 153 199 255 292 347
#
# _framework density 21.777795999999999
#
# number of rings (size 3 to 8) (size 9 to 14) (size 15 to 20)
#    0.000    1.667    6.667    2.000    2.333    0.000 
#    3.000    2.500    0.000    2.000    0.000    0.000 
#    0.000    0.000    0.000    0.000    0.000    0.000 
#
# Total GULP energy -297458.784813 kJ/mol
# GULP energy per Si atom -12394.116034 kJ/mol
# Density = 2.172823 g / cm^3
# Si number density = 21.777796 Si / 1000 Ang^3
#
#
#
# Elastic Constant Matrix: (Units=GPa)
#
#
# Indices 1 2 3 4 5 6 
#
# 1 33.8007 27.5574 16.8645 0.0000 4.0788 0.0000
# 2 27.5574 137.8613 44.3608 0.0000 1.4504 0.0000
# 3 16.8645 44.3608 117.1097 0.0000 14.7682 0.0000
# 4 0.0000 0.0000 0.0000 34.0954 0.0000 3.6778
# 5 4.0788 1.4504 14.7682 0.0000 21.6522 0.0000
# 6 0.0000 0.0000 0.0000 3.6778 0.0000 26.9746
#
#
#
# Elastic Compliance Matrix: (Units=1/GPa)
#
#
# Indices 1 2 3 4 5 6 
#
# 1 0.036622 -0.006575 -0.002154 0.000000 -0.004989 0.000000
# 2 -0.006575 0.009501 -0.002985 0.000000 0.002638 0.000000
# 3 -0.002154 -0.002985 0.010835 0.000000 -0.006785 0.000000
# 4 0.000000 0.000000 0.000000 0.029767 0.000000 -0.004059
# 5 -0.004989 0.002638 -0.006785 0.000000 0.051575 0.000000
# 6 0.000000 0.000000 0.000000 -0.004059 0.000000 0.037625
#
#
# Mechanical properties :
#
#
# Convention : Reuss Voigt Hill
#
# Bulk Modulus (GPa) = 29.82312 51.81525 40.81918
# Shear Modulus (GPa) = 23.74955 29.87706 26.81330
#
# Velocity S-wave (km/s) = 3.30591 3.70794 3.51268
# Velocity P-wave (km/s) = 5.31941 6.49431 5.93600
#
# Compressibility (1/GPa) = 0.03353103
#
# Stress axis : x y z
#
# Youngs Moduli (GPa) = 27.30570 105.25700 92.29051
#
# Poissons Ratio (x) = 0.69205 0.19881
# Poissons Ratio (y) = 0.17953 0.27545
# Poissons Ratio (z) = 0.05882 0.31415
#
# Static dielectric constant tensor:
#      x y z
#    x 3.529350 0.000000 0.391890 
#    y 0.000000 4.149820 0.000000 
#    z 0.391890 0.000000 4.531280 
# 
# 
# High freq. dielectric constant tensor:
#      x y z
#    x 1.807600 0.000000 0.015210 
#    y 0.000000 1.866650 0.000000 
#    z 0.015210 0.000000 1.856700 
# 
# From -- ./inp_files/33793.got.cif
#   From: 2010.06.25/outbox.cif.g09.slc.cpg/sg15_17_cif.got.tgz:33793.got - 2010.06.28 07:06:18.
