data_PCOD8132583
_publ_section_title
;
Structure prediction by ZEFSAII (Michael W. Deem and Ramdas Pophale) SiO2 
 PCOD8132583
Probable space group: C 2/C
;
_chemical_formula_sum "Si O2"
_cell_formula_units_Z 48
_cell_length_a 16.016687
_cell_length_b 13.236178
_cell_length_c 20.809634
_cell_angle_alpha 90.000000
_cell_angle_beta 149.372037
_cell_angle_gamma 90.000000
_cell_volume 2247.558714
_symmetry_space_group_name_H-M "C 2/C"
_symmetry_group_IT_number 15
_symmetry_cell_setting 'monoclinic'
loop_
_space_group_symop_operation_xyz
x,y,z
-x,y,1/2-z
-x,-y,-z
x,-y,1/2+z
1/2+x,1/2+y,z
1/2-x,1/2+y,1/2-z
1/2-x,1/2-y,-z
1/2+x,1/2-y,1/2+z
loop_
_atom_site_type_symbol
_atom_site_label
_atom_site_fract_x
_atom_site_fract_y
_atom_site_fract_z
Si Si1 0.972948 0.748080 0.607826
Si Si2 0.315291 0.504874 0.652938
Si Si3 0.231307 0.586673 0.969724
Si Si4 0.638627 0.809593 0.012632
Si Si5 0.187060 0.318531 0.632922
Si Si6 0.174556 0.624632 0.391821
O O1 0.905171 0.675710 0.620542
O O2 0.909140 0.862181 0.578747
O O3 0.905976 0.719014 0.492875
O O4 0.169730 0.743519 0.746525
O O5 0.500000 0.511397 0.750000
O O6 0.207441 0.464050 0.522902
O O7 0.248289 0.615319 0.630278
O O8 0.278108 0.426482 0.685644
O O9 0.207543 0.495693 0.902275
O O10 0.447112 0.824182 0.899915
O O11 0.683674 0.845314 0.971599
O O12 0.690942 0.692373 0.057358
O O13 0.000000 0.656159 0.250000
#
# Coordination Sequence:
#
# PCOD8132583 Si02
#       6
#     8   8   8   8   8   8
#     4  10  22  38  64  92 127 161 204 262 309 369
#     4  10  18  38  64  89 118 163 211 252 300 371
#     4   9  20  37  61  92 118 161 208 247 313 366
#     4  10  23  40  60  91 121 168 210 252 311 378
#     4  11  23  39  63  95 126 163 205 265 310 368
#     4  10  22  40  63  85 122 166 206 257 309 382
#
# _framework density 21.356504999999999
#
# number of rings (size 3 to 8) (size 9 to 14) (size 15 to 20)
#    0.000    2.000    1.667    1.000    4.667    0.000 
#    0.000    4.167    0.000    0.000    0.000    0.000 
#    0.000    0.000    0.000    0.000    0.000    0.000 
#
# Total GULP energy -297334.103472 kJ/mol
# GULP energy per Si atom -12388.920978 kJ/mol
# Density = 2.130790 g / cm^3
# Si number density = 21.356505 Si / 1000 Ang^3
#
#
#
# Elastic Constant Matrix: (Units=GPa)
#
#
# Indices 1 2 3 4 5 6 
#
# 1 60.8389 40.0849 29.8485 0.0017 35.4058 -0.0002
# 2 40.0849 147.6111 49.1982 -0.0010 25.6983 0.0009
# 3 29.8485 49.1982 119.0457 0.0025 31.2340 0.0004
# 4 0.0017 -0.0010 0.0025 26.4171 0.0004 3.3561
# 5 35.4058 25.6983 31.2340 0.0004 44.9097 0.0001
# 6 -0.0002 0.0009 0.0004 3.3561 0.0001 15.4470
#
#
#
# Elastic Compliance Matrix: (Units=1/GPa)
#
#
# Indices 1 2 3 4 5 6 
#
# 1 0.033372 -0.004930 -0.000205 -0.000002 -0.023346 0.000001
# 2 -0.004930 0.008870 -0.002590 0.000001 0.000612 -0.000001
# 3 -0.000205 -0.002590 0.011120 -0.000001 -0.006090 0.000000
# 4 -0.000002 0.000001 -0.000001 0.038929 0.000002 -0.008458
# 5 -0.023346 0.000612 -0.006090 0.000002 0.044558 -0.000001
# 6 0.000001 -0.000001 0.000000 -0.008458 -0.000001 0.066575
#
#
# Mechanical properties :
#
#
# Convention : Reuss Voigt Hill
#
# Bulk Modulus (GPa) = 26.37666 62.86211 44.61938
# Shear Modulus (GPa) = 21.59730 31.24571 26.42150
#
# Velocity S-wave (km/s) = 3.18350 3.82914 3.52115
# Velocity P-wave (km/s) = 5.08826 7.00345 6.12122
#
# Compressibility (1/GPa) = 0.03791230
#
# Stress axis : x y z
#
# Youngs Moduli (GPa) = 29.96525 112.73971 89.92950
#
# Poissons Ratio (x) = 0.55577 0.01841
# Poissons Ratio (y) = 0.14772 0.23295
# Poissons Ratio (z) = 0.00613 0.29204
#
# Static dielectric constant tensor:
#      x y z
#    x 3.544870 0.000000 0.081870 
#    y 0.000000 4.506130 -0.000020 
#    z 0.081870 -0.000020 3.726260 
# 
# 
# High freq. dielectric constant tensor:
#      x y z
#    x 1.802680 0.000000 0.014680 
#    y 0.000000 1.851580 0.000000 
#    z 0.014680 0.000000 1.830320 
# 
# From -- ./inp_files/277312.got.cif
#   From: 2010.06.25/outbox.cif.g09.slc.cpg/sg15_139_cif.got.tgz:277312.got - 2010.06.28 07:06:18.
