data_PCOD8132916
_publ_section_title
;
Structure prediction by ZEFSAII (Michael W. Deem and Ramdas Pophale) SiO2 
 PCOD8132916
Probable space group: C 2/C
;
_chemical_formula_sum "Si O2"
_cell_formula_units_Z 56
_cell_length_a 30.832055
_cell_length_b 16.213379
_cell_length_c 9.566956
_cell_angle_alpha 90.000000
_cell_angle_beta 39.586813
_cell_angle_gamma 90.000000
_cell_volume 3047.595570
_symmetry_space_group_name_H-M "C 2/C"
_symmetry_group_IT_number 15
_symmetry_cell_setting 'monoclinic'
loop_
_space_group_symop_operation_xyz
x,y,z
-x,y,1/2-z
-x,-y,-z
x,-y,1/2+z
1/2+x,1/2+y,z
1/2-x,1/2+y,1/2-z
1/2-x,1/2-y,-z
1/2+x,1/2-y,1/2+z
loop_
_atom_site_type_symbol
_atom_site_label
_atom_site_fract_x
_atom_site_fract_y
_atom_site_fract_z
Si Si1 0.579440 0.927942 0.562140
Si Si2 0.679554 0.705383 0.525452
Si Si3 0.421350 0.737945 0.952730
Si Si4 0.721228 0.851782 0.930501
Si Si5 0.178060 0.824117 0.581427
Si Si6 0.655293 0.985661 0.635456
Si Si7 0.773639 0.863097 0.318151
O O1 0.500000 0.948082 0.750000
O O2 0.593247 0.834278 0.473699
O O3 0.605224 0.935196 0.657840
O O4 0.618589 0.997069 0.374271
O O5 0.606855 0.718962 0.632534
O O6 0.720779 0.640078 0.329965
O O7 0.717957 0.792345 0.432449
O O8 0.672945 0.664299 0.694544
O O9 0.500000 0.717029 0.750000
O O10 0.387866 0.677082 0.153135
O O11 0.754535 0.851310 0.002343
O O12 0.669114 0.925211 0.034670
O O13 0.681428 0.767047 0.008881
O O14 0.180268 0.881318 0.435898
O O15 0.728794 0.942182 0.474314
#
# Coordination Sequence:
#
# PCOD8132916 Si02
#       7
#     8   8   8   8   8   8   8
#     4  11  23  35  48  72 113 151 181 204 239 308
#     4   9  18  34  48  75 104 135 168 228 263 303
#     4  10  19  36  56  72  99 149 188 206 242 317
#     4   9  17  29  53  73 103 132 175 210 268 298
#     4   9  17  34  52  76  98 138 174 227 251 310
#     4  12  20  34  53  81 104 147 172 215 259 323
#     4  10  19  30  53  77 107 129 171 223 286 291
#
# _framework density 18.375142
#
# number of rings (size 3 to 8) (size 9 to 14) (size 15 to 20)
#    0.000    2.000    2.857    3.000    0.000    0.000 
#    0.000    0.714    0.000    0.000    0.000   16.000 
#    0.000    0.000    0.000    0.000    0.000    0.000 
#
# Total GULP energy -346949.197158 kJ/mol
# GULP energy per Si atom -12391.042756 kJ/mol
# Density = 1.833332 g / cm^3
# Si number density = 18.375142 Si / 1000 Ang^3
#
#
#
# Elastic Constant Matrix: (Units=GPa)
#
#
# Indices 1 2 3 4 5 6 
#
# 1 101.2643 11.0765 46.1506 0.0000 1.9237 0.0000
# 2 11.0765 37.4056 19.3990 0.0000 -5.5686 0.0000
# 3 46.1506 19.3990 93.0833 0.0000 5.2834 0.0000
# 4 0.0000 0.0000 0.0000 27.2322 0.0000 -4.0154
# 5 1.9237 -5.5686 5.2834 0.0000 31.3024 0.0000
# 6 0.0000 0.0000 0.0000 -4.0154 0.0000 17.9811
#
#
#
# Elastic Compliance Matrix: (Units=1/GPa)
#
#
# Indices 1 2 3 4 5 6 
#
# 1 0.012769 -0.000523 -0.006232 0.000000 0.000174 0.000000
# 2 -0.000523 0.031342 -0.006654 0.000000 0.006731 0.000000
# 3 -0.006232 -0.006654 0.015413 0.000000 -0.003402 0.000000
# 4 0.000000 0.000000 0.000000 0.037971 0.000000 0.008479
# 5 0.000174 0.006731 -0.003402 0.000000 0.033707 0.000000
# 6 0.000000 0.000000 0.000000 0.008479 0.000000 0.057507
#
#
# Mechanical properties :
#
#
# Convention : Reuss Voigt Hill
#
# Bulk Modulus (GPa) = 30.57655 42.77839 36.67747
# Shear Modulus (GPa) = 22.08179 25.64495 23.86337
#
# Velocity S-wave (km/s) = 3.47035 3.73987 3.60763
# Velocity P-wave (km/s) = 5.72137 6.47919 6.11204
#
# Compressibility (1/GPa) = 0.03270480
#
# Stress axis : x y z
#
# Youngs Moduli (GPa) = 78.31362 31.90601 64.88174
#
# Poissons Ratio (x) = 0.01670 0.40432
# Poissons Ratio (y) = 0.04099 0.43175
# Poissons Ratio (z) = 0.48803 0.21231
#
# Static dielectric constant tensor:
#      x y z
#    x 3.315010 0.000000 0.228270 
#    y 0.000000 3.229590 0.000000 
#    z 0.228270 0.000000 3.380910 
# 
# 
# High freq. dielectric constant tensor:
#      x y z
#    x 1.700400 0.000000 0.021290 
#    y 0.000000 1.688600 0.000000 
#    z 0.021290 0.000000 1.701810 
# 
# From -- ./inp_files/56471.got.cif
#   From: 2010.06.25/outbox.cif.g09.slc.cpg/sg15_29_cif.got.tgz:56471.got - 2010.06.28 07:06:18.
