data_PCOD8132504
_publ_section_title
;
Structure prediction by ZEFSAII (Michael W. Deem and Ramdas Pophale) SiO2 
 PCOD8132504
Probable space group: C 2/C
;
_chemical_formula_sum "Si O2"
_cell_formula_units_Z 44
_cell_length_a 12.093723
_cell_length_b 12.421570
_cell_length_c 22.895981
_cell_angle_alpha 90.000000
_cell_angle_beta 136.153422
_cell_angle_gamma 90.000000
_cell_volume 2382.646249
_symmetry_space_group_name_H-M "C 2/C"
_symmetry_group_IT_number 15
_symmetry_cell_setting 'monoclinic'
loop_
_space_group_symop_operation_xyz
x,y,z
-x,y,1/2-z
-x,-y,-z
x,-y,1/2+z
1/2+x,1/2+y,z
1/2-x,1/2+y,1/2-z
1/2-x,1/2-y,-z
1/2+x,1/2-y,1/2+z
loop_
_atom_site_type_symbol
_atom_site_label
_atom_site_fract_x
_atom_site_fract_y
_atom_site_fract_z
Si Si1 0.539241 0.605189 0.331347
Si Si2 0.907538 0.604236 0.484872
Si Si3 0.000000 0.498384 0.250000
Si Si4 0.078230 0.835744 0.032340
Si Si5 0.347739 0.465919 0.865546
Si Si6 0.083638 0.339949 0.382963
O O1 0.500000 0.574301 0.250000
O O2 0.721332 0.573922 0.413979
O O3 0.419373 0.540587 0.328030
O O4 0.505486 0.730391 0.330099
O O5 0.947379 0.709718 0.459316
O O6 0.973890 0.633590 0.574120
O O7 0.000000 0.500000 0.500000
O O8 0.839692 0.566551 0.202543
O O9 0.975433 0.431394 0.182306
O O10 0.223957 0.832869 0.041721
O O11 0.125287 0.908846 0.105750
O O12 0.927439 0.884852 0.941821
#
# Coordination Sequence:
#
# PCOD8132504 Si02
#       6
#     8   8   4   8   8   8
#     4  11  21  37  62  87 113 152 194 245 279 335
#     4  11  22  37  59  89 116 151 196 242 284 339
#     4  10  22  32  60  88 114 154 188 242 284 340
#     4   9  18  37  63  79 109 155 196 233 284 346
#     4  10  19  36  61  86 115 149 196 233 290 345
#     4  10  18  38  59  85 109 151 208 233 266 340
#
# _framework density 18.466861999999999
#
# number of rings (size 3 to 8) (size 9 to 14) (size 15 to 20)
#    0.000    1.818    4.545    1.091    2.545    0.000 
#    0.000    0.909    6.000    0.000    0.000    0.000 
#    0.000    0.000    0.000    0.000    0.000    0.000 
#
# Total GULP energy -272735.270462 kJ/mol
# GULP energy per Si atom -12397.057748 kJ/mol
# Density = 1.842483 g / cm^3
# Si number density = 18.466862 Si / 1000 Ang^3
#
#
#
# Elastic Constant Matrix: (Units=GPa)
#
#
# Indices 1 2 3 4 5 6 
#
# 1 116.6654 56.1111 49.5482 0.0000 2.2962 0.0000
# 2 56.1111 104.1552 24.0147 0.0000 12.6124 0.0000
# 3 49.5482 24.0147 88.7172 0.0000 9.3982 0.0000
# 4 0.0000 0.0000 0.0000 20.2567 0.0000 0.5589
# 5 2.2962 12.6124 9.3982 0.0000 32.5658 0.0000
# 6 0.0000 0.0000 0.0000 0.5589 0.0000 33.7781
#
#
#
# Elastic Compliance Matrix: (Units=1/GPa)
#
#
# Indices 1 2 3 4 5 6 
#
# 1 0.014588 -0.006741 -0.006695 0.000000 0.003514 0.000000
# 2 -0.006741 0.013703 0.000585 0.000000 -0.005001 0.000000
# 3 -0.006695 0.000585 0.015294 0.000000 -0.004168 0.000000
# 4 0.000000 0.000000 0.000000 0.049389 0.000000 -0.000817
# 5 0.003514 -0.005001 -0.004168 0.000000 0.033599 0.000000
# 6 0.000000 0.000000 0.000000 -0.000817 0.000000 0.029619
#
#
# Mechanical properties :
#
#
# Convention : Reuss Voigt Hill
#
# Bulk Modulus (GPa) = 55.91592 63.20952 59.56272
# Shear Modulus (GPa) = 26.61657 29.31103 27.96380
#
# Velocity S-wave (km/s) = 3.80058 3.98832 3.89558
# Velocity P-wave (km/s) = 7.04301 7.45063 7.24969
#
# Compressibility (1/GPa) = 0.01788399
#
# Stress axis : x y z
#
# Youngs Moduli (GPa) = 68.55126 72.97645 65.38528
#
# Poissons Ratio (x) = 0.49191 0.43774
# Poissons Ratio (y) = 0.46208 -0.03826
# Poissons Ratio (z) = 0.45894 -0.04270
#
# Static dielectric constant tensor:
#      x y z
#    x 3.328580 0.000000 0.061790 
#    y 0.000000 3.427040 0.000000 
#    z 0.061790 0.000000 3.480570 
# 
# 
# High freq. dielectric constant tensor:
#      x y z
#    x 1.699380 0.000000 -0.002060 
#    y 0.000000 1.701640 0.000000 
#    z -0.002060 0.000000 1.724860 
# 
# From -- ./inp_files/142946.got.cif
#   From: 2010.06.25/outbox.cif.g09.slc.cpg/sg15_72_cif.got.tgz:142946.got - 2010.06.28 07:06:18.
