data_PCOD8132423
_publ_section_title
;
Structure prediction by ZEFSAII (Michael W. Deem and Ramdas Pophale) SiO2 
 PCOD8132423
Probable space group: C 2/C
;
_chemical_formula_sum "Si O2"
_cell_formula_units_Z 52
_cell_length_a 10.288465
_cell_length_b 16.046562
_cell_length_c 19.573413
_cell_angle_alpha 90.000000
_cell_angle_beta 121.812126
_cell_angle_gamma 90.000000
_cell_volume 2746.036060
_symmetry_space_group_name_H-M "C 2/C"
_symmetry_group_IT_number 15
_symmetry_cell_setting 'monoclinic'
loop_
_space_group_symop_operation_xyz
x,y,z
-x,y,1/2-z
-x,-y,-z
x,-y,1/2+z
1/2+x,1/2+y,z
1/2-x,1/2+y,1/2-z
1/2-x,1/2-y,-z
1/2+x,1/2-y,1/2+z
loop_
_atom_site_type_symbol
_atom_site_label
_atom_site_fract_x
_atom_site_fract_y
_atom_site_fract_z
Si Si1 0.512702 0.598420 0.630858
Si Si2 0.500000 0.282156 0.250000
Si Si3 0.032789 0.079550 0.336296
Si Si4 0.402720 0.726892 0.501392
Si Si5 0.815024 0.215061 0.322081
Si Si6 0.160040 0.345599 0.284236
Si Si7 0.229094 0.279277 0.572461
O O1 0.449212 0.659399 0.672740
O O2 0.444389 0.506247 0.616188
O O3 0.458611 0.636265 0.543468
O O4 0.697766 0.592879 0.688686
O O5 0.632440 0.218497 0.265117
O O6 0.185988 0.132864 0.391793
O O7 0.000000 0.054053 0.250000
O O8 0.879373 0.126547 0.316739
O O9 0.250000 0.750000 0.500000
O O10 0.366757 0.727234 0.412887
O O11 0.551165 0.788526 0.547911
O O12 0.877633 0.288545 0.291854
O O13 0.190618 0.288607 0.358168
O O14 0.000000 0.396192 0.250000
O O15 0.250000 0.250000 0.500000
#
# Coordination Sequence:
#
# PCOD8132423 Si02
#       7
#     8   4   8   8   8   8   8
#     4  10  23  36  60  87 122 154 193 250 313 350
#     4  10  20  38  62  86 114 160 198 238 298 364
#     4  12  22  39  61  90 120 156 203 253 302 356
#     4  11  22  38  62  87 120 160 202 248 303 361
#     4  11  20  36  64  86 117 156 208 245 292 364
#     4  10  18  37  61  88 110 158 207 244 291 365
#     4  11  20  37  62  89 115 159 207 246 292 366
#
# _framework density 18.936385999999999
#
# number of rings (size 3 to 8) (size 9 to 14) (size 15 to 20)
#    0.000    1.231    6.923    0.000    0.000    0.615 
#    1.385    0.769    0.000    0.000    0.000    0.000 
#    0.000    0.000    0.000    0.000    0.000    0.000 
#
# Total GULP energy -322176.556745 kJ/mol
# GULP energy per Si atom -12391.406029 kJ/mol
# Density = 1.889329 g / cm^3
# Si number density = 18.936386 Si / 1000 Ang^3
#
#
#
# Elastic Constant Matrix: (Units=GPa)
#
#
# Indices 1 2 3 4 5 6 
#
# 1 131.7236 38.1682 26.2997 0.0000 20.2304 0.0000
# 2 38.1682 97.4184 30.9090 0.0000 10.4736 0.0000
# 3 26.2997 30.9090 84.0334 0.0000 -13.2453 0.0000
# 4 0.0000 0.0000 0.0000 17.3032 0.0000 -3.3871
# 5 20.2304 10.4736 -13.2453 0.0000 30.5642 0.0000
# 6 0.0000 0.0000 0.0000 -3.3871 0.0000 23.5963
#
#
#
# Elastic Compliance Matrix: (Units=1/GPa)
#
#
# Indices 1 2 3 4 5 6 
#
# 1 0.010041 -0.001983 -0.003599 0.000000 -0.007526 0.000000
# 2 -0.001983 0.013248 -0.005110 0.000000 -0.005442 0.000000
# 3 -0.003599 -0.005110 0.016698 0.000000 0.011370 0.000000
# 4 0.000000 0.000000 0.000000 0.059464 0.000000 0.008536
# 5 -0.007526 -0.005442 0.011370 0.000000 0.044492 0.000000
# 6 0.000000 0.000000 0.000000 0.008536 0.000000 0.043605
#
#
# Mechanical properties :
#
#
# Convention : Reuss Voigt Hill
#
# Bulk Modulus (GPa) = 53.75599 55.99212 54.87406
# Shear Modulus (GPa) = 23.24140 28.81263 26.02701
#
# Velocity S-wave (km/s) = 3.50714 3.90493 3.71137
# Velocity P-wave (km/s) = 6.69697 7.06853 6.88525
#
# Compressibility (1/GPa) = 0.01860258
#
# Stress axis : x y z
#
# Youngs Moduli (GPa) = 99.59417 75.48155 59.88634
#
# Poissons Ratio (x) = 0.14966 0.21556
# Poissons Ratio (y) = 0.19747 0.30603
# Poissons Ratio (z) = 0.35848 0.38573
#
# Static dielectric constant tensor:
#      x y z
#    x 3.939580 0.000000 0.105490 
#    y 0.000000 4.007640 0.000000 
#    z 0.105490 0.000000 3.706490 
# 
# 
# High freq. dielectric constant tensor:
#      x y z
#    x 1.759620 0.000000 -0.003930 
#    y 0.000000 1.688070 0.000000 
#    z -0.003930 0.000000 1.751530 
# 
# From -- ./inp_files/238823.got.cif
#   From: 2010.06.25/outbox.cif.g09.slc.cpg/sg15_120_cif.got.tgz:238823.got - 2010.06.28 07:06:18.
