data_PCOD8132885
_publ_section_title
;
Structure prediction by ZEFSAII (Michael W. Deem and Ramdas Pophale) SiO2 
 PCOD8132885
Probable space group: C 2/C
;
_chemical_formula_sum "Si O2"
_cell_formula_units_Z 56
_cell_length_a 24.008568
_cell_length_b 11.854983
_cell_length_c 12.913109
_cell_angle_alpha 90.000000
_cell_angle_beta 62.827154
_cell_angle_gamma 90.000000
_cell_volume 3269.707076
_symmetry_space_group_name_H-M "C 2/C"
_symmetry_group_IT_number 15
_symmetry_cell_setting 'monoclinic'
loop_
_space_group_symop_operation_xyz
x,y,z
-x,y,1/2-z
-x,-y,-z
x,-y,1/2+z
1/2+x,1/2+y,z
1/2-x,1/2+y,1/2-z
1/2-x,1/2-y,-z
1/2+x,1/2-y,1/2+z
loop_
_atom_site_type_symbol
_atom_site_label
_atom_site_fract_x
_atom_site_fract_y
_atom_site_fract_z
Si Si1 0.831766 0.431526 0.260795
Si Si2 0.069274 0.592942 0.416626
Si Si3 0.270957 0.713695 0.367640
Si Si4 0.733898 0.465747 0.174413
Si Si5 0.825987 0.604405 0.425988
Si Si6 0.672694 0.251359 0.272008
Si Si7 0.543361 0.955233 0.617369
O O1 0.897027 0.481049 0.161845
O O2 0.826513 0.295339 0.276150
O O3 0.775735 0.485608 0.240519
O O4 0.823038 0.477296 0.384420
O O5 0.103680 0.709519 0.361000
O O6 0.067775 0.570693 0.541586
O O7 0.999505 0.608359 0.431158
O O8 0.250000 0.750000 0.500000
O O9 0.292737 0.582668 0.349619
O O10 0.214796 0.720072 0.334239
O O11 0.674470 0.386170 0.251881
O O12 0.777330 0.391098 0.060835
O O13 0.806595 0.691587 0.352766
O O14 0.898018 0.625020 0.402395
O O15 0.500000 0.988497 0.750000
#
# Coordination Sequence:
#
# PCOD8132885 Si02
#       7
#     8   8   8   8   8   8   8
#     4  10  19  30  48  71 110 133 174 219 255 317
#     4  10  20  34  49  83 107 133 176 225 270 319
#     4  11  20  31  50  73 104 149 175 209 262 320
#     4  11  20  34  49  75 110 146 173 212 268 317
#     4  11  18  33  51  78 105 137 177 220 266 317
#     4  10  21  33  50  74 111 141 173 220 262 327
#     4  11  19  30  57  77 108 137 176 226 280 304
#
# _framework density 17.126918
#
# number of rings (size 3 to 8) (size 9 to 14) (size 15 to 20)
#    0.000    1.429    8.571    0.429    0.000    0.000 
#    0.000    0.000    0.000    0.000    0.000    8.000 
#    0.000    0.143    0.000    0.000    0.000    0.000 
#
# Total GULP energy -346870.802376 kJ/mol
# GULP energy per Si atom -12388.242942 kJ/mol
# Density = 1.708794 g / cm^3
# Si number density = 17.126918 Si / 1000 Ang^3
#
#
#
# Elastic Constant Matrix: (Units=GPa)
#
#
# Indices 1 2 3 4 5 6 
#
# 1 74.9112 32.8910 21.3255 0.0000 11.2756 0.0000
# 2 32.8910 106.9535 25.1558 0.0000 -3.3614 0.0000
# 3 21.3255 25.1558 70.0037 0.0000 4.3011 0.0000
# 4 0.0000 0.0000 0.0000 25.7036 0.0000 -1.0404
# 5 11.2756 -3.3614 4.3011 0.0000 28.3865 0.0000
# 6 0.0000 0.0000 0.0000 -1.0404 0.0000 17.0406
#
#
#
# Elastic Compliance Matrix: (Units=1/GPa)
#
#
# Indices 1 2 3 4 5 6 
#
# 1 0.017424 -0.004841 -0.003137 0.000000 -0.007019 0.000000
# 2 -0.004841 0.011648 -0.002941 0.000000 0.003748 0.000000
# 3 -0.003137 -0.002941 0.016395 0.000000 -0.001586 0.000000
# 4 0.000000 0.000000 0.000000 0.039001 0.000000 0.002381
# 5 -0.007019 0.003748 -0.001586 0.000000 0.038700 0.000000
# 6 0.000000 0.000000 0.000000 0.002381 0.000000 0.058829
#
#
# Mechanical properties :
#
#
# Convention : Reuss Voigt Hill
#
# Bulk Modulus (GPa) = 42.32182 45.62367 43.97275
# Shear Modulus (GPa) = 23.61682 25.72588 24.67135
#
# Velocity S-wave (km/s) = 3.71742 3.87986 3.79951
# Velocity P-wave (km/s) = 6.57191 6.83868 6.70662
#
# Compressibility (1/GPa) = 0.02362847
#
# Stress axis : x y z
#
# Youngs Moduli (GPa) = 57.39103 85.84991 60.99402
#
# Poissons Ratio (x) = 0.41562 0.19135
# Poissons Ratio (y) = 0.27784 0.17940
# Poissons Ratio (z) = 0.18004 0.25251
#
# Static dielectric constant tensor:
#      x y z
#    x 3.194980 0.000000 0.214890 
#    y 0.000000 3.141470 0.000000 
#    z 0.214890 0.000000 3.393110 
# 
# 
# High freq. dielectric constant tensor:
#      x y z
#    x 1.647730 0.000000 0.024780 
#    y 0.000000 1.629490 0.000000 
#    z 0.024780 0.000000 1.674410 
# 
# From -- ./inp_files/172717.got.cif
#   From: 2010.06.25/outbox.cif.g09.slc.cpg/sg15_87_cif.got.tgz:172717.got - 2010.06.28 07:06:18.
