data_PCOD8132546
_publ_section_title
;
Structure prediction by ZEFSAII (Michael W. Deem and Ramdas Pophale) SiO2 
 PCOD8132546
Probable space group: C 2/C
;
_chemical_formula_sum "Si O2"
_cell_formula_units_Z 64
_cell_length_a 16.283255
_cell_length_b 15.090618
_cell_length_c 17.577495
_cell_angle_alpha 90.000000
_cell_angle_beta 46.594974
_cell_angle_gamma 90.000000
_cell_volume 3137.974843
_symmetry_space_group_name_H-M "C 2/C"
_symmetry_group_IT_number 15
_symmetry_cell_setting 'monoclinic'
loop_
_space_group_symop_operation_xyz
x,y,z
-x,y,1/2-z
-x,-y,-z
x,-y,1/2+z
1/2+x,1/2+y,z
1/2-x,1/2+y,1/2-z
1/2-x,1/2-y,-z
1/2+x,1/2-y,1/2+z
loop_
_atom_site_type_symbol
_atom_site_label
_atom_site_fract_x
_atom_site_fract_y
_atom_site_fract_z
Si Si1 0.602873 0.158922 0.340422
Si Si2 0.360008 0.155228 0.005106
Si Si3 0.663022 0.598738 0.358066
Si Si4 0.474143 0.345033 0.093070
Si Si5 0.984822 0.981213 0.670348
Si Si6 0.980219 0.479927 0.173219
Si Si7 0.256062 0.583937 0.656736
Si Si8 0.339075 0.341014 0.964402
O O1 0.614248 0.152724 0.423307
O O2 0.728387 0.162172 0.223047
O O3 0.529873 0.247098 0.367512
O O4 0.529472 0.077252 0.356833
O O5 0.415699 0.069805 0.931318
O O6 0.402353 0.247325 0.938904
O O7 0.223597 0.154024 0.077325
O O8 0.561849 0.650106 0.466105
O O9 0.629469 0.556356 0.296443
O O10 0.698993 0.515892 0.387790
O O11 0.507613 0.416116 0.136362
O O12 0.345279 0.362797 0.150863
O O13 0.000000 0.965802 0.750000
O O14 0.077454 0.920559 0.571865
O O15 0.867128 0.423331 0.226103
O O16 0.000000 0.490848 0.250000
O O17 0.240753 0.641221 0.589660
#
# Coordination Sequence:
#
# PCOD8132546 Si02
#       8
#     8   8   8   8   8   8   8   8
#     4  11  24  40  60  91 123 157 210 246 294 366
#     4  11  23  39  60  94 125 155 194 260 300 355
#     4  10  20  38  63  84 116 165 197 238 307 350
#     4  11  21  40  64  85 122 160 199 247 298 358
#     4  11  21  36  62  93 119 151 198 254 297 351
#     4  11  24  40  64  85 124 168 198 242 305 362
#     4  10  18  38  62  85 113 159 200 235 290 366
#     4  11  20  37  62  89 123 150 198 247 304 354
#
# _framework density 20.395320000000002
#
# number of rings (size 3 to 8) (size 9 to 14) (size 15 to 20)
#    0.000    1.250    5.000    1.875    0.000    3.000 
#    0.000    2.500    0.000    3.000    0.000    0.000 
#    0.000    0.000    0.000    0.000    0.000    0.000 
#
# Total GULP energy -396528.617786 kJ/mol
# GULP energy per Si atom -12391.519306 kJ/mol
# Density = 2.034890 g / cm^3
# Si number density = 20.395320 Si / 1000 Ang^3
#
#
#
# Elastic Constant Matrix: (Units=GPa)
#
#
# Indices 1 2 3 4 5 6 
#
# 1 69.2217 35.9423 24.0746 0.0000 -3.6362 0.0000
# 2 35.9423 146.7935 48.8222 0.0000 -10.1587 0.0000
# 3 24.0746 48.8222 62.2911 0.0000 -5.7286 0.0000
# 4 0.0000 0.0000 0.0000 27.8584 0.0000 -3.6020
# 5 -3.6362 -10.1587 -5.7286 0.0000 19.1849 0.0000
# 6 0.0000 0.0000 0.0000 -3.6020 0.0000 34.3272
#
#
#
# Elastic Compliance Matrix: (Units=1/GPa)
#
#
# Indices 1 2 3 4 5 6 
#
# 1 0.017478 -0.002723 -0.004574 0.000000 0.000505 0.000000
# 2 -0.002723 0.009787 -0.006364 0.000000 0.002766 0.000000
# 3 -0.004574 -0.006364 0.023053 0.000000 0.002647 0.000000
# 4 0.000000 0.000000 0.000000 0.036390 0.000000 0.003818
# 5 0.000505 0.002766 0.002647 0.000000 0.054475 0.000000
# 6 0.000000 0.000000 0.000000 0.003818 0.000000 0.029532
#
#
# Mechanical properties :
#
#
# Convention : Reuss Voigt Hill
#
# Bulk Modulus (GPa) = 43.48765 55.10938 49.29852
# Shear Modulus (GPa) = 24.30705 27.57191 25.93948
#
# Velocity S-wave (km/s) = 3.45598 3.68077 3.57015
# Velocity P-wave (km/s) = 6.10686 6.71888 6.42017
#
# Compressibility (1/GPa) = 0.02299503
#
# Stress axis : x y z
#
# Youngs Moduli (GPa) = 57.21604 102.17542 43.37858
#
# Poissons Ratio (x) = 0.27824 0.19842
# Poissons Ratio (y) = 0.15581 0.27606
# Poissons Ratio (z) = 0.26171 0.65025
#
# Static dielectric constant tensor:
#      x y z
#    x 3.684850 0.000000 -0.082850 
#    y 0.000000 3.881800 0.000000 
#    z -0.082850 0.000000 3.543360 
# 
# 
# High freq. dielectric constant tensor:
#      x y z
#    x 1.795090 0.000000 -0.002020 
#    y 0.000000 1.802720 0.000000 
#    z -0.002020 0.000000 1.775870 
# 
# From -- ./inp_files/211388.got.cif
#   From: 2010.06.25/outbox.cif.g09.slc.cpg/sg15_106_cif.got.tgz:211388.got - 2010.06.28 07:06:18.
