data_PCOD8132989
_publ_section_title
;
Structure prediction by ZEFSAII (Michael W. Deem and Ramdas Pophale) SiO2 
 PCOD8132989
Probable space group: C 2/C
;
_chemical_formula_sum "Si O2"
_cell_formula_units_Z 48
_cell_length_a 16.806103
_cell_length_b 26.494790
_cell_length_c 5.258960
_cell_angle_alpha 90.000000
_cell_angle_beta 119.528329
_cell_angle_gamma 90.000000
_cell_volume 2037.523317
_symmetry_space_group_name_H-M "C 2/C"
_symmetry_group_IT_number 15
_symmetry_cell_setting 'monoclinic'
loop_
_space_group_symop_operation_xyz
x,y,z
-x,y,1/2-z
-x,-y,-z
x,-y,1/2+z
1/2+x,1/2+y,z
1/2-x,1/2+y,1/2-z
1/2-x,1/2-y,-z
1/2+x,1/2-y,1/2+z
loop_
_atom_site_type_symbol
_atom_site_label
_atom_site_fract_x
_atom_site_fract_y
_atom_site_fract_z
Si Si1 0.357136 0.307155 0.659202
Si Si2 0.898724 0.521318 0.305751
Si Si3 0.355682 0.635845 0.655805
Si Si4 0.137892 0.636135 0.315663
Si Si5 0.360846 0.806670 0.181645
Si Si6 0.896943 0.022085 0.635598
O O1 0.393813 0.335301 0.464587
O O2 0.396987 0.250611 0.732928
O O3 0.248126 0.306476 0.482244
O O4 0.392758 0.335656 0.965304
O O5 0.847581 0.507141 0.489761
O O6 0.903162 0.580455 0.259882
O O7 0.000000 0.500000 0.500000
O O8 0.246761 0.633270 0.487457
O O9 0.395383 0.580068 0.711936
O O10 0.101028 0.663932 0.510951
O O11 0.102068 0.666458 0.013827
O O12 0.000000 0.002896 0.750000
O O13 0.848328 0.010034 0.287291
#
# Coordination Sequence:
#
# PCOD8132989 Si02
#       6
#     8   8   8   8   8   8
#     4   9  17  30  49  77 109 134 167 203 271 314
#     4  10  21  36  52  73  98 135 181 217 263 318
#     4  10  19  31  51  79 105 138 167 217 258 309
#     4  10  19  31  51  79 105 131 176 214 266 305
#     4   9  17  30  49  77 109 135 161 215 260 322
#     4  10  21  36  52  73 101 139 176 204 253 308
#
# _framework density 23.558012999999999
#
# number of rings (size 3 to 8) (size 9 to 14) (size 15 to 20)
#    0.000    2.333    0.000    3.000    0.000    5.333 
#    0.000    0.000    0.000    0.000   43.333    0.000 
#    0.000    0.000    0.000    0.000    0.000    0.000 
#
# Total GULP energy -297551.651173 kJ/mol
# GULP energy per Si atom -12397.985466 kJ/mol
# Density = 2.350439 g / cm^3
# Si number density = 23.558013 Si / 1000 Ang^3
#
#
#
# Elastic Constant Matrix: (Units=GPa)
#
#
# Indices 1 2 3 4 5 6 
#
# 1 28.5828 23.7122 46.1838 0.0000 -26.9066 0.0000
# 2 23.7122 228.1373 102.1815 0.0000 -46.4708 0.0000
# 3 46.1838 102.1815 192.4862 0.0000 -81.5203 0.0000
# 4 0.0000 0.0000 0.0000 54.6762 0.0000 -9.3224
# 5 -26.9066 -46.4708 -81.5203 0.0000 45.6679 0.0000
# 6 0.0000 0.0000 0.0000 -9.3224 0.0000 43.0910
#
#
#
# Elastic Compliance Matrix: (Units=1/GPa)
#
#
# Indices 1 2 3 4 5 6 
#
# 1 0.079312 0.001335 0.002571 0.000000 0.052677 0.000000
# 2 0.001335 0.005804 -0.002323 0.000000 0.002545 0.000000
# 3 0.002571 -0.002323 0.022344 0.000000 0.039036 0.000000
# 4 0.000000 0.000000 0.000000 0.018990 0.000000 0.004108
# 5 0.052677 0.002545 0.039036 0.000000 0.125204 0.000000
# 6 0.000000 0.000000 0.000000 0.004108 0.000000 0.024095
#
#
# Mechanical properties :
#
#
# Convention : Reuss Voigt Hill
#
# Bulk Modulus (GPa) = 9.03957 88.15124 48.59541
# Shear Modulus (GPa) = 16.15725 47.16227 31.65976
#
# Velocity S-wave (km/s) = 2.62171 4.47918 3.66991
# Velocity P-wave (km/s) = 3.60694 8.01566 6.21534
#
# Compressibility (1/GPa) = 0.11062468
#
# Stress axis : x y z
#
# Youngs Moduli (GPa) = 12.60845 172.30786 44.75504
#
# Poissons Ratio (x) = -0.23003 -0.11507
# Poissons Ratio (y) = -0.01683 0.10399
# Poissons Ratio (z) = -0.03242 0.40035
#
# Static dielectric constant tensor:
#      x y z
#    x 3.427800 0.000000 -0.028730 
#    y 0.000000 4.170600 0.000000 
#    z -0.028730 0.000000 4.014350 
# 
# 
# High freq. dielectric constant tensor:
#      x y z
#    x 1.910560 0.000000 -0.029110 
#    y 0.000000 1.937470 0.000000 
#    z -0.029110 0.000000 1.946770 
# 
# From -- ./inp_files/10682.got.cif
#   From: 2010.06.25/outbox.cif.g09.slc.cpg/sg15_6_cif.got.tgz:10682.got - 2010.06.28 07:06:18.
