data_PCOD8132847
_publ_section_title
;
Structure prediction by ZEFSAII (Michael W. Deem and Ramdas Pophale) SiO2 
 PCOD8132847
Probable space group: C 2/C
;
_chemical_formula_sum "Si O2"
_cell_formula_units_Z 56
_cell_length_a 15.605616
_cell_length_b 26.711791
_cell_length_c 9.302009
_cell_angle_alpha 90.000000
_cell_angle_beta 53.411202
_cell_angle_gamma 90.000000
_cell_volume 3113.440307
_symmetry_space_group_name_H-M "C 2/C"
_symmetry_group_IT_number 15
_symmetry_cell_setting 'monoclinic'
loop_
_space_group_symop_operation_xyz
x,y,z
-x,y,1/2-z
-x,-y,-z
x,-y,1/2+z
1/2+x,1/2+y,z
1/2-x,1/2+y,1/2-z
1/2-x,1/2-y,-z
1/2+x,1/2-y,1/2+z
loop_
_atom_site_type_symbol
_atom_site_label
_atom_site_fract_x
_atom_site_fract_y
_atom_site_fract_z
Si Si1 0.167260 0.132524 0.917898
Si Si2 0.620403 0.176793 0.464436
Si Si3 0.121162 0.229184 0.469965
Si Si4 0.379597 0.823207 0.205241
Si Si5 0.332740 0.367476 0.752419
Si Si6 0.000000 0.051547 0.082145
Si Si7 0.621162 0.729184 0.787711
O O1 0.296978 0.130104 0.768258
O O2 0.121890 0.177862 0.872311
O O3 0.136894 0.143167 0.113106
O O4 0.107427 0.081846 0.929027
O O5 0.619352 0.194917 0.630648
O O6 0.500000 0.160714 0.538557
O O7 0.703022 0.130104 0.362213
O O8 0.672579 0.222547 0.318900
O O9 0.172579 0.277453 0.335942
O O10 0.121890 0.177862 0.383909
O O11 0.172347 0.222551 0.577653
O O12 1.000000 0.246164 0.605585
O O13 0.392573 0.418154 0.643881
O O14 0.000000 0.039521 0.250000
O O15 0.000000 0.000000 0.000000
#
# Coordination Sequence:
#
# PCOD8132847 Si02
#       7
#     8   8   8   8   8   8   8
#     4  10  19  33  52  71  95 129 166 206 247 291
#     4   9  18  31  48  71 100 134 168 198 234 287
#     4  10  19  29  44  71 105 137 167 200 241 290
#     4   9  18  31  48  71 100 134 168 198 234 287
#     4  10  19  33  52  71  95 129 166 206 247 291
#     4  10  22  38  56  76  96 122 164 214 261 302
#     4  10  19  29  44  71 105 137 167 200 241 290
#
# _framework density 17.986533999999999
#
# number of rings (size 3 to 8) (size 9 to 14) (size 15 to 20)
#    0.000    2.286    1.429    1.714    0.000    6.857 
#    0.000    0.000    0.000    0.857    0.000    0.000 
#    0.000    0.000    0.000    0.000    0.000    0.000 
#
# Total GULP energy -346921.949012 kJ/mol
# GULP energy per Si atom -12390.069608 kJ/mol
# Density = 1.794560 g / cm^3
# Si number density = 17.986534 Si / 1000 Ang^3
#
#
#
# Elastic Constant Matrix: (Units=GPa)
#
#
# Indices 1 2 3 4 5 6 
#
# 1 84.4468 65.9843 49.6425 0.0000 -16.4424 0.0000
# 2 65.9843 124.0908 58.1443 0.0000 -9.1621 0.0000
# 3 49.6425 58.1443 68.4573 0.0000 -2.2434 0.0000
# 4 0.0000 0.0000 0.0000 25.0026 0.0000 1.7004
# 5 -16.4424 -9.1621 -2.2434 0.0000 26.9606 0.0000
# 6 0.0000 0.0000 0.0000 1.7004 0.0000 23.5475
#
#
#
# Elastic Compliance Matrix: (Units=1/GPa)
#
#
# Indices 1 2 3 4 5 6 
#
# 1 0.028667 -0.007811 -0.013705 0.000000 0.013688 0.000000
# 2 -0.007811 0.015875 -0.007819 0.000000 -0.000020 0.000000
# 3 -0.013705 -0.007819 0.030911 0.000000 -0.008444 0.000000
# 4 0.000000 0.000000 0.000000 0.040193 0.000000 -0.002902
# 5 0.013688 -0.000020 -0.008444 0.000000 0.044730 0.000000
# 6 0.000000 0.000000 0.000000 -0.002902 0.000000 0.042677
#
#
# Mechanical properties :
#
#
# Convention : Reuss Voigt Hill
#
# Bulk Modulus (GPa) = 59.59142 69.39299 64.49221
# Shear Modulus (GPa) = 18.70432 21.98371 20.34402
#
# Velocity S-wave (km/s) = 3.22826 3.49984 3.36679
# Velocity P-wave (km/s) = 6.86284 7.41593 7.14474
#
# Compressibility (1/GPa) = 0.01678094
#
# Stress axis : x y z
#
# Youngs Moduli (GPa) = 34.88327 62.99410 32.35100
#
# Poissons Ratio (x) = 0.49205 0.44338
# Poissons Ratio (y) = 0.27247 0.25297
# Poissons Ratio (z) = 0.47809 0.49258
#
# Static dielectric constant tensor:
#      x y z
#    x 3.785530 0.000000 -0.173430 
#    y 0.000000 2.867730 0.000000 
#    z -0.173430 0.000000 3.637130 
# 
# 
# High freq. dielectric constant tensor:
#      x y z
#    x 1.719830 0.000000 -0.013810 
#    y 0.000000 1.636590 0.000000 
#    z -0.013810 0.000000 1.708020 
# 
# From -- ./inp_files/43444.got.cif
#   From: 2010.06.25/outbox.cif.g09.slc.cpg/sg15_22_cif.got.tgz:43444.got - 2010.06.28 07:06:18.
