data_PCOD8132817
_publ_section_title
;
Structure prediction by ZEFSAII (Michael W. Deem and Ramdas Pophale) SiO2 
 PCOD8132817
Probable space group: C 2/C
;
_chemical_formula_sum "Si O2"
_cell_formula_units_Z 52
_cell_length_a 30.127454
_cell_length_b 16.164616
_cell_length_c 8.057278
_cell_angle_alpha 90.000000
_cell_angle_beta 128.446037
_cell_angle_gamma 90.000000
_cell_volume 3073.162941
_symmetry_space_group_name_H-M "C 2/C"
_symmetry_group_IT_number 15
_symmetry_cell_setting 'monoclinic'
loop_
_space_group_symop_operation_xyz
x,y,z
-x,y,1/2-z
-x,-y,-z
x,-y,1/2+z
1/2+x,1/2+y,z
1/2-x,1/2+y,1/2-z
1/2-x,1/2-y,-z
1/2+x,1/2-y,1/2+z
loop_
_atom_site_type_symbol
_atom_site_label
_atom_site_fract_x
_atom_site_fract_y
_atom_site_fract_z
Si Si1 0.938098 0.006420 0.934970
Si Si2 0.239663 0.374427 0.369425
Si Si3 0.159795 0.081015 0.998040
Si Si4 0.000000 0.130588 0.250000
Si Si5 0.457558 0.323763 0.998067
Si Si6 0.230250 0.972447 0.374255
Si Si7 0.161587 0.775786 0.738947
O O1 0.898523 0.051008 0.712215
O O2 0.944372 0.070945 0.103656
O O3 0.924520 0.911908 0.957473
O O4 0.000000 0.000000 0.000000
O O5 0.238741 0.412449 0.182532
O O6 0.231039 0.449120 0.481346
O O7 0.186338 0.314765 0.264048
O O8 0.298909 0.325228 0.537218
O O9 0.212575 0.080074 0.993227
O O10 0.158975 0.174718 0.059520
O O11 0.171781 0.011889 0.167492
O O12 0.991066 0.182616 0.399742
O O13 0.500000 0.302618 0.250000
O O14 0.403794 0.262026 0.855609
#
# Coordination Sequence:
#
# PCOD8132817 Si02
#       7
#     8   8   8   4   8   8   8
#     4  10  19  27  41  67  97 136 177 199 214 278
#     4   9  19  34  52  73  99 126 164 205 254 300
#     4  10  19  28  46  68  99 135 168 202 243 282
#     4  10  22  28  46  66  96 142 180 202 226 286
#     4  11  21  34  47  70 104 139 173 209 241 292
#     4   9  18  32  50  68  92 130 168 202 241 308
#     4  10  20  33  48  74 104 129 156 211 256 287
#
# _framework density 16.920677000000001
#
# number of rings (size 3 to 8) (size 9 to 14) (size 15 to 20)
#    0.000    2.154    0.769    4.615    8.615    0.615 
#    0.000    0.000    0.000    0.000    0.000    1.077 
#    0.000    0.000    0.000    0.000    0.000    0.000 
#
# Total GULP energy -322173.376905 kJ/mol
# GULP energy per Si atom -12391.283727 kJ/mol
# Density = 1.688216 g / cm^3
# Si number density = 16.920677 Si / 1000 Ang^3
#
#
#
# Elastic Constant Matrix: (Units=GPa)
#
#
# Indices 1 2 3 4 5 6 
#
# 1 71.8718 42.4640 41.4857 0.0000 -7.4240 0.0000
# 2 42.4640 74.5024 37.5205 0.0000 3.3401 0.0000
# 3 41.4857 37.5205 87.7039 0.0000 2.0173 0.0000
# 4 0.0000 0.0000 0.0000 22.3488 0.0000 3.6404
# 5 -7.4240 3.3401 2.0173 0.0000 28.5613 0.0000
# 6 0.0000 0.0000 0.0000 3.6404 0.0000 22.6511
#
#
#
# Elastic Compliance Matrix: (Units=1/GPa)
#
#
# Indices 1 2 3 4 5 6 
#
# 1 0.025860 -0.011299 -0.007596 0.000000 0.008580 0.000000
# 2 -0.011299 0.022108 -0.003993 0.000000 -0.005240 0.000000
# 3 -0.007596 -0.003993 0.016765 0.000000 -0.002692 0.000000
# 4 0.000000 0.000000 0.000000 0.045948 0.000000 -0.007385
# 5 0.008580 -0.005240 -0.002692 0.000000 0.038045 0.000000
# 6 0.000000 0.000000 0.000000 -0.007385 0.000000 0.045335
#
#
# Mechanical properties :
#
#
# Convention : Reuss Voigt Hill
#
# Bulk Modulus (GPa) = 52.74800 53.00206 52.87503
# Shear Modulus (GPa) = 20.31231 22.21944 21.26587
#
# Velocity S-wave (km/s) = 3.46850 3.62768 3.54898
# Velocity P-wave (km/s) = 6.87619 6.99561 6.93616
#
# Compressibility (1/GPa) = 0.01895807
#
# Stress axis : x y z
#
# Youngs Moduli (GPa) = 38.66980 45.23230 59.64715
#
# Poissons Ratio (x) = 0.51106 0.45308
# Poissons Ratio (y) = 0.43691 0.23818
# Poissons Ratio (z) = 0.29374 0.18062
#
# Static dielectric constant tensor:
#      x y z
#    x 3.168070 0.000000 -0.226110 
#    y 0.000000 2.966770 0.000000 
#    z -0.226110 0.000000 3.390490 
# 
# 
# High freq. dielectric constant tensor:
#      x y z
#    x 1.649890 0.000000 -0.019460 
#    y 0.000000 1.600840 0.000000 
#    z -0.019460 0.000000 1.657140 
# 
# From -- ./inp_files/70424.got.cif
#   From: 2010.06.25/outbox.cif.g09.slc.cpg/sg15_36_cif.got.tgz:70424.got - 2010.06.28 07:06:18.
