data_PCOD8132452
_publ_section_title
;
Structure prediction by ZEFSAII (Michael W. Deem and Ramdas Pophale) SiO2 
 PCOD8132452
Probable space group: C 2/C
;
_chemical_formula_sum "Si O2"
_cell_formula_units_Z 48
_cell_length_a 28.104659
_cell_length_b 18.130867
_cell_length_c 14.948381
_cell_angle_alpha 90.000000
_cell_angle_beta 160.986048
_cell_angle_gamma 90.000000
_cell_volume 2481.646853
_symmetry_space_group_name_H-M "C 2/C"
_symmetry_group_IT_number 15
_symmetry_cell_setting 'monoclinic'
loop_
_space_group_symop_operation_xyz
x,y,z
-x,y,1/2-z
-x,-y,-z
x,-y,1/2+z
1/2+x,1/2+y,z
1/2-x,1/2+y,1/2-z
1/2-x,1/2-y,-z
1/2+x,1/2-y,1/2+z
loop_
_atom_site_type_symbol
_atom_site_label
_atom_site_fract_x
_atom_site_fract_y
_atom_site_fract_z
Si Si1 0.155839 0.162318 0.610937
Si Si2 0.157690 0.912153 0.946428
Si Si3 0.345573 0.830328 0.942737
Si Si4 0.850843 0.916075 0.037639
Si Si5 0.840860 0.180351 0.693020
Si Si6 0.825115 0.182757 0.181620
O O1 0.244726 0.129849 0.683023
O O2 0.128378 0.249087 0.549819
O O3 0.233309 0.150392 0.845700
O O4 0.008357 0.115103 0.348152
O O5 0.216115 0.889088 0.952243
O O6 0.172111 0.998120 0.988200
O O7 0.285241 0.883436 0.758384
O O8 0.230258 0.830919 0.817646
O O9 0.500000 0.862740 0.250000
O O10 0.850566 0.881800 0.135601
O O11 0.000000 0.898050 0.250000
O O12 0.750000 0.250000 0.500000
O O13 0.004328 0.203164 0.011274
O O14 0.750000 0.250000 0.000000
#
# Coordination Sequence:
#
# PCOD8132452 Si02
#       6
#     8   8   8   8   8   8
#     4  10  18  37  64  86 124 169 213 253 313 378
#     4  10  21  39  64  93 123 165 220 267 308 381
#     4  12  22  40  66  93 125 172 218 263 320 397
#     4  12  24  40  63  97 130 163 219 275 320 373
#     4  11  23  37  61  96 127 164 209 271 319 370
#     4  11  22  37  67  94 119 172 225 252 321 396
#
# _framework density 19.341994
#
# number of rings (size 3 to 8) (size 9 to 14) (size 15 to 20)
#    0.000    1.000    8.333    1.000    0.000    4.000 
#    0.000    0.833    3.667    0.000    0.000    0.000 
#    0.000    0.000    0.000    0.000    0.000    0.000 
#
# Total GULP energy -297406.433963 kJ/mol
# GULP energy per Si atom -12391.934748 kJ/mol
# Density = 1.929797 g / cm^3
# Si number density = 19.341994 Si / 1000 Ang^3
#
#
#
# Elastic Constant Matrix: (Units=GPa)
#
#
# Indices 1 2 3 4 5 6 
#
# 1 109.8032 38.5785 36.8109 0.0000 -39.3539 0.0000
# 2 38.5785 148.7775 59.4278 0.0000 -22.3595 0.0000
# 3 36.8109 59.4278 102.9849 0.0000 -25.0245 0.0000
# 4 0.0000 0.0000 0.0000 33.5734 0.0000 -0.1042
# 5 -39.3539 -22.3595 -25.0245 0.0000 37.3209 0.0000
# 6 0.0000 0.0000 0.0000 -0.1042 0.0000 44.2430
#
#
#
# Elastic Compliance Matrix: (Units=1/GPa)
#
#
# Indices 1 2 3 4 5 6 
#
# 1 0.015101 -0.001293 -0.001160 0.000000 0.014372 0.000000
# 2 -0.001293 0.009001 -0.004484 0.000000 0.001023 0.000000
# 3 -0.001160 -0.004484 0.014051 0.000000 0.005513 0.000000
# 4 0.000000 0.000000 0.000000 0.029786 0.000000 0.000070
# 5 0.014372 0.001023 0.005513 0.000000 0.046259 0.000000
# 6 0.000000 0.000000 0.000000 0.000070 0.000000 0.022603
#
#
# Mechanical properties :
#
#
# Convention : Reuss Voigt Hill
#
# Bulk Modulus (GPa) = 41.18233 70.13335 55.65784
# Shear Modulus (GPa) = 31.49280 38.14403 34.81841
#
# Velocity S-wave (km/s) = 4.03948 4.44563 4.24742
# Velocity P-wave (km/s) = 6.56464 7.91769 7.27270
#
# Compressibility (1/GPa) = 0.02428226
#
# Stress axis : x y z
#
# Youngs Moduli (GPa) = 66.22110 111.09438 71.16685
#
# Poissons Ratio (x) = 0.14361 0.08252
# Poissons Ratio (y) = 0.08560 0.31908
# Poissons Ratio (z) = 0.07679 0.49809
#
# Static dielectric constant tensor:
#      x y z
#    x 5.320420 0.000000 -0.657290 
#    y 0.000000 3.615330 0.000000 
#    z -0.657290 0.000000 3.344570 
# 
# 
# High freq. dielectric constant tensor:
#      x y z
#    x 1.778510 0.000000 -0.033340 
#    y 0.000000 1.742450 0.000000 
#    z -0.033340 0.000000 1.729280 
# 
# From -- ./inp_files/182533.got.cif
#   From: 2010.06.25/outbox.cif.g09.slc.cpg/sg15_92_cif.got.tgz:182533.got - 2010.06.28 07:06:18.
