data_PCOD8132855
_publ_section_title
;
Structure prediction by ZEFSAII (Michael W. Deem and Ramdas Pophale) SiO2 
 PCOD8132855
Probable space group: C 2/C
;
_chemical_formula_sum "Si O2"
_cell_formula_units_Z 56
_cell_length_a 11.190653
_cell_length_b 25.064676
_cell_length_c 10.817742
_cell_angle_alpha 90.000000
_cell_angle_beta 97.431422
_cell_angle_gamma 90.000000
_cell_volume 3008.782733
_symmetry_space_group_name_H-M "C 2/C"
_symmetry_group_IT_number 15
_symmetry_cell_setting 'monoclinic'
loop_
_space_group_symop_operation_xyz
x,y,z
-x,y,1/2-z
-x,-y,-z
x,-y,1/2+z
1/2+x,1/2+y,z
1/2-x,1/2+y,1/2-z
1/2-x,1/2-y,-z
1/2+x,1/2-y,1/2+z
loop_
_atom_site_type_symbol
_atom_site_label
_atom_site_fract_x
_atom_site_fract_y
_atom_site_fract_z
Si Si1 0.635799 0.640601 0.748191
Si Si2 0.746409 0.667921 0.507311
Si Si3 0.433013 0.751877 0.108068
Si Si4 0.827519 0.922262 0.649615
Si Si5 0.585606 0.399045 0.587828
Si Si6 0.139442 0.789129 0.474573
Si Si7 0.386766 0.462272 0.149759
O O1 0.500000 0.619643 0.750000
O O2 0.660302 0.654571 0.611357
O O3 0.647186 0.693802 0.831772
O O4 0.699307 0.584809 0.800751
O O5 0.676579 0.709528 0.408763
O O6 0.872644 0.690208 0.577097
O O7 0.773875 0.614086 0.432239
O O8 0.500000 0.750322 0.250000
O O9 0.521730 0.743064 0.003551
O O10 0.820154 0.919432 0.796889
O O11 0.951541 0.893167 0.623626
O O12 0.810521 0.984165 0.611957
O O13 0.642748 0.342726 0.555194
O O14 0.570864 0.441625 0.477444
O O15 0.250000 0.750000 0.500000
O O16 0.500000 0.481268 0.250000
#
# Coordination Sequence:
#
# PCOD8132855 Si02
#       7
#     8   8   8   8   8   8   8
#     4  10  19  35  49  80 115 148 181 228 282 341
#     4  11  22  35  57  81 117 153 190 226 283 335
#     4  11  22  38  56  82 112 153 193 234 279 338
#     4  11  19  31  52  79 115 146 175 229 275 342
#     4  10  20  32  48  81 113 147 182 222 285 343
#     4  11  21  36  56  77 110 150 189 234 280 330
#     4  10  19  29  51  77 116 151 177 218 288 355
#
# _framework density 18.612178
#
# number of rings (size 3 to 8) (size 9 to 14) (size 15 to 20)
#    0.000    1.429    4.286    3.857    2.000    1.143 
#    0.000    0.000    0.000    0.000    0.000    9.000 
#    0.000    0.000    0.000    0.000    0.000    0.000 
#
# Total GULP energy -346902.240427 kJ/mol
# GULP energy per Si atom -12389.365730 kJ/mol
# Density = 1.856982 g / cm^3
# Si number density = 18.612178 Si / 1000 Ang^3
#
#
#
# Elastic Constant Matrix: (Units=GPa)
#
#
# Indices 1 2 3 4 5 6 
#
# 1 36.6974 33.2933 14.9087 0.0000 5.1681 0.0000
# 2 33.2933 131.3386 48.2988 0.0000 7.6456 0.0000
# 3 14.9087 48.2988 122.7261 0.0000 6.3950 0.0000
# 4 0.0000 0.0000 0.0000 18.1048 0.0000 10.6125
# 5 5.1681 7.6456 6.3950 0.0000 17.1323 0.0000
# 6 0.0000 0.0000 0.0000 10.6125 0.0000 21.2637
#
#
#
# Elastic Compliance Matrix: (Units=1/GPa)
#
#
# Indices 1 2 3 4 5 6 
#
# 1 0.036238 -0.008534 -0.000686 0.000000 -0.006867 0.000000
# 2 -0.008534 0.011038 -0.003248 0.000000 -0.001139 0.000000
# 3 -0.000686 -0.003248 0.009610 0.000000 -0.001931 0.000000
# 4 0.000000 0.000000 0.000000 0.078075 0.000000 -0.038966
# 5 -0.006867 -0.001139 -0.001931 0.000000 0.061670 0.000000
# 6 0.000000 0.000000 0.000000 -0.038966 0.000000 0.066476
#
#
# Mechanical properties :
#
#
# Convention : Reuss Voigt Hill
#
# Bulk Modulus (GPa) = 31.29810 53.75152 42.52481
# Shear Modulus (GPa) = 16.73957 24.25091 20.49524
#
# Velocity S-wave (km/s) = 3.00223 3.61357 3.32199
# Velocity P-wave (km/s) = 5.37311 6.80830 6.13283
#
# Compressibility (1/GPa) = 0.03195082
#
# Stress axis : x y z
#
# Youngs Moduli (GPa) = 27.59526 90.59649 104.05439
#
# Poissons Ratio (x) = 0.77316 0.07136
# Poissons Ratio (y) = 0.23550 0.33796
# Poissons Ratio (z) = 0.01892 0.29425
#
# Static dielectric constant tensor:
#      x y z
#    x 2.937860 0.000000 -0.166680 
#    y 0.000000 3.722240 0.000000 
#    z -0.166680 0.000000 4.796650 
# 
# 
# High freq. dielectric constant tensor:
#      x y z
#    x 1.642770 0.000000 -0.009250 
#    y 0.000000 1.741150 0.000000 
#    z -0.009250 0.000000 1.743470 
# 
# From -- ./inp_files/90406.got.cif
#   From: 2010.06.25/outbox.cif.g09.slc.cpg/sg15_46_cif.got.tgz:90406.got - 2010.06.28 07:06:18.
