data_PCOD8132921
_publ_section_title
;
Structure prediction by ZEFSAII (Michael W. Deem and Ramdas Pophale) SiO2 
 PCOD8132921
Probable space group: C 2/C
;
_chemical_formula_sum "Si O2"
_cell_formula_units_Z 60
_cell_length_a 16.486152
_cell_length_b 25.870683
_cell_length_c 8.796132
_cell_angle_alpha 90.000000
_cell_angle_beta 63.146990
_cell_angle_gamma 90.000000
_cell_volume 3347.077073
_symmetry_space_group_name_H-M "C 2/C"
_symmetry_group_IT_number 15
_symmetry_cell_setting 'monoclinic'
loop_
_space_group_symop_operation_xyz
x,y,z
-x,y,1/2-z
-x,-y,-z
x,-y,1/2+z
1/2+x,1/2+y,z
1/2-x,1/2+y,1/2-z
1/2-x,1/2-y,-z
1/2+x,1/2-y,1/2+z
loop_
_atom_site_type_symbol
_atom_site_label
_atom_site_fract_x
_atom_site_fract_y
_atom_site_fract_z
Si Si1 0.805882 0.828885 0.876300
Si Si2 0.670119 0.820869 0.753327
Si Si3 0.500000 0.795864 0.750000
Si Si4 0.151645 0.792103 0.357941
Si Si5 0.678557 0.635985 0.586057
Si Si6 0.595828 0.463222 0.254329
Si Si7 0.557292 0.704800 0.500450
Si Si8 0.402361 0.567749 0.390894
O O1 0.703895 0.836543 0.893875
O O2 0.870947 0.801585 0.696738
O O3 0.836757 0.883996 0.917366
O O4 0.801712 0.788177 0.017294
O O5 0.565885 0.833331 0.794683
O O6 0.674431 0.758361 0.739546
O O7 0.734294 0.851733 0.586635
O O8 0.560327 0.760560 0.583119
O O9 0.196141 0.840799 0.237081
O O10 0.044349 0.803635 0.474018
O O11 0.666631 0.574862 0.611948
O O12 0.585564 0.661681 0.600330
O O13 0.500000 0.457156 0.250000
O O14 0.631819 0.521007 0.189372
O O15 0.590396 0.451176 0.439412
O O16 0.500000 0.586595 0.250000
#
# Coordination Sequence:
#
# PCOD8132921 Si02
#       8
#     8   8   4   8   8   8   8   8
#     4  11  23  32  52  79 112 142 181 219 265 310
#     4  10  23  34  55  73 104 141 182 229 259 325
#     4  10  20  40  54  76  98 144 192 222 274 306
#     4  11  18  35  46  79 108 143 179 213 261 301
#     4  11  20  32  55  78 103 146 186 213 253 315
#     4  11  23  35  55  79 114 148 180 215 255 312
#     4  10  19  30  54  72 106 146 179 210 246 319
#     4  11  23  36  52  81 115 147 179 215 257 316
#
# _framework density 17.926088
#
# number of rings (size 3 to 8) (size 9 to 14) (size 15 to 20)
#    0.000    1.333    4.000    4.400    9.333    0.000 
#    0.000    0.000    0.000    0.000    0.000    0.933 
#    0.000    0.000    0.000    0.000    0.000    0.000 
#
# Total GULP energy -371654.663684 kJ/mol
# GULP energy per Si atom -12388.488789 kJ/mol
# Density = 1.788529 g / cm^3
# Si number density = 17.926088 Si / 1000 Ang^3
#
#
#
# Elastic Constant Matrix: (Units=GPa)
#
#
# Indices 1 2 3 4 5 6 
#
# 1 115.7305 22.1147 28.4142 0.0000 22.7939 0.0000
# 2 22.1147 52.0048 8.3588 0.0000 -5.0121 0.0000
# 3 28.4142 8.3588 69.1565 0.0000 22.5182 0.0000
# 4 0.0000 0.0000 0.0000 19.0603 0.0000 46.0820
# 5 22.7939 -5.0121 22.5182 0.0000 24.5275 0.0000
# 6 0.0000 0.0000 0.0000 46.0820 0.0000 -287.6677
#
#
#
# Elastic Compliance Matrix: (Units=1/GPa)
#
#
# Indices 1 2 3 4 5 6 
#
# 1 0.012426 -0.006478 -0.000187 0.000000 -0.012699 0.000000
# 2 -0.006478 0.024423 -0.005528 0.000000 0.016086 0.000000
# 3 -0.000187 -0.005528 0.022132 0.000000 -0.021275 0.000000
# 4 0.000000 0.000000 0.000000 0.037818 0.000000 0.006058
# 5 -0.012699 0.016086 -0.021275 0.000000 0.075391 0.000000
# 6 0.000000 0.000000 0.000000 0.006058 0.000000 -0.002506
#
#
# Mechanical properties :
#
#
# Convention : Reuss Voigt Hill
#
# Bulk Modulus (GPa) = 28.90662 39.40747 34.15704
# Shear Modulus (GPa) = 24.31876 -36.94904 -6.31514
#
# Velocity S-wave (km/s) = 3.68722 -4.54496 -1.87897
# Velocity P-wave (km/s) = 5.85559 2.34758 3.79320
#
# Compressibility (1/GPa) = 0.03459416
#
# Stress axis : x y z
#
# Youngs Moduli (GPa) = 80.47765 40.94579 45.18247
#
# Poissons Ratio (x) = 0.26524 0.00847
# Poissons Ratio (y) = 0.52132 0.24977
# Poissons Ratio (z) = 0.01508 0.22635
#
# Static dielectric constant tensor:
#      x y z
#    x 3.565520 0.000000 0.329970 
#    y 0.000000 3.309480 0.000000 
#    z 0.329970 0.000000 3.366440 
# 
# 
# High freq. dielectric constant tensor:
#      x y z
#    x 1.682480 0.000000 0.032770 
#    y 0.000000 1.670790 0.000000 
#    z 0.032770 0.000000 1.691700 
# 
# From -- ./inp_files/51523.got.cif
#   From: 2010.06.25/outbox.cif.g09.slc.cpg/sg15_26_cif.got.tgz:51523.got - 2010.06.28 07:06:18.
