data_PCOD8132406
_publ_section_title
;
Structure prediction by ZEFSAII (Michael W. Deem and Ramdas Pophale) SiO2 
 PCOD8132406
Probable space group: C 2/C
;
_chemical_formula_sum "Si O2"
_cell_formula_units_Z 48
_cell_length_a 14.085284
_cell_length_b 12.721175
_cell_length_c 27.668359
_cell_angle_alpha 90.000000
_cell_angle_beta 147.271055
_cell_angle_gamma 90.000000
_cell_volume 2680.431983
_symmetry_space_group_name_H-M "C 2/C"
_symmetry_group_IT_number 15
_symmetry_cell_setting 'monoclinic'
loop_
_space_group_symop_operation_xyz
x,y,z
-x,y,1/2-z
-x,-y,-z
x,-y,1/2+z
1/2+x,1/2+y,z
1/2-x,1/2+y,1/2-z
1/2-x,1/2-y,-z
1/2+x,1/2-y,1/2+z
loop_
_atom_site_type_symbol
_atom_site_label
_atom_site_fract_x
_atom_site_fract_y
_atom_site_fract_z
Si Si1 0.977758 0.737960 0.048876
Si Si2 0.907348 0.877884 0.593789
Si Si3 0.237280 0.421497 0.983363
Si Si4 0.422646 0.934147 0.165702
Si Si5 0.630482 0.278333 0.019449
Si Si6 0.619345 0.738881 0.253193
O O1 0.887789 0.635357 0.032009
O O2 0.175450 0.739410 0.152040
O O3 0.873401 0.842244 0.017826
O O4 0.983856 0.732323 0.993040
O O5 0.745220 0.816385 0.547949
O O6 0.963703 0.834580 0.565522
O O7 0.075371 0.861232 0.700174
O O8 0.850844 0.997965 0.563781
O O9 0.116714 0.474367 0.889857
O O10 0.500000 0.979151 0.250000
O O11 0.563435 0.850155 0.204045
O O12 0.244562 0.865983 0.097861
O O13 0.500000 0.728396 0.250000
#
# Coordination Sequence:
#
# PCOD8132406 Si02
#       6
#     8   8   8   8   8   8
#     4  11  21  39  54  79 119 150 167 230 293 316
#     4   9  18  35  58  85 100 140 197 223 261 335
#     4  10  24  35  54  83 118 148 178 221 285 331
#     4   9  16  35  58  82 104 141 194 226 262 324
#     4   9  17  34  59  78 111 141 180 232 271 319
#     4  10  18  37  60  81 109 143 187 235 270 314
#
# _framework density 17.907561000000001
#
# number of rings (size 3 to 8) (size 9 to 14) (size 15 to 20)
#    0.000    2.333    5.000    1.000    0.000    4.667 
#    3.000    0.000    0.000    0.000    0.000    0.000 
#    0.000    0.000    0.000    0.000    0.000    0.000 
#
# Total GULP energy -297352.076013 kJ/mol
# GULP energy per Si atom -12389.669834 kJ/mol
# Density = 1.786680 g / cm^3
# Si number density = 17.907561 Si / 1000 Ang^3
#
#
#
# Elastic Constant Matrix: (Units=GPa)
#
#
# Indices 1 2 3 4 5 6 
#
# 1 125.0793 52.2382 44.3758 0.0000 -7.5665 0.0000
# 2 52.2382 102.2156 37.9428 0.0000 -16.1623 0.0001
# 3 44.3758 37.9428 85.9060 0.0000 -13.5408 0.0000
# 4 0.0000 0.0000 0.0000 11.9554 0.0000 -3.2013
# 5 -7.5665 -16.1623 -13.5408 0.0000 21.8315 0.0000
# 6 0.0000 0.0001 0.0000 -3.2013 0.0000 10.6472
#
#
#
# Elastic Compliance Matrix: (Units=1/GPa)
#
#
# Indices 1 2 3 4 5 6 
#
# 1 0.011224 -0.004527 -0.004116 0.000000 -0.002014 0.000000
# 2 -0.004527 0.014295 -0.002832 0.000000 0.007258 0.000000
# 3 -0.004116 -0.002832 0.016029 0.000000 0.006419 0.000000
# 4 0.000000 0.000000 0.000000 0.090969 0.000000 0.027352
# 5 -0.002014 0.007258 0.006419 0.000000 0.054462 0.000000
# 6 0.000000 0.000000 0.000000 0.027352 0.000000 0.102146
#
#
# Mechanical properties :
#
#
# Convention : Reuss Voigt Hill
#
# Bulk Modulus (GPa) = 53.76334 64.70160 59.23247
# Shear Modulus (GPa) = 15.70976 20.79640 18.25308
#
# Velocity S-wave (km/s) = 2.96509 3.41151 3.19610
# Velocity P-wave (km/s) = 6.46608 7.19216 6.83876
#
# Compressibility (1/GPa) = 0.01860004
#
# Stress axis : x y z
#
# Youngs Moduli (GPa) = 89.09573 69.95262 62.38590
#
# Poissons Ratio (x) = 0.31665 0.25678
# Poissons Ratio (y) = 0.40331 0.17665
# Poissons Ratio (z) = 0.36672 0.19808
#
# Static dielectric constant tensor:
#      x y z
#    x 3.380000 0.000000 -0.204260 
#    y 0.000000 3.300450 0.000000 
#    z -0.204260 0.000000 3.435630 
# 
# 
# High freq. dielectric constant tensor:
#      x y z
#    x 1.685070 0.000000 -0.014900 
#    y 0.000000 1.681100 0.000000 
#    z -0.014900 0.000000 1.688310 
# 
# From -- ./inp_files/313635.got.cif
#   From: 2010.06.25/outbox.cif.g09.slc.cpg/sg15_157_cif.got.tgz:313635.got - 2010.06.28 07:06:18.
