data_PCOD8132202
_publ_section_title
;
Structure prediction by ZEFSAII (Michael W. Deem and Ramdas Pophale) SiO2 
 PCOD8132202
Probable space group: C 2/C
;
_chemical_formula_sum "Si O2"
_cell_formula_units_Z 64
_cell_length_a 21.048453
_cell_length_b 9.451613
_cell_length_c 16.723069
_cell_angle_alpha 90.000000
_cell_angle_beta 80.980616
_cell_angle_gamma 90.000000
_cell_volume 3285.781840
_symmetry_space_group_name_H-M "C 2/C"
_symmetry_group_IT_number 15
_symmetry_cell_setting 'monoclinic'
loop_
_space_group_symop_operation_xyz
x,y,z
-x,y,1/2-z
-x,-y,-z
x,-y,1/2+z
1/2+x,1/2+y,z
1/2-x,1/2+y,1/2-z
1/2-x,1/2-y,-z
1/2+x,1/2-y,1/2+z
loop_
_atom_site_type_symbol
_atom_site_label
_atom_site_fract_x
_atom_site_fract_y
_atom_site_fract_z
Si Si1 0.978430 0.098044 0.392690
Si Si2 0.755935 0.302817 0.725595
Si Si3 0.695658 0.133266 0.529022
Si Si4 0.048777 0.640062 0.809307
Si Si5 0.580518 0.599995 0.922140
Si Si6 0.624333 0.903030 0.882567
Si Si7 0.131118 0.202089 0.171816
Si Si8 0.722412 0.491619 0.358199
O O1 0.944702 0.081187 0.484003
O O2 0.922834 0.082534 0.335736
O O3 0.011957 0.249755 0.373393
O O4 0.031510 0.976136 0.370574
O O5 0.823116 0.379547 0.696481
O O6 0.700851 0.364360 0.676653
O O7 0.733930 0.352703 0.818261
O O8 0.760937 0.133464 0.709831
O O9 0.750000 0.250000 0.500000
O O10 0.663289 0.064798 0.456970
O O11 0.637083 0.201796 0.590876
O O12 0.730293 0.013468 0.575010
O O13 0.074723 0.522515 0.865320
O O14 0.110255 0.708025 0.753407
O O15 0.000000 0.581310 0.750000
O O16 0.581925 0.763257 0.899799
O O17 0.649719 0.525469 0.902110
#
# Coordination Sequence:
#
# PCOD8132202 Si02
#       8
#     8   8   8   8   8   8   8   8
#     4  10  20  37  58  81 111 152 197 232 280 339
#     4  10  20  33  60  85 115 142 185 237 290 343
#     4  11  17  34  60  86 109 149 191 233 284 347
#     4  10  23  39  57  83 117 155 191 234 288 348
#     4  10  20  34  59  84 110 148 192 240 277 330
#     4  11  20  36  60  88 113 145 191 242 287 337
#     4  10  18  36  59  82 111 153 193 229 286 352
#     4  10  20  35  58  87 114 147 189 235 289 344
#
# _framework density 19.477861000000001
#
# number of rings (size 3 to 8) (size 9 to 14) (size 15 to 20)
#    0.000    1.750    5.000    2.250    0.000    0.500 
#    0.000    4.375    5.500    2.250    0.000    0.000 
#    0.000    0.000    0.000    0.000    0.000    0.000 
#
# Total GULP energy -396552.221582 kJ/mol
# GULP energy per Si atom -12392.256924 kJ/mol
# Density = 1.943353 g / cm^3
# Si number density = 19.477861 Si / 1000 Ang^3
#
#
#
# Elastic Constant Matrix: (Units=GPa)
#
#
# Indices 1 2 3 4 5 6 
#
# 1 115.5259 47.8318 29.3858 0.0000 11.4151 0.0000
# 2 47.8318 61.8364 33.0157 0.0000 10.0235 0.0000
# 3 29.3858 33.0157 84.2520 0.0000 2.4997 0.0000
# 4 0.0000 0.0000 0.0000 32.9537 0.0000 3.7677
# 5 11.4151 10.0235 2.4997 0.0000 36.5376 0.0000
# 6 0.0000 0.0000 0.0000 3.7677 0.0000 29.7386
#
#
#
# Elastic Compliance Matrix: (Units=1/GPa)
#
#
# Indices 1 2 3 4 5 6 
#
# 1 0.012840 -0.009275 -0.000802 0.000000 -0.001412 0.000000
# 2 -0.009275 0.028133 -0.007662 0.000000 -0.004296 0.000000
# 3 -0.000802 -0.007662 0.015112 0.000000 0.001319 0.000000
# 4 0.000000 0.000000 0.000000 0.030792 0.000000 -0.003901
# 5 -0.001412 -0.004296 0.001319 0.000000 0.028899 0.000000
# 6 0.000000 0.000000 0.000000 -0.003901 0.000000 0.034121
#
#
# Mechanical properties :
#
#
# Convention : Reuss Voigt Hill
#
# Bulk Modulus (GPa) = 48.52582 53.56457 51.04520
# Shear Modulus (GPa) = 26.00878 29.93803 27.97341
#
# Velocity S-wave (km/s) = 3.65814 3.92475 3.79379
# Velocity P-wave (km/s) = 6.54294 6.93528 6.74197
#
# Compressibility (1/GPa) = 0.02060758
#
# Stress axis : x y z
#
# Youngs Moduli (GPa) = 77.88385 35.54517 66.17127
#
# Poissons Ratio (x) = 0.32967 0.05306
# Poissons Ratio (y) = 0.72235 0.50702
# Poissons Ratio (z) = 0.06246 0.27235
#
# Static dielectric constant tensor:
#      x y z
#    x 3.931240 0.000000 -0.036020 
#    y 0.000000 3.262620 0.000000 
#    z -0.036020 0.000000 3.664120 
# 
# 
# High freq. dielectric constant tensor:
#      x y z
#    x 1.782710 0.000000 -0.012690 
#    y 0.000000 1.713530 0.000000 
#    z -0.012690 0.000000 1.760370 
# 
# From -- ./inp_files/218246.got.cif
#   From: 2010.06.25/outbox.cif.g09.slc.cpg/sg15_110_cif.got.tgz:218246.got - 2010.06.28 07:06:18.
