data_PCOD8132054
_publ_section_title
;
Structure prediction by ZEFSAII (Michael W. Deem and Ramdas Pophale) SiO2 
 PCOD8132054
Probable space group: C 2/C
;
_chemical_formula_sum "Si O2"
_cell_formula_units_Z 60
_cell_length_a 10.943843
_cell_length_b 22.081347
_cell_length_c 14.536491
_cell_angle_alpha 90.000000
_cell_angle_beta 114.702962
_cell_angle_gamma 90.000000
_cell_volume 3191.343220
_symmetry_space_group_name_H-M "C 2/C"
_symmetry_group_IT_number 15
_symmetry_cell_setting 'monoclinic'
loop_
_space_group_symop_operation_xyz
x,y,z
-x,y,1/2-z
-x,-y,-z
x,-y,1/2+z
1/2+x,1/2+y,z
1/2-x,1/2+y,1/2-z
1/2-x,1/2-y,-z
1/2+x,1/2-y,1/2+z
loop_
_atom_site_type_symbol
_atom_site_label
_atom_site_fract_x
_atom_site_fract_y
_atom_site_fract_z
Si Si1 0.334606 0.997374 0.609344
Si Si2 0.937968 0.327940 0.332012
Si Si3 0.619155 0.864839 0.855309
Si Si4 0.000000 0.126068 0.250000
Si Si5 0.764652 0.053124 0.093703
Si Si6 0.718693 0.709449 0.235744
Si Si7 0.131279 0.537002 0.679734
Si Si8 0.079965 0.334305 0.557900
O O1 0.297690 0.926132 0.598820
O O2 0.232107 0.032677 0.511017
O O3 0.486066 0.006349 0.619598
O O4 0.314323 0.027862 0.700922
O O5 0.821367 0.278290 0.295690
O O6 0.874664 0.391623 0.342968
O O7 0.000000 0.333024 0.250000
O O8 0.050792 0.310681 0.444856
O O9 0.500000 0.885507 0.750000
O O10 0.710234 0.815106 0.833664
O O11 0.560737 0.836545 0.930698
O O12 0.092296 0.083152 0.341234
O O13 0.087291 0.168766 0.211379
O O14 0.643751 0.099170 0.076315
O O15 0.739100 0.993359 0.146327
O O16 0.816360 0.709609 0.355761
#
# Coordination Sequence:
#
# PCOD8132054 Si02
#       8
#     8   8   8   4   8   8   8   8
#     4  11  17  31  58  92 111 132 183 246 290 319
#     4  12  22  37  56  87 118 145 188 239 286 332
#     4  10  18  35  62  87 111 144 195 241 273 329
#     4  10  22  40  56  78 118 162 190 222 270 360
#     4  11  20  36  59  87 117 148 183 232 294 340
#     4  10  23  40  56  81 114 156 194 227 273 343
#     4  11  19  32  57  92 114 134 180 247 291 323
#     4  10  20  36  62  86 108 150 194 239 279 326
#
# _framework density 18.800861000000001
#
# number of rings (size 3 to 8) (size 9 to 14) (size 15 to 20)
#    0.000    1.333    6.000    2.800    0.000    1.067 
#    2.400    2.667    4.400    0.000    0.000    0.000 
#    0.000    0.000    0.000    0.000    0.000    0.000 
#
# Total GULP energy -372049.078157 kJ/mol
# GULP energy per Si atom -12401.635939 kJ/mol
# Density = 1.875807 g / cm^3
# Si number density = 18.800861 Si / 1000 Ang^3
#
#
#
# Elastic Constant Matrix: (Units=GPa)
#
#
# Indices 1 2 3 4 5 6 
#
# 1 66.5727 28.7660 38.3657 0.0000 -2.1212 0.0000
# 2 28.7660 109.3419 33.1941 0.0000 8.8919 0.0000
# 3 38.3657 33.1941 121.4006 0.0000 -4.8485 0.0000
# 4 0.0000 0.0000 0.0000 22.3057 0.0000 4.8321
# 5 -2.1212 8.8919 -4.8485 0.0000 16.2430 0.0000
# 6 0.0000 0.0000 0.0000 4.8321 0.0000 24.5051
#
#
#
# Elastic Compliance Matrix: (Units=1/GPa)
#
#
# Indices 1 2 3 4 5 6 
#
# 1 0.019717 -0.003922 -0.005030 0.000000 0.003220 0.000000
# 2 -0.003922 0.011446 -0.002187 0.000000 -0.007431 0.000000
# 3 -0.005030 -0.002187 0.010572 0.000000 0.003696 0.000000
# 4 0.000000 0.000000 0.000000 0.046832 0.000000 -0.009235
# 5 0.003220 -0.007431 0.003696 0.000000 0.067156 0.000000
# 6 0.000000 0.000000 0.000000 -0.009235 0.000000 0.042629
#
#
# Mechanical properties :
#
#
# Convention : Reuss Voigt Hill
#
# Bulk Modulus (GPa) = 51.39485 55.32964 53.36224
# Shear Modulus (GPa) = 22.01511 25.74340 23.87926
#
# Velocity S-wave (km/s) = 3.42565 3.70438 3.56773
# Velocity P-wave (km/s) = 6.56068 6.91301 6.73915
#
# Compressibility (1/GPa) = 0.01945720
#
# Stress axis : x y z
#
# Youngs Moduli (GPa) = 50.71657 87.36976 94.58601
#
# Poissons Ratio (x) = 0.34268 0.47578
# Poissons Ratio (y) = 0.19892 0.20684
# Poissons Ratio (z) = 0.25511 0.19106
#
# Static dielectric constant tensor:
#      x y z
#    x 3.208660 0.000000 -0.111530 
#    y 0.000000 3.416270 0.000000 
#    z -0.111530 0.000000 3.626220 
# 
# 
# High freq. dielectric constant tensor:
#      x y z
#    x 1.698240 0.000000 -0.017440 
#    y 0.000000 1.728030 0.000000 
#    z -0.017440 0.000000 1.735740 
# 
# From -- ./inp_files/147088.got.cif
#   From: 2010.06.25/outbox.cif.g09.slc.cpg/sg15_74_cif.got.tgz:147088.got - 2010.06.28 07:06:18.
