data_PCOD8132552
_publ_section_title
;
Structure prediction by ZEFSAII (Michael W. Deem and Ramdas Pophale) SiO2 
 PCOD8132552
Probable space group: C 2/C
;
_chemical_formula_sum "Si O2"
_cell_formula_units_Z 64
_cell_length_a 32.054865
_cell_length_b 11.708810
_cell_length_c 19.447265
_cell_angle_alpha 90.000000
_cell_angle_beta 153.591149
_cell_angle_gamma 90.000000
_cell_volume 3246.416137
_symmetry_space_group_name_H-M "C 2/C"
_symmetry_group_IT_number 15
_symmetry_cell_setting 'monoclinic'
loop_
_space_group_symop_operation_xyz
x,y,z
-x,y,1/2-z
-x,-y,-z
x,-y,1/2+z
1/2+x,1/2+y,z
1/2-x,1/2+y,1/2-z
1/2-x,1/2-y,-z
1/2+x,1/2-y,1/2+z
loop_
_atom_site_type_symbol
_atom_site_label
_atom_site_fract_x
_atom_site_fract_y
_atom_site_fract_z
Si Si1 0.279291 0.889958 0.379799
Si Si2 0.344278 0.240283 0.850991
Si Si3 0.006390 0.445184 0.583262
Si Si4 0.700605 0.409716 0.916183
Si Si5 0.430083 0.930696 0.090403
Si Si6 0.695553 0.134239 0.430080
Si Si7 0.395773 0.463176 0.858573
Si Si8 0.815309 0.253846 0.993009
O O1 0.291033 0.782719 0.345226
O O2 0.329243 0.862987 0.525811
O O3 0.332980 0.003036 0.433826
O O4 0.170018 0.925991 0.225063
O O5 0.382476 0.370576 0.900698
O O6 0.272102 0.216671 0.682818
O O7 0.430124 0.153838 0.975408
O O8 0.104441 0.383703 0.747516
O O9 0.000000 0.500000 0.500000
O O10 0.986749 0.555442 0.603055
O O11 0.624575 0.403626 0.744092
O O12 0.791596 0.346814 0.017496
O O13 0.730552 0.536517 0.980033
O O14 0.656392 0.356677 0.920566
O O15 0.500000 0.984839 0.250000
O O16 0.400251 0.802232 0.070596
O O17 0.750000 0.250000 0.500000
O O18 0.500000 0.500000 0.000000
#
# Coordination Sequence:
#
# PCOD8132552 Si02
#       8
#     8   8   8   8   8   8   8   8
#     4  10  21  42  61  83 121 169 206 254 324 386
#     4  10  22  37  62  87 123 161 205 264 321 378
#     4  11  24  38  62  99 126 162 228 273 314 395
#     4   9  19  37  63  85 120 159 210 259 325 390
#     4  11  19  38  65  85 122 161 210 262 327 375
#     4  11  22  39  63  91 129 173 210 262 331 400
#     4  10  21  41  63  88 125 168 206 255 323 394
#     4  10  18  38  62  88 116 160 205 272 330 373
#
# _framework density 19.714046
#
# number of rings (size 3 to 8) (size 9 to 14) (size 15 to 20)
#    0.000    1.750    5.000    0.750    3.500    3.000 
#    4.500    0.000    0.000    0.000    0.000    0.000 
#    0.000    0.000    0.000    0.000    0.000    0.000 
#
# Total GULP energy -396424.492253 kJ/mol
# GULP energy per Si atom -12388.265383 kJ/mol
# Density = 1.966918 g / cm^3
# Si number density = 19.714046 Si / 1000 Ang^3
#
#
#
# Elastic Constant Matrix: (Units=GPa)
#
#
# Indices 1 2 3 4 5 6 
#
# 1 119.0655 61.7600 59.3780 0.0000 -12.1177 0.0000
# 2 61.7600 109.6905 49.0815 0.0000 -4.2136 0.0000
# 3 59.3780 49.0815 111.8214 0.0000 3.4571 0.0000
# 4 0.0000 0.0000 0.0000 24.8866 0.0000 -0.8035
# 5 -12.1177 -4.2136 3.4571 0.0000 31.3252 0.0000
# 6 0.0000 0.0000 0.0000 -0.8035 0.0000 36.9076
#
#
#
# Elastic Compliance Matrix: (Units=1/GPa)
#
#
# Indices 1 2 3 4 5 6 
#
# 1 0.014558 -0.005539 -0.005469 0.000000 0.005490 0.000000
# 2 -0.005539 0.013589 -0.003024 0.000000 0.000019 0.000000
# 3 -0.005469 -0.003024 0.013298 0.000000 -0.003990 0.000000
# 4 0.000000 0.000000 0.000000 0.040211 0.000000 0.000875
# 5 0.005490 0.000019 -0.003990 0.000000 0.034490 0.000000
# 6 0.000000 0.000000 0.000000 0.000875 0.000000 0.027114
#
#
# Mechanical properties :
#
#
# Convention : Reuss Voigt Hill
#
# Bulk Modulus (GPa) = 74.73312 75.66847 75.20080
# Shear Modulus (GPa) = 28.44434 29.98107 29.21270
#
# Velocity S-wave (km/s) = 3.80260 3.90397 3.85362
# Velocity P-wave (km/s) = 7.56773 7.66731 7.61768
#
# Compressibility (1/GPa) = 0.01338095
#
# Stress axis : x y z
#
# Youngs Moduli (GPa) = 68.69200 73.58962 75.20146
#
# Poissons Ratio (x) = 0.40758 0.41127
# Poissons Ratio (y) = 0.38046 0.22742
# Poissons Ratio (z) = 0.37567 0.22254
#
# Static dielectric constant tensor:
#      x y z
#    x 4.208050 0.000000 -0.142520 
#    y 0.000000 3.482450 0.000000 
#    z -0.142520 0.000000 3.674310 
# 
# 
# High freq. dielectric constant tensor:
#      x y z
#    x 1.760750 0.000000 -0.007170 
#    y 0.000000 1.752100 0.000000 
#    z -0.007170 0.000000 1.772210 
# 
# From -- ./inp_files/225208.got.cif
#   From: 2010.06.25/outbox.cif.g09.slc.cpg/sg15_113_cif.got.tgz:225208.got - 2010.06.28 07:06:18.
