data_PCOD8132624
_publ_section_title
;
Structure prediction by ZEFSAII (Michael W. Deem and Ramdas Pophale) SiO2 
 PCOD8132624
Probable space group: C 2/C
;
_chemical_formula_sum "Si O2"
_cell_formula_units_Z 64
_cell_length_a 17.666712
_cell_length_b 14.163147
_cell_length_c 11.980166
_cell_angle_alpha 90.000000
_cell_angle_beta 88.690983
_cell_angle_gamma 90.000000
_cell_volume 2996.849777
_symmetry_space_group_name_H-M "C 2/C"
_symmetry_group_IT_number 15
_symmetry_cell_setting 'monoclinic'
loop_
_space_group_symop_operation_xyz
x,y,z
-x,y,1/2-z
-x,-y,-z
x,-y,1/2+z
1/2+x,1/2+y,z
1/2-x,1/2+y,1/2-z
1/2-x,1/2-y,-z
1/2+x,1/2-y,1/2+z
loop_
_atom_site_type_symbol
_atom_site_label
_atom_site_fract_x
_atom_site_fract_y
_atom_site_fract_z
Si Si1 0.330239 0.143085 0.414168
Si Si2 0.421598 0.839003 0.695059
Si Si3 0.335864 0.711727 0.092630
Si Si4 0.155699 0.441215 0.001850
Si Si5 0.690717 0.382415 0.592513
Si Si6 0.418628 0.560784 0.211668
Si Si7 0.876085 0.137958 0.637429
Si Si8 0.211810 0.314169 0.189753
O O1 0.353332 0.147016 0.284381
O O2 0.362625 0.233139 0.480975
O O3 0.239609 0.149830 0.423417
O O4 0.364543 0.048395 0.466936
O O5 0.500000 0.871430 0.750000
O O6 0.405375 0.901023 0.584636
O O7 0.426411 0.728874 0.664167
O O8 0.400495 0.635271 0.114480
O O9 0.326109 0.791412 0.189830
O O10 0.239171 0.446963 0.945547
O O11 0.156713 0.379814 0.116455
O O12 0.646487 0.431324 0.693846
O O13 0.632527 0.366087 0.494817
O O14 0.727232 0.282604 0.623909
O O15 0.500000 0.592927 0.250000
O O16 0.422826 0.453770 0.171044
O O17 0.794080 0.137907 0.701691
#
# Coordination Sequence:
#
# PCOD8132624 Si02
#       8
#     8   8   8   8   8   8   8   8
#     4  11  25  41  67  96 125 166 213 275 328 363
#     4  12  25  42  62  91 131 166 217 268 320 390
#     4  10  22  43  64  97 130 165 212 270 318 378
#     4  11  22  39  68  95 118 166 220 270 320 375
#     4  10  20  38  65  92 122 167 214 268 306 379
#     4  11  25  39  60  97 136 172 208 253 327 401
#     4  11  20  39  64  92 124 166 214 257 320 375
#     4  10  18  38  68  93 120 159 215 272 306 377
#
# _framework density 21.35576
#
# number of rings (size 3 to 8) (size 9 to 14) (size 15 to 20)
#    0.000    1.250    3.750    3.375    3.500    3.000 
#    0.000    0.625    0.000    0.000    0.000    0.000 
#    0.000    0.000    0.000    0.000    0.000    0.000 
#
# Total GULP energy -396866.435539 kJ/mol
# GULP energy per Si atom -12402.076111 kJ/mol
# Density = 2.130715 g / cm^3
# Si number density = 21.355760 Si / 1000 Ang^3
#
#
#
# Elastic Constant Matrix: (Units=GPa)
#
#
# Indices 1 2 3 4 5 6 
#
# 1 59.0343 30.2188 13.9203 0.0000 31.4918 0.0000
# 2 30.2188 123.4276 41.3324 0.0000 21.1007 0.0000
# 3 13.9203 41.3324 71.4902 0.0000 23.2155 0.0000
# 4 0.0000 0.0000 0.0000 15.9115 0.0000 0.4806
# 5 31.4918 21.1007 23.2155 0.0000 33.5100 0.0000
# 6 0.0000 0.0000 0.0000 0.4806 0.0000 13.9721
#
#
#
# Elastic Compliance Matrix: (Units=1/GPa)
#
#
# Indices 1 2 3 4 5 6 
#
# 1 0.038108 -0.005562 0.008113 0.000000 -0.037931 0.000000
# 2 -0.005562 0.011094 -0.006141 0.000000 0.002497 0.000000
# 3 0.008113 -0.006141 0.022166 0.000000 -0.019114 0.000000
# 4 0.000000 0.000000 0.000000 0.062913 0.000000 -0.002164
# 5 -0.037931 0.002497 -0.019114 0.000000 0.077158 0.000000
# 6 0.000000 0.000000 0.000000 -0.002164 0.000000 0.071645
#
#
# Mechanical properties :
#
#
# Convention : Reuss Voigt Hill
#
# Bulk Modulus (GPa) = 15.57976 47.21055 31.39515
# Shear Modulus (GPa) = 16.04316 23.91078 19.97697
#
# Velocity S-wave (km/s) = 2.74384 3.34973 3.06181
# Velocity P-wave (km/s) = 4.16526 6.09226 5.21848
#
# Compressibility (1/GPa) = 0.06418585
#
# Stress axis : x y z
#
# Youngs Moduli (GPa) = 26.24150 90.14278 45.11454
#
# Poissons Ratio (x) = 0.50140 -0.36602
# Poissons Ratio (y) = 0.14596 0.27707
# Poissons Ratio (z) = -0.21290 0.55361
#
# Static dielectric constant tensor:
#      x y z
#    x 3.422680 0.000000 0.210940 
#    y 0.000000 3.831210 0.000000 
#    z 0.210940 0.000000 4.071160 
# 
# 
# High freq. dielectric constant tensor:
#      x y z
#    x 1.805310 0.000000 0.019820 
#    y 0.000000 1.841140 0.000000 
#    z 0.019820 0.000000 1.848040 
# 
# From -- ./inp_files/105728.got.cif
#   From: 2010.06.25/outbox.cif.g09.slc.cpg/sg15_53_cif.got.tgz:105728.got - 2010.06.28 07:06:18.
