data_PCOD8132963
_publ_section_title
;
Structure prediction by ZEFSAII (Michael W. Deem and Ramdas Pophale) SiO2 
 PCOD8132963
Probable space group: C 2/C
;
_chemical_formula_sum "Si O2"
_cell_formula_units_Z 44
_cell_length_a 17.524099
_cell_length_b 28.783157
_cell_length_c 5.128457
_cell_angle_alpha 90.000000
_cell_angle_beta 71.051351
_cell_angle_gamma 90.000000
_cell_volume 2446.609949
_symmetry_space_group_name_H-M "C 2/C"
_symmetry_group_IT_number 15
_symmetry_cell_setting 'monoclinic'
loop_
_space_group_symop_operation_xyz
x,y,z
-x,y,1/2-z
-x,-y,-z
x,-y,1/2+z
1/2+x,1/2+y,z
1/2-x,1/2+y,1/2-z
1/2-x,1/2-y,-z
1/2+x,1/2-y,1/2+z
loop_
_atom_site_type_symbol
_atom_site_label
_atom_site_fract_x
_atom_site_fract_y
_atom_site_fract_z
Si Si1 0.628889 0.271531 0.660790
Si Si2 0.500000 0.968714 0.750000
Si Si3 0.251067 0.872597 0.031595
Si Si4 0.324694 0.031955 0.445297
Si Si5 0.414381 0.677469 0.778742
Si Si6 0.795305 0.320719 0.468263
O O1 0.571160 0.294761 0.507872
O O2 0.716154 0.291350 0.491314
O O3 0.629721 0.215392 0.628695
O O4 0.605242 0.284233 0.980207
O O5 0.586376 0.942087 0.659514
O O6 0.500000 0.000000 0.500000
O O7 0.258110 0.927900 0.987770
O O8 0.155509 0.861330 0.156592
O O9 0.300714 0.859312 0.236287
O O10 0.292832 0.845376 0.749081
O O11 0.312656 0.995085 0.228472
O O12 0.500000 0.652739 0.750000
#
# Coordination Sequence:
#
# PCOD8132963 Si02
#       6
#     8   4   8   8   8   8
#     4   9  17  30  49  70  93 127 168 203 241 286
#     4   8  16  30  50  70  88 116 148 186 240 298
#     4  10  19  31  51  75  98 128 166 206 244 287
#     4  10  19  33  53  75  97 124 159 200 248 299
#     4  10  19  31  49  71  99 135 172 203 232 281
#     4   9  17  30  49  72  94 124 162 204 248 286
#
# _framework density 17.984068000000001
#
# number of rings (size 3 to 8) (size 9 to 14) (size 15 to 20)
#    0.000    2.545    0.000    2.727    0.000    4.364 
#    0.000    0.000   12.000    1.091    0.000    0.000 
#    0.000    0.000    0.000    0.000    0.000    0.000 
#
# Total GULP energy -272615.768204 kJ/mol
# GULP energy per Si atom -12391.625827 kJ/mol
# Density = 1.794313 g / cm^3
# Si number density = 17.984068 Si / 1000 Ang^3
#
#
#
# Elastic Constant Matrix: (Units=GPa)
#
#
# Indices 1 2 3 4 5 6 
#
# 1 78.6715 38.1370 17.5182 0.0000 -0.0879 0.0000
# 2 38.1370 78.7543 14.0931 0.0000 -9.0205 0.0000
# 3 17.5182 14.0931 85.2912 0.0000 14.4770 0.0000
# 4 0.0000 0.0000 0.0000 21.0067 0.0000 2.4504
# 5 -0.0879 -9.0205 14.4770 0.0000 21.2587 0.0000
# 6 0.0000 0.0000 0.0000 2.4504 0.0000 17.1025
#
#
#
# Elastic Compliance Matrix: (Units=1/GPa)
#
#
# Indices 1 2 3 4 5 6 
#
# 1 0.017083 -0.008206 -0.001779 0.000000 -0.002199 0.000000
# 2 -0.008206 0.018331 -0.003005 0.000000 0.009791 0.000000
# 3 -0.001779 -0.003005 0.014478 0.000000 -0.011142 0.000000
# 4 0.000000 0.000000 0.000000 0.048413 0.000000 -0.006936
# 5 -0.002199 0.009791 -0.011142 0.000000 0.058772 0.000000
# 6 0.000000 0.000000 0.000000 -0.006936 0.000000 0.059465
#
#
# Mechanical properties :
#
#
# Convention : Reuss Voigt Hill
#
# Bulk Modulus (GPa) = 41.82354 42.46819 42.14586
# Shear Modulus (GPa) = 19.96066 23.40481 21.68274
#
# Velocity S-wave (km/s) = 3.33514 3.61143 3.47603
# Velocity P-wave (km/s) = 6.17554 6.40746 6.29257
#
# Compressibility (1/GPa) = 0.02390998
#
# Stress axis : x y z
#
# Youngs Moduli (GPa) = 58.53848 54.55332 69.07146
#
# Poissons Ratio (x) = 0.44766 0.12291
# Poissons Ratio (y) = 0.48036 0.20758
# Poissons Ratio (z) = 0.10417 0.16395
#
# Static dielectric constant tensor:
#      x y z
#    x 3.505050 0.000000 0.076850 
#    y 0.000000 3.010350 0.000000 
#    z 0.076850 0.000000 3.460140 
# 
# 
# High freq. dielectric constant tensor:
#      x y z
#    x 1.684590 0.000000 0.016470 
#    y 0.000000 1.658820 0.000000 
#    z 0.016470 0.000000 1.716800 
# 
# From -- ./inp_files/10631.got.cif
#   From: 2010.06.25/outbox.cif.g09.slc.cpg/sg15_6_cif.got.tgz:10631.got - 2010.06.28 07:06:18.
