data_PCOD8132567
_publ_section_title
;
Structure prediction by ZEFSAII (Michael W. Deem and Ramdas Pophale) SiO2 
 PCOD8132567
Probable space group: C 2/C
;
_chemical_formula_sum "Si O2"
_cell_formula_units_Z 64
_cell_length_a 19.379487
_cell_length_b 11.556474
_cell_length_c 17.408503
_cell_angle_alpha 90.000000
_cell_angle_beta 131.601795
_cell_angle_gamma 90.000000
_cell_volume 2915.421293
_symmetry_space_group_name_H-M "C 2/C"
_symmetry_group_IT_number 15
_symmetry_cell_setting 'monoclinic'
loop_
_space_group_symop_operation_xyz
x,y,z
-x,y,1/2-z
-x,-y,-z
x,-y,1/2+z
1/2+x,1/2+y,z
1/2-x,1/2+y,1/2-z
1/2-x,1/2-y,-z
1/2+x,1/2-y,1/2+z
loop_
_atom_site_type_symbol
_atom_site_label
_atom_site_fract_x
_atom_site_fract_y
_atom_site_fract_z
Si Si1 0.100367 0.990422 0.658952
Si Si2 0.079083 0.672116 0.433679
Si Si3 0.754950 0.394786 0.866553
Si Si4 0.598532 0.941888 0.733312
Si Si5 0.197519 0.765504 0.220478
Si Si6 0.783213 0.514911 0.038144
Si Si7 0.368409 0.094308 0.876204
Si Si8 0.598048 0.568636 0.985739
O O1 0.130057 0.125410 0.677141
O O2 0.990445 0.985867 0.591869
O O3 0.147426 0.918026 0.763346
O O4 0.124783 0.929093 0.595624
O O5 0.181182 0.629320 0.482009
O O6 0.056396 0.625694 0.503329
O O7 0.073427 0.808631 0.430310
O O8 0.000351 0.616611 0.321395
O O9 0.795624 0.273581 0.864590
O O10 0.803815 0.490825 0.852595
O O11 0.776996 0.407490 0.973432
O O12 0.664662 0.838883 0.751431
O O13 0.642011 0.003864 0.839847
O O14 0.582374 0.051365 0.664853
O O15 0.302842 0.793842 0.320401
O O16 0.682428 0.523260 0.998300
#
# Coordination Sequence:
#
# PCOD8132567 Si02
#       8
#     8   8   8   8   8   8   8   8
#     4  10  21  39  63  93 114 155 205 254 289 347
#     4  11  21  37  58  89 118 157 196 245 307 362
#     4   9  20  36  58  86 123 157 194 241 301 363
#     4  11  21  37  57  87 123 156 202 246 298 358
#     4  10  18  38  63  86 117 156 206 244 300 353
#     4  11  23  38  56  89 128 158 189 245 306 362
#     4   9  19  34  60  85 114 152 202 252 289 346
#     4  11  22  39  62  88 122 151 202 251 300 352
#
# _framework density 21.952231000000001
#
# number of rings (size 3 to 8) (size 9 to 14) (size 15 to 20)
#    0.000    1.750    1.250    4.875    0.000    2.500 
#    2.250    2.500    0.000    0.000    6.500    0.000 
#    0.000    0.000    0.000    0.000    0.000    0.000 
#
# Total GULP energy -396498.746453 kJ/mol
# GULP energy per Si atom -12390.585827 kJ/mol
# Density = 2.190227 g / cm^3
# Si number density = 21.952231 Si / 1000 Ang^3
#
#
#
# Elastic Constant Matrix: (Units=GPa)
#
#
# Indices 1 2 3 4 5 6 
#
# 1 86.8519 20.5683 33.9609 0.0000 -6.8850 0.0000
# 2 20.5683 30.8908 8.2486 0.0000 0.5096 0.0000
# 3 33.9609 8.2486 116.3883 0.0000 -10.7093 0.0000
# 4 0.0000 0.0000 0.0000 23.0943 0.0000 -1.1628
# 5 -6.8850 0.5096 -10.7093 0.0000 30.9249 0.0000
# 6 0.0000 0.0000 0.0000 -1.1628 0.0000 17.3538
#
#
#
# Elastic Compliance Matrix: (Units=1/GPa)
#
#
# Indices 1 2 3 4 5 6 
#
# 1 0.015296 -0.009263 -0.003594 0.000000 0.002314 0.000000
# 2 -0.009263 0.038665 -0.000295 0.000000 -0.002802 0.000000
# 3 -0.003594 -0.000295 0.009904 0.000000 0.002634 0.000000
# 4 0.000000 0.000000 0.000000 0.043447 0.000000 0.002911
# 5 0.002314 -0.002802 0.002634 0.000000 0.033810 0.000000
# 6 0.000000 0.000000 0.000000 0.002911 0.000000 0.057819
#
#
# Mechanical properties :
#
#
# Convention : Reuss Voigt Hill
#
# Bulk Modulus (GPa) = 26.62368 39.96517 33.29443
# Shear Modulus (GPa) = 21.02900 25.69814 23.36357
#
# Velocity S-wave (km/s) = 3.09842 3.42517 3.26589
# Velocity P-wave (km/s) = 4.99546 5.82129 5.42412
#
# Compressibility (1/GPa) = 0.03756054
#
# Stress axis : x y z
#
# Youngs Moduli (GPa) = 65.37522 25.86312 100.97019
#
# Poissons Ratio (x) = 0.23958 0.36288
# Poissons Ratio (y) = 0.60560 0.02979
# Poissons Ratio (z) = 0.23495 0.00763
#
# Static dielectric constant tensor:
#      x y z
#    x 4.006620 0.000000 -0.052260 
#    y 0.000000 3.971900 0.000000 
#    z -0.052260 0.000000 4.108230 
# 
# 
# High freq. dielectric constant tensor:
#      x y z
#    x 1.853630 0.000000 0.004830 
#    y 0.000000 1.838990 0.000000 
#    z 0.004830 0.000000 1.870730 
# 
# From -- ./inp_files/215057.got.cif
#   From: 2010.06.25/outbox.cif.g09.slc.cpg/sg15_108_cif.got.tgz:215057.got - 2010.06.28 07:06:18.
