data_PCOD8132292
_publ_section_title
;
Structure prediction by ZEFSAII (Michael W. Deem and Ramdas Pophale) SiO2 
 PCOD8132292
Probable space group: C 2/C
;
_chemical_formula_sum "Si O2"
_cell_formula_units_Z 60
_cell_length_a 29.695785
_cell_length_b 8.978888
_cell_length_c 23.565758
_cell_angle_alpha 90.000000
_cell_angle_beta 28.878335
_cell_angle_gamma 90.000000
_cell_volume 3034.604723
_symmetry_space_group_name_H-M "C 2/C"
_symmetry_group_IT_number 15
_symmetry_cell_setting 'monoclinic'
loop_
_space_group_symop_operation_xyz
x,y,z
-x,y,1/2-z
-x,-y,-z
x,-y,1/2+z
1/2+x,1/2+y,z
1/2-x,1/2+y,1/2-z
1/2-x,1/2-y,-z
1/2+x,1/2-y,1/2+z
loop_
_atom_site_type_symbol
_atom_site_label
_atom_site_fract_x
_atom_site_fract_y
_atom_site_fract_z
Si Si1 0.453168 0.114761 0.911419
Si Si2 0.747018 0.561705 0.112683
Si Si3 0.073994 0.912037 0.496265
Si Si4 0.500000 0.716690 0.250000
Si Si5 0.741722 0.909929 0.140199
Si Si6 0.560335 0.945534 0.879913
Si Si7 0.799222 0.904569 0.957727
Si Si8 0.905861 0.098272 0.656006
O O1 0.507130 0.181997 0.798082
O O2 0.511687 0.982120 0.873918
O O3 0.357117 0.042423 0.996989
O O4 0.444494 0.238401 0.970631
O O5 0.723674 0.732536 0.154946
O O6 0.714683 0.506825 0.085446
O O7 0.696706 0.445929 0.209602
O O8 0.161956 0.958768 0.436752
O O9 0.095086 0.949086 0.408125
O O10 0.981251 0.009174 0.611750
O O11 0.592072 0.615173 0.145651
O O12 0.660789 0.975382 0.268838
O O13 0.748170 0.977721 0.068954
O O14 0.574320 0.771228 0.863493
O O15 0.500000 0.000000 0.000000
O O16 0.750000 0.750000 0.000000
#
# Coordination Sequence:
#
# PCOD8132292 Si02
#       8
#     8   8   8   4   8   8   8   8
#     4  11  22  40  65  96 119 161 208 260 308 372
#     4  10  22  39  66  93 121 157 208 258 318 363
#     4  10  21  41  63  92 118 160 212 254 317 360
#     4  12  18  34  72  94 126 150 214 264 304 362
#     4  10  22  39  64  92 124 157 208 263 307 371
#     4  12  26  41  60  89 127 167 213 256 312 376
#     4  10  18  36  62  99 119 157 203 265 309 356
#     4  11  24  39  61  89 127 168 201 259 305 380
#
# _framework density 19.771932
#
# number of rings (size 3 to 8) (size 9 to 14) (size 15 to 20)
#    0.000    1.333    5.333    3.200    3.733    1.067 
#    0.000    0.667    2.933    0.000    0.000    0.000 
#    0.000    0.000    0.000    0.000    0.000    0.000 
#
# Total GULP energy -371860.779167 kJ/mol
# GULP energy per Si atom -12395.359306 kJ/mol
# Density = 1.972693 g / cm^3
# Si number density = 19.771932 Si / 1000 Ang^3
#
#
#
# Elastic Constant Matrix: (Units=GPa)
#
#
# Indices 1 2 3 4 5 6 
#
# 1 105.0271 21.4874 29.3257 -0.0131 0.9067 0.0165
# 2 21.4874 54.1980 18.8401 0.0524 -4.9277 -0.0301
# 3 29.3257 18.8401 104.9577 0.0454 2.9390 -0.0208
# 4 -0.0131 0.0524 0.0454 29.1464 -0.0106 -1.9517
# 5 0.9067 -4.9277 2.9390 -0.0106 36.7510 0.0015
# 6 0.0165 -0.0301 -0.0208 -1.9517 0.0015 19.7342
#
#
#
# Elastic Compliance Matrix: (Units=1/GPa)
#
#
# Indices 1 2 3 4 5 6 
#
# 1 0.010922 -0.003546 -0.002400 0.000014 -0.000553 -0.000016
# 2 -0.003546 0.021150 -0.002894 -0.000032 0.003155 0.000029
# 3 -0.002400 -0.002894 0.010751 -0.000013 -0.001189 0.000008
# 4 0.000014 -0.000032 -0.000013 0.034538 0.000006 0.003416
# 5 -0.000553 0.003155 -0.001189 0.000006 0.027742 0.000003
# 6 -0.000016 0.000029 0.000008 0.003416 0.000003 0.051011
#
#
# Mechanical properties :
#
#
# Convention : Reuss Voigt Hill
#
# Bulk Modulus (GPa) = 39.77274 44.83216 42.30245
# Shear Modulus (GPa) = 27.44631 30.09496 28.77064
#
# Velocity S-wave (km/s) = 3.72982 3.90565 3.81875
# Velocity P-wave (km/s) = 6.22159 6.56222 6.39417
#
# Compressibility (1/GPa) = 0.02514285
#
# Stress axis : x y z
#
# Youngs Moduli (GPa) = 91.56135 47.28216 93.01601
#
# Poissons Ratio (x) = 0.16767 0.22319
# Poissons Ratio (y) = 0.32469 0.26918
# Poissons Ratio (z) = 0.21970 0.13683
#
# Static dielectric constant tensor:
#      x y z
#    x 3.555990 -0.001320 0.070690 
#    y -0.001320 2.526860 0.001230 
#    z 0.070690 0.001230 3.855710 
# 
# 
# High freq. dielectric constant tensor:
#      x y z
#    x 1.788880 0.000000 -0.000270 
#    y 0.000000 1.723110 0.000000 
#    z -0.000270 0.000000 1.786710 
# 
# From -- ./inp_files/284297.got.cif
#   From: 2010.06.25/outbox.cif.g09.slc.cpg/sg15_143_cif.got.tgz:284297.got - 2010.06.28 07:06:18.
