data_PCOD8132214
_publ_section_title
;
Structure prediction by ZEFSAII (Michael W. Deem and Ramdas Pophale) SiO2 
 PCOD8132214
Probable space group: C 2/C
;
_chemical_formula_sum "Si O2"
_cell_formula_units_Z 60
_cell_length_a 18.681537
_cell_length_b 12.139704
_cell_length_c 21.492675
_cell_angle_alpha 90.000000
_cell_angle_beta 36.761539
_cell_angle_gamma 90.000000
_cell_volume 2917.192828
_symmetry_space_group_name_H-M "C 2/C"
_symmetry_group_IT_number 15
_symmetry_cell_setting 'monoclinic'
loop_
_space_group_symop_operation_xyz
x,y,z
-x,y,1/2-z
-x,-y,-z
x,-y,1/2+z
1/2+x,1/2+y,z
1/2-x,1/2+y,1/2-z
1/2-x,1/2-y,-z
1/2+x,1/2-y,1/2+z
loop_
_atom_site_type_symbol
_atom_site_label
_atom_site_fract_x
_atom_site_fract_y
_atom_site_fract_z
Si Si1 0.083362 0.364506 0.342057
Si Si2 0.482441 0.593683 0.959682
Si Si3 0.120718 0.226314 0.062686
Si Si4 0.180790 0.575167 0.320741
Si Si5 0.713767 0.268541 0.851067
Si Si6 0.000000 0.921637 0.750000
Si Si7 0.319229 0.287713 0.113972
Si Si8 0.370514 0.434691 0.252409
O O1 0.074528 0.491495 0.373272
O O2 0.106661 0.285501 0.385077
O O3 0.188564 0.338346 0.218907
O O4 0.958059 0.335968 0.395601
O O5 0.591812 0.676692 0.893987
O O6 0.501107 0.567015 0.873345
O O7 0.500000 0.500000 0.000000
O O8 0.353889 0.654447 0.051946
O O9 0.046460 0.150844 0.160742
O O10 0.250000 0.250000 0.000000
O O11 0.141848 0.167901 0.981059
O O12 0.203667 0.653896 0.247283
O O13 0.168848 0.652729 0.390685
O O14 0.290761 0.494969 0.256511
O O15 0.803454 0.178643 0.818933
O O16 0.108552 0.997676 0.698884
#
# Coordination Sequence:
#
# PCOD8132214 Si02
#       8
#     8   8   8   8   8   4   8   8
#     4  10  20  36  60  91 132 158 195 259 314 367
#     4  12  19  34  64  95 118 157 209 258 314 365
#     4  12  24  40  59  88 126 169 212 251 304 389
#     4  10  18  36  59  94 128 152 196 262 323 357
#     4  10  19  36  59  98 125 151 208 263 314 367
#     4  12  26  46  62  84 128 176 212 250 324 380
#     4  11  21  36  60  94 123 156 205 257 314 369
#     4  11  22  39  62  89 126 167 206 261 315 376
#
# _framework density 20.567717999999999
#
# number of rings (size 3 to 8) (size 9 to 14) (size 15 to 20)
#    0.000    1.067    6.667    4.000    0.000    0.533 
#    2.400    0.667    0.000    4.000    0.000    0.000 
#    0.000    0.000    0.000    0.000    0.000    0.000 
#
# Total GULP energy -371657.706986 kJ/mol
# GULP energy per Si atom -12388.590233 kJ/mol
# Density = 2.052090 g / cm^3
# Si number density = 20.567718 Si / 1000 Ang^3
#
#
#
# Elastic Constant Matrix: (Units=GPa)
#
#
# Indices 1 2 3 4 5 6 
#
# 1 74.7293 25.4154 15.6730 0.0000 -7.6461 0.0000
# 2 25.4154 101.1576 21.5258 0.0000 -3.1951 0.0000
# 3 15.6730 21.5258 78.6601 -0.0001 8.0437 0.0001
# 4 0.0000 0.0000 -0.0001 20.6446 0.0001 -0.5506
# 5 -7.6461 -3.1951 8.0437 0.0001 31.4163 0.0000
# 6 0.0000 0.0000 0.0001 -0.5506 0.0000 35.4749
#
#
#
# Elastic Compliance Matrix: (Units=1/GPa)
#
#
# Indices 1 2 3 4 5 6 
#
# 1 0.015437 -0.003191 -0.002622 0.000000 0.004104 0.000000
# 2 -0.003191 0.011262 -0.002551 0.000000 0.001022 0.000000
# 3 -0.002622 -0.002551 0.014402 0.000000 -0.004585 0.000000
# 4 0.000000 0.000000 0.000000 0.048459 0.000000 0.000752
# 5 0.004104 0.001022 -0.004585 0.000000 0.034107 0.000000
# 6 0.000000 0.000000 0.000000 0.000752 0.000000 0.028201
#
#
# Mechanical properties :
#
#
# Convention : Reuss Voigt Hill
#
# Bulk Modulus (GPa) = 41.02772 42.19729 41.61250
# Shear Modulus (GPa) = 28.29332 30.30267 29.29800
#
# Velocity S-wave (km/s) = 3.71296 3.84254 3.77830
# Velocity P-wave (km/s) = 6.19454 6.34410 6.26977
#
# Compressibility (1/GPa) = 0.02437377
#
# Stress axis : x y z
#
# Youngs Moduli (GPa) = 64.78079 88.79187 69.43334
#
# Poissons Ratio (x) = 0.28331 0.18207
# Poissons Ratio (y) = 0.20670 0.17711
# Poissons Ratio (z) = 0.16987 0.22648
#
# Static dielectric constant tensor:
#      x y z
#    x 3.486030 0.000000 0.054820 
#    y 0.000000 4.269360 0.000000 
#    z 0.054820 0.000000 3.908580 
# 
# 
# High freq. dielectric constant tensor:
#      x y z
#    x 1.762150 0.000000 -0.000550 
#    y 0.000000 1.808950 0.000000 
#    z -0.000550 0.000000 1.814300 
# 
# From -- ./inp_files/248762.got.cif
#   From: 2010.06.25/outbox.cif.g09.slc.cpg/sg15_125_cif.got.tgz:248762.got - 2010.06.28 07:06:18.
