data_PCOD8132869
_publ_section_title
;
Structure prediction by ZEFSAII (Michael W. Deem and Ramdas Pophale) SiO2 
 PCOD8132869
Probable space group: C 2/C
;
_chemical_formula_sum "Si O2"
_cell_formula_units_Z 60
_cell_length_a 15.466216
_cell_length_b 22.611987
_cell_length_c 17.559068
_cell_angle_alpha 90.000000
_cell_angle_beta 28.710862
_cell_angle_gamma 90.000000
_cell_volume 2949.972823
_symmetry_space_group_name_H-M "C 2/C"
_symmetry_group_IT_number 15
_symmetry_cell_setting 'monoclinic'
loop_
_space_group_symop_operation_xyz
x,y,z
-x,y,1/2-z
-x,-y,-z
x,-y,1/2+z
1/2+x,1/2+y,z
1/2-x,1/2+y,1/2-z
1/2-x,1/2-y,-z
1/2+x,1/2-y,1/2+z
loop_
_atom_site_type_symbol
_atom_site_label
_atom_site_fract_x
_atom_site_fract_y
_atom_site_fract_z
Si Si1 0.136219 0.418804 0.365408
Si Si2 0.230432 0.568501 0.434399
Si Si3 0.844420 0.167447 0.469863
Si Si4 0.035804 0.119847 0.970614
Si Si5 0.586176 0.058418 0.074373
Si Si6 0.500000 0.765951 0.250000
Si Si7 0.918493 0.985302 0.654730
Si Si8 0.723603 0.421683 0.930168
O O1 0.277504 0.372640 0.219197
O O2 0.107157 0.408563 0.477771
O O3 0.220440 0.485048 0.291652
O O4 0.951305 0.407530 0.464397
O O5 0.303111 0.615539 0.440701
O O6 0.180781 0.505614 0.509610
O O7 0.385914 0.560859 0.250335
O O8 0.968737 0.150573 0.444984
O O9 0.659998 0.190315 0.648780
O O10 0.951396 0.223471 0.356669
O O11 0.996633 0.049578 0.020387
O O12 0.868393 0.134842 0.043291
O O13 0.688287 0.099072 0.058288
O O14 0.377031 0.050500 0.257281
O O15 0.062812 0.032457 0.573550
#
# Coordination Sequence:
#
# PCOD8132869 Si02
#       8
#     8   8   8   8   8   4   8   8
#     4  10  20  31  46  73 110 146 183 217 244 290
#     4  11  20  32  52  75 103 147 188 212 254 316
#     4  11  23  39  58  78 103 135 177 229 283 335
#     4  11  20  32  51  73  99 135 178 215 259 323
#     4  10  20  33  48  73 113 150 177 213 248 288
#     4  10  24  42  56  76 104 128 170 242 300 328
#     4  10  19  30  45  71 105 141 181 218 242 286
#     4  10  20  32  47  70 107 146 179 212 250 292
#
# _framework density 20.339171
#
# number of rings (size 3 to 8) (size 9 to 14) (size 15 to 20)
#    0.000    1.600    0.000    8.000    0.000    9.067 
#    0.000    0.000    0.000    0.000    0.000    0.000 
#    0.000   36.267    0.000    0.000    0.000    0.000 
#
# Total GULP energy -371677.839120 kJ/mol
# GULP energy per Si atom -12389.261304 kJ/mol
# Density = 2.029288 g / cm^3
# Si number density = 20.339171 Si / 1000 Ang^3
#
#
#
# Elastic Constant Matrix: (Units=GPa)
#
#
# Indices 1 2 3 4 5 6 
#
# 1 149.5639 20.5017 41.6306 0.1171 -3.2299 -0.0156
# 2 20.5017 30.3425 5.5523 0.1393 -3.5290 0.0127
# 3 41.6306 5.5523 112.4016 0.1247 1.7195 -0.0127
# 4 0.1171 0.1393 0.1247 -6.2266 0.0638 -6.8561
# 5 -3.2299 -3.5290 1.7195 0.0638 30.5811 0.0227
# 6 -0.0156 0.0127 -0.0127 -6.8561 0.0227 11.5801
#
#
#
# Elastic Compliance Matrix: (Units=1/GPa)
#
#
# Indices 1 2 3 4 5 6 
#
# 1 0.008147 -0.004944 -0.002780 -0.000013 0.000446 0.000005
# 2 -0.004944 0.036735 -0.000041 0.000500 0.003718 0.000242
# 3 -0.002780 -0.000041 0.009941 0.000077 -0.000858 0.000054
# 4 -0.000013 0.000500 0.000077 -0.097210 0.000297 -0.057556
# 5 0.000446 0.003718 -0.000858 0.000297 0.033224 0.000107
# 6 0.000005 0.000242 0.000054 -0.057556 0.000107 0.052278
#
#
# Mechanical properties :
#
#
# Convention : Reuss Voigt Hill
#
# Bulk Modulus (GPa) = 25.44940 47.51968 36.48454
# Shear Modulus (GPa) = 69.69231 22.16180 45.92706
#
# Velocity S-wave (km/s) = 5.85999 3.30451 4.75706
# Velocity P-wave (km/s) = 7.63712 6.16231 6.93901
#
# Compressibility (1/GPa) = 0.03929366
#
# Stress axis : x y z
#
# Youngs Moduli (GPa) = 122.73944 27.22178 100.58932
#
# Poissons Ratio (x) = 0.13459 0.27965
# Poissons Ratio (y) = 0.60686 0.00410
# Poissons Ratio (z) = 0.34123 0.00111
#
# Static dielectric constant tensor:
#      x y z
#    x 3.930340 -0.000150 -0.033510 
#    y -0.000150 3.134920 0.000350 
#    z -0.033510 0.000350 4.086130 
# 
# 
# High freq. dielectric constant tensor:
#      x y z
#    x 1.814710 -0.000010 0.001290 
#    y -0.000010 1.709010 0.000030 
#    z 0.001290 0.000030 1.826430 
# 
# From -- ./inp_files/207228.got.cif
#   From: 2010.06.25/outbox.cif.g09.slc.cpg/sg15_104_cif.got.tgz:207228.got - 2010.06.28 07:06:18.
