data_PCOD8132638
_publ_section_title
;
Structure prediction by ZEFSAII (Michael W. Deem and Ramdas Pophale) SiO2 
 PCOD8132638
Probable space group: C 2/C
;
_chemical_formula_sum "Si O2"
_cell_formula_units_Z 60
_cell_length_a 18.373187
_cell_length_b 10.126353
_cell_length_c 30.828250
_cell_angle_alpha 90.000000
_cell_angle_beta 150.488023
_cell_angle_gamma 90.000000
_cell_volume 2825.437305
_symmetry_space_group_name_H-M "C 2/C"
_symmetry_group_IT_number 15
_symmetry_cell_setting 'monoclinic'
loop_
_space_group_symop_operation_xyz
x,y,z
-x,y,1/2-z
-x,-y,-z
x,-y,1/2+z
1/2+x,1/2+y,z
1/2-x,1/2+y,1/2-z
1/2-x,1/2-y,-z
1/2+x,1/2-y,1/2+z
loop_
_atom_site_type_symbol
_atom_site_label
_atom_site_fract_x
_atom_site_fract_y
_atom_site_fract_z
Si Si1 0.488014 0.904910 0.859557
Si Si2 0.265054 0.677981 0.067363
Si Si3 0.970854 0.542239 0.935703
Si Si4 0.443647 0.493501 0.422521
Si Si5 0.168899 0.655418 0.759264
Si Si6 0.722989 0.461226 0.013701
Si Si7 0.277005 0.742985 0.301465
Si Si8 0.500000 0.719750 0.250000
O O1 0.403217 0.775096 0.796569
O O2 0.485940 0.915345 0.911481
O O3 0.387894 0.022673 0.791150
O O4 0.654071 0.922504 0.927148
O O5 0.285069 0.836629 0.073256
O O6 0.367469 0.632117 0.161003
O O7 0.324677 0.597703 0.057262
O O8 0.094113 0.649648 0.986635
O O9 0.815039 0.619465 0.846586
O O10 0.000000 0.500000 0.000000
O O11 0.500000 0.500000 0.500000
O O12 0.337330 0.366956 0.362305
O O13 0.581627 0.471850 0.462036
O O14 0.354724 0.626942 0.367787
O O15 0.162739 0.761739 0.717025
O O16 0.067109 0.693242 0.746417
#
# Coordination Sequence:
#
# PCOD8132638 Si02
#       8
#     8   8   8   8   8   8   8   4
#     4   9  20  37  60  83 120 164 197 247 313 369
#     4  10  20  33  59  88 118 156 191 261 309 357
#     4  10  21  37  60  94 123 162 204 255 309 372
#     4  11  22  35  59  89 114 154 208 255 297 367
#     4  10  22  35  56  89 118 154 193 254 310 364
#     4  10  18  39  57  82 121 153 203 247 315 362
#     4  10  21  40  56  86 128 161 199 246 320 365
#     4  12  20  32  58  94 118 142 204 254 310 340
#
# _framework density 21.23565
#
# number of rings (size 3 to 8) (size 9 to 14) (size 15 to 20)
#    0.000    1.867    2.667    1.600    1.867    0.000 
#    2.400    0.667    0.000    3.200    0.000    0.000 
#    0.000    0.000    0.000    0.000    0.000    0.000 
#
# Total GULP energy -371756.363779 kJ/mol
# GULP energy per Si atom -12391.878793 kJ/mol
# Density = 2.118732 g / cm^3
# Si number density = 21.235650 Si / 1000 Ang^3
#
#
#
# Elastic Constant Matrix: (Units=GPa)
#
#
# Indices 1 2 3 4 5 6 
#
# 1 96.4955 14.2426 25.5648 0.0001 -9.8752 0.0000
# 2 14.2426 33.5866 17.2415 0.0000 -3.5880 0.0000
# 3 25.5648 17.2415 110.7858 0.0002 -13.8232 -0.0001
# 4 0.0001 0.0000 0.0002 33.1067 0.0000 -0.9635
# 5 -9.8752 -3.5880 -13.8232 0.0000 41.1607 0.0000
# 6 0.0000 0.0000 -0.0001 -0.9635 0.0000 14.0901
#
#
#
# Elastic Compliance Matrix: (Units=1/GPa)
#
#
# Indices 1 2 3 4 5 6 
#
# 1 0.011600 -0.003768 -0.001862 0.000000 0.001829 0.000000
# 2 -0.003768 0.033638 -0.004292 0.000000 0.000587 0.000000
# 3 -0.001862 -0.004292 0.010460 0.000000 0.002692 0.000000
# 4 0.000000 0.000000 0.000000 0.030266 0.000000 0.002070
# 5 0.001829 0.000587 0.002692 0.000000 0.025689 0.000000
# 6 0.000000 0.000000 0.000000 0.002070 0.000000 0.071113
#
#
# Mechanical properties :
#
#
# Convention : Reuss Voigt Hill
#
# Bulk Modulus (GPa) = 27.89156 39.44063 33.66609
# Shear Modulus (GPa) = 23.30342 29.92609 26.61476
#
# Velocity S-wave (km/s) = 3.31626 3.75805 3.54405
# Velocity P-wave (km/s) = 5.27506 6.11913 5.71271
#
# Compressibility (1/GPa) = 0.03585314
#
# Stress axis : x y z
#
# Youngs Moduli (GPa) = 86.20826 29.72864 95.60192
#
# Poissons Ratio (x) = 0.11201 0.17803
# Poissons Ratio (y) = 0.32480 0.41036
# Poissons Ratio (z) = 0.16053 0.12761
#
# Static dielectric constant tensor:
#      x y z
#    x 4.075250 0.000000 -0.092380 
#    y 0.000000 3.583740 0.000000 
#    z -0.092380 0.000000 4.537500 
# 
# 
# High freq. dielectric constant tensor:
#      x y z
#    x 1.823980 0.000000 -0.007350 
#    y 0.000000 1.787520 0.000000 
#    z -0.007350 0.000000 1.859180 
# 
# From -- ./inp_files/316073.got.cif
#   From: 2010.06.25/outbox.cif.g09.slc.cpg/sg15_159_cif.got.tgz:316073.got - 2010.06.28 07:06:18.
