data_PCOD8132614
_publ_section_title
;
Structure prediction by ZEFSAII (Michael W. Deem and Ramdas Pophale) SiO2 
 PCOD8132614
Probable space group: C 2/C
;
_chemical_formula_sum "Si O2"
_cell_formula_units_Z 44
_cell_length_a 9.724280
_cell_length_b 26.909260
_cell_length_c 9.446416
_cell_angle_alpha 90.000000
_cell_angle_beta 122.362351
_cell_angle_gamma 90.000000
_cell_volume 2087.941870
_symmetry_space_group_name_H-M "C 2/C"
_symmetry_group_IT_number 15
_symmetry_cell_setting 'monoclinic'
loop_
_space_group_symop_operation_xyz
x,y,z
-x,y,1/2-z
-x,-y,-z
x,-y,1/2+z
1/2+x,1/2+y,z
1/2-x,1/2+y,1/2-z
1/2-x,1/2-y,-z
1/2+x,1/2-y,1/2+z
loop_
_atom_site_type_symbol
_atom_site_label
_atom_site_fract_x
_atom_site_fract_y
_atom_site_fract_z
Si Si1 0.388727 0.523237 0.319257
Si Si2 0.792875 0.777653 0.878103
Si Si3 0.107295 0.278748 0.498370
Si Si4 0.500000 0.865466 0.250000
Si Si5 0.864841 0.889351 0.986573
Si Si6 0.273189 0.580314 0.729191
O O1 0.500000 0.539340 0.250000
O O2 0.500000 0.500000 0.500000
O O3 0.300340 0.573228 0.327867
O O4 0.261357 0.479791 0.207353
O O5 0.640669 0.780190 0.686122
O O6 0.750000 0.750000 0.000000
O O7 0.854827 0.832800 0.937005
O O8 0.936726 0.748582 0.878284
O O9 0.250000 0.250000 0.500000
O O10 0.088768 0.333223 0.420291
O O11 0.366610 0.900975 0.245381
O O12 0.751499 0.896660 0.061359
O O13 0.052597 0.902271 0.116969
#
# Coordination Sequence:
#
# PCOD8132614 Si02
#       6
#     8   8   8   4   8   8
#     4  10  18  38  66  97 124 161 226 277 316 393
#     4  12  26  42  68  98 135 175 225 278 333 401
#     4  12  25  44  64  96 135 175 226 279 330 402
#     4  12  24  42  68  94 142 176 222 278 352 408
#     4  10  22  39  70  94 127 175 230 270 332 404
#     4  10  21  39  66  97 127 176 219 277 342 396
#
# _framework density 21.073383
#
# number of rings (size 3 to 8) (size 9 to 14) (size 15 to 20)
#    0.000    1.091    5.455    2.727    5.091    4.364 
#    0.000    0.909    4.000    0.000    0.000    0.000 
#    0.000    0.000    0.000    0.000    0.000    0.000 
#
# Total GULP energy -272777.134879 kJ/mol
# GULP energy per Si atom -12398.960676 kJ/mol
# Density = 2.102542 g / cm^3
# Si number density = 21.073383 Si / 1000 Ang^3
#
#
#
# Elastic Constant Matrix: (Units=GPa)
#
#
# Indices 1 2 3 4 5 6 
#
# 1 124.5149 54.1280 23.4029 0.0000 -17.0888 0.0000
# 2 54.1280 142.4684 15.2273 0.0000 -12.2002 0.0000
# 3 23.4029 15.2273 88.2235 0.0000 -18.1745 0.0000
# 4 0.0000 0.0000 0.0000 23.8523 0.0000 -13.9627
# 5 -17.0888 -12.2002 -18.1745 0.0000 30.5519 0.0000
# 6 0.0000 0.0000 0.0000 -13.9627 0.0000 26.0959
#
#
#
# Elastic Compliance Matrix: (Units=1/GPa)
#
#
# Indices 1 2 3 4 5 6 
#
# 1 0.010282 -0.003453 -0.001403 0.000000 0.003537 0.000000
# 2 -0.003453 0.008471 -0.000282 0.000000 0.001284 0.000000
# 3 -0.001403 -0.000282 0.013187 0.000000 0.006947 0.000000
# 4 0.000000 0.000000 0.000000 0.061044 0.000000 0.032662
# 5 0.003537 0.001284 0.006947 0.000000 0.039355 0.000000
# 6 0.000000 0.000000 0.000000 0.032662 0.000000 0.055796
#
#
# Mechanical properties :
#
#
# Convention : Reuss Voigt Hill
#
# Bulk Modulus (GPa) = 46.15901 60.08035 53.11968
# Shear Modulus (GPa) = 24.31529 33.59660 28.95594
#
# Velocity S-wave (km/s) = 3.40051 3.99716 3.71084
# Velocity P-wave (km/s) = 6.11305 7.06222 6.60471
#
# Compressibility (1/GPa) = 0.02166424
#
# Stress axis : x y z
#
# Youngs Moduli (GPa) = 97.26197 118.04731 75.83381
#
# Poissons Ratio (x) = 0.40767 0.10636
# Poissons Ratio (y) = 0.33589 0.02135
# Poissons Ratio (z) = 0.13642 0.03324
#
# Static dielectric constant tensor:
#      x y z
#    x 5.369820 0.000000 -3.193000 
#    y 0.000000 4.806920 0.000000 
#    z -3.193000 0.000000 9.149950 
# 
# 
# High freq. dielectric constant tensor:
#      x y z
#    x 1.819970 0.000000 -0.028270 
#    y 0.000000 1.839130 0.000000 
#    z -0.028270 0.000000 1.819580 
# 
# From -- ./inp_files/25485.got.cif
#   From: 2010.06.25/outbox.cif.g09.slc.cpg/sg15_13_cif.got.tgz:25485.got - 2010.06.28 07:06:18.
