data_PCOD8132297
_publ_section_title
;
Structure prediction by ZEFSAII (Michael W. Deem and Ramdas Pophale) SiO2 
 PCOD8132297
Probable space group: C 2/C
;
_chemical_formula_sum "Si O2"
_cell_formula_units_Z 52
_cell_length_a 16.716468
_cell_length_b 8.757741
_cell_length_c 17.374931
_cell_angle_alpha 90.000000
_cell_angle_beta 73.893171
_cell_angle_gamma 90.000000
_cell_volume 2443.815049
_symmetry_space_group_name_H-M "C 2/C"
_symmetry_group_IT_number 15
_symmetry_cell_setting 'monoclinic'
loop_
_space_group_symop_operation_xyz
x,y,z
-x,y,1/2-z
-x,-y,-z
x,-y,1/2+z
1/2+x,1/2+y,z
1/2-x,1/2+y,1/2-z
1/2-x,1/2-y,-z
1/2+x,1/2-y,1/2+z
loop_
_atom_site_type_symbol
_atom_site_label
_atom_site_fract_x
_atom_site_fract_y
_atom_site_fract_z
Si Si1 0.612516 0.464079 0.845969
Si Si2 0.000000 0.086506 0.750000
Si Si3 0.685454 0.804296 0.404026
Si Si4 0.637456 0.179573 0.172134
Si Si5 0.321458 0.702348 0.565858
Si Si6 0.779212 0.423684 0.705205
Si Si7 0.667263 0.036475 0.542489
O O1 0.536474 0.475927 0.806596
O O2 0.612636 0.318279 0.903066
O O3 0.611100 0.614737 0.900311
O O4 0.695445 0.452218 0.773523
O O5 0.067458 0.190841 0.687777
O O6 0.776923 0.732126 0.391610
O O7 0.688523 0.912494 0.329143
O O8 0.661530 0.894187 0.486464
O O9 0.650050 0.145526 0.258612
O O10 0.614249 0.022904 0.130968
O O11 0.265566 0.813180 0.635410
O O12 0.368177 0.809499 0.489543
O O13 0.262112 0.577715 0.541385
#
# Coordination Sequence:
#
# PCOD8132297 Si02
#       7
#     8   4   8   8   8   8   8
#     4  11  20  36  61  89 124 158 204 250 307 360
#     4  12  24  40  58  96 126 166 196 262 320 366
#     4  10  20  36  65  90 122 153 213 252 301 362
#     4  11  21  36  60  91 123 163 203 255 307 365
#     4  10  19  35  62  96 117 152 208 263 294 351
#     4  10  18  36  63  89 117 160 208 257 287 358
#     4  10  21  35  63  95 119 158 211 257 301 359
#
# _framework density 21.278203999999999
#
# number of rings (size 3 to 8) (size 9 to 14) (size 15 to 20)
#    0.000    1.538    6.154    1.385    0.000    0.000 
#    0.000    2.308    0.000    0.000    0.000    0.000 
#    0.000    0.000    0.000    0.000    0.000    0.000 
#
# Total GULP energy -322211.131447 kJ/mol
# GULP energy per Si atom -12392.735825 kJ/mol
# Density = 2.122977 g / cm^3
# Si number density = 21.278204 Si / 1000 Ang^3
#
#
#
# Elastic Constant Matrix: (Units=GPa)
#
#
# Indices 1 2 3 4 5 6 
#
# 1 70.2397 41.3392 29.3337 0.0000 26.6823 0.0000
# 2 41.3392 118.2302 46.6447 0.0000 21.6234 0.0000
# 3 29.3337 46.6447 89.1322 0.0000 28.9273 0.0000
# 4 0.0000 0.0000 0.0000 36.6832 0.0000 13.0816
# 5 26.6823 21.6234 28.9273 0.0000 29.1696 0.0000
# 6 0.0000 0.0000 0.0000 13.0816 0.0000 29.4173
#
#
#
# Elastic Compliance Matrix: (Units=1/GPa)
#
#
# Indices 1 2 3 4 5 6 
#
# 1 0.024287 -0.005393 0.001094 0.000000 -0.019303 0.000000
# 2 -0.005393 0.012103 -0.004790 0.000000 0.000711 0.000000
# 3 0.001094 -0.004790 0.018489 0.000000 -0.015785 0.000000
# 4 0.000000 0.000000 0.000000 0.032398 0.000000 -0.014407
# 5 -0.019303 0.000711 -0.015785 0.000000 0.067066 0.000000
# 6 0.000000 0.000000 0.000000 -0.014407 0.000000 0.040400
#
#
# Mechanical properties :
#
#
# Convention : Reuss Voigt Hill
#
# Bulk Modulus (GPa) = 27.24691 56.91526 42.08108
# Shear Modulus (GPa) = 22.20685 29.73965 25.97325
#
# Velocity S-wave (km/s) = 3.23405 3.74258 3.49757
# Velocity P-wave (km/s) = 5.17478 6.74404 6.01084
#
# Compressibility (1/GPa) = 0.03670142
#
# Stress axis : x y z
#
# Youngs Moduli (GPa) = 41.17449 82.62087 54.08659
#
# Poissons Ratio (x) = 0.44559 -0.05918
# Poissons Ratio (y) = 0.22206 0.25907
# Poissons Ratio (z) = -0.04505 0.39574
#
# Static dielectric constant tensor:
#      x y z
#    x 3.327370 0.000000 0.434710 
#    y 0.000000 4.318060 0.000000 
#    z 0.434710 0.000000 4.148700 
# 
# 
# High freq. dielectric constant tensor:
#      x y z
#    x 1.766250 0.000000 0.034400 
#    y 0.000000 1.853900 0.000000 
#    z 0.034400 0.000000 1.850020 
# 
# From -- ./inp_files/209157.got.cif
#   From: 2010.06.25/outbox.cif.g09.slc.cpg/sg15_105_cif.got.tgz:209157.got - 2010.06.28 07:06:18.
