data_PCOD8132389
_publ_section_title
;
Structure prediction by ZEFSAII (Michael W. Deem and Ramdas Pophale) SiO2 
 PCOD8132389
Probable space group: C 2/C
;
_chemical_formula_sum "Si O2"
_cell_formula_units_Z 40
_cell_length_a 9.835195
_cell_length_b 9.864056
_cell_length_c 22.364461
_cell_angle_alpha 90.000000
_cell_angle_beta 86.808124
_cell_angle_gamma 90.000000
_cell_volume 2166.320365
_symmetry_space_group_name_H-M "C 2/C"
_symmetry_group_IT_number 15
_symmetry_cell_setting 'monoclinic'
loop_
_space_group_symop_operation_xyz
x,y,z
-x,y,1/2-z
-x,-y,-z
x,-y,1/2+z
1/2+x,1/2+y,z
1/2-x,1/2+y,1/2-z
1/2-x,1/2-y,-z
1/2+x,1/2-y,1/2+z
loop_
_atom_site_type_symbol
_atom_site_label
_atom_site_fract_x
_atom_site_fract_y
_atom_site_fract_z
Si Si1 0.610820 0.888118 0.508460
Si Si2 0.725794 0.516146 0.387850
Si Si3 0.995245 0.519056 0.180041
Si Si4 0.001562 0.787768 0.111729
Si Si5 0.201099 0.314060 0.375061
O O1 0.731420 0.954583 0.544771
O O2 0.539794 0.762182 0.544159
O O3 0.670827 0.837237 0.445303
O O4 0.500000 0.000000 0.500000
O O5 0.612846 0.401278 0.387632
O O6 0.669640 0.656334 0.360755
O O7 0.858816 0.468800 0.347862
O O8 0.947628 0.659037 0.150590
O O9 0.884930 0.404933 0.167488
O O10 0.000000 0.541037 0.250000
O O11 0.138623 0.845288 0.139670
#
# Coordination Sequence:
#
# PCOD8132389 Si02
#       5
#     8   8   8   8   8
#     4  10  18  37  58  85 121 149 182 226 281 341
#     4  10  22  36  58  89 113 147 191 229 283 339
#     4  10  22  42  60  77 113 153 190 239 283 327
#     4  10  22  37  59  87 115 146 188 234 280 338
#     4  10  20  39  57  83 120 149 183 234 280 333
#
# _framework density 18.464487999999999
#
# number of rings (size 3 to 8) (size 9 to 14) (size 15 to 20)
#    0.000    2.400    4.000    2.400    0.000    8.800 
#    0.000    1.000    0.000    0.000    0.000    0.000 
#    0.000    0.000    0.000    0.000    0.000    0.000 
#
# Total GULP energy -247929.809150 kJ/mol
# GULP energy per Si atom -12396.490457 kJ/mol
# Density = 1.842246 g / cm^3
# Si number density = 18.464488 Si / 1000 Ang^3
#
#
#
# Elastic Constant Matrix: (Units=GPa)
#
#
# Indices 1 2 3 4 5 6 
#
# 1 110.7048 89.4280 1.8339 0.0000 5.4921 0.0000
# 2 89.4280 124.6888 9.3424 0.0000 14.3085 0.0000
# 3 1.8339 9.3424 45.1927 0.0000 8.7062 0.0000
# 4 0.0000 0.0000 0.0000 12.4113 0.0000 5.8982
# 5 5.4921 14.3085 8.7062 0.0000 13.8653 0.0000
# 6 0.0000 0.0000 0.0000 5.8982 0.0000 55.3149
#
#
#
# Elastic Compliance Matrix: (Units=1/GPa)
#
#
# Indices 1 2 3 4 5 6 
#
# 1 0.022414 -0.017083 0.001065 0.000000 0.008082 0.000000
# 2 -0.017083 0.022117 -0.000894 0.000000 -0.015496 0.000000
# 3 0.001065 -0.000894 0.025224 0.000000 -0.015338 0.000000
# 4 0.000000 0.000000 0.000000 0.084872 0.000000 -0.009050
# 5 0.008082 -0.015496 -0.015338 0.000000 0.094544 0.000000
# 6 0.000000 0.000000 0.000000 -0.009050 0.000000 0.019043
#
#
# Mechanical properties :
#
#
# Convention : Reuss Voigt Hill
#
# Bulk Modulus (GPa) = 27.83027 53.53276 40.68151
# Shear Modulus (GPa) = 15.92282 28.31711 22.11996
#
# Velocity S-wave (km/s) = 2.93976 3.92037 3.46493
# Velocity P-wave (km/s) = 5.16023 7.03900 6.17153
#
# Compressibility (1/GPa) = 0.03593210
#
# Stress axis : x y z
#
# Youngs Moduli (GPa) = 44.61506 45.21400 39.64509
#
# Poissons Ratio (x) = 0.77238 -0.04222
# Poissons Ratio (y) = 0.76215 0.03543
# Poissons Ratio (z) = -0.04751 0.04040
#
# Static dielectric constant tensor:
#      x y z
#    x 3.775330 0.000000 -0.326550 
#    y 0.000000 3.720520 0.000000 
#    z -0.326550 0.000000 3.595480 
# 
# 
# High freq. dielectric constant tensor:
#      x y z
#    x 1.717580 0.000000 -0.003470 
#    y 0.000000 1.718430 0.000000 
#    z -0.003470 0.000000 1.705970 
# 
# From -- ./inp_files/235826.got.cif
#   From: 2010.06.25/outbox.cif.g09.slc.cpg/sg15_118_cif.got.tgz:235826.got - 2010.06.28 07:06:18.
