data_PCOD8132958
_publ_section_title
;
Structure prediction by ZEFSAII (Michael W. Deem and Ramdas Pophale) SiO2 
 PCOD8132958
Probable space group: C 2/C
;
_chemical_formula_sum "Si O2"
_cell_formula_units_Z 56
_cell_length_a 4.964349
_cell_length_b 26.011285
_cell_length_c 25.496599
_cell_angle_alpha 90.000000
_cell_angle_beta 66.036701
_cell_angle_gamma 90.000000
_cell_volume 3008.571104
_symmetry_space_group_name_H-M "C 2/C"
_symmetry_group_IT_number 15
_symmetry_cell_setting 'monoclinic'
loop_
_space_group_symop_operation_xyz
x,y,z
-x,y,1/2-z
-x,-y,-z
x,-y,1/2+z
1/2+x,1/2+y,z
1/2-x,1/2+y,1/2-z
1/2-x,1/2-y,-z
1/2+x,1/2-y,1/2+z
loop_
_atom_site_type_symbol
_atom_site_label
_atom_site_fract_x
_atom_site_fract_y
_atom_site_fract_z
Si Si1 0.327101 0.127884 0.711750
Si Si2 0.317431 0.775519 0.622441
Si Si3 0.224582 0.084381 0.898121
Si Si4 0.290345 0.739027 0.814292
Si Si5 0.569428 0.687127 0.960110
Si Si6 0.948576 0.656394 0.026042
Si Si7 0.908482 0.552244 0.534495
O O1 0.500000 0.146384 0.750000
O O2 0.532452 0.084129 0.668105
O O3 0.277394 0.177800 0.678504
O O4 0.000000 0.104782 0.750000
O O5 0.572977 0.757312 0.641384
O O6 0.294611 0.739571 0.572318
O O7 0.364598 0.832588 0.593939
O O8 0.001823 0.771816 0.675224
O O9 0.359963 0.058891 0.938152
O O10 0.919575 0.052857 0.913303
O O11 0.148679 0.143908 0.911222
O O12 0.500000 0.752913 0.750000
O O13 0.684009 0.670874 0.008235
O O14 0.219068 0.693757 0.990456
O O15 0.054509 0.597384 0.011672
O O16 0.000000 0.500000 0.500000
#
# Coordination Sequence:
#
# PCOD8132958 Si02
#       7
#     8   8   8   8   8   8   8
#     4  11  21  34  52  77 111 146 185 215 255 318
#     4  12  20  33  51  71 107 143 175 211 257 299
#     4  10  20  33  55  78 107 142 172 213 271 320
#     4  11  23  33  49  73 106 146 185 212 249 304
#     4  10  19  31  48  74 108 136 170 203 258 307
#     4  10  21  33  50  77 102 136 176 212 256 326
#     4  10  21  37  56  79 107 134 177 225 276 330
#
# _framework density 18.613486999999999
#
# number of rings (size 3 to 8) (size 9 to 14) (size 15 to 20)
#    0.000    1.429    1.429    6.000    4.000    0.000 
#    0.000    0.000    0.000    0.000    0.000   10.000 
#    0.000    0.000    0.000    0.000    0.000    0.000 
#
# Total GULP energy -347083.838386 kJ/mol
# GULP energy per Si atom -12395.851371 kJ/mol
# Density = 1.857112 g / cm^3
# Si number density = 18.613487 Si / 1000 Ang^3
#
#
#
# Elastic Constant Matrix: (Units=GPa)
#
#
# Indices 1 2 3 4 5 6 
#
# 1 93.1691 17.7654 17.2307 0.0000 -6.5223 0.0000
# 2 17.7654 61.0896 34.2580 0.0000 -3.5200 0.0000
# 3 17.2307 34.2580 71.6297 0.0000 -10.2742 0.0000
# 4 0.0000 0.0000 0.0000 19.3760 0.0000 -1.7697
# 5 -6.5223 -3.5200 -10.2742 0.0000 36.9174 0.0000
# 6 0.0000 0.0000 0.0000 -1.7697 0.0000 19.9851
#
#
#
# Elastic Compliance Matrix: (Units=1/GPa)
#
#
# Indices 1 2 3 4 5 6 
#
# 1 0.011566 -0.002508 -0.001379 0.000000 0.001420 0.000000
# 2 -0.002508 0.022940 -0.010539 0.000000 -0.001189 0.000000
# 3 -0.001379 -0.010539 0.019950 0.000000 0.004304 0.000000
# 4 0.000000 0.000000 0.000000 0.052031 0.000000 0.004607
# 5 0.001420 -0.001189 0.004304 0.000000 0.028423 0.000000
# 6 0.000000 0.000000 0.000000 0.004607 0.000000 0.050445
#
#
# Mechanical properties :
#
#
# Convention : Reuss Voigt Hill
#
# Bulk Modulus (GPa) = 39.05576 40.48852 39.77214
# Shear Modulus (GPa) = 22.44752 25.69798 24.07275
#
# Velocity S-wave (km/s) = 3.47649 3.71969 3.60014
# Velocity P-wave (km/s) = 6.09448 6.34410 6.22054
#
# Compressibility (1/GPa) = 0.02560442
#
# Stress axis : x y z
#
# Youngs Moduli (GPa) = 86.46102 43.59151 50.12552
#
# Poissons Ratio (x) = 0.10935 0.06911
# Poissons Ratio (y) = 0.21688 0.52825
# Poissons Ratio (z) = 0.11921 0.45939
#
# Static dielectric constant tensor:
#      x y z
#    x 3.751260 0.000000 -0.265470 
#    y 0.000000 3.079810 0.000000 
#    z -0.265470 0.000000 3.516190 
# 
# 
# High freq. dielectric constant tensor:
#      x y z
#    x 1.751300 0.000000 -0.010380 
#    y 0.000000 1.665260 0.000000 
#    z -0.010380 0.000000 1.714430 
# 
# From -- ./inp_files/228414.got.cif
#   From: 2010.06.25/outbox.cif.g09.slc.cpg/sg15_115_cif.got.tgz:228414.got - 2010.06.28 07:06:18.
