data_PCOD8132881
_publ_section_title
;
Structure prediction by ZEFSAII (Michael W. Deem and Ramdas Pophale) SiO2 
 PCOD8132881
Probable space group: C 2/C
;
_chemical_formula_sum "Si O2"
_cell_formula_units_Z 64
_cell_length_a 27.313934
_cell_length_b 23.628576
_cell_length_c 17.886294
_cell_angle_alpha 90.000000
_cell_angle_beta 18.897297
_cell_angle_gamma 90.000000
_cell_volume 3738.665633
_symmetry_space_group_name_H-M "C 2/C"
_symmetry_group_IT_number 15
_symmetry_cell_setting 'monoclinic'
loop_
_space_group_symop_operation_xyz
x,y,z
-x,y,1/2-z
-x,-y,-z
x,-y,1/2+z
1/2+x,1/2+y,z
1/2-x,1/2+y,1/2-z
1/2-x,1/2-y,-z
1/2+x,1/2-y,1/2+z
loop_
_atom_site_type_symbol
_atom_site_label
_atom_site_fract_x
_atom_site_fract_y
_atom_site_fract_z
Si Si1 0.260715 0.917595 0.682529
Si Si2 0.852536 0.433044 0.183815
Si Si3 0.692531 0.679895 0.910624
Si Si4 0.124483 0.159398 0.178462
Si Si5 0.532806 0.016885 0.833476
Si Si6 0.821338 0.299477 0.528708
Si Si7 0.834172 0.962473 0.830594
Si Si8 0.088769 0.019063 0.548188
O O1 0.422032 0.947824 0.440474
O O2 0.285147 0.851438 0.635762
O O3 0.154118 0.944717 0.772715
O O4 0.188243 0.930072 0.869071
O O5 0.825146 0.366359 0.206627
O O6 0.940461 0.442720 0.133674
O O7 0.692892 0.466060 0.420457
O O8 0.955613 0.457470 0.967997
O O9 0.735921 0.746036 0.838394
O O10 0.650810 0.681661 0.058004
O O11 0.557036 0.665198 0.048320
O O12 0.220827 0.195433 0.098772
O O13 0.172084 0.094092 0.110518
O O14 0.683166 0.002577 0.569729
O O15 0.000000 0.296352 0.250000
O O16 0.976357 0.000463 0.645179
O O17 0.000000 0.040617 0.750000
#
# Coordination Sequence:
#
# PCOD8132881 Si02
#       8
#     8   8   8   8   8   8   8   8
#     4  10  23  33  46  76 105 136 163 210 260 305
#     4  10  20  31  49  79  99 133 171 214 246 307
#     4  11  19  31  50  70 102 142 170 206 246 305
#     4  10  19  30  47  73  99 135 173 196 252 302
#     4  10  19  32  50  72 109 129 168 206 260 299
#     4  11  22  32  47  72 108 139 169 206 255 309
#     4  11  18  33  53  73 105 132 165 208 256 309
#     4  11  19  34  54  73  99 130 174 212 254 307
#
# _framework density 17.118407000000001
#
# number of rings (size 3 to 8) (size 9 to 14) (size 15 to 20)
#    0.000    1.500    5.000    2.625    0.000    0.000 
#    0.000    0.000    0.000    0.000    0.000    4.375 
#    0.000    0.000    0.000    0.000    0.000    0.000 
#
# Total GULP energy -396638.404064 kJ/mol
# GULP energy per Si atom -12394.950127 kJ/mol
# Density = 1.707944 g / cm^3
# Si number density = 17.118407 Si / 1000 Ang^3
#
#
#
# Elastic Constant Matrix: (Units=GPa)
#
#
# Indices 1 2 3 4 5 6 
#
# 1 59.3288 33.3458 15.9349 -0.0025 -12.9075 -0.0043
# 2 33.3458 112.5381 39.2329 -0.0143 -2.0578 0.0034
# 3 15.9349 39.2329 58.8979 -0.0338 -4.2474 0.0069
# 4 -0.0025 -0.0143 -0.0338 19.9364 0.0110 0.3361
# 5 -12.9075 -2.0578 -4.2474 0.0110 30.3762 -0.0035
# 6 -0.0043 0.0034 0.0069 0.3361 -0.0035 17.7543
#
#
#
# Elastic Compliance Matrix: (Units=1/GPa)
#
#
# Indices 1 2 3 4 5 6 
#
# 1 0.022584 -0.006022 -0.001451 -0.000009 0.008986 0.000009
# 2 -0.006022 0.013182 -0.007346 -0.000002 -0.002693 -0.000002
# 3 -0.001451 -0.007346 0.022410 0.000032 0.002019 -0.000008
# 4 -0.000009 -0.000002 0.000032 0.050176 -0.000018 -0.000950
# 5 0.008986 -0.002693 0.002019 -0.000018 0.036839 0.000010
# 6 0.000009 -0.000002 -0.000008 -0.000950 0.000010 0.056342
#
#
# Mechanical properties :
#
#
# Convention : Reuss Voigt Hill
#
# Bulk Modulus (GPa) = 35.03960 45.31023 40.17491
# Shear Modulus (GPa) = 20.77426 23.09678 21.93552
#
# Velocity S-wave (km/s) = 3.48740 3.67718 3.58355
# Velocity P-wave (km/s) = 6.06047 6.67496 6.37512
#
# Compressibility (1/GPa) = 0.02853914
#
# Stress axis : x y z
#
# Youngs Moduli (GPa) = 44.27828 75.86253 44.62342
#
# Poissons Ratio (x) = 0.45683 0.06475
# Poissons Ratio (y) = 0.26663 0.32778
# Poissons Ratio (z) = 0.06425 0.55725
#
# Static dielectric constant tensor:
#      x y z
#    x 3.244370 -0.000030 -0.326170 
#    y -0.000030 3.176770 0.000050 
#    z -0.326170 0.000050 3.093870 
# 
# 
# High freq. dielectric constant tensor:
#      x y z
#    x 1.664940 0.000000 -0.032430 
#    y 0.000000 1.643250 0.000010 
#    z -0.032430 0.000010 1.639080 
# 
# From -- ./inp_files/223222.got.cif
#   From: 2010.06.25/outbox.cif.g09.slc.cpg/sg15_112_cif.got.tgz:223222.got - 2010.06.28 07:06:18.
