data_PCOD8132901
_publ_section_title
;
Structure prediction by ZEFSAII (Michael W. Deem and Ramdas Pophale) SiO2 
 PCOD8132901
Probable space group: C 2/C
;
_chemical_formula_sum "Si O2"
_cell_formula_units_Z 48
_cell_length_a 19.190055
_cell_length_b 14.268914
_cell_length_c 8.899317
_cell_angle_alpha 90.000000
_cell_angle_beta 74.530606
_cell_angle_gamma 90.000000
_cell_volume 2348.543469
_symmetry_space_group_name_H-M "C 2/C"
_symmetry_group_IT_number 15
_symmetry_cell_setting 'monoclinic'
loop_
_space_group_symop_operation_xyz
x,y,z
-x,y,1/2-z
-x,-y,-z
x,-y,1/2+z
1/2+x,1/2+y,z
1/2-x,1/2+y,1/2-z
1/2-x,1/2-y,-z
1/2+x,1/2-y,1/2+z
loop_
_atom_site_type_symbol
_atom_site_label
_atom_site_fract_x
_atom_site_fract_y
_atom_site_fract_z
Si Si1 0.573446 0.405382 0.276892
Si Si2 0.778627 0.589961 0.904375
Si Si3 0.833717 0.775302 0.730521
Si Si4 0.385715 0.411432 0.918070
Si Si5 0.699645 0.904710 0.778345
Si Si6 0.165401 0.250462 0.588763
O O1 0.500000 0.362150 0.250000
O O2 0.564992 0.406369 0.461955
O O3 0.642054 0.342734 0.190035
O O4 0.584405 0.509439 0.209081
O O5 0.785735 0.690157 0.820436
O O6 0.695639 0.566963 0.984416
O O7 0.807810 0.509467 0.779183
O O8 0.824581 0.592259 0.033220
O O9 0.781047 0.863506 0.724781
O O10 0.874159 0.745018 0.552238
O O11 0.890134 0.812879 0.823096
O O12 0.647417 0.838849 0.706481
O O13 0.250000 0.250000 0.500000
#
# Coordination Sequence:
#
# PCOD8132901 Si02
#       6
#     8   8   8   8   8   8
#     4  12  24  37  55  82 115 155 192 230 282 344
#     4  11  19  32  52  84 113 145 187 235 283 332
#     4  10  20  32  53  81 109 148 192 236 280 327
#     4  11  20  35  52  75 114 154 188 227 276 337
#     4  10  19  30  50  78 112 144 179 232 285 329
#     4  10  19  36  55  78 107 144 187 234 281 329
#
# _framework density 20.438199999999998
#
# number of rings (size 3 to 8) (size 9 to 14) (size 15 to 20)
#    0.000    1.333    0.000   11.500    0.000    0.000 
#    0.000    0.000    0.000    0.000    0.000   11.667 
#    0.000    0.000    0.000    0.000    0.000    0.000 
#
# Total GULP energy -297510.014182 kJ/mol
# GULP energy per Si atom -12396.250591 kJ/mol
# Density = 2.039168 g / cm^3
# Si number density = 20.438200 Si / 1000 Ang^3
#
#
#
# Elastic Constant Matrix: (Units=GPa)
#
#
# Indices 1 2 3 4 5 6 
#
# 1 55.8054 31.6115 30.7399 0.0000 21.7151 0.0000
# 2 31.6115 102.6397 39.8189 0.0000 15.8411 0.0000
# 3 30.7399 39.8189 118.5090 0.0000 47.4647 0.0000
# 4 0.0000 0.0000 0.0000 48.2670 0.0000 11.5609
# 5 21.7151 15.8411 47.4647 0.0000 37.1582 0.0000
# 6 0.0000 0.0000 0.0000 11.5609 0.0000 17.1425
#
#
#
# Elastic Compliance Matrix: (Units=1/GPa)
#
#
# Indices 1 2 3 4 5 6 
#
# 1 0.026414 -0.006315 0.000767 0.000000 -0.013724 0.000000
# 2 -0.006315 0.012713 -0.003974 0.000000 0.003347 0.000000
# 3 0.000767 -0.003974 0.018582 0.000000 -0.022490 0.000000
# 4 0.000000 0.000000 0.000000 0.024709 0.000000 -0.016664
# 5 -0.013724 0.003347 -0.022490 0.000000 0.062234 0.000000
# 6 0.000000 0.000000 0.000000 -0.016664 0.000000 0.069573
#
#
# Mechanical properties :
#
#
# Convention : Reuss Voigt Hill
#
# Bulk Modulus (GPa) = 25.86276 53.47719 39.66998
# Shear Modulus (GPa) = 20.31221 32.16579 26.23900
#
# Velocity S-wave (km/s) = 3.15594 3.97143 3.58693
# Velocity P-wave (km/s) = 5.09524 6.87399 6.05034
#
# Compressibility (1/GPa) = 0.03866563
#
# Stress axis : x y z
#
# Youngs Moduli (GPa) = 37.85835 78.66105 53.81470
#
# Poissons Ratio (x) = 0.49671 -0.04126
# Poissons Ratio (y) = 0.23906 0.21386
# Poissons Ratio (z) = -0.02903 0.31260
#
# Static dielectric constant tensor:
#      x y z
#    x 3.477270 0.000000 0.739530 
#    y 0.000000 3.759150 0.000000 
#    z 0.739530 0.000000 4.470950 
# 
# 
# High freq. dielectric constant tensor:
#      x y z
#    x 1.734730 0.000000 0.043730 
#    y 0.000000 1.798130 0.000000 
#    z 0.043730 0.000000 1.823850 
# 
# From -- ./inp_files/55241.got.cif
#   From: 2010.06.25/outbox.cif.g09.slc.cpg/sg15_28_cif.got.tgz:55241.got - 2010.06.28 07:06:18.
