data_PCOD8132532
_publ_section_title
;
Structure prediction by ZEFSAII (Michael W. Deem and Ramdas Pophale) SiO2 
 PCOD8132532
Probable space group: C 2/C
;
_chemical_formula_sum "Si O2"
_cell_formula_units_Z 48
_cell_length_a 20.655948
_cell_length_b 16.993671
_cell_length_c 15.768407
_cell_angle_alpha 90.000000
_cell_angle_beta 26.357565
_cell_angle_gamma 90.000000
_cell_volume 2457.397506
_symmetry_space_group_name_H-M "C 2/C"
_symmetry_group_IT_number 15
_symmetry_cell_setting 'monoclinic'
loop_
_space_group_symop_operation_xyz
x,y,z
-x,y,1/2-z
-x,-y,-z
x,-y,1/2+z
1/2+x,1/2+y,z
1/2-x,1/2+y,1/2-z
1/2-x,1/2-y,-z
1/2+x,1/2-y,1/2+z
loop_
_atom_site_type_symbol
_atom_site_label
_atom_site_fract_x
_atom_site_fract_y
_atom_site_fract_z
Si Si1 0.199837 0.168514 0.790248
Si Si2 0.203346 0.452541 0.618938
Si Si3 0.689560 0.475538 0.188501
Si Si4 0.567333 0.567333 0.081978
Si Si5 0.460261 0.046092 0.960314
Si Si6 0.039357 0.676590 0.421250
O O1 0.144612 0.096788 0.798604
O O2 0.113813 0.240639 0.850420
O O3 0.373749 0.184417 0.580935
O O4 0.150644 0.142745 0.943183
O O5 0.258494 0.435095 0.460071
O O6 0.330454 0.490410 0.526938
O O7 0.136483 0.373768 0.740134
O O8 0.082408 0.521319 0.749262
O O9 0.560361 0.537312 0.328880
O O10 0.806457 0.525523 0.102484
O O11 0.500000 0.596608 0.250000
O O12 0.463417 0.137331 0.982003
O O13 0.500000 0.000000 0.000000
#
# Coordination Sequence:
#
# PCOD8132532 Si02
#       6
#     8   8   8   8   8   8
#     4  12  24  41  58  90 125 164 198 244 309 360
#     4  10  20  42  63  91 118 158 207 249 300 352
#     4  11  22  37  69  91 118 158 203 256 299 358
#     4  10  23  42  65  90 120 154 209 260 293 353
#     4  10  18  38  61  85 113 156 204 248 287 347
#     4  11  25  38  61  87 128 162 197 248 300 368
#
# _framework density 19.532859999999999
#
# number of rings (size 3 to 8) (size 9 to 14) (size 15 to 20)
#    0.000    1.333    5.000    2.000    4.667    0.667 
#    0.000    2.500    0.000    0.000    0.000    0.000 
#    0.000    0.000    0.000    0.000    0.000    0.000 
#
# Total GULP energy -297438.621929 kJ/mol
# GULP energy per Si atom -12393.275914 kJ/mol
# Density = 1.948840 g / cm^3
# Si number density = 19.532860 Si / 1000 Ang^3
#
#
#
# Elastic Constant Matrix: (Units=GPa)
#
#
# Indices 1 2 3 4 5 6 
#
# 1 84.3077 18.7963 29.3877 -0.0015 -22.1851 0.0001
# 2 18.7963 37.4164 17.4728 -0.0032 -5.6822 0.0024
# 3 29.3877 17.4728 93.3950 -0.0036 -7.9837 0.0027
# 4 -0.0015 -0.0032 -0.0036 27.6428 0.0028 -6.7638
# 5 -22.1851 -5.6822 -7.9837 0.0028 37.2347 -0.0015
# 6 0.0001 0.0024 0.0027 -6.7638 -0.0015 19.2072
#
#
#
# Elastic Compliance Matrix: (Units=1/GPa)
#
#
# Indices 1 2 3 4 5 6 
#
# 1 0.016434 -0.005391 -0.003459 -0.000001 0.008227 0.000001
# 2 -0.005391 0.031471 -0.004131 0.000002 0.000705 -0.000002
# 3 -0.003459 -0.004131 0.012569 0.000001 0.000003 -0.000001
# 4 -0.000001 0.000002 0.000001 0.039587 -0.000002 0.013941
# 5 0.008227 0.000705 0.000003 -0.000002 0.031867 0.000001
# 6 0.000001 -0.000002 -0.000001 0.013941 0.000001 0.056973
#
#
# Mechanical properties :
#
#
# Convention : Reuss Voigt Hill
#
# Bulk Modulus (GPa) = 28.97637 38.49254 33.73445
# Shear Modulus (GPa) = 22.08807 26.78108 24.43458
#
# Velocity S-wave (km/s) = 3.36641 3.70682 3.54071
# Velocity P-wave (km/s) = 5.47514 6.17009 5.83298
#
# Compressibility (1/GPa) = 0.03451088
#
# Stress axis : x y z
#
# Youngs Moduli (GPa) = 60.84942 31.77576 79.56159
#
# Poissons Ratio (x) = 0.17130 0.27523
# Poissons Ratio (y) = 0.32803 0.32868
# Poissons Ratio (z) = 0.21050 0.13127
#
# Static dielectric constant tensor:
#      x y z
#    x 3.181980 -0.000020 0.183770 
#    y -0.000020 3.647130 0.000010 
#    z 0.183770 0.000010 3.941390 
# 
# 
# High freq. dielectric constant tensor:
#      x y z
#    x 1.766970 0.000000 -0.006660 
#    y 0.000000 1.734820 0.000000 
#    z -0.006660 0.000000 1.779920 
# 
# From -- ./inp_files/70557.got.cif
#   From: 2010.06.25/outbox.cif.g09.slc.cpg/sg15_36_cif.got.tgz:70557.got - 2010.06.28 07:06:18.
