data_PCOD8132073
_publ_section_title
;
Structure prediction by ZEFSAII (Michael W. Deem and Ramdas Pophale) SiO2 
 PCOD8132073
Probable space group: C 2/C
;
_chemical_formula_sum "Si O2"
_cell_formula_units_Z 56
_cell_length_a 26.574345
_cell_length_b 9.147910
_cell_length_c 16.559158
_cell_angle_alpha 90.000000
_cell_angle_beta 43.187657
_cell_angle_gamma 90.000000
_cell_volume 2755.030365
_symmetry_space_group_name_H-M "C 2/C"
_symmetry_group_IT_number 15
_symmetry_cell_setting 'monoclinic'
loop_
_space_group_symop_operation_xyz
x,y,z
-x,y,1/2-z
-x,-y,-z
x,-y,1/2+z
1/2+x,1/2+y,z
1/2-x,1/2+y,1/2-z
1/2-x,1/2-y,-z
1/2+x,1/2-y,1/2+z
loop_
_atom_site_type_symbol
_atom_site_label
_atom_site_fract_x
_atom_site_fract_y
_atom_site_fract_z
Si Si1 0.558207 0.147190 0.362244
Si Si2 0.929888 0.546058 0.789944
Si Si3 0.614778 0.357836 0.414768
Si Si4 0.898674 0.391534 0.074745
Si Si5 0.654536 0.383027 0.767888
Si Si6 0.022776 0.855111 0.813481
Si Si7 0.319951 0.896526 0.557705
O O1 0.595766 0.295940 0.347671
O O2 0.471246 0.178676 0.447998
O O3 0.599587 0.080032 0.235454
O O4 0.570166 0.036203 0.421067
O O5 0.965428 0.680671 0.698697
O O6 0.000000 0.471398 0.750000
O O7 0.866440 0.610481 0.920811
O O8 0.653754 0.510688 0.347345
O O9 0.541866 0.394296 0.549836
O O10 0.666087 0.248390 0.405291
O O11 0.860632 0.280020 0.181106
O O12 0.839744 0.449638 0.077978
O O13 0.596992 0.426247 0.763885
O O14 0.734624 0.393086 0.633940
O O15 0.000000 0.910927 0.750000
#
# Coordination Sequence:
#
# PCOD8132073 Si02
#       7
#     8   8   8   8   8   8   8
#     4  10  18  35  63  88 108 159 215 252 286 350
#     4  11  18  37  64  88 118 157 214 256 290 358
#     4  11  22  41  64  91 125 163 207 254 299 376
#     4  10  19  36  60  86 117 157 211 249 293 361
#     4  12  24  39  60  95 130 161 198 252 326 366
#     4  11  21  39  62  90 121 156 209 255 297 364
#     4  11  23  39  63  91 127 162 204 256 309 364
#
# _framework density 20.326453999999998
#
# number of rings (size 3 to 8) (size 9 to 14) (size 15 to 20)
#    0.000    1.143    7.143    2.143    0.000    0.571 
#    0.000    2.857    0.000    0.000    0.000    0.000 
#    0.000    0.000    0.000    0.000    0.000    0.000 
#
# Total GULP energy -347011.860538 kJ/mol
# GULP energy per Si atom -12393.280734 kJ/mol
# Density = 2.028019 g / cm^3
# Si number density = 20.326454 Si / 1000 Ang^3
#
#
#
# Elastic Constant Matrix: (Units=GPa)
#
#
# Indices 1 2 3 4 5 6 
#
# 1 88.1757 9.1883 34.1972 -0.0073 -10.0870 0.0057
# 2 9.1883 35.1893 11.4757 -0.0252 -1.5091 0.0201
# 3 34.1972 11.4757 95.8274 -0.0078 -15.3524 0.0093
# 4 -0.0073 -0.0252 -0.0078 22.8882 0.0024 3.4441
# 5 -10.0870 -1.5091 -15.3524 0.0024 34.4862 -0.0017
# 6 0.0057 0.0201 0.0093 3.4441 -0.0017 17.8602
#
#
#
# Elastic Compliance Matrix: (Units=1/GPa)
#
#
# Indices 1 2 3 4 5 6 
#
# 1 0.013418 -0.002040 -0.004231 0.000000 0.001952 0.000000
# 2 -0.002040 0.029886 -0.002947 0.000037 -0.000601 -0.000039
# 3 -0.004231 -0.002947 0.013007 0.000000 0.004424 -0.000002
# 4 0.000000 0.000037 0.000000 0.044996 -0.000002 -0.008677
# 5 0.001952 -0.000601 0.004424 -0.000002 0.031511 0.000001
# 6 0.000000 -0.000039 -0.000002 -0.008677 0.000001 0.057664
#
#
# Mechanical properties :
#
#
# Convention : Reuss Voigt Hill
#
# Bulk Modulus (GPa) = 26.40351 36.54607 31.47479
# Shear Modulus (GPa) = 22.56894 26.00234 24.28564
#
# Velocity S-wave (km/s) = 3.33577 3.58052 3.46031
# Velocity P-wave (km/s) = 5.27772 5.92555 5.61099
#
# Compressibility (1/GPa) = 0.03787376
#
# Stress axis : x y z
#
# Youngs Moduli (GPa) = 74.52743 33.46068 76.88092
#
# Poissons Ratio (x) = 0.06826 0.32531
# Poissons Ratio (y) = 0.15203 0.22659
# Poissons Ratio (z) = 0.31535 0.09862
#
# Static dielectric constant tensor:
#      x y z
#    x 3.857050 -0.000010 0.008120 
#    y -0.000010 3.507820 0.000020 
#    z 0.008120 0.000020 3.459230 
# 
# 
# High freq. dielectric constant tensor:
#      x y z
#    x 1.788960 0.000000 0.000040 
#    y 0.000000 1.774420 0.000000 
#    z 0.000040 0.000000 1.780580 
# 
# From -- ./inp_files/218682.got.cif
#   From: 2010.06.25/outbox.cif.g09.slc.cpg/sg15_110_cif.got.tgz:218682.got - 2010.06.28 07:06:18.
