data_PCOD8132008
_publ_section_title
;
Structure prediction by ZEFSAII (Michael W. Deem and Ramdas Pophale) SiO2 
 PCOD8132008
Probable space group: C 2/C
;
_chemical_formula_sum "Si O2"
_cell_formula_units_Z 44
_cell_length_a 20.187384
_cell_length_b 8.616768
_cell_length_c 14.348227
_cell_angle_alpha 90.000000
_cell_angle_beta 80.083370
_cell_angle_gamma 90.000000
_cell_volume 2458.584250
_symmetry_space_group_name_H-M "C 2/C"
_symmetry_group_IT_number 15
_symmetry_cell_setting 'monoclinic'
loop_
_space_group_symop_operation_xyz
x,y,z
-x,y,1/2-z
-x,-y,-z
x,-y,1/2+z
1/2+x,1/2+y,z
1/2-x,1/2+y,1/2-z
1/2-x,1/2-y,-z
1/2+x,1/2-y,1/2+z
loop_
_atom_site_type_symbol
_atom_site_label
_atom_site_fract_x
_atom_site_fract_y
_atom_site_fract_z
Si Si1 0.403620 0.452253 0.096671
Si Si2 0.442942 0.994512 0.435098
Si Si3 0.171388 0.239864 0.030558
Si Si4 0.392266 0.573328 0.291740
Si Si5 0.547193 0.340774 0.073076
Si Si6 0.000000 0.316402 0.250000
O O1 0.366471 0.488074 0.204400
O O2 0.466067 0.334665 0.096732
O O3 0.347994 0.374484 0.047092
O O4 0.430592 0.603997 0.035356
O O5 0.421127 0.170923 0.417858
O O6 0.500000 0.000000 0.500000
O O7 0.374211 0.896055 0.470535
O O8 0.481651 0.924000 0.339477
O O9 0.163813 0.161188 0.134212
O O10 0.250000 0.250000 0.000000
O O11 0.430371 0.455281 0.350492
O O12 0.439809 0.703804 0.236178
#
# Coordination Sequence:
#
# PCOD8132008 Si02
#       6
#     8   8   8   8   8   4
#     4  10  18  35  59  79 113 155 189 234 304 350
#     4  11  21  34  55  88 111 142 193 249 294 337
#     4  10  23  41  56  80 124 161 191 241 303 359
#     4  10  19  36  57  83 113 150 198 233 292 357
#     4  10  19  31  58  89 109 142 192 249 288 348
#     4  10  20  30  54  86 120 136 180 254 296 334
#
# _framework density 17.896477999999998
#
# number of rings (size 3 to 8) (size 9 to 14) (size 15 to 20)
#    0.000    1.818    3.636    1.091    2.545    0.000 
#    0.000   10.909    0.000    0.000    0.000    0.000 
#    0.000    0.000    0.000    0.000    0.000    0.000 
#
# Total GULP energy -272584.506569 kJ/mol
# GULP energy per Si atom -12390.204844 kJ/mol
# Density = 1.785574 g / cm^3
# Si number density = 17.896478 Si / 1000 Ang^3
#
#
#
# Elastic Constant Matrix: (Units=GPa)
#
#
# Indices 1 2 3 4 5 6 
#
# 1 104.4476 45.7633 46.1003 0.0000 -24.2255 0.0000
# 2 45.7633 101.2888 42.9109 0.0000 -6.6931 0.0000
# 3 46.1003 42.9109 126.4265 0.0000 -4.7313 0.0000
# 4 0.0000 0.0000 0.0000 18.3777 0.0000 9.4388
# 5 -24.2255 -6.6931 -4.7313 0.0000 17.3023 0.0000
# 6 0.0000 0.0000 0.0000 9.4388 0.0000 8.7789
#
#
#
# Elastic Compliance Matrix: (Units=1/GPa)
#
#
# Indices 1 2 3 4 5 6 
#
# 1 0.019368 -0.005326 -0.004362 0.000000 0.023865 0.000000
# 2 -0.005326 0.013200 -0.002653 0.000000 -0.003076 0.000000
# 3 -0.004362 -0.002653 0.010239 0.000000 -0.004333 0.000000
# 4 0.000000 0.000000 0.000000 0.121515 0.000000 -0.130649
# 5 0.023865 -0.003076 -0.004333 0.000000 0.088835 0.000000
# 6 0.000000 0.000000 0.000000 -0.130649 0.000000 0.254379
#
#
# Mechanical properties :
#
#
# Convention : Reuss Voigt Hill
#
# Bulk Modulus (GPa) = 55.17296 66.85687 61.01491
# Shear Modulus (GPa) = 9.28922 22.05100 15.67011
#
# Velocity S-wave (km/s) = 2.28074 3.51400 2.96226
# Velocity P-wave (km/s) = 6.15074 7.34186 6.77254
#
# Compressibility (1/GPa) = 0.01812482
#
# Stress axis : x y z
#
# Youngs Moduli (GPa) = 51.63170 75.75863 97.67024
#
# Poissons Ratio (x) = 0.40348 0.42600
# Poissons Ratio (y) = 0.27498 0.25915
# Poissons Ratio (z) = 0.22520 0.20101
#
# Static dielectric constant tensor:
#      x y z
#    x 2.862660 0.000000 -0.505320 
#    y 0.000000 3.702480 0.000000 
#    z -0.505320 0.000000 -1.110800 
# 
# 
# High freq. dielectric constant tensor:
#      x y z
#    x 1.651190 0.000000 0.005340 
#    y 0.000000 1.699230 0.000000 
#    z 0.005340 0.000000 1.711280 
# 
# From -- ./inp_files/159223.got.cif
#   From: 2010.06.25/outbox.cif.g09.slc.cpg/sg15_80_cif.got.tgz:159223.got - 2010.06.28 07:06:18.
