data_PCOD8132697
_publ_section_title
;
Structure prediction by ZEFSAII (Michael W. Deem and Ramdas Pophale) SiO2 
 PCOD8132697
Probable space group: C 2/C
;
_chemical_formula_sum "Si O2"
_cell_formula_units_Z 44
_cell_length_a 6.614564
_cell_length_b 14.717149
_cell_length_c 28.075396
_cell_angle_alpha 90.000000
_cell_angle_beta 44.612060
_cell_angle_gamma 90.000000
_cell_volume 1919.443213
_symmetry_space_group_name_H-M "C 2/C"
_symmetry_group_IT_number 15
_symmetry_cell_setting 'monoclinic'
loop_
_space_group_symop_operation_xyz
x,y,z
-x,y,1/2-z
-x,-y,-z
x,-y,1/2+z
1/2+x,1/2+y,z
1/2-x,1/2+y,1/2-z
1/2-x,1/2-y,-z
1/2+x,1/2-y,1/2+z
loop_
_atom_site_type_symbol
_atom_site_label
_atom_site_fract_x
_atom_site_fract_y
_atom_site_fract_z
Si Si1 0.275412 0.847498 0.972313
Si Si2 0.500000 0.346344 0.750000
Si Si3 0.204582 0.618781 0.826564
Si Si4 0.907570 0.253339 0.861151
Si Si5 0.892808 0.086644 0.611733
Si Si6 0.175916 0.956393 0.631315
O O1 0.252214 0.832745 0.918480
O O2 0.587440 0.890278 0.931954
O O3 0.250000 0.750000 0.000000
O O4 0.025087 0.912437 0.035620
O O5 0.218093 0.285093 0.791043
O O6 0.501231 0.406308 0.702154
O O7 0.500000 0.598903 0.750000
O O8 0.213163 0.720246 0.848916
O O9 0.155342 0.541976 0.874632
O O10 0.944892 0.610132 0.832775
O O11 0.946687 0.164084 0.886149
O O12 0.952947 0.990183 0.627701
#
# Coordination Sequence:
#
# PCOD8132697 Si02
#       6
#     8   4   8   8   8   8
#     4   9  19  39  63  89 123 164 211 261 325 381
#     4  10  18  40  60  90 128 164 216 274 324 382
#     4  11  22  38  58  90 124 168 213 259 324 386
#     4   9  20  37  62  86 126 163 207 270 316 387
#     4  10  21  38  62  89 124 170 207 262 327 384
#     4  10  21  38  61  89 127 162 210 267 319 391
#
# _framework density 22.923314999999999
#
# number of rings (size 3 to 8) (size 9 to 14) (size 15 to 20)
#    0.000    2.182    0.909    1.636    0.000    3.636 
#    0.000   16.364    0.000    0.000    0.000    0.000 
#    0.000    0.000    0.000    0.000    0.000    0.000 
#
# Total GULP energy -272676.303564 kJ/mol
# GULP energy per Si atom -12394.377435 kJ/mol
# Density = 2.287114 g / cm^3
# Si number density = 22.923315 Si / 1000 Ang^3
#
#
#
# Elastic Constant Matrix: (Units=GPa)
#
#
# Indices 1 2 3 4 5 6 
#
# 1 113.5143 46.2359 39.3666 0.0437 -7.9760 -0.0208
# 2 46.2359 87.4692 48.8701 -0.0036 5.1570 0.0058
# 3 39.3666 48.8701 142.1044 0.0226 -9.9294 -0.0093
# 4 0.0437 -0.0036 0.0226 22.5757 -0.0418 6.9014
# 5 -7.9760 5.1570 -9.9294 -0.0418 19.7701 0.0190
# 6 -0.0208 0.0058 -0.0093 6.9014 0.0190 46.5019
#
#
#
# Elastic Compliance Matrix: (Units=1/GPa)
#
#
# Indices 1 2 3 4 5 6 
#
# 1 0.012078 -0.006336 -0.000737 -0.000014 0.006155 0.000006
# 2 -0.006336 0.018291 -0.005231 0.000003 -0.009954 -0.000002
# 3 -0.000737 -0.005231 0.009446 0.000002 0.005811 0.000000
# 4 -0.000014 0.000003 0.000002 0.046401 0.000099 -0.006886
# 5 0.006155 -0.009954 0.005811 0.000099 0.058580 -0.000034
# 6 0.000006 -0.000002 0.000000 -0.006886 -0.000034 0.022527
#
#
# Mechanical properties :
#
#
# Convention : Reuss Voigt Hill
#
# Bulk Modulus (GPa) = 65.75245 68.00367 66.87806
# Shear Modulus (GPa) = 25.38086 31.67722 28.52904
#
# Velocity S-wave (km/s) = 3.33108 3.72139 3.53163
# Velocity P-wave (km/s) = 6.59854 6.94227 6.77259
#
# Compressibility (1/GPa) = 0.01520856
#
# Stress axis : x y z
#
# Youngs Moduli (GPa) = 82.79432 54.67203 105.86281
#
# Poissons Ratio (x) = 0.34638 0.07803
# Poissons Ratio (y) = 0.52455 0.55374
# Poissons Ratio (z) = 0.06102 0.28597
#
# Static dielectric constant tensor:
#      x y z
#    x 3.885390 0.000000 0.408570 
#    y 0.000000 4.351360 0.000040 
#    z 0.408570 0.000040 4.578070 
# 
# 
# High freq. dielectric constant tensor:
#      x y z
#    x 1.872480 0.000000 0.010580 
#    y 0.000000 1.909700 0.000000 
#    z 0.010580 0.000000 1.916840 
# 
# From -- ./inp_files/285964.got.cif
#   From: 2010.06.25/outbox.cif.g09.slc.cpg/sg15_143_cif.got.tgz:285964.got - 2010.06.28 07:06:18.
