data_PCOD8132912
_publ_section_title
;
Structure prediction by ZEFSAII (Michael W. Deem and Ramdas Pophale) SiO2 
 PCOD8132912
Probable space group: C 2/C
;
_chemical_formula_sum "Si O2"
_cell_formula_units_Z 40
_cell_length_a 13.746503
_cell_length_b 13.674489
_cell_length_c 15.158582
_cell_angle_alpha 90.000000
_cell_angle_beta 60.779389
_cell_angle_gamma 90.000000
_cell_volume 2486.852586
_symmetry_space_group_name_H-M "C 2/C"
_symmetry_group_IT_number 15
_symmetry_cell_setting 'monoclinic'
loop_
_space_group_symop_operation_xyz
x,y,z
-x,y,1/2-z
-x,-y,-z
x,-y,1/2+z
1/2+x,1/2+y,z
1/2-x,1/2+y,1/2-z
1/2-x,1/2-y,-z
1/2+x,1/2-y,1/2+z
loop_
_atom_site_type_symbol
_atom_site_label
_atom_site_fract_x
_atom_site_fract_y
_atom_site_fract_z
Si Si1 0.872307 0.989443 0.788164
Si Si2 0.795945 0.121620 0.664174
Si Si3 0.011266 0.150772 0.479692
Si Si4 0.096869 0.770359 0.774435
Si Si5 0.645764 0.504831 0.511818
O O1 0.855617 0.878078 0.765149
O O2 0.000000 0.018796 0.750000
O O3 0.816091 0.062248 0.744358
O O4 0.806018 0.004192 0.910562
O O5 0.907568 0.183555 0.587795
O O6 0.694763 0.193698 0.721482
O O7 0.769008 0.046106 0.595373
O O8 0.049639 0.235741 0.395704
O O9 0.115462 0.114812 0.493281
O O10 0.971315 0.058011 0.436136
O O11 0.000000 0.741075 0.750000
#
# Coordination Sequence:
#
# PCOD8132912 Si02
#       5
#     8   8   8   8   8
#     4  11  15  31  56  73  95 137 167 204 258 290
#     4  10  19  30  52  81 103 128 168 218 245 289
#     4   9  15  30  49  76 102 121 167 218 234 292
#     4  11  19  30  52  78 102 132 169 208 254 295
#     4   9  15  29  54  74  98 126 168 215 244 286
#
# _framework density 16.084588
#
# number of rings (size 3 to 8) (size 9 to 14) (size 15 to 20)
#    1.200    0.800    8.000    0.000    0.000    3.200 
#    0.000    1.000    0.000    6.000    0.000    0.000 
#    0.000    0.000    0.000    0.000    0.000    0.000 
#
# Total GULP energy -247789.739125 kJ/mol
# GULP energy per Si atom -12389.486956 kJ/mol
# Density = 1.604798 g / cm^3
# Si number density = 16.084588 Si / 1000 Ang^3
#
#
#
# Elastic Constant Matrix: (Units=GPa)
#
#
# Indices 1 2 3 4 5 6 
#
# 1 68.4478 62.3501 56.1938 0.0000 0.1288 0.0000
# 2 62.3501 68.9973 53.1336 0.0000 -3.3243 0.0000
# 3 56.1938 53.1336 136.2435 0.0000 15.0835 0.0000
# 4 0.0000 0.0000 0.0000 22.6582 0.0000 -6.4601
# 5 0.1288 -3.3243 15.0835 0.0000 23.4946 0.0000
# 6 0.0000 0.0000 0.0000 -6.4601 0.0000 19.8171
#
#
#
# Elastic Compliance Matrix: (Units=1/GPa)
#
#
# Indices 1 2 3 4 5 6 
#
# 1 0.088715 -0.075671 -0.006287 0.000000 -0.007157 0.000000
# 2 -0.075671 0.087072 -0.004474 0.000000 0.015607 0.000000
# 3 -0.006287 -0.004474 0.012643 0.000000 -0.008715 0.000000
# 4 0.000000 0.000000 0.000000 0.048656 0.000000 0.015861
# 5 -0.007157 0.015607 -0.008715 0.000000 0.050406 0.000000
# 6 0.000000 0.000000 0.000000 0.015861 0.000000 0.055632
#
#
# Mechanical properties :
#
#
# Convention : Reuss Voigt Hill
#
# Bulk Modulus (GPa) = 64.25082 68.56038 66.40560
# Shear Modulus (GPa) = 9.59368 19.99472 14.79420
#
# Velocity S-wave (km/s) = 2.44489 3.52958 3.03607
# Velocity P-wave (km/s) = 6.92837 7.70247 7.32565
#
# Compressibility (1/GPa) = 0.01556400
#
# Stress axis : x y z
#
# Youngs Moduli (GPa) = 11.27211 11.48477 79.09634
#
# Poissons Ratio (x) = 0.86906 0.49729
# Poissons Ratio (y) = 0.85297 0.35391
# Poissons Ratio (z) = 0.07087 0.05139
#
# Static dielectric constant tensor:
#      x y z
#    x 2.634120 0.000000 0.204650 
#    y 0.000000 2.650550 0.000000 
#    z 0.204650 0.000000 3.326550 
# 
# 
# High freq. dielectric constant tensor:
#      x y z
#    x 1.571500 0.000000 0.018150 
#    y 0.000000 1.574460 0.000000 
#    z 0.018150 0.000000 1.640480 
# 
# From -- ./inp_files/151285.got.cif
#   From: 2010.06.25/outbox.cif.g09.slc.cpg/sg15_76_cif.got.tgz:151285.got - 2010.06.28 07:06:18.
