data_PCOD8132382
_publ_section_title
;
Structure prediction by ZEFSAII (Michael W. Deem and Ramdas Pophale) SiO2 
 PCOD8132382
Probable space group: C 2/C
;
_chemical_formula_sum "Si O2"
_cell_formula_units_Z 60
_cell_length_a 32.542038
_cell_length_b 5.356658
_cell_length_c 17.425965
_cell_angle_alpha 90.000000
_cell_angle_beta 89.531132
_cell_angle_gamma 90.000000
_cell_volume 3037.532707
_symmetry_space_group_name_H-M "C 2/C"
_symmetry_group_IT_number 15
_symmetry_cell_setting 'monoclinic'
loop_
_space_group_symop_operation_xyz
x,y,z
-x,y,1/2-z
-x,-y,-z
x,-y,1/2+z
1/2+x,1/2+y,z
1/2-x,1/2+y,1/2-z
1/2-x,1/2-y,-z
1/2+x,1/2-y,1/2+z
loop_
_atom_site_type_symbol
_atom_site_label
_atom_site_fract_x
_atom_site_fract_y
_atom_site_fract_z
Si Si1 0.737218 0.960672 0.293017
Si Si2 0.268174 0.501344 0.462681
Si Si3 0.061548 0.473176 0.834481
Si Si4 0.440323 0.674915 0.513363
Si Si5 0.351101 0.557067 0.538257
Si Si6 0.498366 0.352876 0.609667
Si Si7 0.500000 0.664394 0.750000
Si Si8 0.349264 0.056748 0.638168
O O1 0.753765 0.701961 0.258505
O O2 0.759386 0.001383 0.373316
O O3 0.688176 0.935638 0.301890
O O4 0.250000 0.250000 0.500000
O O5 0.317067 0.513716 0.473924
O O6 0.250000 0.750000 0.500000
O O7 0.062106 0.387808 0.923108
O O8 0.043524 0.289701 0.771331
O O9 0.108436 0.542323 0.813179
O O10 0.028069 0.688700 0.831685
O O11 0.394893 0.574414 0.494669
O O12 0.467179 0.449007 0.545582
O O13 0.463016 0.774668 0.435486
O O14 0.350350 0.317022 0.593043
O O15 0.342843 0.813676 0.584691
O O16 0.516517 0.544706 0.670823
#
# Coordination Sequence:
#
# PCOD8132382 Si02
#       8
#     8   8   8   8   8   8   4   8
#     4  12  25  43  64  98 135 170 210 264 335 391
#     4  12  22  41  69  92 124 170 217 266 315 382
#     4  10  20  37  60  86 116 163 209 251 310 370
#     4   9  20  33  60  88 114 150 202 269 302 351
#     4  11  20  40  64  98 119 160 221 263 314 370
#     4  10  18  37  57  83 120 155 204 247 310 362
#     4  10  22  36  54  84 122 168 204 238 310 388
#     4  11  22  40  68  91 124 166 214 262 312 391
#
# _framework density 19.752875
#
# number of rings (size 3 to 8) (size 9 to 14) (size 15 to 20)
#    0.000    1.333    4.000    2.400    0.000    0.000 
#    2.400    1.333    0.000    0.000    0.000    0.000 
#    0.000    0.000    0.000    0.000    0.000    0.000 
#
# Total GULP energy -371684.807794 kJ/mol
# GULP energy per Si atom -12389.493593 kJ/mol
# Density = 1.970792 g / cm^3
# Si number density = 19.752875 Si / 1000 Ang^3
#
#
#
# Elastic Constant Matrix: (Units=GPa)
#
#
# Indices 1 2 3 4 5 6 
#
# 1 172.8547 30.5623 61.7647 0.0000 -1.4865 0.0000
# 2 30.5623 94.2836 9.9883 0.0000 -3.4007 0.0000
# 3 61.7647 9.9883 70.5471 0.0000 9.7850 0.0000
# 4 0.0000 0.0000 0.0000 3.6495 0.0000 -12.9171
# 5 -1.4865 -3.4007 9.7850 0.0000 30.2962 0.0000
# 6 0.0000 0.0000 0.0000 -12.9171 0.0000 21.1858
#
#
#
# Elastic Compliance Matrix: (Units=1/GPa)
#
#
# Indices 1 2 3 4 5 6 
#
# 1 0.009019 -0.001974 -0.008006 0.000000 0.002807 0.000000
# 2 -0.001974 0.011293 -0.000034 0.000000 0.001182 0.000000
# 3 -0.008006 -0.000034 0.022241 0.000000 -0.007580 0.000000
# 4 0.000000 0.000000 0.000000 -0.236621 0.000000 -0.144269
# 5 0.002807 0.001182 -0.007580 0.000000 0.035726 0.000000
# 6 0.000000 0.000000 0.000000 -0.144269 0.000000 -0.040760
#
#
# Mechanical properties :
#
#
# Convention : Reuss Voigt Hill
#
# Bulk Modulus (GPa) = 44.39919 60.25732 52.32826
# Shear Modulus (GPa) = -29.14318 26.71765 -1.21276
#
# Velocity S-wave (km/s) = -3.84525 3.68176 -0.78441
# Velocity P-wave (km/s) = 1.67677 6.97464 5.07233
#
# Compressibility (1/GPa) = 0.02252293
#
# Stress axis : x y z
#
# Youngs Moduli (GPa) = 110.87486 88.55434 44.96281
#
# Poissons Ratio (x) = 0.17482 0.35998
# Poissons Ratio (y) = 0.21889 0.00154
# Poissons Ratio (z) = 0.88768 0.00304
#
# Static dielectric constant tensor:
#      x y z
#    x 4.100910 0.000000 0.073370 
#    y 0.000000 3.808260 0.000000 
#    z 0.073370 0.000000 3.565230 
# 
# 
# High freq. dielectric constant tensor:
#      x y z
#    x 1.786100 0.000000 0.006580 
#    y 0.000000 1.779280 0.000000 
#    z 0.006580 0.000000 1.749630 
# 
# From -- ./inp_files/223650.got.cif
#   From: 2010.06.25/outbox.cif.g09.slc.cpg/sg15_112_cif.got.tgz:223650.got - 2010.06.28 07:06:18.
