data_PCOD8132091
_publ_section_title
;
Structure prediction by ZEFSAII (Michael W. Deem and Ramdas Pophale) SiO2 
 PCOD8132091
Probable space group: C 2/C
;
_chemical_formula_sum "Si O2"
_cell_formula_units_Z 64
_cell_length_a 14.020455
_cell_length_b 12.026426
_cell_length_c 17.652822
_cell_angle_alpha 90.000000
_cell_angle_beta 77.323077
_cell_angle_gamma 90.000000
_cell_volume 2903.988344
_symmetry_space_group_name_H-M "C 2/C"
_symmetry_group_IT_number 15
_symmetry_cell_setting 'monoclinic'
loop_
_space_group_symop_operation_xyz
x,y,z
-x,y,1/2-z
-x,-y,-z
x,-y,1/2+z
1/2+x,1/2+y,z
1/2-x,1/2+y,1/2-z
1/2-x,1/2-y,-z
1/2+x,1/2-y,1/2+z
loop_
_atom_site_type_symbol
_atom_site_label
_atom_site_fract_x
_atom_site_fract_y
_atom_site_fract_z
Si Si1 0.300062 0.002726 0.712389
Si Si2 0.128939 0.920795 0.425036
Si Si3 0.098664 0.274155 0.643870
Si Si4 0.983367 0.644908 0.663667
Si Si5 0.095078 0.953551 0.181558
Si Si6 0.379141 0.222665 0.187510
Si Si7 0.332221 0.000756 0.885417
Si Si8 0.008060 0.117947 0.090690
O O1 0.191270 0.043389 0.715744
O O2 0.311497 0.880261 0.673520
O O3 0.318864 0.996703 0.797997
O O4 0.381185 0.084754 0.662960
O O5 0.145654 0.830729 0.356759
O O6 0.061082 0.868218 0.501154
O O7 0.235740 0.948959 0.441379
O O8 0.083393 0.033650 0.398498
O O9 0.139881 0.251541 0.721280
O O10 0.158222 0.370556 0.589411
O O11 0.989374 0.320980 0.659686
O O12 0.101869 0.145064 0.614656
O O13 0.073147 0.575215 0.611300
O O14 0.972529 0.762729 0.624176
O O15 0.000000 0.662668 0.750000
O O16 0.083213 0.069277 0.139713
O O17 0.000000 0.926059 0.250000
#
# Coordination Sequence:
#
# PCOD8132091 Si02
#       8
#     8   8   8   8   8   8   8   8
#     4  10  22  37  64  94 123 150 197 256 311 354
#     4  11  24  43  61  84 124 169 208 239 306 362
#     4  10  18  35  65  87 116 149 203 255 300 349
#     4  10  22  41  62  94 127 152 199 258 307 355
#     4  12  22  39  61  94 121 155 205 255 301 359
#     4  10  18  38  61  88 116 157 198 248 301 362
#     4  10  21  38  63  92 120 158 194 251 310 363
#     4  11  25  42  59  86 126 168 203 250 298 367
#
# _framework density 22.038656
#
# number of rings (size 3 to 8) (size 9 to 14) (size 15 to 20)
#    0.000    1.500    3.750    1.875    3.500    0.500 
#    0.000    2.500    0.000    0.000    0.000    0.000 
#    0.000    0.000    0.000    0.000    0.000    0.000 
#
# Total GULP energy -396614.528416 kJ/mol
# GULP energy per Si atom -12394.204013 kJ/mol
# Density = 2.198849 g / cm^3
# Si number density = 22.038656 Si / 1000 Ang^3
#
#
#
# Elastic Constant Matrix: (Units=GPa)
#
#
# Indices 1 2 3 4 5 6 
#
# 1 120.2482 42.3859 11.0724 0.0000 -18.7738 0.0000
# 2 42.3859 140.8967 19.9768 0.0000 -16.1535 0.0000
# 3 11.0724 19.9768 27.6119 0.0000 -9.2134 0.0000
# 4 0.0000 0.0000 0.0000 14.1584 0.0000 -7.6004
# 5 -18.7738 -16.1535 -9.2134 0.0000 21.1517 0.0000
# 6 0.0000 0.0000 0.0000 -7.6004 0.0000 25.5247
#
#
#
# Elastic Compliance Matrix: (Units=1/GPa)
#
#
# Indices 1 2 3 4 5 6 
#
# 1 0.010260 -0.002235 -0.000033 0.000000 0.007385 0.000000
# 2 -0.002235 0.008720 -0.004507 0.000000 0.002712 0.000000
# 3 -0.000033 -0.004507 0.044851 0.000000 0.016065 0.000000
# 4 0.000000 0.000000 0.000000 0.084067 0.000000 0.025032
# 5 0.007385 0.002712 0.016065 0.000000 0.062902 0.000000
# 6 0.000000 0.000000 0.000000 0.025032 0.000000 0.046631
#
#
# Mechanical properties :
#
#
# Convention : Reuss Voigt Hill
#
# Bulk Modulus (GPa) = 19.88862 48.40299 34.14580
# Shear Modulus (GPa) = 17.37670 26.52174 21.94922
#
# Velocity S-wave (km/s) = 2.81101 3.47280 3.15928
# Velocity P-wave (km/s) = 4.42490 6.17178 5.36985
#
# Compressibility (1/GPa) = 0.05028001
#
# Stress axis : x y z
#
# Youngs Moduli (GPa) = 97.46525 114.68148 22.29602
#
# Poissons Ratio (x) = 0.25633 0.00073
# Poissons Ratio (y) = 0.21785 0.10050
# Poissons Ratio (z) = 0.00321 0.51692
#
# Static dielectric constant tensor:
#      x y z
#    x 4.072530 0.000000 -0.144020 
#    y 0.000000 4.276600 0.000000 
#    z -0.144020 0.000000 3.493580 
# 
# 
# High freq. dielectric constant tensor:
#      x y z
#    x 1.868480 0.000000 -0.009750 
#    y 0.000000 1.891270 0.000000 
#    z -0.009750 0.000000 1.814420 
# 
# From -- ./inp_files/243698.got.cif
#   From: 2010.06.25/outbox.cif.g09.slc.cpg/sg15_122_cif.got.tgz:243698.got - 2010.06.28 07:06:18.
