data_PCOD8132748
_publ_section_title
;
Structure prediction by ZEFSAII (Michael W. Deem and Ramdas Pophale) SiO2 
 PCOD8132748
Probable space group: C 2/C
;
_chemical_formula_sum "Si O2"
_cell_formula_units_Z 36
_cell_length_a 10.060728
_cell_length_b 11.891300
_cell_length_c 17.412250
_cell_angle_alpha 90.000000
_cell_angle_beta 60.389672
_cell_angle_gamma 90.000000
_cell_volume 1811.074059
_symmetry_space_group_name_H-M "C 2/C"
_symmetry_group_IT_number 15
_symmetry_cell_setting 'monoclinic'
loop_
_space_group_symop_operation_xyz
x,y,z
-x,y,1/2-z
-x,-y,-z
x,-y,1/2+z
1/2+x,1/2+y,z
1/2-x,1/2+y,1/2-z
1/2-x,1/2-y,-z
1/2+x,1/2-y,1/2+z
loop_
_atom_site_type_symbol
_atom_site_label
_atom_site_fract_x
_atom_site_fract_y
_atom_site_fract_z
Si Si1 0.500000 0.078293 0.750000
Si Si2 0.445394 0.533730 0.432322
Si Si3 0.229516 0.947871 0.763409
Si Si4 0.929347 0.257618 0.137464
Si Si5 0.663707 0.959314 0.426229
O O1 0.488153 0.155982 0.828571
O O2 0.354031 0.997189 0.786686
O O3 0.500000 0.500000 0.500000
O O4 0.568424 0.492303 0.332655
O O5 0.441946 0.671143 0.430979
O O6 0.282007 0.477571 0.462037
O O7 0.207316 0.813198 0.782019
O O8 0.274649 0.968055 0.662889
O O9 0.850115 0.327953 0.091506
O O10 0.500000 0.000000 0.500000
#
# Coordination Sequence:
#
# PCOD8132748 Si02
#       5
#     4   8   8   8   8
#     4  10  18  40  68  90 122 166 220 260 308 388
#     4  10  23  43  62  94 135 165 214 267 319 386
#     4   9  22  43  63  92 132 164 216 262 316 389
#     4   9  22  42  63  93 127 172 214 253 335 377
#     4  11  23  41  69  97 128 168 222 265 315 389
#
# _framework density 19.877707999999998
#
# number of rings (size 3 to 8) (size 9 to 14) (size 15 to 20)
#    1.333    0.889    0.000    2.000    6.222    1.778 
#   16.000    0.000    0.000    0.000    0.000    0.000 
#    0.000    0.000    0.000    0.000    0.000    0.000 
#
# Total GULP energy -223035.783388 kJ/mol
# GULP energy per Si atom -12390.876855 kJ/mol
# Density = 1.983247 g / cm^3
# Si number density = 19.877708 Si / 1000 Ang^3
#
#
#
# Elastic Constant Matrix: (Units=GPa)
#
#
# Indices 1 2 3 4 5 6 
#
# 1 167.7700 49.9316 42.9838 0.0000 -3.4219 0.0000
# 2 49.9316 80.5437 12.0886 0.0000 7.8307 0.0000
# 3 42.9838 12.0886 109.3144 0.0000 -1.8094 0.0000
# 4 0.0000 0.0000 0.0000 22.3421 0.0000 0.5562
# 5 -3.4219 7.8307 -1.8094 0.0000 33.0619 0.0000
# 6 0.0000 0.0000 0.0000 0.5562 0.0000 34.2041
#
#
#
# Elastic Compliance Matrix: (Units=1/GPa)
#
#
# Indices 1 2 3 4 5 6 
#
# 1 0.008100 -0.004806 -0.002623 0.000000 0.001833 0.000000
# 2 -0.004806 0.015796 0.000073 0.000000 -0.004235 0.000000
# 3 -0.002623 0.000073 0.010176 0.000000 0.000268 0.000000
# 4 0.000000 0.000000 0.000000 0.044777 0.000000 -0.000728
# 5 0.001833 -0.004235 0.000268 0.000000 0.031454 0.000000
# 6 0.000000 0.000000 0.000000 -0.000728 0.000000 0.029248
#
#
# Mechanical properties :
#
#
# Convention : Reuss Voigt Hill
#
# Bulk Modulus (GPa) = 51.65566 63.07069 57.36318
# Shear Modulus (GPa) = 31.11061 34.76324 32.93692
#
# Velocity S-wave (km/s) = 3.96043 4.18647 4.07502
# Velocity P-wave (km/s) = 6.85248 7.42744 7.14575
#
# Compressibility (1/GPa) = 0.01935896
#
# Stress axis : x y z
#
# Youngs Moduli (GPa) = 123.44941 63.30755 98.27208
#
# Poissons Ratio (x) = 0.30427 0.25780
# Poissons Ratio (y) = 0.59333 -0.00717
# Poissons Ratio (z) = 0.32385 -0.00462
#
# Static dielectric constant tensor:
#      x y z
#    x 4.029460 0.000000 -0.104700 
#    y 0.000000 3.622990 0.000000 
#    z -0.104700 0.000000 3.463670 
# 
# 
# High freq. dielectric constant tensor:
#      x y z
#    x 1.777780 0.000000 0.003490 
#    y 0.000000 1.769190 0.000000 
#    z 0.003490 0.000000 1.766070 
# 
# From -- ./inp_files/230592.got.cif
#   From: 2010.06.25/outbox.cif.g09.slc.cpg/sg15_116_cif.got.tgz:230592.got - 2010.06.28 07:06:18.
