data_PCOD8132230
_publ_section_title
;
Structure prediction by ZEFSAII (Michael W. Deem and Ramdas Pophale) SiO2 
 PCOD8132230
Probable space group: C 2/C
;
_chemical_formula_sum "Si O2"
_cell_formula_units_Z 60
_cell_length_a 10.956122
_cell_length_b 24.266159
_cell_length_c 13.994285
_cell_angle_alpha 90.000000
_cell_angle_beta 123.748587
_cell_angle_gamma 90.000000
_cell_volume 3093.585694
_symmetry_space_group_name_H-M "C 2/C"
_symmetry_group_IT_number 15
_symmetry_cell_setting 'monoclinic'
loop_
_space_group_symop_operation_xyz
x,y,z
-x,y,1/2-z
-x,-y,-z
x,-y,1/2+z
1/2+x,1/2+y,z
1/2-x,1/2+y,1/2-z
1/2-x,1/2-y,-z
1/2+x,1/2-y,1/2+z
loop_
_atom_site_type_symbol
_atom_site_label
_atom_site_fract_x
_atom_site_fract_y
_atom_site_fract_z
Si Si1 0.500000 0.531522 0.250000
Si Si2 0.176442 0.443472 0.614970
Si Si3 0.014941 0.343458 0.644531
Si Si4 0.474759 0.954098 0.351883
Si Si5 0.686981 0.641330 0.960308
Si Si6 0.219101 0.121222 0.760866
Si Si7 0.982927 0.044331 0.573052
Si Si8 0.051936 0.223109 0.665229
O O1 0.648037 0.566883 0.294208
O O2 0.562055 0.492213 0.357819
O O3 0.103022 0.390792 0.630753
O O4 0.128457 0.497531 0.652466
O O5 0.124085 0.449823 0.480612
O O6 0.087528 0.284915 0.644916
O O7 0.000000 0.355544 0.750000
O O8 0.851767 0.339887 0.534282
O O9 0.500000 0.964493 0.250000
O O10 0.389239 0.896061 0.329401
O O11 0.650648 0.620147 0.837366
O O12 0.648126 0.587821 0.008632
O O13 0.583732 0.692456 0.947155
O O14 0.131333 0.078822 0.655218
O O15 0.196461 0.184568 0.715230
O O16 0.000000 0.000000 0.500000
O O17 0.000000 0.231835 0.750000
#
# Coordination Sequence:
#
# PCOD8132230 Si02
#       8
#     4   8   8   8   8   8   8   8
#     4  12  24  40  54  80 124 160 202 232 288 358
#     4  11  25  39  59  87 126 161 190 256 300 351
#     4  11  22  36  57  93 126 149 192 251 315 347
#     4  11  23  40  62  91 118 158 204 240 300 365
#     4  10  18  36  60  85 121 155 195 245 299 359
#     4  10  18  40  59  84 116 157 200 238 292 363
#     4  11  22  33  57  85 115 158 198 238 286 355
#     4   8  18  34  62  89 115 153 196 245 300 358
#
# _framework density 19.394967999999999
#
# number of rings (size 3 to 8) (size 9 to 14) (size 15 to 20)
#    0.000    1.600    4.000    1.600    5.600    0.000 
#    0.000    0.000    1.467    0.800    0.000    0.000 
#    0.000    0.000    0.000    0.000    0.000    0.000 
#
# Total GULP energy -371662.427831 kJ/mol
# GULP energy per Si atom -12388.747594 kJ/mol
# Density = 1.935082 g / cm^3
# Si number density = 19.394968 Si / 1000 Ang^3
#
#
#
# Elastic Constant Matrix: (Units=GPa)
#
#
# Indices 1 2 3 4 5 6 
#
# 1 60.7810 29.3207 38.3170 0.0000 7.1590 0.0000
# 2 29.3207 114.6986 48.3915 0.0000 -0.3244 0.0000
# 3 38.3170 48.3915 81.9382 0.0000 4.2979 0.0000
# 4 0.0000 0.0000 0.0000 24.5091 0.0000 -6.6761
# 5 7.1590 -0.3244 4.2979 0.0000 38.7996 0.0000
# 6 0.0000 0.0000 0.0000 -6.6761 0.0000 40.7430
#
#
#
# Elastic Compliance Matrix: (Units=1/GPa)
#
#
# Indices 1 2 3 4 5 6 
#
# 1 0.024043 -0.001980 -0.009898 0.000000 -0.003356 0.000000
# 2 -0.001980 0.011804 -0.006105 0.000000 0.001140 0.000000
# 3 -0.009898 -0.006105 0.020464 0.000000 -0.000492 0.000000
# 4 0.000000 0.000000 0.000000 0.042707 0.000000 0.006998
# 5 -0.003356 0.001140 -0.000492 0.000000 0.026457 0.000000
# 6 0.000000 0.000000 0.000000 0.006998 0.000000 0.025691
#
#
# Mechanical properties :
#
#
# Convention : Reuss Voigt Hill
#
# Bulk Modulus (GPa) = 49.15176 54.38624 51.76900
# Shear Modulus (GPa) = 25.78488 30.23624 28.01056
#
# Velocity S-wave (km/s) = 3.65014 3.95267 3.80441
# Velocity P-wave (km/s) = 6.56979 6.99527 6.78587
#
# Compressibility (1/GPa) = 0.02034515
#
# Stress axis : x y z
#
# Youngs Moduli (GPa) = 41.59294 84.72047 48.86566
#
# Poissons Ratio (x) = 0.16771 0.48367
# Poissons Ratio (y) = 0.08234 0.29833
# Poissons Ratio (z) = 0.41168 0.51722
#
# Static dielectric constant tensor:
#      x y z
#    x 3.191520 0.000000 0.168780 
#    y 0.000000 3.813660 0.000000 
#    z 0.168780 0.000000 3.518250 
# 
# 
# High freq. dielectric constant tensor:
#      x y z
#    x 1.718350 0.000000 0.014770 
#    y 0.000000 1.759980 0.000000 
#    z 0.014770 0.000000 1.756480 
# 
# From -- ./inp_files/148111.got.cif
#   From: 2010.06.25/outbox.cif.g09.slc.cpg/sg15_75_cif.got.tgz:148111.got - 2010.06.28 07:06:18.
