data_PCOD8132425
_publ_section_title
;
Structure prediction by ZEFSAII (Michael W. Deem and Ramdas Pophale) SiO2 
 PCOD8132425
Probable space group: C 2/C
;
_chemical_formula_sum "Si O2"
_cell_formula_units_Z 60
_cell_length_a 14.491571
_cell_length_b 11.802224
_cell_length_c 23.396247
_cell_angle_alpha 90.000000
_cell_angle_beta 132.146391
_cell_angle_gamma 90.000000
_cell_volume 2966.861662
_symmetry_space_group_name_H-M "C 2/C"
_symmetry_group_IT_number 15
_symmetry_cell_setting 'monoclinic'
loop_
_space_group_symop_operation_xyz
x,y,z
-x,y,1/2-z
-x,-y,-z
x,-y,1/2+z
1/2+x,1/2+y,z
1/2-x,1/2+y,1/2-z
1/2-x,1/2-y,-z
1/2+x,1/2-y,1/2+z
loop_
_atom_site_type_symbol
_atom_site_label
_atom_site_fract_x
_atom_site_fract_y
_atom_site_fract_z
Si Si1 0.945033 0.260922 0.607505
Si Si2 0.181129 0.893823 0.183431
Si Si3 0.600298 0.359861 0.659192
Si Si4 0.359815 0.738536 0.202466
Si Si5 0.218047 0.591459 0.534721
Si Si6 0.185748 0.849105 0.938501
Si Si7 0.259427 0.841271 0.334211
Si Si8 0.500000 0.758268 0.750000
O O1 0.904750 0.357487 0.546475
O O2 0.836937 0.168782 0.570688
O O3 0.971851 0.326409 0.679526
O O4 0.069032 0.196826 0.639171
O O5 0.275026 0.850347 0.173586
O O6 0.262685 0.907006 0.275515
O O7 0.133832 0.017476 0.148402
O O8 0.650229 0.338853 0.744515
O O9 0.452997 0.351407 0.595435
O O10 0.662094 0.274286 0.639726
O O11 0.500000 0.780064 0.250000
O O12 0.311299 0.667579 0.128483
O O13 0.242920 0.466719 0.520276
O O14 0.187181 0.588403 0.589842
O O15 0.250000 0.750000 0.000000
O O16 0.114517 0.823871 0.285775
#
# Coordination Sequence:
#
# PCOD8132425 Si02
#       8
#     8   8   8   8   8   8   8   4
#     4   9  18  33  60  89 114 152 198 248 290 344
#     4  10  18  37  61  90 115 153 205 248 292 348
#     4  10  20  39  63  87 118 157 201 248 293 354
#     4   9  21  40  60  85 120 154 197 241 300 357
#     4  10  19  37  59  86 120 153 197 245 296 349
#     4  11  23  41  60  85 119 165 199 237 301 368
#     4   9  19  34  60  92 114 148 199 249 295 350
#     4   8  16  34  54  84 120 142 190 238 296 348
#
# _framework density 20.223389000000001
#
# number of rings (size 3 to 8) (size 9 to 14) (size 15 to 20)
#    0.000    2.400    1.333    0.800    0.000    1.067 
#    8.400   14.667    0.000    0.000    0.000    0.000 
#    0.000    0.000    0.000    0.000    0.000    0.000 
#
# Total GULP energy -371805.449523 kJ/mol
# GULP energy per Si atom -12393.514984 kJ/mol
# Density = 2.017736 g / cm^3
# Si number density = 20.223389 Si / 1000 Ang^3
#
#
#
# Elastic Constant Matrix: (Units=GPa)
#
#
# Indices 1 2 3 4 5 6 
#
# 1 82.5193 45.3536 14.5041 0.0000 6.2503 0.0000
# 2 45.3536 121.8915 48.2878 0.0000 12.7102 0.0000
# 3 14.5041 48.2878 100.4473 0.0000 -0.5204 0.0000
# 4 0.0000 0.0000 0.0000 21.9159 0.0000 1.6446
# 5 6.2503 12.7102 -0.5204 0.0000 17.9000 0.0000
# 6 0.0000 0.0000 0.0000 1.6446 0.0000 26.7291
#
#
#
# Elastic Compliance Matrix: (Units=1/GPa)
#
#
# Indices 1 2 3 4 5 6 
#
# 1 0.015292 -0.005788 0.000568 0.000000 -0.001213 0.000000
# 2 -0.005788 0.013390 -0.005641 0.000000 -0.007651 0.000000
# 3 0.000568 -0.005641 0.012607 0.000000 0.004173 0.000000
# 4 0.000000 0.000000 0.000000 0.045841 0.000000 -0.002821
# 5 -0.001213 -0.007651 0.004173 0.000000 0.061843 0.000000
# 6 0.000000 0.000000 0.000000 -0.002821 0.000000 0.037586
#
#
# Mechanical properties :
#
#
# Convention : Reuss Voigt Hill
#
# Bulk Modulus (GPa) = 51.10713 57.90546 54.50630
# Shear Modulus (GPa) = 23.27719 26.42318 24.85019
#
# Velocity S-wave (km/s) = 3.39632 3.61857 3.50921
# Velocity P-wave (km/s) = 6.38014 6.79366 6.59014
#
# Compressibility (1/GPa) = 0.01956674
#
# Stress axis : x y z
#
# Youngs Moduli (GPa) = 65.39471 74.68145 79.32271
#
# Poissons Ratio (x) = 0.43229 -0.04508
# Poissons Ratio (y) = 0.37853 0.44745
# Poissons Ratio (z) = -0.03717 0.42127
#
# Static dielectric constant tensor:
#      x y z
#    x 3.795560 0.000000 -0.078940 
#    y 0.000000 3.375990 0.000000 
#    z -0.078940 0.000000 3.962230 
# 
# 
# High freq. dielectric constant tensor:
#      x y z
#    x 1.794000 0.000000 0.000720 
#    y 0.000000 1.761790 0.000000 
#    z 0.000720 0.000000 1.792610 
# 
# From -- ./inp_files/203994.got.cif
#   From: 2010.06.25/outbox.cif.g09.slc.cpg/sg15_102_cif.got.tgz:203994.got - 2010.06.28 07:06:18.
