data_PCOD8132585
_publ_section_title
;
Structure prediction by ZEFSAII (Michael W. Deem and Ramdas Pophale) SiO2 
 PCOD8132585
Probable space group: C 2/C
;
_chemical_formula_sum "Si O2"
_cell_formula_units_Z 60
_cell_length_a 11.748031
_cell_length_b 13.452498
_cell_length_c 19.051549
_cell_angle_alpha 90.000000
_cell_angle_beta 83.412888
_cell_angle_gamma 90.000000
_cell_volume 2991.037466
_symmetry_space_group_name_H-M "C 2/C"
_symmetry_group_IT_number 15
_symmetry_cell_setting 'monoclinic'
loop_
_space_group_symop_operation_xyz
x,y,z
-x,y,1/2-z
-x,-y,-z
x,-y,1/2+z
1/2+x,1/2+y,z
1/2-x,1/2+y,1/2-z
1/2-x,1/2-y,-z
1/2+x,1/2-y,1/2+z
loop_
_atom_site_type_symbol
_atom_site_label
_atom_site_fract_x
_atom_site_fract_y
_atom_site_fract_z
Si Si1 0.500000 0.146081 0.750000
Si Si2 0.516974 0.324777 0.576937
Si Si3 0.111214 0.325638 0.876734
Si Si4 0.630919 0.874316 0.029204
Si Si5 0.120253 0.122169 0.931753
Si Si6 0.847538 0.823871 0.791203
Si Si7 0.572968 0.020327 0.140247
Si Si8 0.829370 0.067518 0.155368
O O1 0.389793 0.219309 0.753634
O O2 0.482077 0.075038 0.817616
O O3 0.537908 0.210522 0.554311
O O4 0.557622 0.397343 0.510659
O O5 0.584446 0.352515 0.643425
O O6 0.381888 0.344345 0.602201
O O7 0.062166 0.216806 0.898287
O O8 0.213452 0.314588 0.814818
O O9 0.011409 0.387515 0.846993
O O10 0.152387 0.381609 0.944775
O O11 0.748047 0.846665 0.061486
O O12 0.589342 0.982683 0.058913
O O13 0.110431 0.031793 0.878470
O O14 0.865454 0.911986 0.733248
O O15 0.692816 0.059105 0.162123
#
# Coordination Sequence:
#
# PCOD8132585 Si02
#       8
#     4   8   8   8   8   8   8   8
#     4  12  22  42  64  86 112 160 212 246 294 354
#     4  11  18  38  66  89 113 157 212 260 285 350
#     4  11  21  36  63  89 121 156 199 249 298 358
#     4  10  18  38  64  91 112 159 214 242 286 355
#     4  10  20  38  63  89 122 159 204 253 302 348
#     4  12  20  37  67  88 112 153 217 258 288 349
#     4  11  23  38  58  89 126 159 190 248 308 362
#     4  11  23  36  59  90 125 159 198 248 310 361
#
# _framework density 20.059930000000001
#
# number of rings (size 3 to 8) (size 9 to 14) (size 15 to 20)
#    0.000    1.067    5.333    3.200    0.000    0.000 
#    0.000    2.667   20.533    0.000    0.000    0.000 
#    0.000    0.000    0.000    0.000    0.000    0.000 
#
# Total GULP energy -371834.702051 kJ/mol
# GULP energy per Si atom -12394.490068 kJ/mol
# Density = 2.001427 g / cm^3
# Si number density = 20.059930 Si / 1000 Ang^3
#
#
#
# Elastic Constant Matrix: (Units=GPa)
#
#
# Indices 1 2 3 4 5 6 
#
# 1 81.8662 53.1030 48.3057 0.0000 -20.1194 0.0000
# 2 53.1030 92.6849 53.5614 0.0000 -0.8193 0.0000
# 3 48.3057 53.5614 115.5047 0.0000 -16.0045 0.0000
# 4 0.0000 0.0000 0.0000 39.1411 0.0000 0.4665
# 5 -20.1194 -0.8193 -16.0045 0.0000 29.0560 0.0000
# 6 0.0000 0.0000 0.0000 0.4665 0.0000 35.0353
#
#
#
# Elastic Compliance Matrix: (Units=1/GPa)
#
#
# Indices 1 2 3 4 5 6 
#
# 1 0.026677 -0.013699 -0.002488 0.000000 0.016715 0.000000
# 2 -0.013699 0.022135 -0.006239 0.000000 -0.012298 0.000000
# 3 -0.002488 -0.006239 0.013347 0.000000 0.005453 0.000000
# 4 0.000000 0.000000 0.000000 0.025553 0.000000 -0.000340
# 5 0.016715 -0.012298 0.005453 0.000000 0.048647 0.000000
# 6 0.000000 0.000000 0.000000 -0.000340 0.000000 0.028547
#
#
# Mechanical properties :
#
#
# Convention : Reuss Voigt Hill
#
# Bulk Modulus (GPa) = 57.78247 66.66624 62.22436
# Shear Modulus (GPa) = 23.19900 29.65220 26.42560
#
# Velocity S-wave (km/s) = 3.40440 3.84888 3.63345
# Velocity P-wave (km/s) = 6.65738 7.28406 6.97776
#
# Compressibility (1/GPa) = 0.01730629
#
# Stress axis : x y z
#
# Youngs Moduli (GPa) = 37.48573 45.17815 74.92250
#
# Poissons Ratio (x) = 0.61887 0.18643
# Poissons Ratio (y) = 0.51350 0.46746
# Poissons Ratio (z) = 0.09328 0.28188
#
# Static dielectric constant tensor:
#      x y z
#    x 3.532600 0.000000 -0.364440 
#    y 0.000000 3.579450 0.000000 
#    z -0.364440 0.000000 3.970280 
# 
# 
# High freq. dielectric constant tensor:
#      x y z
#    x 1.758780 0.000000 -0.029590 
#    y 0.000000 1.772020 0.000000 
#    z -0.029590 0.000000 1.800490 
# 
# From -- ./inp_files/238352.got.cif
#   From: 2010.06.25/outbox.cif.g09.slc.cpg/sg15_120_cif.got.tgz:238352.got - 2010.06.28 07:06:18.
