data_PCOD8132473
_publ_section_title
;
Structure prediction by ZEFSAII (Michael W. Deem and Ramdas Pophale) SiO2 
 PCOD8132473
Probable space group: C 2/C
;
_chemical_formula_sum "Si O2"
_cell_formula_units_Z 44
_cell_length_a 16.310175
_cell_length_b 18.187467
_cell_length_c 15.036250
_cell_angle_alpha 90.000000
_cell_angle_beta 151.216992
_cell_angle_gamma 90.000000
_cell_volume 2147.637849
_symmetry_space_group_name_H-M "C 2/C"
_symmetry_group_IT_number 15
_symmetry_cell_setting 'monoclinic'
loop_
_space_group_symop_operation_xyz
x,y,z
-x,y,1/2-z
-x,-y,-z
x,-y,1/2+z
1/2+x,1/2+y,z
1/2-x,1/2+y,1/2-z
1/2-x,1/2-y,-z
1/2+x,1/2-y,1/2+z
loop_
_atom_site_type_symbol
_atom_site_label
_atom_site_fract_x
_atom_site_fract_y
_atom_site_fract_z
Si Si1 0.690255 0.933851 0.936265
Si Si2 0.500000 0.458059 0.750000
Si Si3 0.383582 0.208954 0.566465
Si Si4 0.286747 0.701546 0.621778
Si Si5 0.081191 0.154247 0.183462
Si Si6 0.866048 0.835592 0.963718
O O1 0.500000 0.967858 0.750000
O O2 0.683251 0.874162 0.010248
O O3 0.741982 0.894522 0.892545
O O4 0.827696 0.995344 0.091526
O O5 0.516529 0.407725 0.853402
O O6 0.500000 0.165222 0.750000
O O7 0.250000 0.250000 0.500000
O O8 0.281147 0.155269 0.402949
O O9 0.494687 0.266602 0.615381
O O10 0.250000 0.750000 0.500000
O O11 0.223279 0.755656 0.640749
O O12 0.481078 0.678694 0.821924
O O13 0.070378 0.132234 0.069614
#
# Coordination Sequence:
#
# PCOD8132473 Si02
#       6
#     8   4   8   8   8   8
#     4  11  23  43  64  89 129 175 219 256 325 403
#     4  12  24  44  62  90 132 188 210 250 336 402
#     4   9  17  36  58  86 119 160 219 258 309 381
#     4  10  18  37  65  94 126 161 209 267 327 378
#     4  11  22  38  66  94 130 166 213 274 328 379
#     4  11  21  37  65 101 126 160 218 282 319 375
#
# _framework density 20.487625999999999
#
# number of rings (size 3 to 8) (size 9 to 14) (size 15 to 20)
#    0.000    1.455    4.545    4.909    0.000    1.455 
#    0.000    0.909    0.000    0.000    0.000    0.000 
#    0.000    0.000    0.000    0.000    0.000    0.000 
#
# Total GULP energy -272595.737809 kJ/mol
# GULP energy per Si atom -12390.715355 kJ/mol
# Density = 2.044100 g / cm^3
# Si number density = 20.487626 Si / 1000 Ang^3
#
#
#
# Elastic Constant Matrix: (Units=GPa)
#
#
# Indices 1 2 3 4 5 6 
#
# 1 98.8845 19.1920 30.1474 -0.0001 -14.0639 -0.0001
# 2 19.1920 70.0010 18.2431 -0.0001 -2.8706 0.0000
# 3 30.1474 18.2431 122.7504 -0.0002 12.3745 -0.0001
# 4 -0.0001 -0.0001 -0.0002 26.5015 -0.0001 7.8892
# 5 -14.0639 -2.8706 12.3745 -0.0001 36.7241 -0.0001
# 6 -0.0001 0.0000 -0.0001 7.8892 -0.0001 23.2074
#
#
#
# Elastic Compliance Matrix: (Units=1/GPa)
#
#
# Indices 1 2 3 4 5 6 
#
# 1 0.012359 -0.002306 -0.003262 0.000000 0.005652 0.000000
# 2 -0.002306 0.015431 -0.001821 0.000000 0.000937 0.000000
# 3 -0.003262 -0.001821 0.009688 0.000000 -0.004656 0.000000
# 4 0.000000 0.000000 0.000000 0.041982 0.000000 -0.014271
# 5 0.005652 0.000937 -0.004656 0.000000 0.031037 0.000000
# 6 0.000000 0.000000 0.000000 -0.014271 0.000000 0.047941
#
#
# Mechanical properties :
#
#
# Convention : Reuss Voigt Hill
#
# Bulk Modulus (GPa) = 44.05752 47.42234 45.73993
# Shear Modulus (GPa) = 27.65736 32.22350 29.94043
#
# Velocity S-wave (km/s) = 3.67816 3.97019 3.82696
# Velocity P-wave (km/s) = 6.29203 6.64933 6.47315
#
# Compressibility (1/GPa) = 0.02269760
#
# Stress axis : x y z
#
# Youngs Moduli (GPa) = 80.91331 64.80496 103.22152
#
# Poissons Ratio (x) = 0.14947 0.33674
# Poissons Ratio (y) = 0.18662 0.18800
# Poissons Ratio (z) = 0.26397 0.11803
#
# Static dielectric constant tensor:
#      x y z
#    x 3.744520 0.000000 0.172630 
#    y 0.000000 3.526540 0.000000 
#    z 0.172630 0.000000 4.373900 
# 
# 
# High freq. dielectric constant tensor:
#      x y z
#    x 1.787160 0.000000 0.010090 
#    y 0.000000 1.773620 0.000000 
#    z 0.010090 0.000000 1.811450 
# 
# From -- ./inp_files/163139.got.cif
#   From: 2010.06.25/outbox.cif.g09.slc.cpg/sg15_82_cif.got.tgz:163139.got - 2010.06.28 07:06:18.
