data_PCOD8132684
_publ_section_title
;
Structure prediction by ZEFSAII (Michael W. Deem and Ramdas Pophale) SiO2 
 PCOD8132684
Probable space group: C 2/C
;
_chemical_formula_sum "Si O2"
_cell_formula_units_Z 36
_cell_length_a 9.108827
_cell_length_b 22.047264
_cell_length_c 11.758908
_cell_angle_alpha 90.000000
_cell_angle_beta 52.105406
_cell_angle_gamma 90.000000
_cell_volume 1863.542619
_symmetry_space_group_name_H-M "C 2/C"
_symmetry_group_IT_number 15
_symmetry_cell_setting 'monoclinic'
loop_
_space_group_symop_operation_xyz
x,y,z
-x,y,1/2-z
-x,-y,-z
x,-y,1/2+z
1/2+x,1/2+y,z
1/2-x,1/2+y,1/2-z
1/2-x,1/2-y,-z
1/2+x,1/2-y,1/2+z
loop_
_atom_site_type_symbol
_atom_site_label
_atom_site_fract_x
_atom_site_fract_y
_atom_site_fract_z
Si Si1 0.463468 0.449355 0.392597
Si Si2 0.770463 0.282511 0.177705
Si Si3 0.500000 0.851979 0.250000
Si Si4 0.698502 0.031109 0.625181
Si Si5 0.104656 0.819248 0.030362
O O1 0.500000 0.424619 0.250000
O O2 0.290444 0.496927 0.473340
O O3 0.651686 0.481618 0.346333
O O4 0.423678 0.389765 0.487817
O O5 0.751219 0.317044 0.065717
O O6 0.583372 0.285002 0.340799
O O7 0.935431 0.311471 0.174519
O O8 0.820237 0.213085 0.120009
O O9 0.333581 0.896267 0.375610
O O10 0.500000 0.999983 0.750000
#
# Coordination Sequence:
#
# PCOD8132684 Si02
#       5
#     8   8   4   8   8
#     4  11  19  38  60  78 118 151 179 238 284 338
#     4  10  20  35  60  76 117 142 194 227 283 328
#     4  10  18  40  56  86 114 148 182 246 276 340
#     4   9  21  37  57  86 113 142 194 231 284 340
#     4  10  19  38  53  84 104 159 183 229 276 346
#
# _framework density 19.318044
#
# number of rings (size 3 to 8) (size 9 to 14) (size 15 to 20)
#    0.667    1.333    4.444    0.000    0.000    1.778 
#    8.000    2.222    2.444    0.000    0.000    0.000 
#    0.000    0.000    0.000    0.000    0.000    0.000 
#
# Total GULP energy -223002.282772 kJ/mol
# GULP energy per Si atom -12389.015710 kJ/mol
# Density = 1.927408 g / cm^3
# Si number density = 19.318044 Si / 1000 Ang^3
#
#
#
# Elastic Constant Matrix: (Units=GPa)
#
#
# Indices 1 2 3 4 5 6 
#
# 1 113.0791 40.4613 44.7604 0.0000 -12.3789 0.0000
# 2 40.4613 107.4970 52.9857 0.0000 3.3370 0.0000
# 3 44.7604 52.9857 62.1784 0.0000 -0.3040 0.0000
# 4 0.0000 0.0000 0.0000 35.6918 0.0000 -3.0026
# 5 -12.3789 3.3370 -0.3040 0.0000 18.1717 0.0000
# 6 0.0000 0.0000 0.0000 -3.0026 0.0000 23.7557
#
#
#
# Elastic Compliance Matrix: (Units=1/GPa)
#
#
# Indices 1 2 3 4 5 6 
#
# 1 0.013820 -0.001060 -0.009000 0.000000 0.009459 0.000000
# 2 -0.001060 0.016306 -0.013152 0.000000 -0.003936 0.000000
# 3 -0.009000 -0.013152 0.033754 0.000000 -0.003151 0.000000
# 4 0.000000 0.000000 0.000000 0.028319 0.000000 0.003579
# 5 0.009459 -0.003936 -0.003151 0.000000 0.062144 0.000000
# 6 0.000000 0.000000 0.000000 0.003579 0.000000 0.042548
#
#
# Mechanical properties :
#
#
# Convention : Reuss Voigt Hill
#
# Bulk Modulus (GPa) = 57.28153 62.12993 59.70573
# Shear Modulus (GPa) = 20.06965 25.16030 22.61497
#
# Velocity S-wave (km/s) = 3.22670 3.61283 3.42521
# Velocity P-wave (km/s) = 6.60291 7.04520 6.82763
#
# Compressibility (1/GPa) = 0.01745763
#
# Stress axis : x y z
#
# Youngs Moduli (GPa) = 72.35727 61.32622 29.62654
#
# Poissons Ratio (x) = 0.06498 0.26663
# Poissons Ratio (y) = 0.07666 0.38965
# Poissons Ratio (z) = 0.65119 0.80656
#
# Static dielectric constant tensor:
#      x y z
#    x 3.560760 0.000000 -0.158420 
#    y 0.000000 3.426890 0.000000 
#    z -0.158420 0.000000 3.317360 
# 
# 
# High freq. dielectric constant tensor:
#      x y z
#    x 1.754910 0.000000 -0.013350 
#    y 0.000000 1.744130 0.000000 
#    z -0.013350 0.000000 1.718080 
# 
# From -- ./inp_files/78601.got.cif
#   From: 2010.06.25/outbox.cif.g09.slc.cpg/sg15_40_cif.got.tgz:78601.got - 2010.06.28 07:06:18.
