data_PCOD8132832
_publ_section_title
;
Structure prediction by ZEFSAII (Michael W. Deem and Ramdas Pophale) SiO2 
 PCOD8132832
Probable space group: C 2/C
;
_chemical_formula_sum "Si O2"
_cell_formula_units_Z 64
_cell_length_a 11.163106
_cell_length_b 20.038312
_cell_length_c 20.668500
_cell_angle_alpha 90.000000
_cell_angle_beta 118.936334
_cell_angle_gamma 90.000000
_cell_volume 4046.145994
_symmetry_space_group_name_H-M "C 2/C"
_symmetry_group_IT_number 15
_symmetry_cell_setting 'monoclinic'
loop_
_space_group_symop_operation_xyz
x,y,z
-x,y,1/2-z
-x,-y,-z
x,-y,1/2+z
1/2+x,1/2+y,z
1/2-x,1/2+y,1/2-z
1/2-x,1/2-y,-z
1/2+x,1/2-y,1/2+z
loop_
_atom_site_type_symbol
_atom_site_label
_atom_site_fract_x
_atom_site_fract_y
_atom_site_fract_z
Si Si1 0.121524 0.559161 0.832127
Si Si2 0.585889 0.515468 0.616973
Si Si3 0.609013 0.597400 0.014731
Si Si4 0.449918 0.692300 0.055263
Si Si5 0.858585 0.666795 0.559486
Si Si6 0.616469 0.956529 0.946702
Si Si7 0.450668 0.411744 0.666990
Si Si8 0.353328 0.932682 0.944506
O O1 0.264958 0.547880 0.832104
O O2 0.113176 0.631184 0.864610
O O3 0.107686 0.503173 0.882553
O O4 0.000000 0.552536 0.750000
O O5 0.484880 0.575756 0.570474
O O6 0.589080 0.459696 0.562672
O O7 0.528983 0.479707 0.666670
O O8 0.561556 0.669537 0.030335
O O9 0.768131 0.600370 0.034616
O O10 0.458445 0.769209 0.079409
O O11 0.480091 0.648392 0.125969
O O12 0.302186 0.682132 0.984462
O O13 0.894769 0.621287 0.508409
O O14 0.466953 0.925503 0.918171
O O15 0.655287 0.995927 0.022400
O O16 0.500000 0.389290 0.750000
O O17 0.288842 0.421847 0.628166
#
# Coordination Sequence:
#
# PCOD8132832 Si02
#       8
#     8   8   8   8   8   8   8   8
#     4  10  19  28  44  69  97 122 146 182 233 279
#     4   9  16  28  44  66  91 116 150 184 224 276
#     4   9  14  28  49  65  85 116 153 191 223 266
#     4   9  17  30  49  66  87 117 159 193 226 259
#     4   9  17  31  47  66  89 119 153 197 224 263
#     4   9  17  29  46  66  92 120 148 185 231 272
#     4  10  19  28  45  69  95 121 146 181 229 279
#     4   9  17  30  45  66  93 119 148 187 231 266
#
# _framework density 15.817520999999999
#
# number of rings (size 3 to 8) (size 9 to 14) (size 15 to 20)
#    0.000    2.750    2.500    0.000    1.750    0.500 
#    0.000    0.625    0.000    0.000    0.000    0.000 
#    3.750    0.000    0.000    0.000    0.000    0.000 
#
# Total GULP energy -396609.590911 kJ/mol
# GULP energy per Si atom -12394.049716 kJ/mol
# Density = 1.578152 g / cm^3
# Si number density = 15.817521 Si / 1000 Ang^3
#
#
#
# Elastic Constant Matrix: (Units=GPa)
#
#
# Indices 1 2 3 4 5 6 
#
# 1 112.9782 45.0574 27.9681 0.0000 -1.4202 0.0000
# 2 45.0574 74.4773 14.3585 0.0000 3.2407 0.0000
# 3 27.9681 14.3585 73.8953 0.0000 10.4881 0.0000
# 4 0.0000 0.0000 0.0000 7.4488 0.0000 3.0466
# 5 -1.4202 3.2407 10.4881 0.0000 11.6490 0.0000
# 6 0.0000 0.0000 0.0000 3.0466 0.0000 23.8406
#
#
#
# Elastic Compliance Matrix: (Units=1/GPa)
#
#
# Indices 1 2 3 4 5 6 
#
# 1 0.013008 -0.007320 -0.004603 0.000000 0.007767 0.000000
# 2 -0.007320 0.018096 0.000109 0.000000 -0.006025 0.000000
# 3 -0.004603 0.000109 0.017585 0.000000 -0.016424 0.000000
# 4 0.000000 0.000000 0.000000 0.141654 0.000000 -0.018102
# 5 0.007767 -0.006025 -0.016424 0.000000 0.103254 0.000000
# 6 0.000000 0.000000 0.000000 -0.018102 0.000000 0.044258
#
#
# Mechanical properties :
#
#
# Convention : Reuss Voigt Hill
#
# Bulk Modulus (GPa) = 39.90224 48.45767 44.17996
# Shear Modulus (GPa) = 13.51948 20.18547 16.85247
#
# Velocity S-wave (km/s) = 2.92672 3.57619 3.26763
# Velocity P-wave (km/s) = 6.05824 6.91044 6.49833
#
# Compressibility (1/GPa) = 0.02506125
#
# Stress axis : x y z
#
# Youngs Moduli (GPa) = 76.87734 55.25949 56.86759
#
# Poissons Ratio (x) = 0.40450 0.26177
# Poissons Ratio (y) = 0.56274 -0.00622
# Poissons Ratio (z) = 0.35388 -0.00604
#
# Static dielectric constant tensor:
#      x y z
#    x 3.188570 0.000000 0.020650 
#    y 0.000000 2.948700 0.000000 
#    z 0.020650 0.000000 2.768870 
# 
# 
# High freq. dielectric constant tensor:
#      x y z
#    x 1.610340 0.000000 0.004550 
#    y 0.000000 1.580630 0.000000 
#    z 0.004550 0.000000 1.589190 
# 
# From -- ./inp_files/240108.got.cif
#   From: 2010.06.25/outbox.cif.g09.slc.cpg/sg15_121_cif.got.tgz:240108.got - 2010.06.28 07:06:18.
