data_PCOD8132801
_publ_section_title
;
Structure prediction by ZEFSAII (Michael W. Deem and Ramdas Pophale) SiO2 
 PCOD8132801
Probable space group: C 2/C
;
_chemical_formula_sum "Si O2"
_cell_formula_units_Z 40
_cell_length_a 21.525615
_cell_length_b 7.969429
_cell_length_c 8.328723
_cell_angle_alpha 90.000000
_cell_angle_beta 102.276762
_cell_angle_gamma 90.000000
_cell_volume 1396.093104
_symmetry_space_group_name_H-M "C 2/C"
_symmetry_group_IT_number 15
_symmetry_cell_setting 'monoclinic'
loop_
_space_group_symop_operation_xyz
x,y,z
-x,y,1/2-z
-x,-y,-z
x,-y,1/2+z
1/2+x,1/2+y,z
1/2-x,1/2+y,1/2-z
1/2-x,1/2-y,-z
1/2+x,1/2-y,1/2+z
loop_
_atom_site_type_symbol
_atom_site_label
_atom_site_fract_x
_atom_site_fract_y
_atom_site_fract_z
Si Si1 0.828516 0.399121 0.653981
Si Si2 0.370520 0.320157 0.911941
Si Si3 0.039834 0.635187 0.119067
Si Si4 0.284119 0.386702 0.341800
Si Si5 0.400964 0.367654 0.593736
O O1 0.847029 0.354676 0.478382
O O2 0.892306 0.438397 0.787596
O O3 0.787422 0.571161 0.636630
O O4 0.786867 0.239615 0.692597
O O5 0.313825 0.433449 0.803687
O O6 0.416682 0.298385 0.781681
O O7 0.405286 0.428309 0.074156
O O8 0.000000 0.697975 0.250000
O O9 0.049442 0.790470 0.004684
O O10 0.000000 0.500000 0.000000
O O11 0.328464 0.309705 0.506879
#
# Coordination Sequence:
#
# PCOD8132801 Si02
#       5
#     8   8   8   8   8
#     4  11  22  47  78 112 161 199 261 320 380 471
#     4  10  18  42  74 118 152 195 246 314 398 445
#     4  11  27  54  73 105 151 206 261 312 384 454
#     4   9  20  41  73 116 155 201 250 317 393 447
#     4   9  20  43  75 106 158 193 259 314 370 465
#
# _framework density 28.651382999999999
#
# number of rings (size 3 to 8) (size 9 to 14) (size 15 to 20)
#    1.200    0.800    2.000    0.600    0.000    1.600 
#   14.400   13.000    0.000    0.000    0.000    0.000 
#    0.000    0.000    0.000    0.000    0.000    0.000 
#
# Total GULP energy -247783.238863 kJ/mol
# GULP energy per Si atom -12389.161943 kJ/mol
# Density = 2.858617 g / cm^3
# Si number density = 28.651383 Si / 1000 Ang^3
#
#
#
# Elastic Constant Matrix: (Units=GPa)
#
#
# Indices 1 2 3 4 5 6 
#
# 1 150.3196 68.3460 68.1571 0.0000 -11.9041 0.0000
# 2 68.3460 62.3269 36.5666 0.0000 -23.6501 0.0000
# 3 68.1571 36.5666 162.3311 0.0000 -57.9572 0.0000
# 4 0.0000 0.0000 0.0000 24.7510 0.0000 -7.6631
# 5 -11.9041 -23.6501 -57.9572 0.0000 57.0170 0.0000
# 6 0.0000 0.0000 0.0000 -7.6631 0.0000 54.8334
#
#
#
# Elastic Compliance Matrix: (Units=1/GPa)
#
#
# Indices 1 2 3 4 5 6 
#
# 1 0.018317 -0.020335 -0.007466 0.000000 -0.012199 0.000000
# 2 -0.020335 0.042183 0.005913 0.000000 0.019262 0.000000
# 3 -0.007466 0.005913 0.013000 0.000000 0.014108 0.000000
# 4 0.000000 0.000000 0.000000 0.042230 0.000000 0.005902
# 5 -0.012199 0.019262 0.014108 0.000000 0.037322 0.000000
# 6 0.000000 0.000000 0.000000 0.005902 0.000000 0.019062
#
#
# Mechanical properties :
#
#
# Convention : Reuss Voigt Hill
#
# Bulk Modulus (GPa) = 33.64172 80.12410 56.88291
# Shear Modulus (GPa) = 22.14370 40.78083 31.46226
#
# Velocity S-wave (km/s) = 2.78306 3.77682 3.31736
# Velocity P-wave (km/s) = 4.70048 6.85894 5.87961
#
# Compressibility (1/GPa) = 0.02972500
#
# Stress axis : x y z
#
# Youngs Moduli (GPa) = 54.59346 23.70603 76.92379
#
# Poissons Ratio (x) = 0.48207 0.57428
# Poissons Ratio (y) = 1.11017 -0.45485
# Poissons Ratio (z) = 0.40757 -0.14017
#
# Static dielectric constant tensor:
#      x y z
#    x 5.156940 0.000000 -0.164600 
#    y 0.000000 4.883070 0.000000 
#    z -0.164600 0.000000 5.049980 
# 
# 
# High freq. dielectric constant tensor:
#      x y z
#    x 2.149760 0.000000 -0.013510 
#    y 0.000000 2.151180 0.000000 
#    z -0.013510 0.000000 2.158050 
# 
# From -- ./inp_files/60076.got.cif
#   From: 2010.06.25/outbox.cif.g09.slc.cpg/sg15_31_cif.got.tgz:60076.got - 2010.06.28 07:06:18.
