data_PCOD8132918
_publ_section_title
;
Structure prediction by ZEFSAII (Michael W. Deem and Ramdas Pophale) SiO2 
 PCOD8132918
Probable space group: C 2/C
;
_chemical_formula_sum "Si O2"
_cell_formula_units_Z 64
_cell_length_a 9.367621
_cell_length_b 19.726706
_cell_length_c 21.965651
_cell_angle_alpha 90.000000
_cell_angle_beta 64.756436
_cell_angle_gamma 90.000000
_cell_volume 3671.453238
_symmetry_space_group_name_H-M "C 2/C"
_symmetry_group_IT_number 15
_symmetry_cell_setting 'monoclinic'
loop_
_space_group_symop_operation_xyz
x,y,z
-x,y,1/2-z
-x,-y,-z
x,-y,1/2+z
1/2+x,1/2+y,z
1/2-x,1/2+y,1/2-z
1/2-x,1/2-y,-z
1/2+x,1/2-y,1/2+z
loop_
_atom_site_type_symbol
_atom_site_label
_atom_site_fract_x
_atom_site_fract_y
_atom_site_fract_z
Si Si1 0.846784 0.582519 0.317647
Si Si2 0.482077 0.582519 0.182353
Si Si3 0.756054 0.805653 0.580861
Si Si4 0.116770 0.656198 0.548521
Si Si5 0.239622 0.971632 0.426997
Si Si6 0.406383 0.471632 0.426997
Si Si7 0.286188 0.156198 0.548521
Si Si8 0.417777 0.694347 0.419139
O O1 0.700864 0.574063 0.299136
O O2 0.846825 0.656814 0.348888
O O3 0.840380 0.526316 0.371583
O O4 0.000000 0.572105 0.250000
O O5 0.500000 0.572105 0.250000
O O6 0.583545 0.526316 0.128417
O O7 0.544600 0.656814 0.151112
O O8 0.706727 0.835142 0.525108
O O9 0.723004 0.725401 0.591068
O O10 0.942158 0.821592 0.557842
O O11 0.156715 0.596571 0.588384
O O12 0.256945 0.664857 0.474892
O O13 0.094863 0.725401 0.591067
O O14 0.959948 0.637525 0.540053
O O15 0.076342 0.954197 0.423658
O O16 0.209162 1.000000 0.500000
O O17 0.333482 0.403429 0.411617
#
# Coordination Sequence:
#
# PCOD8132918 Si02
#       8
#     8   8   8   8   8   8   8   8
#     4  10  21  37  56  76 104 144 181 218 265 323
#     4  10  21  37  56  76 104 144 181 218 265 323
#     4   9  18  35  53  74 107 143 173 210 269 324
#     4  10  19  30  53  84 108 131 173 229 263 301
#     4  10  19  35  56  76 106 146 178 213 269 327
#     4  10  19  35  56  76 106 146 178 213 269 327
#     4  10  19  30  53  84 108 131 173 229 263 301
#     4   9  18  35  53  74 107 143 173 210 269 324
#
# _framework density 17.431788999999998
#
# number of rings (size 3 to 8) (size 9 to 14) (size 15 to 20)
#    0.000    2.250    2.500    0.750    0.000    3.500 
#    0.000    1.250    0.000    6.000    0.000    0.000 
#    0.000    0.000    0.000    0.000    0.000    0.000 
#
# Total GULP energy -396836.917991 kJ/mol
# GULP energy per Si atom -12401.153687 kJ/mol
# Density = 1.739211 g / cm^3
# Si number density = 17.431789 Si / 1000 Ang^3
#
#
#
# Elastic Constant Matrix: (Units=GPa)
#
#
# Indices 1 2 3 4 5 6 
#
# 1 79.4877 67.4692 53.4908 0.0000 1.3964 0.0000
# 2 67.4692 134.2395 67.8502 0.0000 0.0153 0.0000
# 3 53.4908 67.8502 122.1056 0.0000 0.3214 0.0000
# 4 0.0000 0.0000 0.0000 22.2944 0.0000 -0.4682
# 5 1.3964 0.0153 0.3214 0.0000 30.2761 0.0000
# 6 0.0000 0.0000 0.0000 -0.4682 0.0000 33.9107
#
#
#
# Elastic Compliance Matrix: (Units=1/GPa)
#
#
# Indices 1 2 3 4 5 6 
#
# 1 0.024249 -0.009483 -0.005351 0.000000 -0.001057 0.000000
# 2 -0.009483 0.014067 -0.003664 0.000000 0.000469 0.000000
# 3 -0.005351 -0.003664 0.012569 0.000000 0.000115 0.000000
# 4 0.000000 0.000000 0.000000 0.044867 0.000000 0.000619
# 5 -0.001057 0.000469 0.000115 0.000000 0.033077 0.000000
# 6 0.000000 0.000000 0.000000 0.000619 0.000000 0.029498
#
#
# Mechanical properties :
#
#
# Convention : Reuss Voigt Hill
#
# Bulk Modulus (GPa) = 71.99083 79.27259 75.63171
# Shear Modulus (GPa) = 25.00596 27.09774 26.05185
#
# Velocity S-wave (km/s) = 3.79159 3.94699 3.87007
# Velocity P-wave (km/s) = 7.78180 8.14532 7.96564
#
# Compressibility (1/GPa) = 0.01389066
#
# Stress axis : x y z
#
# Youngs Moduli (GPa) = 41.23872 71.08636 79.56048
#
# Poissons Ratio (x) = 0.67412 0.42569
# Poissons Ratio (y) = 0.39107 0.29149
# Poissons Ratio (z) = 0.22065 0.26044
#
# Static dielectric constant tensor:
#      x y z
#    x 3.257550 0.000000 -0.013050 
#    y 0.000000 3.529680 0.000000 
#    z -0.013050 0.000000 2.933750 
# 
# 
# High freq. dielectric constant tensor:
#      x y z
#    x 1.676280 0.000000 -0.001480 
#    y 0.000000 1.688750 0.000000 
#    z -0.001480 0.000000 1.639560 
# 
# From -- ./inp_files/233827.got.cif
#   From: 2010.06.25/outbox.cif.g09.slc.cpg/sg15_117_cif.got.tgz:233827.got - 2010.06.28 07:06:18.
