data_PCOD8132676
_publ_section_title
;
Structure prediction by ZEFSAII (Michael W. Deem and Ramdas Pophale) SiO2 
 PCOD8132676
Probable space group: C 2/C
;
_chemical_formula_sum "Si O2"
_cell_formula_units_Z 56
_cell_length_a 16.228315
_cell_length_b 9.005152
_cell_length_c 21.824250
_cell_angle_alpha 90.000000
_cell_angle_beta 129.072090
_cell_angle_gamma 90.000000
_cell_volume 2476.072388
_symmetry_space_group_name_H-M "C 2/C"
_symmetry_group_IT_number 15
_symmetry_cell_setting 'monoclinic'
loop_
_space_group_symop_operation_xyz
x,y,z
-x,y,1/2-z
-x,-y,-z
x,-y,1/2+z
1/2+x,1/2+y,z
1/2-x,1/2+y,1/2-z
1/2-x,1/2-y,-z
1/2+x,1/2-y,1/2+z
loop_
_atom_site_type_symbol
_atom_site_label
_atom_site_fract_x
_atom_site_fract_y
_atom_site_fract_z
Si Si1 0.743088 0.074112 0.997173
Si Si2 0.500000 0.772966 0.750000
Si Si3 0.034482 0.061706 0.450250
Si Si4 0.500000 0.726467 0.250000
Si Si5 0.358173 0.899983 0.786727
Si Si6 0.153879 0.029787 0.841385
Si Si7 0.012683 0.371694 0.380411
Si Si8 0.160502 0.926639 0.204260
O O1 0.842545 0.013607 0.003030
O O2 0.749346 0.991441 0.066139
O O3 0.750000 0.250000 0.000000
O O4 0.623787 0.040990 0.918283
O O5 0.430800 0.874185 0.761556
O O6 0.576397 0.664200 0.825749
O O7 0.023666 0.240453 0.436211
O O8 0.000000 0.000000 0.500000
O O9 0.957168 0.987918 0.363597
O O10 0.403540 0.628230 0.180221
O O11 0.464884 0.819841 0.292688
O O12 0.333048 0.747067 0.811213
O O13 0.424843 0.009720 0.862924
O O14 0.249257 0.976088 0.711258
O O15 0.191823 0.060423 0.790353
#
# Coordination Sequence:
#
# PCOD8132676 Si02
#       8
#     8   4   8   4   8   8   8   8
#     4  10  20  38  64 100 136 173 228 270 336 410
#     4   9  21  40  66  98 130 176 234 282 338 400
#     4  11  23  40  63  97 136 175 216 283 342 407
#     4  11  17  34  72  92 130 176 234 268 316 404
#     4  11  24  43  66  98 134 171 226 289 331 408
#     4  10  18  39  68  94 130 176 225 282 333 400
#     4  11  23  40  64 103 133 180 231 274 338 409
#     4  11  24  43  68  96 129 177 231 281 350 395
#
# _framework density 22.616461999999999
#
# number of rings (size 3 to 8) (size 9 to 14) (size 15 to 20)
#    0.000    1.429    4.286    3.000    0.000    4.571 
#    0.000    8.571    0.000    0.000    0.000    0.000 
#    0.000    0.000    0.000    0.000    0.000    0.000 
#
# Total GULP energy -346961.530260 kJ/mol
# GULP energy per Si atom -12391.483224 kJ/mol
# Density = 2.256499 g / cm^3
# Si number density = 22.616462 Si / 1000 Ang^3
#
#
#
# Elastic Constant Matrix: (Units=GPa)
#
#
# Indices 1 2 3 4 5 6 
#
# 1 114.1341 47.1236 40.5591 0.0000 12.3718 0.0000
# 2 47.1236 126.6105 36.7022 0.0000 16.1270 0.0000
# 3 40.5591 36.7022 66.2875 0.0000 5.3818 0.0000
# 4 0.0000 0.0000 0.0000 18.2088 0.0000 8.0392
# 5 12.3718 16.1270 5.3818 0.0000 46.4100 0.0000
# 6 0.0000 0.0000 0.0000 8.0392 0.0000 38.2627
#
#
#
# Elastic Compliance Matrix: (Units=1/GPa)
#
#
# Indices 1 2 3 4 5 6 
#
# 1 0.012081 -0.002601 -0.005819 0.000000 -0.001642 0.000000
# 2 -0.002601 0.010313 -0.003921 0.000000 -0.002436 0.000000
# 3 -0.005819 -0.003921 0.020776 0.000000 0.000504 0.000000
# 4 0.000000 0.000000 0.000000 0.060534 0.000000 -0.012718
# 5 -0.001642 -0.002436 0.000504 0.000000 0.022773 0.000000
# 6 0.000000 0.000000 0.000000 -0.012718 0.000000 0.028807
#
#
# Mechanical properties :
#
#
# Convention : Reuss Voigt Hill
#
# Bulk Modulus (GPa) = 54.08537 61.75576 57.92057
# Shear Modulus (GPa) = 26.86313 32.75278 29.80796
#
# Velocity S-wave (km/s) = 3.45014 3.80963 3.63433
# Velocity P-wave (km/s) = 6.31169 6.83491 6.57850
#
# Compressibility (1/GPa) = 0.01848929
#
# Stress axis : x y z
#
# Youngs Moduli (GPa) = 82.77365 96.96407 48.13175
#
# Poissons Ratio (x) = 0.25216 0.28007
# Poissons Ratio (y) = 0.21526 0.18874
# Poissons Ratio (z) = 0.48165 0.38022
#
# Static dielectric constant tensor:
#      x y z
#    x 4.217010 0.000000 0.528770 
#    y 0.000000 4.304750 0.000000 
#    z 0.528770 0.000000 4.171560 
# 
# 
# High freq. dielectric constant tensor:
#      x y z
#    x 1.886600 0.000000 0.020400 
#    y 0.000000 1.895730 0.000000 
#    z 0.020400 0.000000 1.869400 
# 
# From -- ./inp_files/276654.got.cif
#   From: 2010.06.25/outbox.cif.g09.slc.cpg/sg15_139_cif.got.tgz:276654.got - 2010.06.28 07:06:18.
