data_PCOD8132037
_publ_section_title
;
Structure prediction by ZEFSAII (Michael W. Deem and Ramdas Pophale) SiO2 
 PCOD8132037
Probable space group: C 2/C
;
_chemical_formula_sum "Si O2"
_cell_formula_units_Z 52
_cell_length_a 20.216148
_cell_length_b 7.539533
_cell_length_c 31.085763
_cell_angle_alpha 90.000000
_cell_angle_beta 148.899169
_cell_angle_gamma 90.000000
_cell_volume 2447.446331
_symmetry_space_group_name_H-M "C 2/C"
_symmetry_group_IT_number 15
_symmetry_cell_setting 'monoclinic'
loop_
_space_group_symop_operation_xyz
x,y,z
-x,y,1/2-z
-x,-y,-z
x,-y,1/2+z
1/2+x,1/2+y,z
1/2-x,1/2+y,1/2-z
1/2-x,1/2-y,-z
1/2+x,1/2-y,1/2+z
loop_
_atom_site_type_symbol
_atom_site_label
_atom_site_fract_x
_atom_site_fract_y
_atom_site_fract_z
Si Si1 0.244514 0.031938 0.236466
Si Si2 0.301213 0.712267 0.210914
Si Si3 0.000000 0.353685 0.750000
Si Si4 0.511218 0.810297 0.662302
Si Si5 0.760731 0.396495 0.105931
Si Si6 0.075154 0.291804 0.375825
Si Si7 0.546985 0.511479 0.428475
O O1 0.247889 0.035070 0.291637
O O2 0.340006 0.178709 0.268909
O O3 0.098066 0.059115 0.138853
O O4 0.294136 0.843827 0.248180
O O5 0.220446 0.771557 0.124267
O O6 0.450934 0.707449 0.282665
O O7 0.997265 0.240504 0.704266
O O8 0.872461 0.472641 0.683913
O O9 0.441993 0.671081 0.592324
O O10 0.441940 0.001444 0.620427
O O11 0.811484 0.273721 0.095573
O O12 0.634610 0.503739 0.020102
O O13 0.108439 0.172886 0.435438
#
# Coordination Sequence:
#
# PCOD8132037 Si02
#       7
#     8   8   4   8   8   8   8
#     4  10  19  36  55  84 112 154 197 237 290 352
#     4  10  18  35  61  78 115 159 190 238 296 346
#     4  10  20  38  60  84 118 164 190 242 306 346
#     4  10  20  41  59  83 122 156 197 243 295 358
#     4  11  19  38  62  87 118 157 198 244 299 349
#     4   9  20  38  61  84 119 159 191 243 301 345
#     4  11  23  35  64  92 114 157 202 243 294 353
#
# _framework density 21.246634
#
# number of rings (size 3 to 8) (size 9 to 14) (size 15 to 20)
#    0.000    1.846    6.154    0.462    0.000    3.077 
#    5.538    0.000    3.385    2.769    0.000    0.000 
#    0.000    0.000    0.000    0.000    0.000    0.000 
#
# Total GULP energy -322090.822684 kJ/mol
# GULP energy per Si atom -12388.108565 kJ/mol
# Density = 2.119828 g / cm^3
# Si number density = 21.246634 Si / 1000 Ang^3
#
#
#
# Elastic Constant Matrix: (Units=GPa)
#
#
# Indices 1 2 3 4 5 6 
#
# 1 89.2832 19.6095 28.6835 0.0004 -1.4416 -0.0003
# 2 19.6095 63.5339 20.7774 0.0030 -9.7182 -0.0030
# 3 28.6835 20.7774 95.2610 0.0009 -18.9601 -0.0011
# 4 0.0004 0.0030 0.0009 16.6250 -0.0011 -5.2699
# 5 -1.4416 -9.7182 -18.9601 -0.0011 17.8153 0.0012
# 6 -0.0003 -0.0030 -0.0011 -5.2699 0.0012 25.1478
#
#
#
# Elastic Compliance Matrix: (Units=1/GPa)
#
#
# Indices 1 2 3 4 5 6 
#
# 1 0.013270 -0.003517 -0.004309 0.000000 -0.005431 0.000000
# 2 -0.003517 0.018543 -0.001305 -0.000002 0.008442 0.000001
# 3 -0.004309 -0.001305 0.015058 0.000000 0.014965 0.000000
# 4 0.000000 -0.000002 0.000000 0.064430 0.000002 0.013502
# 5 -0.005431 0.008442 0.014965 0.000002 0.076224 -0.000002
# 6 0.000000 0.000001 0.000000 0.013502 -0.000002 0.042594
#
#
# Mechanical properties :
#
#
# Convention : Reuss Voigt Hill
#
# Bulk Modulus (GPa) = 34.95571 42.91320 38.93445
# Shear Modulus (GPa) = 19.38594 23.85146 21.61870
#
# Velocity S-wave (km/s) = 3.02391 3.35416 3.19331
# Velocity P-wave (km/s) = 5.35538 5.93650 5.65341
#
# Compressibility (1/GPa) = 0.02860763
#
# Stress axis : x y z
#
# Youngs Moduli (GPa) = 75.36071 53.92796 66.40847
#
# Poissons Ratio (x) = 0.18967 0.28618
# Poissons Ratio (y) = 0.26505 0.08669
# Poissons Ratio (z) = 0.32476 0.07039
#
# Static dielectric constant tensor:
#      x y z
#    x 4.210310 0.000000 0.013620 
#    y 0.000000 3.679480 0.000000 
#    z 0.013620 0.000000 3.635060 
# 
# 
# High freq. dielectric constant tensor:
#      x y z
#    x 1.846400 0.000000 0.005590 
#    y 0.000000 1.807180 0.000000 
#    z 0.005590 0.000000 1.810870 
# 
# From -- ./inp_files/317396.got.cif
#   From: 2010.06.25/outbox.cif.g09.slc.cpg/sg15_159_cif.got.tgz:317396.got - 2010.06.28 07:06:18.
