data_PCOD8132717
_publ_section_title
;
Structure prediction by ZEFSAII (Michael W. Deem and Ramdas Pophale) SiO2 
 PCOD8132717
Probable space group: C 2/C
;
_chemical_formula_sum "Si O2"
_cell_formula_units_Z 40
_cell_length_a 16.366302
_cell_length_b 10.951978
_cell_length_c 28.028902
_cell_angle_alpha 90.000000
_cell_angle_beta 23.009315
_cell_angle_gamma 90.000000
_cell_volume 1963.783113
_symmetry_space_group_name_H-M "C 2/C"
_symmetry_group_IT_number 15
_symmetry_cell_setting 'monoclinic'
loop_
_space_group_symop_operation_xyz
x,y,z
-x,y,1/2-z
-x,-y,-z
x,-y,1/2+z
1/2+x,1/2+y,z
1/2-x,1/2+y,1/2-z
1/2-x,1/2-y,-z
1/2+x,1/2-y,1/2+z
loop_
_atom_site_type_symbol
_atom_site_label
_atom_site_fract_x
_atom_site_fract_y
_atom_site_fract_z
Si Si1 0.336944 0.455852 0.515933
Si Si2 0.965255 0.026649 0.844703
Si Si3 0.551460 0.792217 0.775188
Si Si4 0.200977 0.568970 0.405561
Si Si5 0.980285 0.169252 0.499092
O O1 0.436529 0.514450 0.414826
O O2 0.104677 0.404344 0.627929
O O3 0.330406 0.563701 0.558625
O O4 0.476357 0.350570 0.467302
O O5 0.007427 0.171181 0.829402
O O6 0.763625 0.995071 0.921545
O O7 0.143985 0.950046 0.722135
O O8 0.500000 0.746514 0.750000
O O9 0.794391 0.830808 0.649314
O O10 0.154690 0.710718 0.437311
O O11 0.000000 0.500000 0.500000
#
# Coordination Sequence:
#
# PCOD8132717 Si02
#       5
#     8   8   8   8   8
#     4  10  23  39  62  94 124 164 212 256 319 377
#     4  11  22  38  65  94 120 166 210 264 310 376
#     4  10  18  40  64  85 124 166 203 252 316 377
#     4  11  21  41  63  87 127 163 211 259 315 370
#     4  10  22  42  61  89 129 168 205 260 315 379
#
# _framework density 20.368848
#
# number of rings (size 3 to 8) (size 9 to 14) (size 15 to 20)
#    0.000    1.600    4.000    1.800    0.000    4.000 
#   18.000    0.000    0.000    0.000    0.000    0.000 
#    0.000    0.000    0.000    0.000    0.000    0.000 
#
# Total GULP energy -247824.539303 kJ/mol
# GULP energy per Si atom -12391.226965 kJ/mol
# Density = 2.032249 g / cm^3
# Si number density = 20.368848 Si / 1000 Ang^3
#
#
#
# Elastic Constant Matrix: (Units=GPa)
#
#
# Indices 1 2 3 4 5 6 
#
# 1 93.3879 24.0114 58.6390 -0.0088 14.1147 -0.0080
# 2 24.0114 115.0896 41.6854 -0.0072 -13.1528 -0.0001
# 3 58.6390 41.6854 78.2267 -0.0278 -5.4445 -0.0154
# 4 -0.0088 -0.0072 -0.0278 35.6642 -0.0007 -5.8531
# 5 14.1147 -13.1528 -5.4445 -0.0007 36.1485 0.0130
# 6 -0.0080 -0.0001 -0.0154 -5.8531 0.0130 19.5366
#
#
#
# Elastic Compliance Matrix: (Units=1/GPa)
#
#
# Indices 1 2 3 4 5 6 
#
# 1 0.024919 0.000560 -0.019849 -0.000009 -0.012516 0.000000
# 2 0.000560 0.011131 -0.006149 -0.000004 0.002905 -0.000008
# 3 -0.019849 -0.006149 0.031654 0.000021 0.010280 0.000016
# 4 -0.000009 -0.000004 0.000021 0.029489 0.000003 0.008835
# 5 -0.012516 0.002905 0.010280 0.000003 0.035156 -0.000019
# 6 0.000000 -0.000008 0.000016 0.008835 -0.000019 0.053833
#
#
# Mechanical properties :
#
#
# Convention : Reuss Voigt Hill
#
# Bulk Modulus (GPa) = 59.42266 59.48618 59.45442
# Shear Modulus (GPa) = 20.60426 29.09441 24.84934
#
# Velocity S-wave (km/s) = 3.18395 3.78349 3.49659
# Velocity P-wave (km/s) = 6.53860 6.95372 6.74936
#
# Compressibility (1/GPa) = 0.01682860
#
# Stress axis : x y z
#
# Youngs Moduli (GPa) = 40.13030 89.83651 31.59126
#
# Poissons Ratio (x) = -0.05031 0.62705
# Poissons Ratio (y) = -0.02247 0.19426
# Poissons Ratio (z) = 0.79653 0.55242
#
# Static dielectric constant tensor:
#      x y z
#    x 3.524290 -0.000020 -0.061250 
#    y -0.000020 3.238500 -0.000030 
#    z -0.061250 -0.000030 3.660400 
# 
# 
# High freq. dielectric constant tensor:
#      x y z
#    x 1.789330 0.000000 -0.007980 
#    y 0.000000 1.797390 0.000000 
#    z -0.007980 0.000000 1.787300 
# 
# From -- ./inp_files/111362.got.cif
#   From: 2010.06.25/outbox.cif.g09.slc.cpg/sg15_56_cif.got.tgz:111362.got - 2010.06.28 07:06:18.
