data_PCOD8132304
_publ_section_title
;
Structure prediction by ZEFSAII (Michael W. Deem and Ramdas Pophale) SiO2 
 PCOD8132304
Probable space group: C 2/C
;
_chemical_formula_sum "Si O2"
_cell_formula_units_Z 60
_cell_length_a 11.592092
_cell_length_b 13.717188
_cell_length_c 19.874160
_cell_angle_alpha 90.000000
_cell_angle_beta 68.785035
_cell_angle_gamma 90.000000
_cell_volume 2946.038708
_symmetry_space_group_name_H-M "C 2/C"
_symmetry_group_IT_number 15
_symmetry_cell_setting 'monoclinic'
loop_
_space_group_symop_operation_xyz
x,y,z
-x,y,1/2-z
-x,-y,-z
x,-y,1/2+z
1/2+x,1/2+y,z
1/2-x,1/2+y,1/2-z
1/2-x,1/2-y,-z
1/2+x,1/2-y,1/2+z
loop_
_atom_site_type_symbol
_atom_site_label
_atom_site_fract_x
_atom_site_fract_y
_atom_site_fract_z
Si Si1 0.500000 0.952827 0.750000
Si Si2 0.945978 0.347527 0.035455
Si Si3 0.694874 0.345569 0.931902
Si Si4 0.476227 0.616695 0.679407
Si Si5 0.971082 0.682150 0.378089
Si Si6 0.744033 0.464536 0.345302
Si Si7 0.289088 0.141892 0.970393
Si Si8 0.289818 0.542838 0.935723
O O1 0.469902 0.889054 0.690117
O O2 0.618656 0.020267 0.711714
O O3 0.909369 0.235413 0.058560
O O4 0.834374 0.421776 0.077184
O O5 0.062839 0.372546 0.057155
O O6 0.984890 0.364141 0.949203
O O7 0.828063 0.298382 0.889671
O O8 0.678900 0.437791 0.886913
O O9 0.687811 0.378819 0.010290
O O10 0.500000 0.649651 0.750000
O O11 0.464646 0.713259 0.636616
O O12 0.343654 0.565951 0.697723
O O13 0.588520 0.544729 0.635967
O O14 0.747824 0.382849 0.403226
O O15 0.250000 0.250000 0.000000
O O16 0.224034 0.066871 0.035047
#
# Coordination Sequence:
#
# PCOD8132304 Si02
#       8
#     4   8   8   8   8   8   8   8
#     4  10  22  44  64  82 128 168 196 244 308 374
#     4  11  19  36  66  98 120 149 207 258 309 357
#     4   9  18  36  65  91 117 157 196 255 312 352
#     4  12  23  37  62  91 118 157 210 249 293 355
#     4  10  18  36  63  95 116 153 209 250 295 356
#     4  10  25  42  60  88 124 166 202 241 318 375
#     4  11  25  39  61  92 127 167 197 250 320 367
#     4  10  21  38  61  90 124 151 204 261 293 353
#
# _framework density 20.366330999999999
#
# number of rings (size 3 to 8) (size 9 to 14) (size 15 to 20)
#    0.000    1.600    3.333    2.800    1.867    3.200 
#    0.000    0.000    1.467    0.000    0.000    0.000 
#    0.000    0.000    0.000    0.000    0.000    0.000 
#
# Total GULP energy -372014.341874 kJ/mol
# GULP energy per Si atom -12400.478062 kJ/mol
# Density = 2.031998 g / cm^3
# Si number density = 20.366331 Si / 1000 Ang^3
#
#
#
# Elastic Constant Matrix: (Units=GPa)
#
#
# Indices 1 2 3 4 5 6 
#
# 1 101.8281 29.2223 25.3639 0.0000 -2.8525 0.0000
# 2 29.2223 100.5889 29.2186 0.0000 -9.3763 0.0000
# 3 25.3639 29.2186 72.5916 0.0000 -12.2014 0.0000
# 4 0.0000 0.0000 0.0000 26.4954 0.0000 -8.4742
# 5 -2.8525 -9.3763 -12.2014 0.0000 28.3326 0.0000
# 6 0.0000 0.0000 0.0000 -8.4742 0.0000 27.2545
#
#
#
# Elastic Compliance Matrix: (Units=1/GPa)
#
#
# Indices 1 2 3 4 5 6 
#
# 1 0.011276 -0.002465 -0.003120 0.000000 -0.001024 0.000000
# 2 -0.002465 0.011894 -0.003564 0.000000 0.002153 0.000000
# 3 -0.003120 -0.003564 0.017302 0.000000 0.005957 0.000000
# 4 0.000000 0.000000 0.000000 0.041910 0.000000 0.013031
# 5 -0.001024 0.002153 0.005957 0.000000 0.038470 0.000000
# 6 0.000000 0.000000 0.000000 0.013031 0.000000 0.040743
#
#
# Mechanical properties :
#
#
# Convention : Reuss Voigt Hill
#
# Bulk Modulus (GPa) = 45.09901 49.17981 47.13941
# Shear Modulus (GPa) = 26.69741 29.16341 27.93041
#
# Velocity S-wave (km/s) = 3.62451 3.78821 3.70726
# Velocity P-wave (km/s) = 6.30143 6.58286 6.44368
#
# Compressibility (1/GPa) = 0.02217344
#
# Stress axis : x y z
#
# Youngs Moduli (GPa) = 88.68126 84.07920 57.79782
#
# Poissons Ratio (x) = 0.20726 0.18032
# Poissons Ratio (y) = 0.21861 0.20599
# Poissons Ratio (z) = 0.27668 0.29966
#
# Static dielectric constant tensor:
#      x y z
#    x 3.593190 0.000000 -0.129330 
#    y 0.000000 3.652100 0.000000 
#    z -0.129330 0.000000 3.632290 
# 
# 
# High freq. dielectric constant tensor:
#      x y z
#    x 1.786450 0.000000 -0.011630 
#    y 0.000000 1.798840 0.000000 
#    z -0.011630 0.000000 1.781680 
# 
# From -- ./inp_files/238708.got.cif
#   From: 2010.06.25/outbox.cif.g09.slc.cpg/sg15_120_cif.got.tgz:238708.got - 2010.06.28 07:06:18.
