data_PCOD8132238
_publ_section_title
;
Structure prediction by ZEFSAII (Michael W. Deem and Ramdas Pophale) SiO2 
 PCOD8132238
Probable space group: C 2/C
;
_chemical_formula_sum "Si O2"
_cell_formula_units_Z 48
_cell_length_a 7.576832
_cell_length_b 26.925137
_cell_length_c 9.947907
_cell_angle_alpha 90.000000
_cell_angle_beta 78.926414
_cell_angle_gamma 90.000000
_cell_volume 1991.659448
_symmetry_space_group_name_H-M "C 2/C"
_symmetry_group_IT_number 15
_symmetry_cell_setting 'monoclinic'
loop_
_space_group_symop_operation_xyz
x,y,z
-x,y,1/2-z
-x,-y,-z
x,-y,1/2+z
1/2+x,1/2+y,z
1/2-x,1/2+y,1/2-z
1/2-x,1/2-y,-z
1/2+x,1/2-y,1/2+z
loop_
_atom_site_type_symbol
_atom_site_label
_atom_site_fract_x
_atom_site_fract_y
_atom_site_fract_z
Si Si1 0.808991 0.381083 0.523100
Si Si2 0.887824 0.976324 0.896982
Si Si3 0.399710 0.048386 0.630559
Si Si4 0.623572 0.774048 0.905195
Si Si5 0.356549 0.767093 0.157594
Si Si6 0.300518 0.637367 0.750495
O O1 0.643695 0.416800 0.594592
O O2 0.854934 0.334259 0.611537
O O3 0.743337 0.354823 0.398131
O O4 0.979844 0.417293 0.482307
O O5 0.000000 0.989854 0.750000
O O6 0.686963 0.001217 0.932048
O O7 0.000000 0.000000 0.000000
O O8 0.500000 0.029864 0.750000
O O9 0.228127 0.080931 0.701261
O O10 0.667831 0.755619 0.745192
O O11 0.750000 0.750000 0.000000
O O12 0.425061 0.755738 0.993416
O O13 0.500000 0.749908 0.250000
O O14 0.338866 0.826778 0.152523
O O15 0.500000 0.654991 0.750000
#
# Coordination Sequence:
#
# PCOD8132238 Si02
#       6
#     8   8   8   8   8   8
#     4  11  21  38  63  91 124 174 223 272 340 409
#     4  12  26  44  65 103 141 174 227 292 354 414
#     4  10  20  40  69  94 127 174 232 273 334 418
#     4  10  19  35  64  91 123 164 228 274 333 404
#     4  10  18  36  60  88 122 163 221 274 326 411
#     4  11  19  34  61  90 121 168 218 274 335 405
#
# _framework density 24.100504999999998
#
# number of rings (size 3 to 8) (size 9 to 14) (size 15 to 20)
#    0.000    1.333    5.000    4.500    0.000    2.000 
#    0.000    0.833    0.000    1.000    0.000    0.000 
#    0.000    0.000    0.000    0.000    0.000    0.000 
#
# Total GULP energy -297314.246752 kJ/mol
# GULP energy per Si atom -12388.093615 kJ/mol
# Density = 2.404565 g / cm^3
# Si number density = 24.100505 Si / 1000 Ang^3
#
#
#
# Elastic Constant Matrix: (Units=GPa)
#
#
# Indices 1 2 3 4 5 6 
#
# 1 91.6988 27.0205 35.0844 0.0000 -24.4490 0.0000
# 2 27.0205 124.0519 43.0615 0.0000 -8.9115 0.0000
# 3 35.0844 43.0615 141.0276 0.0000 -28.5695 0.0000
# 4 0.0000 0.0000 0.0000 113.8194 0.0000 -69.7194
# 5 -24.4490 -8.9115 -28.5695 0.0000 20.8710 0.0000
# 6 0.0000 0.0000 0.0000 -69.7194 0.0000 56.9462
#
#
#
# Elastic Compliance Matrix: (Units=1/GPa)
#
#
# Indices 1 2 3 4 5 6 
#
# 1 0.016475 -0.002390 0.000462 0.000000 0.018912 0.000000
# 2 -0.002390 0.009364 -0.002798 0.000000 -0.002632 0.000000
# 3 0.000462 -0.002798 0.010651 0.000000 0.013928 0.000000
# 4 0.000000 0.000000 0.000000 0.035135 0.000000 0.043016
# 5 0.018912 -0.002632 0.013928 0.000000 0.088009 0.000000
# 6 0.000000 0.000000 0.000000 0.043016 0.000000 0.070225
#
#
# Mechanical properties :
#
#
# Convention : Reuss Voigt Hill
#
# Bulk Modulus (GPa) = 36.98342 63.01234 49.99788
# Shear Modulus (GPa) = 20.13506 55.10145 37.61825
#
# Velocity S-wave (km/s) = 2.89357 4.78673 3.95510
# Velocity P-wave (km/s) = 5.15194 7.53345 6.45350
#
# Compressibility (1/GPa) = 0.02703914
#
# Stress axis : x y z
#
# Youngs Moduli (GPa) = 60.69792 106.79318 93.88392
#
# Poissons Ratio (x) = 0.25529 -0.04342
# Poissons Ratio (y) = 0.14510 0.26265
# Poissons Ratio (z) = -0.02807 0.29876
#
# Static dielectric constant tensor:
#      x y z
#    x 4.338180 0.000000 -0.453480 
#    y 0.000000 4.417490 0.000000 
#    z -0.453480 0.000000 4.258100 
# 
# 
# High freq. dielectric constant tensor:
#      x y z
#    x 1.964090 0.000000 -0.022950 
#    y 0.000000 1.961620 0.000000 
#    z -0.022950 0.000000 1.939310 
# 
# From -- ./inp_files/79162.got.cif
#   From: 2010.06.25/outbox.cif.g09.slc.cpg/sg15_40_cif.got.tgz:79162.got - 2010.06.28 07:06:18.
