data_PCOD8132768
_publ_section_title
;
Structure prediction by ZEFSAII (Michael W. Deem and Ramdas Pophale) SiO2 
 PCOD8132768
Probable space group: C 2/C
;
_chemical_formula_sum "Si O2"
_cell_formula_units_Z 64
_cell_length_a 22.722767
_cell_length_b 22.015035
_cell_length_c 18.120498
_cell_angle_alpha 90.000000
_cell_angle_beta 158.669702
_cell_angle_gamma 90.000000
_cell_volume 3297.208366
_symmetry_space_group_name_H-M "C 2/C"
_symmetry_group_IT_number 15
_symmetry_cell_setting 'monoclinic'
loop_
_space_group_symop_operation_xyz
x,y,z
-x,y,1/2-z
-x,-y,-z
x,-y,1/2+z
1/2+x,1/2+y,z
1/2-x,1/2+y,1/2-z
1/2-x,1/2-y,-z
1/2+x,1/2-y,1/2+z
loop_
_atom_site_type_symbol
_atom_site_label
_atom_site_fract_x
_atom_site_fract_y
_atom_site_fract_z
Si Si1 0.678549 0.477501 0.463219
Si Si2 0.708673 0.051820 0.778042
Si Si3 0.131032 0.515385 0.055363
Si Si4 0.394264 0.759904 0.960902
Si Si5 0.689820 0.074724 0.987715
Si Si6 0.709934 0.703702 0.387576
Si Si7 0.518952 0.099402 0.187269
Si Si8 0.886345 0.326836 0.395661
O O1 0.500000 0.449524 0.250000
O O2 0.673114 0.529543 0.520209
O O3 0.731522 0.514415 0.453570
O O4 0.795406 0.419808 0.614027
O O5 0.524042 0.042747 0.585914
O O6 0.722219 0.122121 0.772196
O O7 0.752355 0.010005 0.758554
O O8 0.215764 0.567840 0.106432
O O9 0.085184 0.461219 0.945239
O O10 0.339375 0.792261 0.972376
O O11 0.242106 0.727432 0.742841
O O12 0.532345 0.712655 0.146818
O O13 0.466693 0.807413 0.986425
O O14 0.777186 0.136119 0.062945
O O15 0.500000 0.077661 0.750000
O O16 0.750000 0.750000 0.500000
O O17 0.500000 0.122766 0.250000
O O18 0.460603 0.151025 0.060869
#
# Coordination Sequence:
#
# PCOD8132768 Si02
#       8
#     8   8   8   8   8   8   8   8
#     4  11  23  34  54  90 128 149 194 243 302 365
#     4   9  18  32  57  81 110 155 191 232 293 355
#     4   9  16  33  56  84 108 146 201 231 286 360
#     4  10  23  42  54  86 118 154 215 250 292 342
#     4  12  20  34  57  81 119 157 197 239 292 349
#     4  11  24  36  57  83 121 168 205 244 287 351
#     4  10  18  41  64  87 111 158 195 247 312 373
#     4  10  22  39  66  81 118 157 202 255 304 350
#
# _framework density 19.410359
#
# number of rings (size 3 to 8) (size 9 to 14) (size 15 to 20)
#    0.000    1.750    3.750    2.625    5.250    0.000 
#    0.000    5.000    0.000    0.000    0.000    0.000 
#    0.000    0.000    0.000    0.000    0.000    0.000 
#
# Total GULP energy -396563.392492 kJ/mol
# GULP energy per Si atom -12392.606015 kJ/mol
# Density = 1.936618 g / cm^3
# Si number density = 19.410359 Si / 1000 Ang^3
#
#
#
# Elastic Constant Matrix: (Units=GPa)
#
#
# Indices 1 2 3 4 5 6 
#
# 1 92.1553 24.7575 34.1640 0.0001 -12.6329 0.0000
# 2 24.7575 59.4954 19.3675 0.0000 -1.7206 0.0000
# 3 34.1640 19.3675 74.5392 0.0002 9.7501 0.0000
# 4 0.0001 0.0000 0.0002 24.5201 0.0001 -7.3664
# 5 -12.6329 -1.7206 9.7501 0.0001 18.3905 0.0000
# 6 0.0000 0.0000 0.0000 -7.3664 0.0000 30.9998
#
#
#
# Elastic Compliance Matrix: (Units=1/GPa)
#
#
# Indices 1 2 3 4 5 6 
#
# 1 0.017582 -0.003829 -0.009237 0.000000 0.016617 0.000000
# 2 -0.003829 0.019558 -0.003462 0.000000 0.001035 0.000000
# 3 -0.009237 -0.003462 0.020869 0.000000 -0.017733 0.000000
# 4 0.000000 0.000000 0.000000 0.043918 0.000000 0.010436
# 5 0.016617 0.001035 -0.017733 0.000000 0.075289 0.000000
# 6 0.000000 0.000000 0.000000 0.010436 0.000000 0.034738
#
#
# Mechanical properties :
#
#
# Convention : Reuss Voigt Hill
#
# Bulk Modulus (GPa) = 40.07639 42.52976 41.30307
# Shear Modulus (GPa) = 19.73715 24.64214 22.18964
#
# Velocity S-wave (km/s) = 3.19225 3.56692 3.38477
# Velocity P-wave (km/s) = 5.85482 6.23877 6.04985
#
# Compressibility (1/GPa) = 0.02495235
#
# Stress axis : x y z
#
# Youngs Moduli (GPa) = 56.87564 51.12907 47.91838
#
# Poissons Ratio (x) = 0.19576 0.44264
# Poissons Ratio (y) = 0.21777 0.16591
# Poissons Ratio (z) = 0.52538 0.17703
#
# Static dielectric constant tensor:
#      x y z
#    x 3.974150 0.000000 -0.232720 
#    y 0.000000 3.425470 0.000000 
#    z -0.232720 0.000000 3.432740 
# 
# 
# High freq. dielectric constant tensor:
#      x y z
#    x 1.761910 0.000000 -0.008910 
#    y 0.000000 1.736430 0.000000 
#    z -0.008910 0.000000 1.735940 
# 
# From -- ./inp_files/220426.got.cif
#   From: 2010.06.25/outbox.cif.g09.slc.cpg/sg15_111_cif.got.tgz:220426.got - 2010.06.28 07:06:18.
