data_PCOD8132698
_publ_section_title
;
Structure prediction by ZEFSAII (Michael W. Deem and Ramdas Pophale) SiO2 
 PCOD8132698
Probable space group: C 2/C
;
_chemical_formula_sum "Si O2"
_cell_formula_units_Z 56
_cell_length_a 27.014792
_cell_length_b 8.434712
_cell_length_c 11.127212
_cell_angle_alpha 90.000000
_cell_angle_beta 114.225046
_cell_angle_gamma 90.000000
_cell_volume 2312.197424
_symmetry_space_group_name_H-M "C 2/C"
_symmetry_group_IT_number 15
_symmetry_cell_setting 'monoclinic'
loop_
_space_group_symop_operation_xyz
x,y,z
-x,y,1/2-z
-x,-y,-z
x,-y,1/2+z
1/2+x,1/2+y,z
1/2-x,1/2+y,1/2-z
1/2-x,1/2-y,-z
1/2+x,1/2-y,1/2+z
loop_
_atom_site_type_symbol
_atom_site_label
_atom_site_fract_x
_atom_site_fract_y
_atom_site_fract_z
Si Si1 0.882349 0.658554 0.874977
Si Si2 0.202655 0.868234 0.595876
Si Si3 0.296743 0.612618 0.680068
Si Si4 0.500000 0.509312 0.750000
Si Si5 0.115682 0.710968 0.104792
Si Si6 0.000000 0.472895 0.250000
Si Si7 0.092856 0.767615 0.838909
Si Si8 0.500850 0.231375 0.437984
O O1 0.852733 0.764842 0.945991
O O2 0.868807 0.474355 0.877082
O O3 0.865476 0.724635 0.726946
O O4 0.947292 0.685317 0.932092
O O5 0.250912 0.742998 0.651853
O O6 0.202364 0.948730 0.459923
O O7 0.210532 0.983655 0.719574
O O8 0.354575 0.699417 0.757373
O O9 0.553787 0.413413 0.766847
O O10 0.483108 0.614035 0.620151
O O11 0.052117 0.760453 0.035785
O O12 0.133207 0.788339 0.993662
O O13 0.054023 0.378956 0.337326
O O14 0.017443 0.582287 0.157906
#
# Coordination Sequence:
#
# PCOD8132698 Si02
#       8
#     8   8   8   4   8   4   8   8
#     4  12  26  43  72 104 148 197 247 304 363 441
#     4  11  29  55  81 111 147 191 243 304 370 435
#     4  11  29  55  81 111 147 191 243 304 370 435
#     4  10  26  38  62  94 148 194 246 306 358 436
#     4  12  26  43  72 104 148 197 247 304 363 441
#     4  10  18  40  60  90 144 202 250 294 342 448
#     4  11  24  40  63 104 142 196 254 295 367 429
#     4  11  23  39  63  98 146 197 242 295 373 427
#
# _framework density 24.219386
#
# number of rings (size 3 to 8) (size 9 to 14) (size 15 to 20)
#    0.000    0.857    2.857    3.000   12.000    1.714 
#    0.000    0.000    0.000    0.000    0.000    0.000 
#    0.000    0.000    0.000    0.000    0.000    0.000 
#
# Total GULP energy -346956.975906 kJ/mol
# GULP energy per Si atom -12391.320568 kJ/mol
# Density = 2.416426 g / cm^3
# Si number density = 24.219386 Si / 1000 Ang^3
#
#
#
# Elastic Constant Matrix: (Units=GPa)
#
#
# Indices 1 2 3 4 5 6 
#
# 1 91.7749 22.8999 41.3078 0.0000 -9.0473 0.0000
# 2 22.8999 95.0026 34.9156 0.0000 -15.5847 0.0000
# 3 41.3078 34.9156 140.7502 0.0000 -24.6900 0.0000
# 4 0.0000 0.0000 0.0000 149.9505 0.0000 3.2409
# 5 -9.0473 -15.5847 -24.6900 0.0000 40.6215 0.0000
# 6 0.0000 0.0000 0.0000 3.2409 0.0000 22.5686
#
#
#
# Elastic Compliance Matrix: (Units=1/GPa)
#
#
# Indices 1 2 3 4 5 6 
#
# 1 0.012855 -0.001867 -0.003283 0.000000 0.000151 0.000000
# 2 -0.001867 0.012194 -0.001936 0.000000 0.003086 0.000000
# 3 -0.003283 -0.001936 0.009279 0.000000 0.004166 0.000000
# 4 0.000000 0.000000 0.000000 0.006690 0.000000 -0.000961
# 5 0.000151 0.003086 0.004166 0.000000 0.028367 0.000000
# 6 0.000000 0.000000 0.000000 -0.000961 0.000000 0.044447
#
#
# Mechanical properties :
#
#
# Convention : Reuss Voigt Hill
#
# Bulk Modulus (GPa) = 49.61229 58.41938 54.01584
# Shear Modulus (GPa) = 37.11347 57.85508 47.48428
#
# Velocity S-wave (km/s) = 3.91882 4.89283 4.43266
# Velocity P-wave (km/s) = 6.40353 7.48953 6.96772
#
# Compressibility (1/GPa) = 0.02015629
#
# Stress axis : x y z
#
# Youngs Moduli (GPa) = 77.79272 82.00965 107.76748
#
# Poissons Ratio (x) = 0.15313 0.35379
# Poissons Ratio (y) = 0.14525 0.20859
# Poissons Ratio (z) = 0.25539 0.15873
#
# Static dielectric constant tensor:
#      x y z
#    x 2.095620 0.000000 -2.056600 
#    y 0.000000 4.435040 0.000000 
#    z -2.056600 0.000000 3.347780 
# 
# 
# High freq. dielectric constant tensor:
#      x y z
#    x 1.946990 0.000000 -0.020090 
#    y 0.000000 1.966590 0.000000 
#    z -0.020090 0.000000 1.979980 
# 
# From -- ./inp_files/122020.got.cif
#   From: 2010.06.25/outbox.cif.g09.slc.cpg/sg15_62_cif.got.tgz:122020.got - 2010.06.28 07:06:18.
