data_PCOD8132909
_publ_section_title
;
Structure prediction by ZEFSAII (Michael W. Deem and Ramdas Pophale) SiO2 
 PCOD8132909
Probable space group: C 2/C
;
_chemical_formula_sum "Si O2"
_cell_formula_units_Z 52
_cell_length_a 11.405448
_cell_length_b 27.790967
_cell_length_c 7.784375
_cell_angle_alpha 90.000000
_cell_angle_beta 78.217000
_cell_angle_gamma 90.000000
_cell_volume 2415.408090
_symmetry_space_group_name_H-M "C 2/C"
_symmetry_group_IT_number 15
_symmetry_cell_setting 'monoclinic'
loop_
_space_group_symop_operation_xyz
x,y,z
-x,y,1/2-z
-x,-y,-z
x,-y,1/2+z
1/2+x,1/2+y,z
1/2-x,1/2+y,1/2-z
1/2-x,1/2-y,-z
1/2+x,1/2-y,1/2+z
loop_
_atom_site_type_symbol
_atom_site_label
_atom_site_fract_x
_atom_site_fract_y
_atom_site_fract_z
Si Si1 0.219980 0.488031 0.531336
Si Si2 0.863448 0.148234 0.326301
Si Si3 0.236913 0.305418 0.546222
Si Si4 0.500000 0.149788 0.250000
Si Si5 0.379599 0.344431 0.198200
Si Si6 0.120115 0.955307 0.297220
Si Si7 0.342979 0.074952 0.142400
O O1 0.259523 0.457346 0.355313
O O2 0.347434 0.509151 0.557641
O O3 0.134844 0.534006 0.508371
O O4 0.151722 0.451777 0.675672
O O5 0.819187 0.182815 0.186037
O O6 0.852901 0.176682 0.514339
O O7 0.786458 0.099191 0.348306
O O8 0.000000 0.133509 0.250000
O O9 0.250000 0.250000 0.500000
O O10 0.099227 0.317054 0.630886
O O11 0.272870 0.335471 0.365019
O O12 0.443293 0.116393 0.116173
O O13 0.500000 0.322758 0.250000
O O14 0.399799 0.400200 0.145687
O O15 0.000000 0.976050 0.250000
#
# Coordination Sequence:
#
# PCOD8132909 Si02
#       7
#     8   8   8   4   8   8   8
#     4  10  20  33  55  84 131 175 232 270 310 386
#     4  11  22  41  69 100 137 179 225 281 349 401
#     4  11  26  46  73 101 134 168 221 287 347 422
#     4  10  24  46  70  94 138 176 220 282 344 402
#     4  11  22  40  68  98 134 177 220 274 349 407
#     4  10  19  30  51  88 125 173 218 272 324 380
#     4  10  22  39  59  92 133 181 226 277 326 386
#
# _framework density 21.528452000000001
#
# number of rings (size 3 to 8) (size 9 to 14) (size 15 to 20)
#    0.000    1.538    3.077    2.308    3.231    3.692 
#    0.000    4.615    0.000    0.000    0.000    0.000 
#    0.000    0.000    0.000    0.000    0.000    0.000 
#
# Total GULP energy -322230.831414 kJ/mol
# GULP energy per Si atom -12393.493516 kJ/mol
# Density = 2.147945 g / cm^3
# Si number density = 21.528452 Si / 1000 Ang^3
#
#
#
# Elastic Constant Matrix: (Units=GPa)
#
#
# Indices 1 2 3 4 5 6 
#
# 1 106.7156 40.6796 44.7808 0.0000 -8.8716 0.0000
# 2 40.6796 83.1437 29.1096 0.0000 0.8737 0.0000
# 3 44.7808 29.1096 133.2201 0.0000 10.3237 0.0000
# 4 0.0000 0.0000 0.0000 29.4204 0.0000 2.3692
# 5 -8.8716 0.8737 10.3237 0.0000 36.7388 0.0000
# 6 0.0000 0.0000 0.0000 2.3692 0.0000 14.4565
#
#
#
# Elastic Compliance Matrix: (Units=1/GPa)
#
#
# Indices 1 2 3 4 5 6 
#
# 1 0.013269 -0.005261 -0.003648 0.000000 0.004354 0.000000
# 2 -0.005261 0.015118 -0.001440 0.000000 -0.001225 0.000000
# 3 -0.003648 -0.001440 0.009316 0.000000 -0.003464 0.000000
# 4 0.000000 0.000000 0.000000 0.034445 0.000000 -0.005645
# 5 0.004354 -0.001225 -0.003464 0.000000 0.029273 0.000000
# 6 0.000000 0.000000 0.000000 -0.005645 0.000000 0.070098
#
#
# Mechanical properties :
#
#
# Convention : Reuss Voigt Hill
#
# Bulk Modulus (GPa) = 58.80584 61.35772 60.08178
# Shear Modulus (GPa) = 25.26714 30.02375 27.64544
#
# Velocity S-wave (km/s) = 3.42959 3.73850 3.58737
# Velocity P-wave (km/s) = 6.56182 6.87006 6.71771
#
# Compressibility (1/GPa) = 0.01700511
#
# Stress axis : x y z
#
# Youngs Moduli (GPa) = 75.36432 66.14494 107.34378
#
# Poissons Ratio (x) = 0.34796 0.39161
# Poissons Ratio (y) = 0.39646 0.15460
# Poissons Ratio (z) = 0.27494 0.09527
#
# Static dielectric constant tensor:
#      x y z
#    x 3.920870 0.000000 0.283720 
#    y 0.000000 3.618280 0.000000 
#    z 0.283720 0.000000 4.004580 
# 
# 
# High freq. dielectric constant tensor:
#      x y z
#    x 1.842810 0.000000 0.014150 
#    y 0.000000 1.825560 0.000000 
#    z 0.014150 0.000000 1.846750 
# 
# From -- ./inp_files/33477.got.cif
#   From: 2010.06.25/outbox.cif.g09.slc.cpg/sg15_17_cif.got.tgz:33477.got - 2010.06.28 07:06:18.
