data_PCOD8132248
_publ_section_title
;
Structure prediction by ZEFSAII (Michael W. Deem and Ramdas Pophale) SiO2 
 PCOD8132248
Probable space group: C 2/C
;
_chemical_formula_sum "Si O2"
_cell_formula_units_Z 44
_cell_length_a 11.108452
_cell_length_b 15.029925
_cell_length_c 16.750592
_cell_angle_alpha 90.000000
_cell_angle_beta 121.640331
_cell_angle_gamma 90.000000
_cell_volume 2380.963180
_symmetry_space_group_name_H-M "C 2/C"
_symmetry_group_IT_number 15
_symmetry_cell_setting 'monoclinic'
loop_
_space_group_symop_operation_xyz
x,y,z
-x,y,1/2-z
-x,-y,-z
x,-y,1/2+z
1/2+x,1/2+y,z
1/2-x,1/2+y,1/2-z
1/2-x,1/2-y,-z
1/2+x,1/2-y,1/2+z
loop_
_atom_site_type_symbol
_atom_site_label
_atom_site_fract_x
_atom_site_fract_y
_atom_site_fract_z
Si Si1 0.407652 0.248303 0.522572
Si Si2 0.593524 0.651116 0.203037
Si Si3 0.144946 0.958466 0.254702
Si Si4 0.500000 0.087049 0.750000
Si Si5 0.446880 0.058928 0.907963
Si Si6 0.726107 0.303503 0.176988
O O1 0.250000 0.250000 0.500000
O O2 0.494463 0.327942 0.593303
O O3 0.490598 0.156903 0.563452
O O4 0.391468 0.266800 0.423868
O O5 0.500000 0.657278 0.250000
O O6 0.659943 0.553195 0.214599
O O7 0.722270 0.721363 0.250727
O O8 0.277856 0.943416 0.359991
O O9 0.137619 0.876861 0.192504
O O10 0.000000 0.959012 0.250000
O O11 0.479525 0.029398 0.825668
O O12 0.635006 0.150487 0.813472
O O13 0.500000 0.000000 0.000000
#
# Coordination Sequence:
#
# PCOD8132248 Si02
#       6
#     8   8   8   4   8   8
#     4  12  20  34  68  93 116 154 209 272 309 359
#     4  11  19  36  62  89 116 160 207 252 308 359
#     4  10  24  39  60  86 133 168 198 255 320 386
#     4  10  18  36  60  92 126 154 200 276 306 346
#     4  11  22  38  63  98 125 161 214 262 318 369
#     4  11  19  38  61  92 121 155 214 266 308 358
#
# _framework density 18.479915999999999
#
# number of rings (size 3 to 8) (size 9 to 14) (size 15 to 20)
#    0.000    1.091    8.182    1.091    2.545    0.727 
#    0.000    2.727   18.000    0.000    0.000    0.000 
#    0.000    0.000    0.000    0.000    0.000    0.000 
#
# Total GULP energy -272587.031438 kJ/mol
# GULP energy per Si atom -12390.319611 kJ/mol
# Density = 1.843785 g / cm^3
# Si number density = 18.479916 Si / 1000 Ang^3
#
#
#
# Elastic Constant Matrix: (Units=GPa)
#
#
# Indices 1 2 3 4 5 6 
#
# 1 73.1072 46.0623 43.0725 0.0000 11.0675 0.0000
# 2 46.0623 130.0904 50.7420 0.0000 7.8432 0.0000
# 3 43.0725 50.7420 155.8146 0.0000 9.6077 0.0000
# 4 0.0000 0.0000 0.0000 43.6506 0.0000 1.4240
# 5 11.0675 7.8432 9.6077 0.0000 30.1755 0.0000
# 6 0.0000 0.0000 0.0000 1.4240 0.0000 26.2592
#
#
#
# Elastic Compliance Matrix: (Units=1/GPa)
#
#
# Indices 1 2 3 4 5 6 
#
# 1 0.019819 -0.005392 -0.003428 0.000000 -0.004776 0.000000
# 2 -0.005392 0.010331 -0.001867 0.000000 -0.000113 0.000000
# 3 -0.003428 -0.001867 0.008024 0.000000 -0.000812 0.000000
# 4 0.000000 0.000000 0.000000 0.022950 0.000000 -0.001245
# 5 -0.004776 -0.000113 -0.000812 0.000000 0.035179 0.000000
# 6 0.000000 0.000000 0.000000 -0.001245 0.000000 0.038149
#
#
# Mechanical properties :
#
#
# Convention : Reuss Voigt Hill
#
# Bulk Modulus (GPa) = 59.52695 70.97397 65.25046
# Shear Modulus (GPa) = 30.97392 34.62607 32.79999
#
# Velocity S-wave (km/s) = 4.09844 4.33334 4.21753
# Velocity P-wave (km/s) = 7.39445 7.97035 7.68780
#
# Compressibility (1/GPa) = 0.01679911
#
# Stress axis : x y z
#
# Youngs Moduli (GPa) = 50.45713 96.79351 124.63327
#
# Poissons Ratio (x) = 0.52195 0.42725
# Poissons Ratio (y) = 0.27208 0.23267
# Poissons Ratio (z) = 0.17297 0.18070
#
# Static dielectric constant tensor:
#      x y z
#    x 3.073660 0.000000 0.401080 
#    y 0.000000 3.687970 0.000000 
#    z 0.401080 0.000000 3.164160 
# 
# 
# High freq. dielectric constant tensor:
#      x y z
#    x 1.688560 0.000000 0.014390 
#    y 0.000000 1.715340 0.000000 
#    z 0.014390 0.000000 1.734480 
# 
# From -- ./inp_files/142220.got.cif
#   From: 2010.06.25/outbox.cif.g09.slc.cpg/sg15_72_cif.got.tgz:142220.got - 2010.06.28 07:06:18.
