data_PCOD8132941
_publ_section_title
;
Structure prediction by ZEFSAII (Michael W. Deem and Ramdas Pophale) SiO2 
 PCOD8132941
Probable space group: C 2/C
;
_chemical_formula_sum "Si O2"
_cell_formula_units_Z 60
_cell_length_a 27.456851
_cell_length_b 17.126728
_cell_length_c 8.754448
_cell_angle_alpha 90.000000
_cell_angle_beta 65.299272
_cell_angle_gamma 90.000000
_cell_volume 3740.074021
_symmetry_space_group_name_H-M "C 2/C"
_symmetry_group_IT_number 15
_symmetry_cell_setting 'monoclinic'
loop_
_space_group_symop_operation_xyz
x,y,z
-x,y,1/2-z
-x,-y,-z
x,-y,1/2+z
1/2+x,1/2+y,z
1/2-x,1/2+y,1/2-z
1/2-x,1/2-y,-z
1/2+x,1/2-y,1/2+z
loop_
_atom_site_type_symbol
_atom_site_label
_atom_site_fract_x
_atom_site_fract_y
_atom_site_fract_z
Si Si1 0.189381 0.740586 0.273400
Si Si2 0.924430 0.040098 0.100713
Si Si3 0.164138 0.142481 0.405762
Si Si4 0.307266 0.195743 0.555924
Si Si5 0.660258 0.596476 0.759663
Si Si6 0.727888 0.946306 0.237847
Si Si7 0.000000 0.010445 0.250000
Si Si8 0.226278 0.398908 0.889432
O O1 0.245742 0.781700 0.165375
O O2 0.149516 0.815590 0.343823
O O3 0.190111 0.680403 0.415960
O O4 0.177405 0.686634 0.142008
O O5 0.891711 0.957788 0.145166
O O6 0.953346 0.058779 0.224520
O O7 0.886778 0.112270 0.117648
O O8 0.970641 0.042716 0.913133
O O9 0.155600 0.235643 0.425559
O O10 0.171518 0.103632 0.563281
O O11 0.214268 0.123827 0.235164
O O12 0.314589 0.112952 0.628664
O O13 0.711633 0.557405 0.773635
O O14 0.705539 0.032538 0.304261
O O15 0.727062 0.929256 0.060075
#
# Coordination Sequence:
#
# PCOD8132941 Si02
#       8
#     8   8   8   8   8   8   4   8
#     4   8  16  30  43  61  88 115 149 189 221 256
#     4  11  20  36  48  68  88 122 152 194 234 277
#     4  10  19  31  48  64  85 120 156 186 225 276
#     4   8  16  30  43  61  88 115 149 189 221 256
#     4  10  19  31  48  64  85 120 156 186 225 276
#     4  11  20  28  42  65  91 121 155 188 220 258
#     4  10  24  34  48  66  92 110 154 202 244 262
#     4  11  20  28  42  65  91 121 155 188 220 258
#
# _framework density 16.042463000000001
#
# number of rings (size 3 to 8) (size 9 to 14) (size 15 to 20)
#    0.000    2.133    2.667    4.000    1.867    4.800 
#    0.000    0.000    0.000    0.000    0.000    0.000 
#    0.000    0.000    0.000    7.200    0.000    0.533 
#
# Total GULP energy -371658.826701 kJ/mol
# GULP energy per Si atom -12388.627557 kJ/mol
# Density = 1.600595 g / cm^3
# Si number density = 16.042463 Si / 1000 Ang^3
#
#
#
# Elastic Constant Matrix: (Units=GPa)
#
#
# Indices 1 2 3 4 5 6 
#
# 1 63.7284 39.3518 24.1924 0.0000 17.7883 0.0000
# 2 39.3518 80.6883 11.9985 0.0000 9.2108 0.0000
# 3 24.1924 11.9985 47.9985 0.0000 15.7530 0.0000
# 4 0.0000 0.0000 0.0000 22.4235 0.0000 9.3893
# 5 17.7883 9.2108 15.7530 0.0000 24.8658 0.0000
# 6 0.0000 0.0000 0.0000 9.3893 0.0000 10.4385
#
#
#
# Elastic Compliance Matrix: (Units=1/GPa)
#
#
# Indices 1 2 3 4 5 6 
#
# 1 0.029171 -0.011728 -0.008014 0.000000 -0.011446 0.000000
# 2 -0.011728 0.017826 0.001097 0.000000 0.001092 0.000000
# 3 -0.008014 0.001097 0.028849 0.000000 -0.012950 0.000000
# 4 0.000000 0.000000 0.000000 0.071541 0.000000 -0.064350
# 5 -0.011446 0.001092 -0.012950 0.000000 0.056204 0.000000
# 6 0.000000 0.000000 0.000000 -0.064350 0.000000 0.153682
#
#
# Mechanical properties :
#
#
# Convention : Reuss Voigt Hill
#
# Bulk Modulus (GPa) = 25.93750 38.16674 32.05212
# Shear Modulus (GPa) = 12.27247 19.33705 15.80476
#
# Velocity S-wave (km/s) = 2.76886 3.47561 3.14217
# Velocity P-wave (km/s) = 5.14055 6.32054 5.76083
#
# Compressibility (1/GPa) = 0.03855422
#
# Stress axis : x y z
#
# Youngs Moduli (GPa) = 34.28036 56.09923 34.66288
#
# Poissons Ratio (x) = 0.65796 0.27780
# Poissons Ratio (y) = 0.40206 -0.03802
# Poissons Ratio (z) = 0.27474 -0.06154
#
# Static dielectric constant tensor:
#      x y z
#    x 2.849080 0.000000 0.252840 
#    y 0.000000 3.396920 0.000000 
#    z 0.252840 0.000000 3.110420 
# 
# 
# High freq. dielectric constant tensor:
#      x y z
#    x 1.560580 0.000000 0.030320 
#    y 0.000000 1.618050 0.000000 
#    z 0.030320 0.000000 1.619450 
# 
# From -- ./inp_files/66701.got.cif
#   From: 2010.06.25/outbox.cif.g09.slc.cpg/sg15_34_cif.got.tgz:66701.got - 2010.06.28 07:06:18.
