data_PCOD8132622
_publ_section_title
;
Structure prediction by ZEFSAII (Michael W. Deem and Ramdas Pophale) SiO2 
 PCOD8132622
Probable space group: C 2/C
;
_chemical_formula_sum "Si O2"
_cell_formula_units_Z 52
_cell_length_a 9.713157
_cell_length_b 28.859845
_cell_length_c 15.643166
_cell_angle_alpha 90.000000
_cell_angle_beta 39.420875
_cell_angle_gamma 90.000000
_cell_volume 2784.588299
_symmetry_space_group_name_H-M "C 2/C"
_symmetry_group_IT_number 15
_symmetry_cell_setting 'monoclinic'
loop_
_space_group_symop_operation_xyz
x,y,z
-x,y,1/2-z
-x,-y,-z
x,-y,1/2+z
1/2+x,1/2+y,z
1/2-x,1/2+y,1/2-z
1/2-x,1/2-y,-z
1/2+x,1/2-y,1/2+z
loop_
_atom_site_type_symbol
_atom_site_label
_atom_site_fract_x
_atom_site_fract_y
_atom_site_fract_z
Si Si1 0.470217 0.415323 0.162835
Si Si2 0.492160 0.245612 0.847112
Si Si3 0.543086 0.954395 0.323890
Si Si4 0.500000 0.667829 0.250000
Si Si5 0.568391 0.939775 0.623252
Si Si6 0.210539 0.174467 0.699441
Si Si7 0.921808 0.611121 0.034224
O O1 0.500000 0.420025 0.250000
O O2 0.374601 0.363373 0.189777
O O3 0.302154 0.454717 0.213536
O O4 0.686885 0.423499 0.006947
O O5 0.500000 0.220436 0.750000
O O6 0.572439 0.298805 0.794673
O O7 0.660155 0.218229 0.825759
O O8 0.250000 0.250000 0.000000
O O9 0.500000 0.934305 0.250000
O O10 0.433736 0.922552 0.447572
O O11 0.445358 0.005284 0.380104
O O12 0.699547 0.637222 0.125787
O O13 0.500000 0.923110 0.750000
O O14 0.412963 0.916921 0.627049
O O15 0.375453 0.146550 0.558318
O O16 0.000000 0.193762 0.750000
#
# Coordination Sequence:
#
# PCOD8132622 Si02
#       7
#     8   8   8   4   8   8   8
#     4  10  20  38  63  87 122 173 217 252 308 387
#     4  10  21  42  63  90 124 160 201 268 312 380
#     4  10  23  38  64  94 124 168 225 253 311 379
#     4  10  24  40  60  94 132 154 212 262 334 372
#     4  11  23  40  60  95 134 163 217 270 311 365
#     4  10  18  38  68  87 117 166 220 245 309 389
#     4  11  21  41  61  92 129 174 209 259 323 377
#
# _framework density 18.674216000000001
#
# number of rings (size 3 to 8) (size 9 to 14) (size 15 to 20)
#    0.462    1.231    6.154    0.462    0.000    7.385 
#    2.769    3.846    0.000    0.000    0.000    0.000 
#    0.000    0.000    0.000    0.000    0.000    0.000 
#
# Total GULP energy -322190.520532 kJ/mol
# GULP energy per Si atom -12391.943097 kJ/mol
# Density = 1.863171 g / cm^3
# Si number density = 18.674216 Si / 1000 Ang^3
#
#
#
# Elastic Constant Matrix: (Units=GPa)
#
#
# Indices 1 2 3 4 5 6 
#
# 1 118.5932 62.8722 63.1701 0.0000 4.0533 0.0000
# 2 62.8722 96.9506 60.4755 0.0000 -1.6701 0.0000
# 3 63.1701 60.4755 144.4914 0.0000 -1.6192 0.0000
# 4 0.0000 0.0000 0.0000 19.4987 0.0000 -13.4486
# 5 4.0533 -1.6701 -1.6192 0.0000 41.8447 0.0000
# 6 0.0000 0.0000 0.0000 -13.4486 0.0000 32.7087
#
#
#
# Elastic Compliance Matrix: (Units=1/GPa)
#
#
# Indices 1 2 3 4 5 6 
#
# 1 0.013931 -0.007109 -0.003135 0.000000 -0.001754 0.000000
# 2 -0.007109 0.017591 -0.004241 0.000000 0.001227 0.000000
# 3 -0.003135 -0.004241 0.010072 0.000000 0.000524 0.000000
# 4 0.000000 0.000000 0.000000 0.071587 0.000000 0.029434
# 5 -0.001754 0.001227 0.000524 0.000000 0.024137 0.000000
# 6 0.000000 0.000000 0.000000 0.029434 0.000000 0.042675
#
#
# Mechanical properties :
#
#
# Convention : Reuss Voigt Hill
#
# Bulk Modulus (GPa) = 79.20786 81.45231 80.33009
# Shear Modulus (GPa) = 23.45547 30.37825 26.91686
#
# Velocity S-wave (km/s) = 3.54790 4.03767 3.80069
# Velocity P-wave (km/s) = 7.70008 8.09007 7.89748
#
# Compressibility (1/GPa) = 0.01262501
#
# Stress axis : x y z
#
# Youngs Moduli (GPa) = 71.78422 56.84680 99.28387
#
# Poissons Ratio (x) = 0.40412 0.31122
# Poissons Ratio (y) = 0.51031 0.42106
# Poissons Ratio (z) = 0.22502 0.24108
#
# Static dielectric constant tensor:
#      x y z
#    x 3.500560 0.000000 -0.176620 
#    y 0.000000 3.448710 0.000000 
#    z -0.176620 0.000000 3.820970 
# 
# 
# High freq. dielectric constant tensor:
#      x y z
#    x 1.716600 0.000000 -0.008870 
#    y 0.000000 1.719300 0.000000 
#    z -0.008870 0.000000 1.732610 
# 
# From -- ./inp_files/139720.got.cif
#   From: 2010.06.25/outbox.cif.g09.slc.cpg/sg15_70_cif.got.tgz:139720.got - 2010.06.28 07:06:18.
