data_PCOD8132264
_publ_section_title
;
Structure prediction by ZEFSAII (Michael W. Deem and Ramdas Pophale) SiO2 
 PCOD8132264
Probable space group: C 2/C
;
_chemical_formula_sum "Si O2"
_cell_formula_units_Z 44
_cell_length_a 11.949324
_cell_length_b 19.610635
_cell_length_c 8.290121
_cell_angle_alpha 90.000000
_cell_angle_beta 111.179272
_cell_angle_gamma 90.000000
_cell_volume 1811.438287
_symmetry_space_group_name_H-M "C 2/C"
_symmetry_group_IT_number 15
_symmetry_cell_setting 'monoclinic'
loop_
_space_group_symop_operation_xyz
x,y,z
-x,y,1/2-z
-x,-y,-z
x,-y,1/2+z
1/2+x,1/2+y,z
1/2-x,1/2+y,1/2-z
1/2-x,1/2-y,-z
1/2+x,1/2-y,1/2+z
loop_
_atom_site_type_symbol
_atom_site_label
_atom_site_fract_x
_atom_site_fract_y
_atom_site_fract_z
Si Si1 0.136770 0.980561 0.289225
Si Si2 0.342374 0.605638 0.012277
Si Si3 0.272438 0.129795 0.014431
Si Si4 0.945437 0.206113 0.451206
Si Si5 0.871664 0.324128 0.226840
Si Si6 0.000000 0.310095 0.750000
O O1 0.170692 0.953105 0.130783
O O2 0.221353 0.946612 0.471989
O O3 0.000000 0.959562 0.250000
O O4 0.153052 0.063196 0.315746
O O5 0.228051 0.656570 0.959267
O O6 0.464741 0.646304 0.049209
O O7 0.320010 0.149081 0.864996
O O8 0.164454 0.179971 0.000715
O O9 0.383657 0.140133 0.194006
O O10 0.894013 0.242123 0.260272
O O11 0.010444 0.263704 0.594473
O O12 0.000000 0.358735 0.250000
#
# Coordination Sequence:
#
# PCOD8132264 Si02
#       6
#     8   8   8   8   8   4
#     4  11  22  43  65 100 131 171 228 275 325 390
#     4  11  24  43  69  99 132 174 225 277 332 393
#     4  10  21  39  66  93 130 175 222 268 322 402
#     4  11  20  39  70  95 132 168 220 284 327 393
#     4  10  23  42  60  97 137 172 215 269 341 392
#     4  10  18  36  62 100 124 170 216 260 332 394
#
# _framework density 24.290088999999998
#
# number of rings (size 3 to 8) (size 9 to 14) (size 15 to 20)
#    0.000    1.455    1.818    6.000    0.000    1.455 
#    8.182    1.818    0.000    0.000    0.000    0.000 
#    0.000    0.000    0.000    0.000    0.000    0.000 
#
# Total GULP energy -272627.054611 kJ/mol
# GULP energy per Si atom -12392.138846 kJ/mol
# Density = 2.423480 g / cm^3
# Si number density = 24.290089 Si / 1000 Ang^3
#
#
#
# Elastic Constant Matrix: (Units=GPa)
#
#
# Indices 1 2 3 4 5 6 
#
# 1 162.4144 60.2948 29.7089 0.0000 30.7473 0.0000
# 2 60.2948 117.4090 48.4158 0.0000 18.4855 0.0000
# 3 29.7089 48.4158 68.3592 0.0000 24.8250 0.0000
# 4 0.0000 0.0000 0.0000 6.9484 0.0000 6.4773
# 5 30.7473 18.4855 24.8250 0.0000 34.3019 0.0000
# 6 0.0000 0.0000 0.0000 6.4773 0.0000 20.5959
#
#
#
# Elastic Compliance Matrix: (Units=1/GPa)
#
#
# Indices 1 2 3 4 5 6 
#
# 1 0.008630 -0.004003 0.001506 0.000000 -0.006669 0.000000
# 2 -0.004003 0.013893 -0.009067 0.000000 0.002664 0.000000
# 3 0.001506 -0.009067 0.025925 0.000000 -0.015227 0.000000
# 4 0.000000 0.000000 0.000000 0.203612 0.000000 -0.064035
# 5 -0.006669 0.002664 -0.015227 0.000000 0.044715 0.000000
# 6 0.000000 0.000000 0.000000 -0.064035 0.000000 0.068692
#
#
# Mechanical properties :
#
#
# Convention : Reuss Voigt Hill
#
# Bulk Modulus (GPa) = 39.49364 69.44685 54.47025
# Shear Modulus (GPa) = 12.59333 26.35345 19.47339
#
# Velocity S-wave (km/s) = 2.27943 3.29743 2.83450
# Velocity P-wave (km/s) = 4.81894 6.56887 5.76074
#
# Compressibility (1/GPa) = 0.02532053
#
# Stress axis : x y z
#
# Youngs Moduli (GPa) = 115.87249 71.98044 38.57223
#
# Poissons Ratio (x) = 0.28815 -0.05811
# Poissons Ratio (y) = 0.46386 0.34974
# Poissons Ratio (z) = -0.17455 0.65265
#
# Static dielectric constant tensor:
#      x y z
#    x 4.855330 0.000000 0.665660 
#    y 0.000000 4.776750 0.000000 
#    z 0.665660 0.000000 5.088810 
# 
# 
# High freq. dielectric constant tensor:
#      x y z
#    x 1.972310 0.000000 0.002560 
#    y 0.000000 1.957170 0.000000 
#    z 0.002560 0.000000 1.965580 
# 
# From -- ./inp_files/31007.got.cif
#   From: 2010.06.25/outbox.cif.g09.slc.cpg/sg15_16_cif.got.tgz:31007.got - 2010.06.28 07:06:18.
