data_PCOD8132961
_publ_section_title
;
Structure prediction by ZEFSAII (Michael W. Deem and Ramdas Pophale) SiO2 
 PCOD8132961
Probable space group: C 2/C
;
_chemical_formula_sum "Si O2"
_cell_formula_units_Z 64
_cell_length_a 11.753108
_cell_length_b 30.403659
_cell_length_c 10.024094
_cell_angle_alpha 90.000000
_cell_angle_beta 94.997157
_cell_angle_gamma 90.000000
_cell_volume 3568.369521
_symmetry_space_group_name_H-M "C 2/C"
_symmetry_group_IT_number 15
_symmetry_cell_setting 'monoclinic'
loop_
_space_group_symop_operation_xyz
x,y,z
-x,y,1/2-z
-x,-y,-z
x,-y,1/2+z
1/2+x,1/2+y,z
1/2-x,1/2+y,1/2-z
1/2-x,1/2-y,-z
1/2+x,1/2-y,1/2+z
loop_
_atom_site_type_symbol
_atom_site_label
_atom_site_fract_x
_atom_site_fract_y
_atom_site_fract_z
Si Si1 0.255322 0.872844 0.385782
Si Si2 0.637063 0.465009 0.104513
Si Si3 0.253006 0.878290 0.070312
Si Si4 0.867907 0.958563 0.092038
Si Si5 0.707624 0.278397 0.334933
Si Si6 0.438126 0.239406 0.961652
Si Si7 0.658723 0.713466 0.529810
Si Si8 0.498219 0.854057 0.092723
O O1 0.241548 0.873373 0.226378
O O2 0.180846 0.910405 0.449619
O O3 0.212235 0.824135 0.421388
O O4 0.388043 0.880366 0.440016
O O5 0.692026 0.424096 0.029630
O O6 0.502988 0.456713 0.094337
O O7 0.676199 0.471198 0.262974
O O8 0.676558 0.507133 0.022942
O O9 0.195632 0.836047 0.991558
O O10 0.385695 0.881083 0.038855
O O11 0.630407 0.244334 0.407237
O O12 0.840379 0.261075 0.334811
O O13 0.647915 0.284671 0.187927
O O14 0.534241 0.277104 0.952153
O O15 0.505746 0.193521 0.977056
O O16 0.750000 0.750000 0.500000
O O17 0.500000 0.845332 0.250000
#
# Coordination Sequence:
#
# PCOD8132961 Si02
#       8
#     8   8   8   8   8   8   8   8
#     4   8  16  29  51  70  92 122 166 207 238 283
#     4   9  18  31  54  72 102 122 160 201 251 300
#     4   9  17  30  46  75  94 123 164 208 240 283
#     4   9  17  32  52  77  94 128 155 200 253 302
#     4   9  20  33  47  72 100 131 174 211 242 294
#     4  10  19  31  49  68 100 134 163 213 250 284
#     4  11  20  30  51  73  99 135 172 207 248 292
#     4   9  16  30  50  70  96 126 167 207 240 287
#
# _framework density 17.935362999999999
#
# number of rings (size 3 to 8) (size 9 to 14) (size 15 to 20)
#    0.000    2.750    1.250    1.125    1.750    0.000 
#    0.000    0.625    8.250    1.500    0.000    0.000 
#    0.000    0.000    0.000    0.000    0.000    0.000 
#
# Total GULP energy -396512.842800 kJ/mol
# GULP energy per Si atom -12391.026337 kJ/mol
# Density = 1.789454 g / cm^3
# Si number density = 17.935363 Si / 1000 Ang^3
#
#
#
# Elastic Constant Matrix: (Units=GPa)
#
#
# Indices 1 2 3 4 5 6 
#
# 1 69.3277 41.0933 13.1990 0.0000 0.7406 0.0000
# 2 41.0933 109.6825 31.8647 0.0000 -2.8715 0.0000
# 3 13.1990 31.8647 32.9763 0.0000 -2.1306 0.0000
# 4 0.0000 0.0000 0.0000 27.5566 0.0000 -5.6100
# 5 0.7406 -2.8715 -2.1306 0.0000 18.6652 0.0000
# 6 0.0000 0.0000 0.0000 -5.6100 0.0000 34.5777
#
#
#
# Elastic Compliance Matrix: (Units=1/GPa)
#
#
# Indices 1 2 3 4 5 6 
#
# 1 0.018631 -0.006712 -0.001094 0.000000 -0.001897 0.000000
# 2 -0.006712 0.015099 -0.011824 0.000000 0.001240 0.000000
# 3 -0.001094 -0.011824 0.042386 0.000000 0.003063 0.000000
# 4 0.000000 0.000000 0.000000 0.037528 0.000000 0.006089
# 5 -0.001897 0.001240 0.003063 0.000000 0.054191 0.000000
# 6 0.000000 0.000000 0.000000 0.006089 0.000000 0.029908
#
#
# Mechanical properties :
#
#
# Convention : Reuss Voigt Hill
#
# Bulk Modulus (GPa) = 27.13204 42.70005 34.91604
# Shear Modulus (GPa) = 20.05694 24.54853 22.30274
#
# Velocity S-wave (km/s) = 3.34771 3.70364 3.53016
# Velocity P-wave (km/s) = 5.48666 6.49220 6.01050
#
# Compressibility (1/GPa) = 0.03685679
#
# Stress axis : x y z
#
# Youngs Moduli (GPa) = 53.67291 66.22739 23.59276
#
# Poissons Ratio (x) = 0.44453 0.02581
# Poissons Ratio (y) = 0.36026 0.27896
# Poissons Ratio (z) = 0.05871 0.78306
#
# Static dielectric constant tensor:
#      x y z
#    x 3.549590 0.000000 0.071750 
#    y 0.000000 3.517570 0.000000 
#    z 0.071750 0.000000 3.086150 
# 
# 
# High freq. dielectric constant tensor:
#      x y z
#    x 1.703020 0.000000 -0.002170 
#    y 0.000000 1.682740 0.000000 
#    z -0.002170 0.000000 1.651050 
# 
# From -- ./inp_files/91808.got.cif
#   From: 2010.06.25/outbox.cif.g09.slc.cpg/sg15_46_cif.got.tgz:91808.got - 2010.06.28 07:06:18.
