data_PCOD8132655
_publ_section_title
;
Structure prediction by ZEFSAII (Michael W. Deem and Ramdas Pophale) SiO2 
 PCOD8132655
Probable space group: C 2/C
;
_chemical_formula_sum "Si O2"
_cell_formula_units_Z 52
_cell_length_a 16.823713
_cell_length_b 10.370419
_cell_length_c 26.412772
_cell_angle_alpha 90.000000
_cell_angle_beta 34.729184
_cell_angle_gamma 90.000000
_cell_volume 2625.288253
_symmetry_space_group_name_H-M "C 2/C"
_symmetry_group_IT_number 15
_symmetry_cell_setting 'monoclinic'
loop_
_space_group_symop_operation_xyz
x,y,z
-x,y,1/2-z
-x,-y,-z
x,-y,1/2+z
1/2+x,1/2+y,z
1/2-x,1/2+y,1/2-z
1/2-x,1/2-y,-z
1/2+x,1/2-y,1/2+z
loop_
_atom_site_type_symbol
_atom_site_label
_atom_site_fract_x
_atom_site_fract_y
_atom_site_fract_z
Si Si1 0.500000 0.846359 0.250000
Si Si2 0.293347 0.914282 0.024789
Si Si3 0.047316 0.647233 0.968184
Si Si4 0.536120 0.956007 0.820090
Si Si5 0.251714 0.843290 0.615176
Si Si6 0.500810 0.674443 0.690363
Si Si7 0.746815 0.026283 0.794013
O O1 0.366623 0.760191 0.333190
O O2 0.469393 0.931057 0.217333
O O3 0.376695 0.816416 0.019004
O O4 0.152572 0.837176 0.083940
O O5 0.239464 0.043957 0.080280
O O6 0.392364 0.954658 0.927005
O O7 0.155421 0.645334 0.865173
O O8 0.000000 0.500000 0.000000
O O9 0.905552 0.727110 0.030847
O O10 0.553078 0.820556 0.782986
O O11 0.675890 0.981198 0.779320
O O12 0.239994 0.900975 0.677555
O O13 0.500000 0.629337 0.750000
O O14 0.401397 0.584815 0.707662
#
# Coordination Sequence:
#
# PCOD8132655 Si02
#       7
#     4   8   8   8   8   8   8
#     4  12  28  36  58  92 142 154 192 272 316 346
#     4  10  19  40  69  87 114 164 220 242 289 378
#     4   8  14  32  64  86 107 147 208 253 277 344
#     4  12  25  42  55  94 131 163 191 262 329 347
#     4  10  18  39  63  91 111 167 212 245 293 372
#     4  12  22  39  66  95 121 157 210 257 300 368
#     4  10  20  39  66  89 116 164 215 243 296 374
#
# _framework density 19.807348000000001
#
# number of rings (size 3 to 8) (size 9 to 14) (size 15 to 20)
#    0.000    1.846    8.462    1.385    2.154    0.615 
#    0.000    0.000    0.000    2.769    0.000    0.000 
#    0.000    0.000    0.000    0.000    0.000    0.000 
#
# Total GULP energy -322196.565037 kJ/mol
# GULP energy per Si atom -12392.175578 kJ/mol
# Density = 1.976227 g / cm^3
# Si number density = 19.807348 Si / 1000 Ang^3
#
#
#
# Elastic Constant Matrix: (Units=GPa)
#
#
# Indices 1 2 3 4 5 6 
#
# 1 101.5492 34.8705 25.2498 0.0000 -18.3947 0.0000
# 2 34.8705 55.8056 1.5471 0.0000 -9.0695 0.0000
# 3 25.2498 1.5471 49.5759 -0.0001 -21.8038 0.0000
# 4 0.0000 0.0000 -0.0001 10.8652 0.0000 -0.5925
# 5 -18.3947 -9.0695 -21.8038 0.0000 43.0881 0.0000
# 6 0.0000 0.0000 0.0000 -0.5925 0.0000 22.3373
#
#
#
# Elastic Compliance Matrix: (Units=1/GPa)
#
#
# Indices 1 2 3 4 5 6 
#
# 1 0.014769 -0.008879 -0.006809 0.000000 0.000990 0.000000
# 2 -0.008879 0.023975 0.005565 0.000000 0.004072 0.000000
# 3 -0.006809 0.005565 0.029201 0.000000 0.013041 0.000000
# 4 0.000000 0.000000 0.000000 0.092170 0.000000 0.002445
# 5 0.000990 0.004072 0.013041 0.000000 0.031087 0.000000
# 6 0.000000 0.000000 0.000000 0.002445 0.000000 0.044833
#
#
# Mechanical properties :
#
#
# Convention : Reuss Voigt Hill
#
# Bulk Modulus (GPa) = 20.96527 36.69616 28.83072
# Shear Modulus (GPa) = 18.37015 24.94234 21.65625
#
# Velocity S-wave (km/s) = 3.04870 3.55244 3.31016
# Velocity P-wave (km/s) = 4.79586 5.94922 5.40340
#
# Compressibility (1/GPa) = 0.04769793
#
# Stress axis : x y z
#
# Youngs Moduli (GPa) = 67.71067 41.71070 34.24546
#
# Poissons Ratio (x) = 0.37033 0.23319
# Poissons Ratio (y) = 0.60117 -0.19056
# Poissons Ratio (z) = 0.46106 -0.23211
#
# Static dielectric constant tensor:
#      x y z
#    x 3.959660 0.000000 -0.499070 
#    y 0.000000 3.193230 0.000000 
#    z -0.499070 0.000000 3.900020 
# 
# 
# High freq. dielectric constant tensor:
#      x y z
#    x 1.779680 0.000000 -0.023270 
#    y 0.000000 1.727800 0.000000 
#    z -0.023270 0.000000 1.771780 
# 
# From -- ./inp_files/273792.got.cif
#   From: 2010.06.25/outbox.cif.g09.slc.cpg/sg15_137_cif.got.tgz:273792.got - 2010.06.28 07:06:18.
