data_PCOD8132980
_publ_section_title
;
Structure prediction by ZEFSAII (Michael W. Deem and Ramdas Pophale) SiO2 
 PCOD8132980
Probable space group: C 2/C
;
_chemical_formula_sum "Si O2"
_cell_formula_units_Z 56
_cell_length_a 28.859125
_cell_length_b 15.543198
_cell_length_c 9.659469
_cell_angle_alpha 90.000000
_cell_angle_beta 139.415508
_cell_angle_gamma 90.000000
_cell_volume 2818.836889
_symmetry_space_group_name_H-M "C 2/C"
_symmetry_group_IT_number 15
_symmetry_cell_setting 'monoclinic'
loop_
_space_group_symop_operation_xyz
x,y,z
-x,y,1/2-z
-x,-y,-z
x,-y,1/2+z
1/2+x,1/2+y,z
1/2-x,1/2+y,1/2-z
1/2-x,1/2-y,-z
1/2+x,1/2-y,1/2+z
loop_
_atom_site_type_symbol
_atom_site_label
_atom_site_fract_x
_atom_site_fract_y
_atom_site_fract_z
Si Si1 0.778694 0.848156 0.849000
Si Si2 0.680623 0.985277 0.493823
Si Si3 0.792962 0.183403 0.893374
Si Si4 0.321263 0.430057 0.219057
Si Si5 0.148230 0.394218 0.152984
Si Si6 0.956026 0.954803 0.016949
Si Si7 0.117721 0.789118 0.644629
O O1 0.717435 0.917333 0.679613
O O2 0.742345 0.755331 0.785013
O O3 0.833400 0.844576 0.846812
O O4 0.824320 0.872344 0.087979
O O5 0.633013 0.942135 0.264695
O O6 0.740114 0.040124 0.549693
O O7 0.630783 0.046342 0.478985
O O8 0.840695 0.124086 0.901255
O O9 0.732274 0.129290 0.836062
O O10 0.842593 0.227618 0.120148
O O11 0.375899 0.508445 0.333762
O O12 0.100949 0.305913 0.043896
O O13 0.951210 0.850342 0.987534
O O14 0.000000 0.979549 0.250000
O O15 0.000000 0.000000 0.000000
#
# Coordination Sequence:
#
# PCOD8132980 Si02
#       7
#     8   8   8   8   8   8   8
#     4  11  18  31  50  78 114 141 175 211 272 347
#     4  11  18  30  52  79 112 141 168 209 274 352
#     4  10  19  31  52  78 109 150 174 209 274 343
#     4  11  22  33  51  76 113 146 181 228 273 310
#     4  10  19  31  50  79 109 143 171 207 271 349
#     4  12  25  39  56  76 104 152 204 235 261 307
#     4  11  20  36  52  73 108 148 182 230 274 314
#
# _framework density 19.866350000000001
#
# number of rings (size 3 to 8) (size 9 to 14) (size 15 to 20)
#    0.000    1.143    5.714    3.000    2.000    0.000 
#    0.000    0.000    0.000    0.000    0.000    1.000 
#    0.000    0.000    0.000    0.000    0.000    0.000 
#
# Total GULP energy -347106.813043 kJ/mol
# GULP energy per Si atom -12396.671894 kJ/mol
# Density = 1.982113 g / cm^3
# Si number density = 19.866350 Si / 1000 Ang^3
#
#
#
# Elastic Constant Matrix: (Units=GPa)
#
#
# Indices 1 2 3 4 5 6 
#
# 1 66.2191 57.9643 32.7933 0.0000 -20.8542 0.0000
# 2 57.9643 128.2893 26.1211 0.0000 -16.6014 0.0000
# 3 32.7933 26.1211 57.5578 0.0000 -24.5315 0.0000
# 4 0.0000 0.0000 0.0000 32.7266 0.0000 -2.7033
# 5 -20.8542 -16.6014 -24.5315 0.0000 26.5397 0.0000
# 6 0.0000 0.0000 0.0000 -2.7033 0.0000 27.2409
#
#
#
# Elastic Compliance Matrix: (Units=1/GPa)
#
#
# Indices 1 2 3 4 5 6 
#
# 1 0.033216 -0.011812 -0.009222 0.000000 0.010187 0.000000
# 2 -0.011812 0.012928 0.000583 0.000000 -0.000655 0.000000
# 3 -0.009222 0.000583 0.032061 0.000000 0.022753 0.000000
# 4 0.000000 0.000000 0.000000 0.030809 0.000000 0.003057
# 5 0.010187 -0.000655 0.022753 0.000000 0.066306 0.000000
# 6 0.000000 0.000000 0.000000 0.003057 0.000000 0.037013
#
#
# Mechanical properties :
#
#
# Convention : Reuss Voigt Hill
#
# Bulk Modulus (GPa) = 26.80706 53.98041 40.39374
# Shear Modulus (GPa) = 18.82041 26.31394 22.56718
#
# Velocity S-wave (km/s) = 3.08125 3.64338 3.37404
# Velocity P-wave (km/s) = 5.11681 6.70297 5.96287
#
# Compressibility (1/GPa) = 0.03730360
#
# Stress axis : x y z
#
# Youngs Moduli (GPa) = 30.10593 77.35043 31.19048
#
# Poissons Ratio (x) = 0.91365 0.28765
# Poissons Ratio (y) = 0.35560 -0.01819
# Poissons Ratio (z) = 0.27765 -0.04512
#
# Static dielectric constant tensor:
#      x y z
#    x 3.462580 0.000000 -0.357870 
#    y 0.000000 3.937560 0.000000 
#    z -0.357870 0.000000 3.253120 
# 
# 
# High freq. dielectric constant tensor:
#      x y z
#    x 1.745130 0.000000 -0.047110 
#    y 0.000000 1.791960 0.000000 
#    z -0.047110 0.000000 1.740500 
# 
# From -- ./inp_files/70504.got.cif
#   From: 2010.06.25/outbox.cif.g09.slc.cpg/sg15_36_cif.got.tgz:70504.got - 2010.06.28 07:06:18.
