data_PCOD8132789
_publ_section_title
;
Structure prediction by ZEFSAII (Michael W. Deem and Ramdas Pophale) SiO2 
 PCOD8132789
Probable space group: C 2/C
;
_chemical_formula_sum "Si O2"
_cell_formula_units_Z 48
_cell_length_a 9.189016
_cell_length_b 27.488754
_cell_length_c 14.000071
_cell_angle_alpha 90.000000
_cell_angle_beta 139.928451
_cell_angle_gamma 90.000000
_cell_volume 2276.498166
_symmetry_space_group_name_H-M "C 2/C"
_symmetry_group_IT_number 15
_symmetry_cell_setting 'monoclinic'
loop_
_space_group_symop_operation_xyz
x,y,z
-x,y,1/2-z
-x,-y,-z
x,-y,1/2+z
1/2+x,1/2+y,z
1/2-x,1/2+y,1/2-z
1/2-x,1/2-y,-z
1/2+x,1/2-y,1/2+z
loop_
_atom_site_type_symbol
_atom_site_label
_atom_site_fract_x
_atom_site_fract_y
_atom_site_fract_z
Si Si1 0.193796 0.567503 0.060856
Si Si2 0.194256 0.431823 0.271096
Si Si3 0.402780 0.375306 0.963157
Si Si4 0.120007 0.033676 0.160594
Si Si5 0.890169 0.296625 0.595943
Si Si6 0.184854 0.167729 0.280570
O O1 0.363156 0.548081 0.062358
O O2 0.213361 0.533128 0.163599
O O3 0.273927 0.620214 0.134409
O O4 0.933135 0.568642 0.895064
O O5 0.354081 0.384645 0.364708
O O6 0.357171 0.479011 0.369287
O O7 0.000000 0.430314 0.250000
O O8 0.293484 0.426931 0.874538
O O9 0.249652 0.347246 0.964180
O O10 0.420548 0.342564 0.876895
O O11 0.750000 0.250000 0.500000
O O12 0.000000 0.282910 0.750000
O O13 0.080358 0.303511 0.610430
O O14 0.000000 0.198280 0.250000
#
# Coordination Sequence:
#
# PCOD8132789 Si02
#       6
#     8   8   8   8   8   8
#     4  10  20  38  54  82 121 168 209 250 292 357
#     4  12  22  33  56  87 124 162 216 255 293 350
#     4  10  21  40  59  88 120 162 200 253 308 363
#     4  10  20  38  53  80 126 165 211 244 299 358
#     4  10  24  44  68  93 122 153 198 258 319 375
#     4  10  18  42  68  83 120 163 201 237 306 371
#
# _framework density 21.085014999999999
#
# number of rings (size 3 to 8) (size 9 to 14) (size 15 to 20)
#    0.000    1.667    5.000    1.000    0.000    4.667 
#    6.000    4.167    0.000    0.000    0.000    0.000 
#    0.000    0.000    0.000    0.000    0.000    0.000 
#
# Total GULP energy -297435.829478 kJ/mol
# GULP energy per Si atom -12393.159562 kJ/mol
# Density = 2.103702 g / cm^3
# Si number density = 21.085015 Si / 1000 Ang^3
#
#
#
# Elastic Constant Matrix: (Units=GPa)
#
#
# Indices 1 2 3 4 5 6 
#
# 1 132.8751 61.0268 33.4213 0.0000 30.9149 0.0000
# 2 61.0268 97.2498 45.6716 0.0000 18.0697 0.0000
# 3 33.4213 45.6716 133.0704 0.0000 27.4162 0.0000
# 4 0.0000 0.0000 0.0000 37.2686 0.0000 14.6253
# 5 30.9149 18.0697 27.4162 0.0000 21.9705 0.0000
# 6 0.0000 0.0000 0.0000 14.6253 0.0000 19.8285
#
#
#
# Elastic Compliance Matrix: (Units=1/GPa)
#
#
# Indices 1 2 3 4 5 6 
#
# 1 0.013985 -0.006687 0.002293 0.000000 -0.017040 0.000000
# 2 -0.006687 0.016188 -0.004135 0.000000 0.001255 0.000000
# 3 0.002293 -0.004135 0.011202 0.000000 -0.013805 0.000000
# 4 0.000000 0.000000 0.000000 0.037763 0.000000 -0.027854
# 5 -0.017040 0.001255 -0.013805 0.000000 0.085688 0.000000
# 6 0.000000 0.000000 0.000000 -0.027854 0.000000 0.070977
#
#
# Mechanical properties :
#
#
# Convention : Reuss Voigt Hill
#
# Bulk Modulus (GPa) = 41.12176 71.49274 56.30725
# Shear Modulus (GPa) = 19.15971 30.68522 24.92247
#
# Velocity S-wave (km/s) = 3.01772 3.81899 3.44175
# Velocity P-wave (km/s) = 5.62915 7.30936 6.52358
#
# Compressibility (1/GPa) = 0.02431802
#
# Stress axis : x y z
#
# Youngs Moduli (GPa) = 71.50692 61.77604 89.26784
#
# Poissons Ratio (x) = 0.41307 -0.20473
# Poissons Ratio (y) = 0.47814 0.36912
# Poissons Ratio (z) = -0.16399 0.25544
#
# Static dielectric constant tensor:
#      x y z
#    x 3.925030 0.000000 -0.021590 
#    y 0.000000 3.493190 0.000000 
#    z -0.021590 0.000000 4.458210 
# 
# 
# High freq. dielectric constant tensor:
#      x y z
#    x 1.820220 0.000000 -0.004760 
#    y 0.000000 1.790430 0.000000 
#    z -0.004760 0.000000 1.841450 
# 
# From -- ./inp_files/139638.got.cif
#   From: 2010.06.25/outbox.cif.g09.slc.cpg/sg15_70_cif.got.tgz:139638.got - 2010.06.28 07:06:18.
