data_PCOD8132818
_publ_section_title
;
Structure prediction by ZEFSAII (Michael W. Deem and Ramdas Pophale) SiO2 
 PCOD8132818
Probable space group: C 2/C
;
_chemical_formula_sum "Si O2"
_cell_formula_units_Z 40
_cell_length_a 18.845529
_cell_length_b 13.976986
_cell_length_c 13.752541
_cell_angle_alpha 90.000000
_cell_angle_beta 139.683001
_cell_angle_gamma 90.000000
_cell_volume 2343.796218
_symmetry_space_group_name_H-M "C 2/C"
_symmetry_group_IT_number 15
_symmetry_cell_setting 'monoclinic'
loop_
_space_group_symop_operation_xyz
x,y,z
-x,y,1/2-z
-x,-y,-z
x,-y,1/2+z
1/2+x,1/2+y,z
1/2-x,1/2+y,1/2-z
1/2-x,1/2-y,-z
1/2+x,1/2-y,1/2+z
loop_
_atom_site_type_symbol
_atom_site_label
_atom_site_fract_x
_atom_site_fract_y
_atom_site_fract_z
Si Si1 0.032526 0.679966 0.391343
Si Si2 0.697844 0.170092 0.311224
Si Si3 0.543278 0.519617 0.189988
Si Si4 0.265036 0.624752 0.592087
Si Si5 0.405052 0.631763 0.433229
O O1 0.138020 0.610097 0.494565
O O2 0.055547 0.766001 0.488519
O O3 0.000000 0.720411 0.250000
O O4 0.924483 0.624017 0.319055
O O5 0.683436 0.285761 0.295052
O O6 0.767861 0.145224 0.480425
O O7 0.771386 0.130861 0.299372
O O8 0.500000 0.552101 0.250000
O O9 0.661869 0.468137 0.312364
O O10 0.557893 0.614694 0.139400
O O11 0.450998 0.452077 0.048726
#
# Coordination Sequence:
#
# PCOD8132818 Si02
#       5
#     8   8   8   8   8
#     4   9  16  28  49  74  91 112 147 192 232 261
#     4   9  15  27  45  67  92 113 149 186 226 264
#     4  11  19  30  43  67 101 117 148 181 228 273
#     4   9  16  25  45  66  93 119 140 189 229 261
#     4  10  19  27  45  70  91 124 143 184 230 266
#
# _framework density 17.066331000000002
#
# number of rings (size 3 to 8) (size 9 to 14) (size 15 to 20)
#    0.000    2.400    4.000    1.800    0.000    0.000 
#    0.000    1.000    0.000    1.200    0.000    0.000 
#    0.000    0.000    0.000    0.000    0.000    0.000 
#
# Total GULP energy -247798.250865 kJ/mol
# GULP energy per Si atom -12389.912543 kJ/mol
# Density = 1.702749 g / cm^3
# Si number density = 17.066331 Si / 1000 Ang^3
#
#
#
# Elastic Constant Matrix: (Units=GPa)
#
#
# Indices 1 2 3 4 5 6 
#
# 1 149.9934 33.4235 55.6892 0.0000 10.2853 0.0000
# 2 33.4235 35.8909 22.9012 0.0000 -3.3474 0.0000
# 3 55.6892 22.9012 55.3958 0.0000 5.2899 0.0000
# 4 0.0000 0.0000 0.0000 11.0378 0.0000 -2.2326
# 5 10.2853 -3.3474 5.2899 0.0000 37.1799 0.0000
# 6 0.0000 0.0000 0.0000 -2.2326 0.0000 24.9572
#
#
#
# Elastic Compliance Matrix: (Units=1/GPa)
#
#
# Indices 1 2 3 4 5 6 
#
# 1 0.011302 -0.004925 -0.009109 0.000000 -0.002274 0.000000
# 2 -0.004925 0.041227 -0.012750 0.000000 0.006888 0.000000
# 3 -0.009109 -0.012750 0.032795 0.000000 -0.003294 0.000000
# 4 0.000000 0.000000 0.000000 0.092267 0.000000 0.008254
# 5 -0.002274 0.006888 -0.003294 0.000000 0.028614 0.000000
# 6 0.000000 0.000000 0.000000 0.008254 0.000000 0.040807
#
#
# Mechanical properties :
#
#
# Convention : Reuss Voigt Hill
#
# Bulk Modulus (GPa) = 31.49073 51.70087 41.59580
# Shear Modulus (GPa) = 16.06860 23.25272 19.66066
#
# Velocity S-wave (km/s) = 3.07178 3.69520 3.39782
# Velocity P-wave (km/s) = 5.57433 6.96892 6.31027
#
# Compressibility (1/GPa) = 0.03175537
#
# Stress axis : x y z
#
# Youngs Moduli (GPa) = 88.47736 24.25605 30.49278
#
# Poissons Ratio (x) = 0.11947 0.27776
# Poissons Ratio (y) = 0.43577 0.38879
# Poissons Ratio (z) = 0.80593 0.30927
#
# Static dielectric constant tensor:
#      x y z
#    x 3.561650 0.000000 0.270030 
#    y 0.000000 2.675760 0.000000 
#    z 0.270030 0.000000 3.118020 
# 
# 
# High freq. dielectric constant tensor:
#      x y z
#    x 1.677150 0.000000 0.028300 
#    y 0.000000 1.594210 0.000000 
#    z 0.028300 0.000000 1.639200 
# 
# From -- ./inp_files/39410.got.cif
#   From: 2010.06.25/outbox.cif.g09.slc.cpg/sg15_20_cif.got.tgz:39410.got - 2010.06.28 07:06:18.
