data_PCOD8132156
_publ_section_title
;
Structure prediction by ZEFSAII (Michael W. Deem and Ramdas Pophale) SiO2 
 PCOD8132156
Probable space group: C 2/C
;
_chemical_formula_sum "Si O2"
_cell_formula_units_Z 56
_cell_length_a 15.423775
_cell_length_b 9.420267
_cell_length_c 21.271222
_cell_angle_alpha 90.000000
_cell_angle_beta 79.043361
_cell_angle_gamma 90.000000
_cell_volume 3034.287082
_symmetry_space_group_name_H-M "C 2/C"
_symmetry_group_IT_number 15
_symmetry_cell_setting 'monoclinic'
loop_
_space_group_symop_operation_xyz
x,y,z
-x,y,1/2-z
-x,-y,-z
x,-y,1/2+z
1/2+x,1/2+y,z
1/2-x,1/2+y,1/2-z
1/2-x,1/2-y,-z
1/2+x,1/2-y,1/2+z
loop_
_atom_site_type_symbol
_atom_site_label
_atom_site_fract_x
_atom_site_fract_y
_atom_site_fract_z
Si Si1 0.329936 0.357275 0.482927
Si Si2 0.351553 0.244176 0.157210
Si Si3 0.136450 0.931970 0.881061
Si Si4 0.713742 0.458222 0.621461
Si Si5 0.974770 0.078304 0.322040
Si Si6 0.544564 0.261934 0.139643
Si Si7 0.795528 0.254336 0.806424
O O1 0.250000 0.250000 0.500000
O O2 0.366503 0.401406 0.545014
O O3 0.292138 0.492680 0.450192
O O4 0.412472 0.288128 0.434679
O O5 0.354961 0.400149 0.127935
O O6 0.297580 0.142370 0.118182
O O7 0.451405 0.179771 0.146856
O O8 0.303947 0.247801 0.230727
O O9 0.216463 0.857230 0.834876
O O10 0.046132 0.869508 0.863581
O O11 0.624372 0.369199 0.648809
O O12 0.722046 0.595901 0.665367
O O13 0.976134 0.908040 0.321414
O O14 0.000000 0.136732 0.250000
O O15 0.615581 0.180375 0.173768
#
# Coordination Sequence:
#
# PCOD8132156 Si02
#       7
#     8   8   8   8   8   8   8
#     4  10  19  39  58  76 105 147 197 210 267 341
#     4  11  21  33  53  91 111 132 184 234 286 300
#     4  11  20  34  63  79 105 150 182 222 267 328
#     4  10  21  35  55  79 114 144 174 238 266 319
#     4   9  17  32  52  82 108 136 180 223 268 318
#     4   9  18  32  57  78 107 145 183 225 256 327
#     4  10  18  36  58  78 109 153 180 215 270 343
#
# _framework density 18.455736000000002
#
# number of rings (size 3 to 8) (size 9 to 14) (size 15 to 20)
#    0.000    2.286    2.857    5.571    0.000    5.714 
#    0.000    2.143    0.000    0.000    0.000    0.000 
#    0.000    0.000    0.000    0.000    0.000    0.000 
#
# Total GULP energy -347083.198021 kJ/mol
# GULP energy per Si atom -12395.828501 kJ/mol
# Density = 1.841373 g / cm^3
# Si number density = 18.455736 Si / 1000 Ang^3
#
#
#
# Elastic Constant Matrix: (Units=GPa)
#
#
# Indices 1 2 3 4 5 6 
#
# 1 131.3935 31.7110 13.2412 0.0000 4.5987 0.0000
# 2 31.7110 33.8922 9.3781 0.0000 1.3041 0.0000
# 3 13.2412 9.3781 106.6709 0.0000 17.6895 0.0000
# 4 0.0000 0.0000 0.0000 17.2202 0.0000 3.3211
# 5 4.5987 1.3041 17.6895 0.0000 30.7229 0.0000
# 6 0.0000 0.0000 0.0000 3.3211 0.0000 28.6366
#
#
#
# Elastic Compliance Matrix: (Units=1/GPa)
#
#
# Indices 1 2 3 4 5 6 
#
# 1 0.009873 -0.009128 -0.000268 0.000000 -0.000936 0.000000
# 2 -0.009128 0.038682 -0.002457 0.000000 0.001139 0.000000
# 3 -0.000268 -0.002457 0.010613 0.000000 -0.005966 0.000000
# 4 0.000000 0.000000 0.000000 0.059400 0.000000 -0.006889
# 5 -0.000936 0.001139 -0.005966 0.000000 0.036076 0.000000
# 6 0.000000 0.000000 0.000000 -0.006889 0.000000 0.035719
#
#
# Mechanical properties :
#
#
# Convention : Reuss Voigt Hill
#
# Bulk Modulus (GPa) = 28.19776 42.29081 35.24428
# Shear Modulus (GPa) = 22.13472 29.82436 25.97954
#
# Velocity S-wave (km/s) = 3.46691 4.02430 3.75596
# Velocity P-wave (km/s) = 5.59801 6.67517 6.16018
#
# Compressibility (1/GPa) = 0.03546382
#
# Stress axis : x y z
#
# Youngs Moduli (GPa) = 101.28182 25.85207 94.22150
#
# Poissons Ratio (x) = 0.23597 0.02524
# Poissons Ratio (y) = 0.92449 0.23146
# Poissons Ratio (z) = 0.02713 0.06351
#
# Static dielectric constant tensor:
#      x y z
#    x 3.969110 0.000000 -0.003050 
#    y 0.000000 2.978770 0.000000 
#    z -0.003050 0.000000 3.534410 
# 
# 
# High freq. dielectric constant tensor:
#      x y z
#    x 1.737390 0.000000 0.000410 
#    y 0.000000 1.663190 0.000000 
#    z 0.000410 0.000000 1.725060 
# 
# From -- ./inp_files/243342.got.cif
#   From: 2010.06.25/outbox.cif.g09.slc.cpg/sg15_122_cif.got.tgz:243342.got - 2010.06.28 07:06:18.
