data_PCOD8132845
_publ_section_title
;
Structure prediction by ZEFSAII (Michael W. Deem and Ramdas Pophale) SiO2 
 PCOD8132845
Probable space group: C 2/C
;
_chemical_formula_sum "Si O2"
_cell_formula_units_Z 60
_cell_length_a 25.608942
_cell_length_b 17.439802
_cell_length_c 8.808052
_cell_angle_alpha 90.000000
_cell_angle_beta 68.745050
_cell_angle_gamma 90.000000
_cell_volume 3666.215954
_symmetry_space_group_name_H-M "C 2/C"
_symmetry_group_IT_number 15
_symmetry_cell_setting 'monoclinic'
loop_
_space_group_symop_operation_xyz
x,y,z
-x,y,1/2-z
-x,-y,-z
x,-y,1/2+z
1/2+x,1/2+y,z
1/2-x,1/2+y,1/2-z
1/2-x,1/2-y,-z
1/2+x,1/2-y,1/2+z
loop_
_atom_site_type_symbol
_atom_site_label
_atom_site_fract_x
_atom_site_fract_y
_atom_site_fract_z
Si Si1 0.192125 0.718993 0.751631
Si Si2 0.500000 0.487138 0.750000
Si Si3 0.178132 0.248881 0.937719
Si Si4 0.786875 0.591108 0.159911
Si Si5 0.838875 0.900764 0.201111
Si Si6 0.326126 0.639939 0.061895
Si Si7 0.221415 0.440576 0.183741
Si Si8 0.421696 0.459251 0.583177
O O1 0.160184 0.748432 0.633666
O O2 0.257791 0.724596 0.647695
O O3 0.172298 0.767250 0.919545
O O4 0.183342 0.628547 0.792369
O O5 0.453762 0.437815 0.706282
O O6 0.532419 0.540924 0.597612
O O7 0.171334 0.335165 0.874160
O O8 0.143091 0.181716 0.890680
O O9 0.727504 0.611975 0.292057
O O10 0.809831 0.518704 0.231330
O O11 0.776639 0.565156 0.998824
O O12 0.823417 0.885960 0.392145
O O13 0.785446 0.939724 0.177056
O O14 0.891123 0.958086 0.131017
O O15 0.379466 0.608252 0.093442
#
# Coordination Sequence:
#
# PCOD8132845 Si02
#       8
#     8   4   8   8   8   8   8   8
#     4   8  17  30  42  61  89 117 151 189 219 255
#     4  10  24  38  48  62  92 110 150 202 248 262
#     4   8  17  30  42  61  89 117 151 189 219 255
#     4  10  19  29  43  65  91 123 156 187 220 258
#     4  11  20  29  47  66  85 118 157 187 223 276
#     4  11  20  29  47  66  85 118 157 187 223 276
#     4  10  19  29  43  65  91 123 156 187 220 258
#     4  11  22  36  48  68  86 120 152 194 234 281
#
# _framework density 16.365648
#
# number of rings (size 3 to 8) (size 9 to 14) (size 15 to 20)
#    0.000    2.133    2.667    3.200    3.733    5.867 
#    0.000    0.000    0.000    0.000    0.000    0.000 
#    0.000    0.000    0.000    7.200    0.000    0.533 
#
# Total GULP energy -371717.230398 kJ/mol
# GULP energy per Si atom -12390.574347 kJ/mol
# Density = 1.632840 g / cm^3
# Si number density = 16.365648 Si / 1000 Ang^3
#
#
#
# Elastic Constant Matrix: (Units=GPa)
#
#
# Indices 1 2 3 4 5 6 
#
# 1 39.1778 8.1570 9.3600 0.0000 9.8942 0.0000
# 2 8.1570 92.6248 18.7007 0.0000 3.0235 0.0000
# 3 9.3600 18.7007 62.0771 0.0000 7.6773 0.0000
# 4 0.0000 0.0000 0.0000 25.2784 0.0000 6.8506
# 5 9.8942 3.0235 7.6773 0.0000 18.5864 0.0000
# 6 0.0000 0.0000 0.0000 6.8506 0.0000 17.1879
#
#
#
# Elastic Compliance Matrix: (Units=1/GPa)
#
#
# Indices 1 2 3 4 5 6 
#
# 1 0.030163 -0.001729 -0.002188 0.000000 -0.014872 0.000000
# 2 -0.001729 0.011598 -0.003281 0.000000 0.000389 0.000000
# 3 -0.002188 -0.003281 0.018144 0.000000 -0.005796 0.000000
# 4 0.000000 0.000000 0.000000 0.044350 0.000000 -0.017677
# 5 -0.014872 0.000389 -0.005796 0.000000 0.064050 0.000000
# 6 0.000000 0.000000 0.000000 -0.017677 0.000000 0.065226
#
#
# Mechanical properties :
#
#
# Convention : Reuss Voigt Hill
#
# Bulk Modulus (GPa) = 21.97366 29.59057 25.78211
# Shear Modulus (GPa) = 19.00431 22.72135 20.86283
#
# Velocity S-wave (km/s) = 3.41138 3.73011 3.57430
# Velocity P-wave (km/s) = 5.38262 6.05572 5.72906
#
# Compressibility (1/GPa) = 0.04550904
#
# Stress axis : x y z
#
# Youngs Moduli (GPa) = 33.15294 86.21936 55.11388
#
# Poissons Ratio (x) = 0.14909 0.12058
# Poissons Ratio (y) = 0.05733 0.18085
# Poissons Ratio (z) = 0.07253 0.28292
#
# Static dielectric constant tensor:
#      x y z
#    x 2.787150 0.000000 0.273600 
#    y 0.000000 3.843400 0.000000 
#    z 0.273600 0.000000 3.177960 
# 
# 
# High freq. dielectric constant tensor:
#      x y z
#    x 1.568580 0.000000 0.031500 
#    y 0.000000 1.636880 0.000000 
#    z 0.031500 0.000000 1.633910 
# 
# From -- ./inp_files/62450.got.cif
#   From: 2010.06.25/outbox.cif.g09.slc.cpg/sg15_32_cif.got.tgz:62450.got - 2010.06.28 07:06:18.
