data_PCOD8132023
_publ_section_title
;
Structure prediction by ZEFSAII (Michael W. Deem and Ramdas Pophale) SiO2 
 PCOD8132023
Probable space group: C 2/C
;
_chemical_formula_sum "Si O2"
_cell_formula_units_Z 32
_cell_length_a 29.962916
_cell_length_b 7.303830
_cell_length_c 20.487068
_cell_angle_alpha 90.000000
_cell_angle_beta 22.559344
_cell_angle_gamma 90.000000
_cell_volume 1720.040114
_symmetry_space_group_name_H-M "C 2/C"
_symmetry_group_IT_number 15
_symmetry_cell_setting 'monoclinic'
loop_
_space_group_symop_operation_xyz
x,y,z
-x,y,1/2-z
-x,-y,-z
x,-y,1/2+z
1/2+x,1/2+y,z
1/2-x,1/2+y,1/2-z
1/2-x,1/2-y,-z
1/2+x,1/2-y,1/2+z
loop_
_atom_site_type_symbol
_atom_site_label
_atom_site_fract_x
_atom_site_fract_y
_atom_site_fract_z
Si Si1 0.995194 0.142493 0.448556
Si Si2 0.586376 0.500572 0.575291
Si Si3 0.725392 0.277989 0.691627
Si Si4 0.755880 0.308643 0.191115
O O1 0.116044 0.254681 0.290164
O O2 0.987719 0.036697 0.389856
O O3 0.878161 0.262082 0.618202
O O4 0.000000 0.000000 0.500000
O O5 0.500000 0.548122 0.750000
O O6 0.663409 0.323166 0.489756
O O7 0.672399 0.672679 0.451243
O O8 0.758614 0.490851 0.655693
O O9 0.690780 0.187113 0.807930
#
# Coordination Sequence:
#
# PCOD8132023 Si02
#       4
#     8   8   8   8
#     4   9  18  36  60  80 109 142 189 233 254 333
#     4  11  23  37  54  85 118 142 180 232 279 321
#     4  10  19  37  59  82 109 144 191 224 269 326
#     4  10  18  35  60  83 104 149 184 229 267 326
#
# _framework density 18.604216000000001
#
# number of rings (size 3 to 8) (size 9 to 14) (size 15 to 20)
#    0.000    2.000    7.500    0.000    0.000    3.000 
#    0.000    5.000    0.000    0.000    0.000    0.000 
#    0.000    0.000    0.000    0.000    0.000    0.000 
#
# Total GULP energy -198278.100219 kJ/mol
# GULP energy per Si atom -12392.381264 kJ/mol
# Density = 1.856187 g / cm^3
# Si number density = 18.604216 Si / 1000 Ang^3
#
#
#
# Elastic Constant Matrix: (Units=GPa)
#
#
# Indices 1 2 3 4 5 6 
#
# 1 99.3940 23.0320 69.7202 0.0143 -5.4012 -0.0154
# 2 23.0320 83.2677 55.5648 0.0503 -0.8638 -0.0414
# 3 69.7202 55.5648 123.6202 0.0995 7.4517 0.0008
# 4 0.0143 0.0503 0.0995 34.1510 -0.0134 -2.0675
# 5 -5.4012 -0.8638 7.4517 -0.0134 29.7348 0.0070
# 6 -0.0154 -0.0414 0.0008 -2.0675 0.0070 18.7376
#
#
#
# Elastic Compliance Matrix: (Units=1/GPa)
#
#
# Indices 1 2 3 4 5 6 
#
# 1 0.018084 0.003037 -0.011948 0.000027 0.006367 0.000023
# 2 0.003037 0.017845 -0.009949 0.000005 0.003563 0.000042
# 3 -0.011948 -0.009949 0.019746 -0.000043 -0.007408 -0.000035
# 4 0.000027 0.000005 -0.000043 0.029479 0.000028 0.003253
# 5 0.006367 0.003563 -0.007408 0.000028 0.036747 0.000003
# 6 0.000023 0.000042 -0.000035 0.003253 0.000003 0.053728
#
#
# Mechanical properties :
#
#
# Convention : Reuss Voigt Hill
#
# Bulk Modulus (GPa) = 55.69188 66.99065 61.34127
# Shear Modulus (GPa) = 22.79621 27.05568 24.92595
#
# Velocity S-wave (km/s) = 3.50426 3.81764 3.66430
# Velocity P-wave (km/s) = 6.80979 7.45110 7.13765
#
# Compressibility (1/GPa) = 0.01795594
#
# Stress axis : x y z
#
# Youngs Moduli (GPa) = 55.29631 56.03748 50.64249
#
# Poissons Ratio (x) = -0.17019 0.60509
# Poissons Ratio (y) = -0.16793 0.50383
# Poissons Ratio (z) = 0.66070 0.55750
#
# Static dielectric constant tensor:
#      x y z
#    x 4.272050 -0.000090 -1.101120 
#    y -0.000090 3.402570 0.000040 
#    z -1.101120 0.000040 4.124430 
# 
# 
# High freq. dielectric constant tensor:
#      x y z
#    x 1.714240 0.000000 -0.025290 
#    y 0.000000 1.709520 0.000000 
#    z -0.025290 0.000000 1.714870 
# 
# From -- ./inp_files/102151.got.cif
#   From: 2010.06.25/outbox.cif.g09.slc.cpg/sg15_52_cif.got.tgz:102151.got - 2010.06.28 07:06:18.
