data_PCOD8132884
_publ_section_title
;
Structure prediction by ZEFSAII (Michael W. Deem and Ramdas Pophale) SiO2 
 PCOD8132884
Probable space group: C 2/C
;
_chemical_formula_sum "Si O2"
_cell_formula_units_Z 40
_cell_length_a 12.823215
_cell_length_b 23.086606
_cell_length_c 11.563702
_cell_angle_alpha 90.000000
_cell_angle_beta 36.258162
_cell_angle_gamma 90.000000
_cell_volume 2024.665278
_symmetry_space_group_name_H-M "C 2/C"
_symmetry_group_IT_number 15
_symmetry_cell_setting 'monoclinic'
loop_
_space_group_symop_operation_xyz
x,y,z
-x,y,1/2-z
-x,-y,-z
x,-y,1/2+z
1/2+x,1/2+y,z
1/2-x,1/2+y,1/2-z
1/2-x,1/2-y,-z
1/2+x,1/2-y,1/2+z
loop_
_atom_site_type_symbol
_atom_site_label
_atom_site_fract_x
_atom_site_fract_y
_atom_site_fract_z
Si Si1 0.693260 0.995199 0.064161
Si Si2 0.200128 0.816372 0.536430
Si Si3 0.284455 0.896715 0.262382
Si Si4 0.049719 0.942814 0.024389
Si Si5 0.826962 0.595826 0.104471
O O1 0.500000 0.024427 0.250000
O O2 0.713759 0.946321 0.142800
O O3 0.852370 0.041285 0.941822
O O4 0.712399 0.966272 0.921576
O O5 0.250000 0.750000 0.500000
O O6 0.242732 0.837058 0.367704
O O7 0.316008 0.851615 0.524428
O O8 0.000000 0.828376 0.750000
O O9 0.132678 0.906740 0.300613
O O10 0.472039 0.898866 0.028527
O O11 0.188366 0.901578 0.831935
O O12 0.000000 0.000000 0.000000
#
# Coordination Sequence:
#
# PCOD8132884 Si02
#       5
#     8   8   8   8   8
#     4   8  17  29  45  67  94 131 172 197 247 298
#     4  11  19  31  50  72  99 136 168 203 250 305
#     4   9  18  31  44  67  95 129 168 200 241 295
#     4  10  19  30  48  68  95 142 170 202 253 292
#     4  10  19  34  47  67 106 133 165 214 240 296
#
# _framework density 19.756353000000001
#
# number of rings (size 3 to 8) (size 9 to 14) (size 15 to 20)
#    0.000    2.400    2.000    3.000    0.000    7.200 
#    0.000    2.000    0.000    0.000    0.000    0.000 
#    0.000    1.600    3.600    5.000    0.800    0.000 
#
# Total GULP energy -247829.779760 kJ/mol
# GULP energy per Si atom -12391.488988 kJ/mol
# Density = 1.971139 g / cm^3
# Si number density = 19.756353 Si / 1000 Ang^3
#
#
#
# Elastic Constant Matrix: (Units=GPa)
#
#
# Indices 1 2 3 4 5 6 
#
# 1 90.0284 39.4383 41.0699 0.0001 -40.8433 0.0000
# 2 39.4383 70.5951 18.0447 0.0000 -13.7616 0.0000
# 3 41.0699 18.0447 91.6567 0.0007 -39.8469 -0.0001
# 4 0.0001 0.0000 0.0007 23.2972 -0.0003 -3.7685
# 5 -40.8433 -13.7616 -39.8469 -0.0003 36.5855 0.0001
# 6 0.0000 0.0000 -0.0001 -3.7685 0.0001 16.8345
#
#
#
# Elastic Compliance Matrix: (Units=1/GPa)
#
#
# Indices 1 2 3 4 5 6 
#
# 1 0.028455 -0.010597 0.002684 0.000000 0.030704 0.000000
# 2 -0.010597 0.019278 -0.001971 0.000000 -0.006725 0.000000
# 3 0.002684 -0.001971 0.021037 0.000000 0.025168 0.000000
# 4 0.000000 0.000000 0.000000 0.044536 0.000000 0.009970
# 5 0.030704 -0.006725 0.025168 0.000000 0.086491 0.000000
# 6 0.000000 0.000000 0.000000 0.009970 0.000000 0.061634
#
#
# Mechanical properties :
#
#
# Convention : Reuss Voigt Hill
#
# Bulk Modulus (GPa) = 20.40711 49.93178 35.16944
# Shear Modulus (GPa) = 16.80490 25.59192 21.19841
#
# Velocity S-wave (km/s) = 2.91968 3.60304 3.27921
# Velocity P-wave (km/s) = 4.66024 6.52977 5.67255
#
# Compressibility (1/GPa) = 0.04900254
#
# Stress axis : x y z
#
# Youngs Moduli (GPa) = 35.14370 51.87215 47.53570
#
# Poissons Ratio (x) = 0.54970 -0.12760
# Poissons Ratio (y) = 0.37242 0.09368
# Poissons Ratio (z) = -0.09434 0.10222
#
# Static dielectric constant tensor:
#      x y z
#    x 3.988750 0.000000 -0.580010 
#    y 0.000000 3.378110 0.000000 
#    z -0.580010 0.000000 3.802980 
# 
# 
# High freq. dielectric constant tensor:
#      x y z
#    x 1.754840 0.000000 -0.039150 
#    y 0.000000 1.714780 0.000000 
#    z -0.039150 0.000000 1.781930 
# 
# From -- ./inp_files/67472.got.cif
#   From: 2010.06.25/outbox.cif.g09.slc.cpg/sg15_34_cif.got.tgz:67472.got - 2010.06.28 07:06:18.
