data_PCOD8132590
_publ_section_title
;
Structure prediction by ZEFSAII (Michael W. Deem and Ramdas Pophale) SiO2 
 PCOD8132590
Probable space group: C 2/C
;
_chemical_formula_sum "Si O2"
_cell_formula_units_Z 44
_cell_length_a 27.096233
_cell_length_b 12.979803
_cell_length_c 15.898098
_cell_angle_alpha 90.000000
_cell_angle_beta 20.461756
_cell_angle_gamma 90.000000
_cell_volume 1954.660619
_symmetry_space_group_name_H-M "C 2/C"
_symmetry_group_IT_number 15
_symmetry_cell_setting 'monoclinic'
loop_
_space_group_symop_operation_xyz
x,y,z
-x,y,1/2-z
-x,-y,-z
x,-y,1/2+z
1/2+x,1/2+y,z
1/2-x,1/2+y,1/2-z
1/2-x,1/2-y,-z
1/2+x,1/2-y,1/2+z
loop_
_atom_site_type_symbol
_atom_site_label
_atom_site_fract_x
_atom_site_fract_y
_atom_site_fract_z
Si Si1 0.000000 0.707376 0.750000
Si Si2 0.588451 0.275244 0.777100
Si Si3 0.579803 0.104986 0.355861
Si Si4 0.152269 0.155955 0.478133
Si Si5 0.212897 0.085138 0.199596
Si Si6 0.356607 0.116551 0.440941
O O1 0.990962 0.779463 0.848236
O O2 0.132877 0.635527 0.556943
O O3 0.750000 0.250000 0.500000
O O4 0.601172 0.385022 0.804258
O O5 0.520164 0.194976 0.950992
O O6 0.724631 0.090909 0.175494
O O7 0.621246 0.128660 0.193914
O O8 0.500000 0.000000 0.500000
O O9 0.149627 0.132080 0.384583
O O10 0.180301 0.275484 0.456134
O O11 0.000000 0.117984 0.750000
O O12 0.230462 0.961759 0.166244
O O13 0.500000 0.070873 0.250000
#
# Coordination Sequence:
#
# PCOD8132590 Si02
#       6
#     4   8   8   8   8   8
#     4  10  18  38  64  98 136 184 230 298 346 422
#     4  10  21  36  66 104 139 178 235 295 351 420
#     4  12  23  44  74 102 138 191 242 289 357 435
#     4  11  25  45  71 105 146 182 238 301 357 425
#     4  11  21  42  69 100 139 183 244 291 358 425
#     4  11  23  42  72 102 137 192 240 291 361 426
#
# _framework density 22.510300999999998
#
# number of rings (size 3 to 8) (size 9 to 14) (size 15 to 20)
#    0.000    1.091    2.727    6.000    0.000    0.000 
#    0.000    5.455   20.000    0.000    0.000    0.000 
#    0.000    0.000    0.000    0.000    0.000    0.000 
#
# Total GULP energy -272675.095923 kJ/mol
# GULP energy per Si atom -12394.322542 kJ/mol
# Density = 2.245907 g / cm^3
# Si number density = 22.510301 Si / 1000 Ang^3
#
#
#
# Elastic Constant Matrix: (Units=GPa)
#
#
# Indices 1 2 3 4 5 6 
#
# 1 141.4620 47.5938 23.7366 0.0002 19.1264 0.0000
# 2 47.5938 104.8994 49.7923 0.0000 9.0866 0.0000
# 3 23.7366 49.7923 100.9329 0.0002 7.6976 0.0000
# 4 0.0002 0.0000 0.0002 -44.4995 -0.0001 2.7385
# 5 19.1264 9.0866 7.6976 -0.0001 49.8343 0.0000
# 6 0.0000 0.0000 0.0000 2.7385 0.0000 16.9612
#
#
#
# Elastic Compliance Matrix: (Units=1/GPa)
#
#
# Indices 1 2 3 4 5 6 
#
# 1 0.008675 -0.003700 -0.000012 0.000000 -0.002653 0.000000
# 2 -0.003700 0.014115 -0.006076 0.000000 -0.000215 0.000000
# 3 -0.000012 -0.006076 0.012976 0.000000 -0.000892 0.000000
# 4 0.000000 0.000000 0.000000 -0.022251 0.000000 0.003593
# 5 -0.002653 -0.000215 -0.000892 0.000000 0.021262 0.000000
# 6 0.000000 0.000000 0.000000 0.003593 0.000000 0.058378
#
#
# Mechanical properties :
#
#
# Convention : Reuss Voigt Hill
#
# Bulk Modulus (GPa) = 61.77618 65.50442 63.64030
# Shear Modulus (GPa) = 42.32707 19.53731 30.93219
#
# Velocity S-wave (km/s) = 4.34100 2.94926 3.71095
# Velocity P-wave (km/s) = 7.25457 6.38439 6.83334
#
# Compressibility (1/GPa) = 0.01618747
#
# Stress axis : x y z
#
# Youngs Moduli (GPa) = 115.27842 70.84848 77.06451
#
# Poissons Ratio (x) = 0.26215 0.00096
# Poissons Ratio (y) = 0.42654 0.46828
# Poissons Ratio (z) = 0.00143 0.43051
#
# Static dielectric constant tensor:
#      x y z
#    x 4.628040 0.000000 -0.031910 
#    y 0.000000 3.989720 0.000000 
#    z -0.031910 0.000000 2.962400 
# 
# 
# High freq. dielectric constant tensor:
#      x y z
#    x 1.906090 0.000000 0.002570 
#    y 0.000000 1.869990 0.000000 
#    z 0.002570 0.000000 1.896420 
# 
# From -- ./inp_files/142194.got.cif
#   From: 2010.06.25/outbox.cif.g09.slc.cpg/sg15_72_cif.got.tgz:142194.got - 2010.06.28 07:06:18.
