data_PCOD8132366
_publ_section_title
;
Structure prediction by ZEFSAII (Michael W. Deem and Ramdas Pophale) SiO2 
 PCOD8132366
Probable space group: C 2/C
;
_chemical_formula_sum "Si O2"
_cell_formula_units_Z 44
_cell_length_a 8.661338
_cell_length_b 10.921278
_cell_length_c 21.509365
_cell_angle_alpha 90.000000
_cell_angle_beta 124.434314
_cell_angle_gamma 90.000000
_cell_volume 1678.114247
_symmetry_space_group_name_H-M "C 2/C"
_symmetry_group_IT_number 15
_symmetry_cell_setting 'monoclinic'
loop_
_space_group_symop_operation_xyz
x,y,z
-x,y,1/2-z
-x,-y,-z
x,-y,1/2+z
1/2+x,1/2+y,z
1/2-x,1/2+y,1/2-z
1/2-x,1/2-y,-z
1/2+x,1/2-y,1/2+z
loop_
_atom_site_type_symbol
_atom_site_label
_atom_site_fract_x
_atom_site_fract_y
_atom_site_fract_z
Si Si1 0.981640 0.577286 0.109345
Si Si2 0.561249 0.339305 0.126184
Si Si3 0.700997 0.784542 0.205561
Si Si4 0.637206 0.492626 0.832163
Si Si5 0.194564 0.661980 0.932353
Si Si6 0.000000 0.588916 0.250000
O O1 0.917768 0.719801 0.097495
O O2 0.180531 0.592416 0.117627
O O3 0.853752 0.473357 0.048363
O O4 0.998061 0.516098 0.183648
O O5 0.743389 0.315991 0.210807
O O6 0.458898 0.464522 0.125282
O O7 0.627239 0.359458 0.071176
O O8 0.786955 0.883600 0.179899
O O9 0.478111 0.772009 0.143631
O O10 0.804467 0.661055 0.208436
O O11 0.500000 0.428074 0.750000
O O12 0.250000 0.750000 0.000000
#
# Coordination Sequence:
#
# PCOD8132366 Si02
#       6
#     8   8   8   8   8   4
#     4  10  22  36  63  91 122 164 203 258 318 370
#     4  10  20  41  63  89 121 161 207 270 312 349
#     4   9  17  38  63  87 125 152 203 273 302 361
#     4   9  17  33  58  92 120 147 200 257 311 368
#     4  11  25  40  60  94 130 171 211 248 318 391
#     4  10  18  36  68  96 116 162 218 264 332 350
#
# _framework density 26.219906999999999
#
# number of rings (size 3 to 8) (size 9 to 14) (size 15 to 20)
#    0.000    2.182    4.545    0.545    7.636    3.636 
#    0.000    4.545    0.000    0.000    0.000    0.000 
#    0.000    0.000    0.000    0.000    0.000    0.000 
#
# Total GULP energy -272537.206043 kJ/mol
# GULP energy per Si atom -12388.054820 kJ/mol
# Density = 2.616023 g / cm^3
# Si number density = 26.219907 Si / 1000 Ang^3
#
#
#
# Elastic Constant Matrix: (Units=GPa)
#
#
# Indices 1 2 3 4 5 6 
#
# 1 98.5319 -10.4020 21.2171 0.0000 -29.6576 0.0000
# 2 -10.4020 25.9438 -16.0345 0.0000 11.1521 0.0000
# 3 21.2171 -16.0345 38.7197 0.0000 -10.0279 0.0000
# 4 0.0000 0.0000 0.0000 22.3275 0.0000 7.2329
# 5 -29.6576 11.1521 -10.0279 0.0000 31.2260 0.0000
# 6 0.0000 0.0000 0.0000 7.2329 0.0000 16.8915
#
#
#
# Elastic Compliance Matrix: (Units=1/GPa)
#
#
# Indices 1 2 3 4 5 6 
#
# 1 0.015275 -0.003726 -0.006339 0.000000 0.013803 0.000000
# 2 -0.003726 0.057752 0.021487 0.000000 -0.017265 0.000000
# 3 -0.006339 0.021487 0.037795 0.000000 -0.001557 0.000000
# 4 0.000000 0.000000 0.000000 0.052001 0.000000 -0.022267
# 5 0.013803 -0.017265 -0.001557 0.000000 0.050801 0.000000
# 6 0.000000 0.000000 0.000000 -0.022267 0.000000 0.068736
#
#
# Mechanical properties :
#
#
# Convention : Reuss Voigt Hill
#
# Bulk Modulus (GPa) = 7.48139 16.97295 12.22717
# Shear Modulus (GPa) = 16.44347 25.31663 20.88005
#
# Velocity S-wave (km/s) = 2.50699 3.11070 2.82502
# Velocity P-wave (km/s) = 3.35254 4.40333 3.91336
#
# Compressibility (1/GPa) = 0.13366493
#
# Stress axis : x y z
#
# Youngs Moduli (GPa) = 65.46547 17.31548 26.45861
#
# Poissons Ratio (x) = 0.06453 0.16771
# Poissons Ratio (y) = 0.24396 -0.56851
# Poissons Ratio (z) = 0.41496 -0.37205
#
# Static dielectric constant tensor:
#      x y z
#    x 6.218940 0.000000 0.347090 
#    y 0.000000 4.940460 0.000000 
#    z 0.347090 0.000000 4.376760 
# 
# 
# High freq. dielectric constant tensor:
#      x y z
#    x 2.052630 0.000000 -0.021170 
#    y 0.000000 2.060180 0.000000 
#    z -0.021170 0.000000 1.998370 
# 
# From -- ./inp_files/230287.got.cif
#   From: 2010.06.25/outbox.cif.g09.slc.cpg/sg15_116_cif.got.tgz:230287.got - 2010.06.28 07:06:18.
