data_PCOD8132615
_publ_section_title
;
Structure prediction by ZEFSAII (Michael W. Deem and Ramdas Pophale) SiO2 
 PCOD8132615
Probable space group: C 2/C
;
_chemical_formula_sum "Si O2"
_cell_formula_units_Z 60
_cell_length_a 17.661799
_cell_length_b 18.764693
_cell_length_c 9.786365
_cell_angle_alpha 90.000000
_cell_angle_beta 75.581962
_cell_angle_gamma 90.000000
_cell_volume 3141.228994
_symmetry_space_group_name_H-M "C 2/C"
_symmetry_group_IT_number 15
_symmetry_cell_setting 'monoclinic'
loop_
_space_group_symop_operation_xyz
x,y,z
-x,y,1/2-z
-x,-y,-z
x,-y,1/2+z
1/2+x,1/2+y,z
1/2-x,1/2+y,1/2-z
1/2-x,1/2-y,-z
1/2+x,1/2-y,1/2+z
loop_
_atom_site_type_symbol
_atom_site_label
_atom_site_fract_x
_atom_site_fract_y
_atom_site_fract_z
Si Si1 0.582784 0.132308 0.752159
Si Si2 0.275021 0.722896 0.154275
Si Si3 0.270848 0.953467 0.230301
Si Si4 0.900405 0.313201 0.966082
Si Si5 0.288845 0.081760 0.415378
Si Si6 0.000000 0.790745 0.250000
Si Si7 0.149080 0.829678 0.328282
Si Si8 0.337266 0.260723 0.908943
O O1 0.500000 0.096595 0.750000
O O2 0.648681 0.073911 0.742154
O O3 0.612655 0.187746 0.623170
O O4 0.564583 0.168782 0.903844
O O5 0.268453 0.647429 0.084214
O O6 0.195332 0.761921 0.242281
O O7 0.332270 0.708361 0.257826
O O8 0.316046 0.774723 0.025602
O O9 0.199580 0.901924 0.304446
O O10 0.268119 0.031419 0.297083
O O11 0.271580 0.958846 0.065653
O O12 0.877289 0.383744 0.885265
O O13 0.964563 0.262204 0.876364
O O14 0.932265 0.840537 0.216644
O O15 0.124166 0.813374 0.496892
O O16 0.250000 0.250000 0.000000
#
# Coordination Sequence:
#
# PCOD8132615 Si02
#       8
#     8   8   8   8   8   4   8   8
#     4  10  19  37  56  83 123 160 189 247 307 364
#     4  10  18  38  67  82 117 157 209 253 303 353
#     4  11  24  39  58  86 127 161 209 241 315 370
#     4  10  20  38  57  89 115 153 207 248 309 355
#     4  11  22  38  60  89 117 169 201 252 298 376
#     4  12  22  32  64  94 116 154 206 274 292 356
#     4  11  20  37  60  93 121 153 206 258 305 362
#     4   9  17  31  59  89 112 146 198 257 297 351
#
# _framework density 19.100804
#
# number of rings (size 3 to 8) (size 9 to 14) (size 15 to 20)
#    0.000    1.600    6.667    2.000    1.867    0.000 
#    3.600    1.333    0.000    3.200    1.733    0.000 
#    0.000    0.000    0.000    0.000    0.000    0.000 
#
# Total GULP energy -371651.580214 kJ/mol
# GULP energy per Si atom -12388.386007 kJ/mol
# Density = 1.905733 g / cm^3
# Si number density = 19.100804 Si / 1000 Ang^3
#
#
#
# Elastic Constant Matrix: (Units=GPa)
#
#
# Indices 1 2 3 4 5 6 
#
# 1 109.8715 44.2300 28.4822 0.0000 7.5842 0.0000
# 2 44.2300 76.2278 31.1112 0.0000 11.7394 0.0000
# 3 28.4822 31.1112 64.3068 0.0000 5.6345 0.0000
# 4 0.0000 0.0000 0.0000 27.8422 0.0000 14.7738
# 5 7.5842 11.7394 5.6345 0.0000 18.2903 0.0000
# 6 0.0000 0.0000 0.0000 14.7738 0.0000 15.3579
#
#
#
# Elastic Compliance Matrix: (Units=1/GPa)
#
#
# Indices 1 2 3 4 5 6 
#
# 1 0.012184 -0.005999 -0.002455 0.000000 -0.000445 0.000000
# 2 -0.005999 0.020618 -0.006553 0.000000 -0.008727 0.000000
# 3 -0.002455 -0.006553 0.019887 0.000000 -0.000902 0.000000
# 4 0.000000 0.000000 0.000000 0.073366 0.000000 -0.070576
# 5 -0.000445 -0.008727 -0.000902 0.000000 0.060738 0.000000
# 6 0.000000 0.000000 0.000000 -0.070576 0.000000 0.133004
#
#
# Mechanical properties :
#
#
# Convention : Reuss Voigt Hill
#
# Bulk Modulus (GPa) = 44.10200 50.89477 47.49839
# Shear Modulus (GPa) = 13.99113 22.07026 18.03069
#
# Velocity S-wave (km/s) = 2.70939 3.40290 3.07575
# Velocity P-wave (km/s) = 5.73820 6.49175 6.12657
#
# Compressibility (1/GPa) = 0.02267471
#
# Stress axis : x y z
#
# Youngs Moduli (GPa) = 82.07777 48.50172 50.28335
#
# Poissons Ratio (x) = 0.29095 0.12345
# Poissons Ratio (y) = 0.49236 0.32952
# Poissons Ratio (z) = 0.20151 0.31784
#
# Static dielectric constant tensor:
#      x y z
#    x 3.606690 0.000000 0.421390 
#    y 0.000000 3.187300 0.000000 
#    z 0.421390 0.000000 4.076710 
# 
# 
# High freq. dielectric constant tensor:
#      x y z
#    x 1.741900 0.000000 0.025590 
#    y 0.000000 1.706780 0.000000 
#    z 0.025590 0.000000 1.753240 
# 
# From -- ./inp_files/106382.got.cif
#   From: 2010.06.25/outbox.cif.g09.slc.cpg/sg15_54_cif.got.tgz:106382.got - 2010.06.28 07:06:18.
