data_PCOD8132805
_publ_section_title
;
Structure prediction by ZEFSAII (Michael W. Deem and Ramdas Pophale) SiO2 
 PCOD8132805
Probable space group: C 2/C
;
_chemical_formula_sum "Si O2"
_cell_formula_units_Z 48
_cell_length_a 20.313643
_cell_length_b 16.823022
_cell_length_c 8.637828
_cell_angle_alpha 90.000000
_cell_angle_beta 47.857340
_cell_angle_gamma 90.000000
_cell_volume 2188.737863
_symmetry_space_group_name_H-M "C 2/C"
_symmetry_group_IT_number 15
_symmetry_cell_setting 'monoclinic'
loop_
_space_group_symop_operation_xyz
x,y,z
-x,y,1/2-z
-x,-y,-z
x,-y,1/2+z
1/2+x,1/2+y,z
1/2-x,1/2+y,1/2-z
1/2-x,1/2-y,-z
1/2+x,1/2-y,1/2+z
loop_
_atom_site_type_symbol
_atom_site_label
_atom_site_fract_x
_atom_site_fract_y
_atom_site_fract_z
Si Si1 0.653264 0.256343 0.228028
Si Si2 0.748631 0.929529 0.992190
Si Si3 0.101839 0.667049 0.615515
Si Si4 0.000000 0.926095 0.750000
Si Si5 0.165722 0.932770 0.324299
Si Si6 0.000000 0.224744 0.750000
Si Si7 0.608920 0.682035 0.303109
O O1 0.646413 0.201740 0.389928
O O2 0.637589 0.348224 0.297556
O O3 0.574627 0.227387 0.233432
O O4 0.750000 0.250000 0.000000
O O5 0.793733 0.854989 0.830922
O O6 0.790212 0.013418 0.876462
O O7 0.646932 0.916337 0.099442
O O8 0.760823 0.922934 0.157317
O O9 0.113021 0.726890 0.742675
O O10 0.000000 0.646714 0.750000
O O11 0.936089 0.869030 0.757729
O O12 0.072141 0.974585 0.531733
O O13 0.056765 0.170585 0.544834
#
# Coordination Sequence:
#
# PCOD8132805 Si02
#       7
#     8   8   8   4   8   4   8
#     4  12  26  42  72 103 141 173 234 289 334 412
#     4  11  27  40  69  94 139 182 219 278 345 414
#     4  12  22  48  70  96 132 183 228 279 343 400
#     4  10  18  43  64  94 133 174 204 280 332 417
#     4  11  25  45  62 102 137 176 227 269 350 408
#     4  12  22  37  68 108 131 168 230 284 340 395
#     4  11  20  39  66 100 133 169 217 269 347 398
#
# _framework density 21.930447999999998
#
# number of rings (size 3 to 8) (size 9 to 14) (size 15 to 20)
#    0.000    0.667    7.500    1.500    7.000    3.333 
#    0.000    0.833    1.833    0.000    0.000    0.000 
#    0.000    0.000    0.000    0.000    0.000    0.000 
#
# Total GULP energy -297419.476575 kJ/mol
# GULP energy per Si atom -12392.478191 kJ/mol
# Density = 2.188053 g / cm^3
# Si number density = 21.930448 Si / 1000 Ang^3
#
#
#
# Elastic Constant Matrix: (Units=GPa)
#
#
# Indices 1 2 3 4 5 6 
#
# 1 118.5671 26.3650 28.5632 0.0000 -6.0950 0.0000
# 2 26.3650 43.6784 4.0713 0.0000 -2.9418 0.0000
# 3 28.5632 4.0713 99.7573 0.0000 0.9467 0.0000
# 4 0.0000 0.0000 0.0000 27.1647 0.0000 -4.2168
# 5 -6.0950 -2.9418 0.9467 0.0000 33.2890 0.0000
# 6 0.0000 0.0000 0.0000 -4.2168 0.0000 20.1310
#
#
#
# Elastic Compliance Matrix: (Units=1/GPa)
#
#
# Indices 1 2 3 4 5 6 
#
# 1 0.010510 -0.005986 -0.002779 0.000000 0.001474 0.000000
# 2 -0.005986 0.026533 0.000619 0.000000 0.001231 0.000000
# 3 -0.002779 0.000619 0.010802 0.000000 -0.000761 0.000000
# 4 0.000000 0.000000 0.000000 0.038050 0.000000 0.007970
# 5 0.001474 0.001231 -0.000761 0.000000 0.030440 0.000000
# 6 0.000000 0.000000 0.000000 0.007970 0.000000 0.051344
#
#
# Mechanical properties :
#
#
# Convention : Reuss Voigt Hill
#
# Bulk Modulus (GPa) = 31.69154 42.22240 36.95697
# Shear Modulus (GPa) = 25.70842 29.65050 27.67946
#
# Velocity S-wave (km/s) = 3.42756 3.68098 3.55653
# Velocity P-wave (km/s) = 5.49058 6.11235 5.80979
#
# Compressibility (1/GPa) = 0.03155417
#
# Stress axis : x y z
#
# Youngs Moduli (GPa) = 95.14407 37.68892 92.57538
#
# Poissons Ratio (x) = 0.22560 0.25728
# Poissons Ratio (y) = 0.56952 -0.05734
# Poissons Ratio (z) = 0.26442 -0.02334
#
# Static dielectric constant tensor:
#      x y z
#    x 3.416430 0.000000 0.684600 
#    y 0.000000 3.536980 0.000000 
#    z 0.684600 0.000000 3.667660 
# 
# 
# High freq. dielectric constant tensor:
#      x y z
#    x 1.881920 0.000000 0.000860 
#    y 0.000000 1.809400 0.000000 
#    z 0.000860 0.000000 1.874520 
# 
# From -- ./inp_files/56455.got.cif
#   From: 2010.06.25/outbox.cif.g09.slc.cpg/sg15_29_cif.got.tgz:56455.got - 2010.06.28 07:06:18.
