data_PCOD8132578
_publ_section_title
;
Structure prediction by ZEFSAII (Michael W. Deem and Ramdas Pophale) SiO2 
 PCOD8132578
Probable space group: C 2/C
;
_chemical_formula_sum "Si O2"
_cell_formula_units_Z 56
_cell_length_a 11.538222
_cell_length_b 18.990794
_cell_length_c 16.643337
_cell_angle_alpha 90.000000
_cell_angle_beta 128.220890
_cell_angle_gamma 90.000000
_cell_volume 2865.109580
_symmetry_space_group_name_H-M "C 2/C"
_symmetry_group_IT_number 15
_symmetry_cell_setting 'monoclinic'
loop_
_space_group_symop_operation_xyz
x,y,z
-x,y,1/2-z
-x,-y,-z
x,-y,1/2+z
1/2+x,1/2+y,z
1/2-x,1/2+y,1/2-z
1/2-x,1/2-y,-z
1/2+x,1/2-y,1/2+z
loop_
_atom_site_type_symbol
_atom_site_label
_atom_site_fract_x
_atom_site_fract_y
_atom_site_fract_z
Si Si1 0.839367 0.622480 0.172655
Si Si2 0.490922 0.853683 0.406934
Si Si3 0.107767 0.493858 0.199929
Si Si4 0.311083 0.657407 0.111267
Si Si5 0.130925 0.584941 0.484793
Si Si6 0.662534 0.500648 0.326442
Si Si7 0.882794 0.206602 0.308074
O O1 0.859050 0.537454 0.203428
O O2 0.800915 0.627703 0.061588
O O3 0.719483 0.663214 0.173720
O O4 0.000000 0.659051 0.250000
O O5 0.664218 0.835949 0.494272
O O6 0.413920 0.867912 0.459223
O O7 0.398854 0.787949 0.336268
O O8 0.476553 0.917906 0.335041
O O9 0.263055 0.477960 0.224932
O O10 0.018837 0.545526 0.103023
O O11 0.333812 0.583495 0.163531
O O12 0.309524 0.709070 0.187968
O O13 0.454166 0.672212 0.117843
O O14 0.257607 0.530412 0.561722
O O15 0.500000 0.469524 0.250000
#
# Coordination Sequence:
#
# PCOD8132578 Si02
#       7
#     8   8   8   8   8   8   8
#     4  10  20  39  62  87 117 154 197 244 295 350
#     4  11  21  38  63  88 115 158 202 239 291 359
#     4  10  18  38  64  86 110 153 205 245 282 355
#     4  11  19  39  60  81 119 157 192 239 295 350
#     4  10  20  36  62  86 115 152 203 243 291 351
#     4  11  17  33  62  84 111 153 198 240 295 345
#     4  11  23  37  58  88 121 157 193 238 302 354
#
# _framework density 19.545501000000002
#
# number of rings (size 3 to 8) (size 9 to 14) (size 15 to 20)
#    0.000    1.429    5.714    2.143    0.000    0.571 
#    7.714    8.571    0.000    0.000    0.000    0.000 
#    0.000    0.000    0.000    0.000    0.000    0.000 
#
# Total GULP energy -346949.279843 kJ/mol
# GULP energy per Si atom -12391.045709 kJ/mol
# Density = 1.950101 g / cm^3
# Si number density = 19.545501 Si / 1000 Ang^3
#
#
#
# Elastic Constant Matrix: (Units=GPa)
#
#
# Indices 1 2 3 4 5 6 
#
# 1 117.7490 29.2879 26.4858 0.0000 9.3011 0.0000
# 2 29.2879 95.5880 23.7610 0.0000 5.8537 0.0000
# 3 26.4858 23.7610 45.4793 0.0000 11.1627 0.0000
# 4 0.0000 0.0000 0.0000 26.5129 0.0000 4.9972
# 5 9.3011 5.8537 11.1627 0.0000 26.5266 0.0000
# 6 0.0000 0.0000 0.0000 4.9972 0.0000 13.8286
#
#
#
# Elastic Compliance Matrix: (Units=1/GPa)
#
#
# Indices 1 2 3 4 5 6 
#
# 1 0.010088 -0.001874 -0.004605 0.000000 -0.001186 0.000000
# 2 -0.001874 0.012371 -0.005424 0.000000 0.000209 0.000000
# 3 -0.004605 -0.005424 0.029902 0.000000 -0.009772 0.000000
# 4 0.000000 0.000000 0.000000 0.040474 0.000000 -0.014626
# 5 -0.001186 0.000209 -0.009772 0.000000 0.042180 0.000000
# 6 0.000000 0.000000 0.000000 -0.014626 0.000000 0.077599
#
#
# Mechanical properties :
#
#
# Convention : Reuss Voigt Hill
#
# Bulk Modulus (GPa) = 35.01832 46.43175 40.72504
# Shear Modulus (GPa) = 20.33038 25.32572 22.82805
#
# Velocity S-wave (km/s) = 3.22864 3.60353 3.42123
# Velocity P-wave (km/s) = 5.64394 6.41258 6.04050
#
# Compressibility (1/GPa) = 0.02855648
#
# Stress axis : x y z
#
# Youngs Moduli (GPa) = 99.12578 80.83422 33.44276
#
# Poissons Ratio (x) = 0.15146 0.15401
# Poissons Ratio (y) = 0.18573 0.18138
# Poissons Ratio (z) = 0.45648 0.43841
#
# Static dielectric constant tensor:
#      x y z
#    x 3.709930 0.000000 0.077300 
#    y 0.000000 3.475480 0.000000 
#    z 0.077300 0.000000 3.673580 
# 
# 
# High freq. dielectric constant tensor:
#      x y z
#    x 1.770240 0.000000 0.002580 
#    y 0.000000 1.742190 0.000000 
#    z 0.002580 0.000000 1.753270 
# 
# From -- ./inp_files/199590.got.cif
#   From: 2010.06.25/outbox.cif.g09.slc.cpg/sg15_100_cif.got.tgz:199590.got - 2010.06.28 07:06:18.
