data_PCOD8132134
_publ_section_title
;
Structure prediction by ZEFSAII (Michael W. Deem and Ramdas Pophale) SiO2 
 PCOD8132134
Probable space group: C 2/C
;
_chemical_formula_sum "Si O2"
_cell_formula_units_Z 52
_cell_length_a 13.470896
_cell_length_b 18.960902
_cell_length_c 15.769399
_cell_angle_alpha 90.000000
_cell_angle_beta 142.858369
_cell_angle_gamma 90.000000
_cell_volume 2431.949932
_symmetry_space_group_name_H-M "C 2/C"
_symmetry_group_IT_number 15
_symmetry_cell_setting 'monoclinic'
loop_
_space_group_symop_operation_xyz
x,y,z
-x,y,1/2-z
-x,-y,-z
x,-y,1/2+z
1/2+x,1/2+y,z
1/2-x,1/2+y,1/2-z
1/2-x,1/2-y,-z
1/2+x,1/2-y,1/2+z
loop_
_atom_site_type_symbol
_atom_site_label
_atom_site_fract_x
_atom_site_fract_y
_atom_site_fract_z
Si Si1 0.828338 0.462803 0.788002
Si Si2 0.500000 0.905556 0.750000
Si Si3 0.542911 0.107460 0.577876
Si Si4 0.064984 0.138741 0.163915
Si Si5 0.198538 0.751864 0.640039
Si Si6 0.553934 0.773006 0.872490
Si Si7 0.240676 0.827754 0.953569
O O1 0.645417 0.434518 0.685984
O O2 0.874875 0.451165 0.721114
O O3 0.837112 0.546575 0.806153
O O4 0.953564 0.421131 0.933631
O O5 0.605488 0.853282 0.883359
O O6 0.660414 0.171381 0.633334
O O7 0.416251 0.132883 0.565362
O O8 0.062835 0.196113 0.086815
O O9 0.164251 0.176152 0.307816
O O10 0.877635 0.124770 0.066277
O O11 0.374482 0.776115 0.797771
O O12 0.188640 0.761079 0.528415
O O13 0.500000 0.728704 0.750000
O O14 0.250000 0.750000 0.000000
#
# Coordination Sequence:
#
# PCOD8132134 Si02
#       7
#     8   4   8   8   8   8   8
#     4  10  20  38  56  83 114 163 193 244 294 369
#     4  10  18  36  56  84 116 152 204 240 300 356
#     4  10  20  36  61  82 116 156 205 235 301 368
#     4  10  20  34  60  84 126 152 199 246 315 352
#     4  12  19  37  60  92 118 158 196 258 303 358
#     4  10  21  33  61  87 118 153 205 250 302 351
#     4  10  19  35  58  91 118 156 196 257 303 361
#
# _framework density 21.382019
#
# number of rings (size 3 to 8) (size 9 to 14) (size 15 to 20)
#    0.462    1.231    4.615    1.385    0.000    0.000 
#    2.769    0.000   13.538    1.846    0.000    0.000 
#    0.000    0.000    0.000    0.000    0.000    0.000 
#
# Total GULP energy -322129.558135 kJ/mol
# GULP energy per Si atom -12389.598390 kJ/mol
# Density = 2.133335 g / cm^3
# Si number density = 21.382019 Si / 1000 Ang^3
#
#
#
# Elastic Constant Matrix: (Units=GPa)
#
#
# Indices 1 2 3 4 5 6 
#
# 1 126.2048 65.7130 21.7476 0.0004 -6.7346 0.0006
# 2 65.7130 135.0196 28.7473 -0.0008 -1.5018 -0.0002
# 3 21.7476 28.7473 55.9776 -0.0008 0.5153 -0.0003
# 4 0.0004 -0.0008 -0.0008 20.7483 0.0001 1.6512
# 5 -6.7346 -1.5018 0.5153 0.0001 28.2034 0.0003
# 6 0.0006 -0.0002 -0.0003 1.6512 0.0003 31.7149
#
#
#
# Elastic Compliance Matrix: (Units=1/GPa)
#
#
# Indices 1 2 3 4 5 6 
#
# 1 0.010907 -0.004912 -0.001737 0.000000 0.002375 0.000000
# 2 -0.004912 0.010536 -0.003497 0.000000 -0.000548 0.000000
# 3 -0.001737 -0.003497 0.020344 0.000001 -0.000973 0.000000
# 4 0.000000 0.000000 0.000001 0.048397 0.000000 -0.002520
# 5 0.002375 -0.000548 -0.000973 0.000000 0.036012 0.000000
# 6 0.000000 0.000000 0.000000 -0.002520 0.000000 0.031662
#
#
# Mechanical properties :
#
#
# Convention : Reuss Voigt Hill
#
# Bulk Modulus (GPa) = 46.52316 61.06864 53.79590
# Shear Modulus (GPa) = 26.98098 29.53292 28.25695
#
# Velocity S-wave (km/s) = 3.55611 3.72049 3.63923
# Velocity P-wave (km/s) = 6.21824 6.86140 6.54772
#
# Compressibility (1/GPa) = 0.02149467
#
# Stress axis : x y z
#
# Youngs Moduli (GPa) = 91.68067 94.91612 49.15489
#
# Poissons Ratio (x) = 0.46626 0.08537
# Poissons Ratio (y) = 0.45037 0.17190
# Poissons Ratio (z) = 0.15922 0.33192
#
# Static dielectric constant tensor:
#      x y z
#    x 4.453660 0.000000 -0.062800 
#    y 0.000000 3.613520 0.000000 
#    z -0.062800 0.000000 3.605880 
# 
# 
# High freq. dielectric constant tensor:
#      x y z
#    x 1.873130 0.000000 -0.009630 
#    y 0.000000 1.810270 0.000000 
#    z -0.009630 0.000000 1.806270 
# 
# From -- ./inp_files/155555.got.cif
#   From: 2010.06.25/outbox.cif.g09.slc.cpg/sg15_78_cif.got.tgz:155555.got - 2010.06.28 07:06:18.
