data_PCOD8132588
_publ_section_title
;
Structure prediction by ZEFSAII (Michael W. Deem and Ramdas Pophale) SiO2 
 PCOD8132588
Probable space group: C 2/C
;
_chemical_formula_sum "Si O2"
_cell_formula_units_Z 64
_cell_length_a 17.079252
_cell_length_b 8.291837
_cell_length_c 21.513292
_cell_angle_alpha 90.000000
_cell_angle_beta 91.404968
_cell_angle_gamma 90.000000
_cell_volume 3045.761495
_symmetry_space_group_name_H-M "C 2/C"
_symmetry_group_IT_number 15
_symmetry_cell_setting 'monoclinic'
loop_
_space_group_symop_operation_xyz
x,y,z
-x,y,1/2-z
-x,-y,-z
x,-y,1/2+z
1/2+x,1/2+y,z
1/2-x,1/2+y,1/2-z
1/2-x,1/2-y,-z
1/2+x,1/2-y,1/2+z
loop_
_atom_site_type_symbol
_atom_site_label
_atom_site_fract_x
_atom_site_fract_y
_atom_site_fract_z
Si Si1 0.408080 0.704404 0.432741
Si Si2 0.297333 0.982901 0.252435
Si Si3 0.068325 0.716453 0.796746
Si Si4 0.937573 0.682245 0.300846
Si Si5 0.991658 0.975894 0.143996
Si Si6 0.512559 0.017541 0.904733
Si Si7 0.261577 0.728457 0.344784
Si Si8 0.378428 0.252604 0.066478
O O1 0.463937 0.559245 0.412543
O O2 0.460895 0.863286 0.445626
O O3 0.348328 0.733330 0.375106
O O4 0.367109 0.664226 0.498308
O O5 0.347783 0.826073 0.231271
O O6 0.246856 0.896725 0.306148
O O7 0.351219 0.132036 0.276641
O O8 0.245950 0.065071 0.197109
O O9 0.000000 0.653958 0.750000
O O10 0.066515 0.620914 0.860445
O O11 0.054470 0.904269 0.810780
O O12 0.945473 0.873982 0.313958
O O13 0.952687 0.594149 0.365962
O O14 0.000000 0.629016 0.250000
O O15 0.925939 0.860842 0.115243
O O16 0.573796 0.912358 0.945333
O O17 0.204050 0.718663 0.402581
#
# Coordination Sequence:
#
# PCOD8132588 Si02
#       8
#     8   8   8   8   8   8   8   8
#     4  11  23  44  65  93 128 171 222 270 318 385
#     4  12  23  40  62  89 146 168 216 258 340 401
#     4  11  18  37  62  95 129 163 208 272 319 392
#     4  11  18  37  62  95 129 163 208 272 319 392
#     4  10  24  36  68  96 124 163 223 262 332 376
#     4  10  18  38  64  94 116 167 221 260 322 374
#     4  12  27  40  64  96 131 178 206 274 328 392
#     4  11  23  44  65  93 128 171 222 270 318 385
#
# _framework density 21.012806999999999
#
# number of rings (size 3 to 8) (size 9 to 14) (size 15 to 20)
#    0.000    1.000    5.000    3.000    3.500    0.000 
#    0.000    0.000    0.000    1.500    0.000    0.000 
#    0.000    0.000    0.000    0.000    0.000    0.000 
#
# Total GULP energy -396640.536909 kJ/mol
# GULP energy per Si atom -12395.016778 kJ/mol
# Density = 2.096498 g / cm^3
# Si number density = 21.012807 Si / 1000 Ang^3
#
#
#
# Elastic Constant Matrix: (Units=GPa)
#
#
# Indices 1 2 3 4 5 6 
#
# 1 57.2332 18.2061 6.9376 0.0000 -6.0494 0.0000
# 2 18.2061 109.0501 17.6997 0.0000 -3.5500 0.0000
# 3 6.9376 17.6997 75.3370 0.0000 -12.9272 0.0000
# 4 0.0000 0.0000 0.0000 18.6082 0.0000 -2.0518
# 5 -6.0494 -3.5500 -12.9272 0.0000 20.3244 0.0000
# 6 0.0000 0.0000 0.0000 -2.0518 0.0000 7.2657
#
#
#
# Elastic Compliance Matrix: (Units=1/GPa)
#
#
# Indices 1 2 3 4 5 6 
#
# 1 0.018970 -0.002973 -0.000189 0.000000 0.005007 0.000000
# 2 -0.002973 0.010001 -0.002164 0.000000 -0.000515 0.000000
# 3 -0.000189 -0.002164 0.015407 0.000000 0.009365 0.000000
# 4 0.000000 0.000000 0.000000 0.055467 0.000000 0.015664
# 5 0.005007 -0.000515 0.009365 0.000000 0.056559 0.000000
# 6 0.000000 0.000000 0.000000 0.015664 0.000000 0.142056
#
#
# Mechanical properties :
#
#
# Convention : Reuss Voigt Hill
#
# Bulk Modulus (GPa) = 29.65224 36.36744 33.00984
# Shear Modulus (GPa) = 15.60769 22.49146 19.04958
#
# Velocity S-wave (km/s) = 2.72834 3.27520 3.01420
# Velocity P-wave (km/s) = 4.90584 5.62560 5.27800
#
# Compressibility (1/GPa) = 0.03372427
#
# Stress axis : x y z
#
# Youngs Moduli (GPa) = 52.71378 99.98983 64.90765
#
# Poissons Ratio (x) = 0.29731 0.01228
# Poissons Ratio (y) = 0.15674 0.14047
# Poissons Ratio (z) = 0.00998 0.21639
#
# Static dielectric constant tensor:
#      x y z
#    x 3.562460 0.000000 -0.061180 
#    y 0.000000 3.931840 0.000000 
#    z -0.061180 0.000000 3.710310 
# 
# 
# High freq. dielectric constant tensor:
#      x y z
#    x 1.803090 0.000000 -0.005480 
#    y 0.000000 1.828130 0.000000 
#    z -0.005480 0.000000 1.825810 
# 
# From -- ./inp_files/247467.got.cif
#   From: 2010.06.25/outbox.cif.g09.slc.cpg/sg15_124_cif.got.tgz:247467.got - 2010.06.28 07:06:18.
