data_PCOD8132459
_publ_section_title
;
Structure prediction by ZEFSAII (Michael W. Deem and Ramdas Pophale) SiO2 
 PCOD8132459
Probable space group: C 2/C
;
_chemical_formula_sum "Si O2"
_cell_formula_units_Z 60
_cell_length_a 20.096309
_cell_length_b 19.356106
_cell_length_c 9.340002
_cell_angle_alpha 90.000000
_cell_angle_beta 135.912850
_cell_angle_gamma 90.000000
_cell_volume 2527.758331
_symmetry_space_group_name_H-M "C 2/C"
_symmetry_group_IT_number 15
_symmetry_cell_setting 'monoclinic'
loop_
_space_group_symop_operation_xyz
x,y,z
-x,y,1/2-z
-x,-y,-z
x,-y,1/2+z
1/2+x,1/2+y,z
1/2-x,1/2+y,1/2-z
1/2-x,1/2-y,-z
1/2+x,1/2-y,1/2+z
loop_
_atom_site_type_symbol
_atom_site_label
_atom_site_fract_x
_atom_site_fract_y
_atom_site_fract_z
Si Si1 0.000000 0.205033 0.750000
Si Si2 0.128393 0.576550 0.264228
Si Si3 0.987756 0.707404 0.499431
Si Si4 0.749327 0.138005 0.982579
Si Si5 0.356042 0.410950 0.081656
Si Si6 0.154031 0.447774 0.124428
Si Si7 0.859838 0.744807 0.532906
Si Si8 0.835225 0.987465 0.781868
O O1 0.029984 0.253762 0.927344
O O2 0.908600 0.162278 0.665019
O O3 0.047912 0.630515 0.091444
O O4 0.240037 0.598404 0.411289
O O5 0.102130 0.508677 0.132029
O O6 0.104957 0.565485 0.395887
O O7 0.894109 0.745376 0.421993
O O8 0.065089 0.710642 0.742950
O O9 0.661167 0.121786 0.734848
O O10 0.727378 0.190706 0.079685
O O11 0.834472 0.175776 0.027850
O O12 0.779024 0.064191 0.089825
O O13 0.393719 0.459349 0.271306
O O14 0.394716 0.444359 0.991156
O O15 0.263410 0.468413 0.266711
#
# Coordination Sequence:
#
# PCOD8132459 Si02
#       8
#     4   8   8   8   8   8   8   8
#     4  12  28  42  58  94 142 170 230 272 334 398
#     4  10  22  42  72  97 131 173 224 281 343 401
#     4  11  26  46  62  94 139 179 225 275 329 406
#     4  11  20  40  74  99 129 170 232 272 338 408
#     4  10  22  39  63  97 127 175 216 283 336 398
#     4  10  19  36  69 103 126 164 224 277 333 403
#     4  10  25  43  69  94 131 185 220 276 334 404
#     4  10  18  37  64  94 129 162 216 273 331 399
#
# _framework density 23.736446000000001
#
# number of rings (size 3 to 8) (size 9 to 14) (size 15 to 20)
#    0.000    1.600    4.000    2.400    5.600    2.133 
#    0.000    2.000    2.933    0.000    0.000    0.000 
#    0.000    0.000    0.000    0.000    0.000    0.000 
#
# Total GULP energy -371724.514010 kJ/mol
# GULP energy per Si atom -12390.817134 kJ/mol
# Density = 2.368242 g / cm^3
# Si number density = 23.736446 Si / 1000 Ang^3
#
#
#
# Elastic Constant Matrix: (Units=GPa)
#
#
# Indices 1 2 3 4 5 6 
#
# 1 58.7197 33.4144 17.8369 0.0000 -22.8091 0.0000
# 2 33.4144 101.3586 32.4410 0.0000 -6.4631 0.0000
# 3 17.8369 32.4410 71.0659 0.0000 -27.4353 0.0000
# 4 0.0000 0.0000 0.0000 32.2142 0.0000 -9.2874
# 5 -22.8091 -6.4631 -27.4353 0.0000 39.9042 0.0000
# 6 0.0000 0.0000 0.0000 -9.2874 0.0000 20.6642
#
#
#
# Elastic Compliance Matrix: (Units=1/GPa)
#
#
# Indices 1 2 3 4 5 6 
#
# 1 0.027757 -0.009295 0.003839 0.000000 0.017000 0.000000
# 2 -0.009295 0.014837 -0.007573 0.000000 -0.008117 0.000000
# 3 0.003839 -0.007573 0.023059 0.000000 0.016822 0.000000
# 4 0.000000 0.000000 0.000000 0.035663 0.000000 0.016029
# 5 0.017000 -0.008117 0.016822 0.000000 0.045028 0.000000
# 6 0.000000 0.000000 0.000000 0.016029 0.000000 0.055597
#
#
# Mechanical properties :
#
#
# Convention : Reuss Voigt Hill
#
# Bulk Modulus (GPa) = 25.25647 44.28098 34.76872
# Shear Modulus (GPa) = 20.72996 28.38664 24.55830
#
# Velocity S-wave (km/s) = 2.95844 3.46194 3.22005
# Velocity P-wave (km/s) = 4.72581 5.88862 5.33897
#
# Compressibility (1/GPa) = 0.03959382
#
# Stress axis : x y z
#
# Youngs Moduli (GPa) = 36.02742 67.40061 43.36683
#
# Poissons Ratio (x) = 0.62651 -0.16650
# Poissons Ratio (y) = 0.33488 0.32843
# Poissons Ratio (z) = -0.13832 0.51045
#
# Static dielectric constant tensor:
#      x y z
#    x 4.661270 0.000000 -0.448990 
#    y 0.000000 4.178840 0.000000 
#    z -0.448990 0.000000 4.061510 
# 
# 
# High freq. dielectric constant tensor:
#      x y z
#    x 1.946440 0.000000 -0.025250 
#    y 0.000000 1.941200 0.000000 
#    z -0.025250 0.000000 1.925750 
# 
# From -- ./inp_files/58116.got.cif
#   From: 2010.06.25/outbox.cif.g09.slc.cpg/sg15_30_cif.got.tgz:58116.got - 2010.06.28 07:06:18.
