data_PCOD8132469
_publ_section_title
;
Structure prediction by ZEFSAII (Michael W. Deem and Ramdas Pophale) SiO2 
 PCOD8132469
Probable space group: C 2/C
;
_chemical_formula_sum "Si O2"
_cell_formula_units_Z 48
_cell_length_a 14.723011
_cell_length_b 11.734455
_cell_length_c 16.437008
_cell_angle_alpha 90.000000
_cell_angle_beta 54.831112
_cell_angle_gamma 90.000000
_cell_volume 2321.387603
_symmetry_space_group_name_H-M "C 2/C"
_symmetry_group_IT_number 15
_symmetry_cell_setting 'monoclinic'
loop_
_space_group_symop_operation_xyz
x,y,z
-x,y,1/2-z
-x,-y,-z
x,-y,1/2+z
1/2+x,1/2+y,z
1/2-x,1/2+y,1/2-z
1/2-x,1/2-y,-z
1/2+x,1/2-y,1/2+z
loop_
_atom_site_type_symbol
_atom_site_label
_atom_site_fract_x
_atom_site_fract_y
_atom_site_fract_z
Si Si1 0.693849 0.924929 0.067350
Si Si2 0.188070 0.690835 0.243355
Si Si3 0.000000 0.453588 0.750000
Si Si4 0.500000 0.593189 0.250000
Si Si5 0.232537 0.197681 0.123439
Si Si6 0.186520 0.841514 0.978518
Si Si7 0.969162 0.123743 0.678235
O O1 0.741519 0.834851 0.109300
O O2 0.570782 0.966814 0.153484
O O3 0.775882 0.031679 0.018342
O O4 0.688250 0.864115 0.982637
O O5 0.083500 0.618761 0.263879
O O6 0.231982 0.648105 0.307484
O O7 0.290639 0.686129 0.127661
O O8 0.150507 0.821774 0.279808
O O9 0.603714 0.669838 0.171477
O O10 0.534523 0.513257 0.309768
O O11 0.250000 0.750000 0.000000
O O12 0.055662 0.835189 0.064490
O O13 0.000000 0.178996 0.750000
#
# Coordination Sequence:
#
# PCOD8132469 Si02
#       7
#     8   8   4   4   8   8   8
#     4  10  22  43  64  89 133 175 205 268 321 388
#     4  11  23  40  64 101 124 166 217 272 315 390
#     4  10  20  42  66  88 130 167 217 260 316 372
#     4  10  20  42  66  86 128 179 207 262 316 388
#     4  11  24  42  64  93 134 169 214 256 335 387
#     4  11  19  40  67  92 127 169 213 269 321 367
#     4  10  18  37  65  89 123 162 213 263 316 367
#
# _framework density 20.677288000000001
#
# number of rings (size 3 to 8) (size 9 to 14) (size 15 to 20)
#    0.500    1.000    4.167    1.500    0.000    3.333 
#    9.000    1.667    0.000    0.000    0.000    0.000 
#    0.000    0.000    0.000    0.000    0.000    0.000 
#
# Total GULP energy -297467.312635 kJ/mol
# GULP energy per Si atom -12394.471360 kJ/mol
# Density = 2.063023 g / cm^3
# Si number density = 20.677288 Si / 1000 Ang^3
#
#
#
# Elastic Constant Matrix: (Units=GPa)
#
#
# Indices 1 2 3 4 5 6 
#
# 1 61.4275 27.7850 42.1484 0.0000 15.4478 0.0000
# 2 27.7850 116.7563 36.1232 0.0000 2.2385 0.0000
# 3 42.1484 36.1232 149.2448 0.0000 6.2817 0.0000
# 4 0.0000 0.0000 0.0000 31.8307 0.0000 -5.0064
# 5 15.4478 2.2385 6.2817 0.0000 34.1817 0.0000
# 6 0.0000 0.0000 0.0000 -5.0064 0.0000 15.4871
#
#
#
# Elastic Compliance Matrix: (Units=1/GPa)
#
#
# Indices 1 2 3 4 5 6 
#
# 1 0.024247 -0.003883 -0.005500 0.000000 -0.009693 0.000000
# 2 -0.003883 0.009881 -0.001352 0.000000 0.001356 0.000000
# 3 -0.005500 -0.001352 0.008539 0.000000 0.001005 0.000000
# 4 0.000000 0.000000 0.000000 0.033099 0.000000 0.010700
# 5 -0.009693 0.001356 0.001005 0.000000 0.033362 0.000000
# 6 0.000000 0.000000 0.000000 0.010700 0.000000 0.068029
#
#
# Mechanical properties :
#
#
# Convention : Reuss Voigt Hill
#
# Bulk Modulus (GPa) = 47.17611 59.94907 53.56259
# Shear Modulus (GPa) = 24.30819 31.05805 27.68312
#
# Velocity S-wave (km/s) = 3.43242 3.87982 3.66296
# Velocity P-wave (km/s) = 6.21077 7.00901 6.62193
#
# Compressibility (1/GPa) = 0.02119717
#
# Stress axis : x y z
#
# Youngs Moduli (GPa) = 41.24246 101.20238 117.11513
#
# Poissons Ratio (x) = 0.39294 0.64411
# Poissons Ratio (y) = 0.16013 0.15836
# Poissons Ratio (z) = 0.22683 0.13685
#
# Static dielectric constant tensor:
#      x y z
#    x 3.279930 0.000000 -0.145580 
#    y 0.000000 3.851290 0.000000 
#    z -0.145580 0.000000 3.994410 
# 
# 
# High freq. dielectric constant tensor:
#      x y z
#    x 1.766310 0.000000 -0.010250 
#    y 0.000000 1.818140 0.000000 
#    z -0.010250 0.000000 1.826100 
# 
# From -- ./inp_files/210197.got.cif
#   From: 2010.06.25/outbox.cif.g09.slc.cpg/sg15_106_cif.got.tgz:210197.got - 2010.06.28 07:06:18.
