data_PCOD8132708
_publ_section_title
;
Structure prediction by ZEFSAII (Michael W. Deem and Ramdas Pophale) SiO2 
 PCOD8132708
Probable space group: C 2/C
;
_chemical_formula_sum "Si O2"
_cell_formula_units_Z 40
_cell_length_a 15.445156
_cell_length_b 24.272649
_cell_length_c 8.721890
_cell_angle_alpha 90.000000
_cell_angle_beta 30.753103
_cell_angle_gamma 90.000000
_cell_volume 1671.974046
_symmetry_space_group_name_H-M "C 2/C"
_symmetry_group_IT_number 15
_symmetry_cell_setting 'monoclinic'
loop_
_space_group_symop_operation_xyz
x,y,z
-x,y,1/2-z
-x,-y,-z
x,-y,1/2+z
1/2+x,1/2+y,z
1/2-x,1/2+y,1/2-z
1/2-x,1/2-y,-z
1/2+x,1/2-y,1/2+z
loop_
_atom_site_type_symbol
_atom_site_label
_atom_site_fract_x
_atom_site_fract_y
_atom_site_fract_z
Si Si1 0.639054 0.317772 0.255923
Si Si2 0.500000 0.385049 0.750000
Si Si3 0.000000 0.428764 0.250000
Si Si4 0.226656 0.596963 0.157398
Si Si5 0.223436 0.525809 0.665056
Si Si6 0.500000 0.769059 0.750000
Si Si7 0.000000 0.434381 0.750000
O O1 0.540194 0.347209 0.543412
O O2 0.532379 0.265525 0.358181
O O3 0.641233 0.357581 0.101102
O O4 0.826571 0.303586 0.035844
O O5 0.650866 0.425313 0.569996
O O6 0.063792 0.469179 0.290585
O O7 0.850143 0.391653 0.554379
O O8 0.305472 0.535134 0.026464
O O9 0.068411 0.604126 0.281539
O O10 0.160079 0.531093 0.937618
#
# Coordination Sequence:
#
# PCOD8132708 Si02
#       7
#     8   4   4   8   8   4   4
#     4  11  26  49  74  98 130 176 226 286 347 384
#     4  12  28  41  67 107 141 178 210 270 350 402
#     4  10  23  35  65 102 134 189 231 248 304 411
#     4  11  20  38  69  97 141 181 219 263 327 399
#     4  11  22  39  62 105 147 178 222 256 316 420
#     4  10  27  54  74  92 122 169 241 301 334 390
#     4  10  18  40  62  93 143 194 218 257 304 405
#
# _framework density 23.923817
#
# number of rings (size 3 to 8) (size 9 to 14) (size 15 to 20)
#    0.000    1.200    2.000    5.400    5.600    2.400 
#    0.000    4.000    0.000    0.000    0.000    0.000 
#    0.000    0.000    0.000    0.000    0.000    0.000 
#
# Total GULP energy -247837.333175 kJ/mol
# GULP energy per Si atom -12391.866659 kJ/mol
# Density = 2.386937 g / cm^3
# Si number density = 23.923817 Si / 1000 Ang^3
#
#
#
# Elastic Constant Matrix: (Units=GPa)
#
#
# Indices 1 2 3 4 5 6 
#
# 1 74.7135 15.5750 40.5279 0.0002 2.0133 -0.0004
# 2 15.5750 97.6549 69.0177 0.0000 5.6087 0.0000
# 3 40.5279 69.0177 163.0852 0.0005 30.8160 -0.0007
# 4 0.0002 0.0000 0.0005 36.0029 -0.0002 -5.1048
# 5 2.0133 5.6087 30.8160 -0.0002 45.0081 0.0004
# 6 -0.0004 0.0000 -0.0007 -5.1048 0.0004 32.1189
#
#
#
# Elastic Compliance Matrix: (Units=1/GPa)
#
#
# Indices 1 2 3 4 5 6 
#
# 1 0.015693 0.000620 -0.004611 0.000000 0.002378 0.000000
# 2 0.000620 0.014942 -0.007030 0.000000 0.002923 0.000000
# 3 -0.004611 -0.007030 0.011541 0.000000 -0.006820 0.000000
# 4 0.000000 0.000000 0.000000 0.028416 0.000000 0.004516
# 5 0.002378 0.002923 -0.006820 0.000000 0.026417 0.000000
# 6 0.000000 0.000000 0.000000 0.004516 0.000000 0.031852
#
#
# Mechanical properties :
#
#
# Convention : Reuss Voigt Hill
#
# Bulk Modulus (GPa) = 49.67005 65.07720 57.37362
# Shear Modulus (GPa) = 31.72303 36.64816 34.18560
#
# Velocity S-wave (km/s) = 3.64538 3.91816 3.78423
# Velocity P-wave (km/s) = 6.20687 6.90870 6.56717
#
# Compressibility (1/GPa) = 0.02013286
#
# Stress axis : x y z
#
# Youngs Moduli (GPa) = 63.72437 66.92701 86.64518
#
# Poissons Ratio (x) = -0.04147 0.39955
# Poissons Ratio (y) = -0.03949 0.60909
# Poissons Ratio (z) = 0.29385 0.47048
#
# Static dielectric constant tensor:
#      x y z
#    x 4.385670 0.000000 0.064350 
#    y 0.000000 4.302300 0.000000 
#    z 0.064350 0.000000 4.489220 
# 
# 
# High freq. dielectric constant tensor:
#      x y z
#    x 1.954860 0.000000 0.010760 
#    y 0.000000 1.936340 0.000000 
#    z 0.010760 0.000000 1.943620 
# 
# From -- ./inp_files/51690.got.cif
#   From: 2010.06.25/outbox.cif.g09.slc.cpg/sg15_26_cif.got.tgz:51690.got - 2010.06.28 07:06:18.
