data_PCOD8132259
_publ_section_title
;
Structure prediction by ZEFSAII (Michael W. Deem and Ramdas Pophale) SiO2 
 PCOD8132259
Probable space group: C 2/C
;
_chemical_formula_sum "Si O2"
_cell_formula_units_Z 56
_cell_length_a 14.150753
_cell_length_b 12.318834
_cell_length_c 25.332053
_cell_angle_alpha 90.000000
_cell_angle_beta 36.140773
_cell_angle_gamma 90.000000
_cell_volume 2604.372476
_symmetry_space_group_name_H-M "C 2/C"
_symmetry_group_IT_number 15
_symmetry_cell_setting 'monoclinic'
loop_
_space_group_symop_operation_xyz
x,y,z
-x,y,1/2-z
-x,-y,-z
x,-y,1/2+z
1/2+x,1/2+y,z
1/2-x,1/2+y,1/2-z
1/2-x,1/2-y,-z
1/2+x,1/2-y,1/2+z
loop_
_atom_site_type_symbol
_atom_site_label
_atom_site_fract_x
_atom_site_fract_y
_atom_site_fract_z
Si Si1 0.882012 0.087872 0.378798
Si Si2 0.886900 0.710833 0.479158
Si Si3 0.546290 0.405848 0.911841
Si Si4 0.652718 0.365497 0.399504
Si Si5 0.000000 0.267142 0.250000
Si Si6 0.460095 0.025402 0.958497
Si Si7 0.000000 0.087715 0.750000
Si Si8 0.205556 0.695830 0.856935
O O1 0.695163 0.103140 0.475404
O O2 0.970346 0.055745 0.391988
O O3 0.961315 0.194394 0.318372
O O4 0.887469 0.986081 0.337053
O O5 0.750000 0.750000 0.500000
O O6 0.942612 0.589383 0.435398
O O7 0.816426 0.704301 0.569789
O O8 0.042100 0.790905 0.410768
O O9 0.639764 0.507930 0.892596
O O10 0.675240 0.311127 0.843301
O O11 0.410783 0.355027 0.011742
O O12 0.840764 0.336665 0.309590
O O13 0.601785 0.102746 0.873723
O O14 0.500000 0.000000 0.000000
O O15 0.888974 0.163359 0.763599
#
# Coordination Sequence:
#
# PCOD8132259 Si02
#       8
#     8   8   8   8   4   8   4   8
#     4  11  22  38  64  91 125 163 208 262 316 367
#     4  10  19  36  63  92 117 164 207 249 298 387
#     4  10  23  44  61  88 127 172 210 251 308 396
#     4  10  23  41  67  88 131 169 208 256 320 380
#     4  11  24  39  64  96 126 161 209 270 324 368
#     4  10  18  36  61  87 117 160 206 251 300 381
#     4  11  22  37  60  90 124 161 205 274 312 356
#     4  10  22  38  60  88 123 159 202 258 314 359
#
# _framework density 21.502299000000001
#
# number of rings (size 3 to 8) (size 9 to 14) (size 15 to 20)
#    0.000    1.714    2.857    3.429    2.000    4.000 
#    0.000    0.000    0.000    0.000    0.000    0.000 
#    0.000    0.000    0.000    0.000    0.000    0.000 
#
# Total GULP energy -347069.829328 kJ/mol
# GULP energy per Si atom -12395.351047 kJ/mol
# Density = 2.145336 g / cm^3
# Si number density = 21.502299 Si / 1000 Ang^3
#
#
#
# Elastic Constant Matrix: (Units=GPa)
#
#
# Indices 1 2 3 4 5 6 
#
# 1 96.2654 34.6097 27.0321 0.0001 -26.3185 0.0000
# 2 34.6097 139.9129 46.5007 0.0001 -28.2309 0.0000
# 3 27.0321 46.5007 85.2794 0.0006 -47.3734 -0.0001
# 4 0.0001 0.0001 0.0006 23.8685 0.0000 -17.7876
# 5 -26.3185 -28.2309 -47.3734 0.0000 38.7995 0.0000
# 6 0.0000 0.0000 -0.0001 -17.7876 0.0000 30.1675
#
#
#
# Elastic Compliance Matrix: (Units=1/GPa)
#
#
# Indices 1 2 3 4 5 6 
#
# 1 0.013383 -0.002076 0.003399 0.000000 0.011718 0.000000
# 2 -0.002076 0.009087 -0.004371 0.000000 -0.000133 0.000000
# 3 0.003399 -0.004371 0.038995 -0.000002 0.046738 -0.000001
# 4 0.000000 0.000000 -0.000002 0.074736 -0.000002 0.044067
# 5 0.011718 -0.000133 0.046738 -0.000002 0.090691 -0.000001
# 6 0.000000 0.000000 -0.000001 0.044067 -0.000001 0.059131
#
#
# Mechanical properties :
#
#
# Convention : Reuss Voigt Hill
#
# Bulk Modulus (GPa) = 18.06022 59.74920 38.90471
# Shear Modulus (GPa) = 16.09916 32.78812 24.44364
#
# Velocity S-wave (km/s) = 2.73924 3.90919 3.37529
# Velocity P-wave (km/s) = 4.29209 6.94430 5.77258
#
# Compressibility (1/GPa) = 0.05537030
#
# Stress axis : x y z
#
# Youngs Moduli (GPa) = 74.71917 110.05290 25.64427
#
# Poissons Ratio (x) = 0.22846 -0.08717
# Poissons Ratio (y) = 0.15511 0.11208
# Poissons Ratio (z) = -0.25397 0.48099
#
# Static dielectric constant tensor:
#      x y z
#    x 3.607160 0.000000 -0.049340 
#    y 0.000000 4.226320 0.000000 
#    z -0.049340 0.000000 3.460280 
# 
# 
# High freq. dielectric constant tensor:
#      x y z
#    x 1.834570 0.000000 -0.026440 
#    y 0.000000 1.859140 0.000000 
#    z -0.026440 0.000000 1.821870 
# 
# From -- ./inp_files/313755.got.cif
#   From: 2010.06.25/outbox.cif.g09.slc.cpg/sg15_157_cif.got.tgz:313755.got - 2010.06.28 07:06:18.
