data_PCOD8132501
_publ_section_title
;
Structure prediction by ZEFSAII (Michael W. Deem and Ramdas Pophale) SiO2 
 PCOD8132501
Probable space group: C 2/C
;
_chemical_formula_sum "Si O2"
_cell_formula_units_Z 60
_cell_length_a 5.130753
_cell_length_b 32.932103
_cell_length_c 17.976605
_cell_angle_alpha 90.000000
_cell_angle_beta 70.698986
_cell_angle_gamma 90.000000
_cell_volume 2866.724564
_symmetry_space_group_name_H-M "C 2/C"
_symmetry_group_IT_number 15
_symmetry_cell_setting 'monoclinic'
loop_
_space_group_symop_operation_xyz
x,y,z
-x,y,1/2-z
-x,-y,-z
x,-y,1/2+z
1/2+x,1/2+y,z
1/2-x,1/2+y,1/2-z
1/2-x,1/2-y,-z
1/2+x,1/2-y,1/2+z
loop_
_atom_site_type_symbol
_atom_site_label
_atom_site_fract_x
_atom_site_fract_y
_atom_site_fract_z
Si Si1 0.686993 0.420113 0.173190
Si Si2 0.500000 0.139254 0.750000
Si Si3 0.960700 0.452628 0.011514
Si Si4 0.499012 0.267602 0.834463
Si Si5 0.903642 0.765109 0.414148
Si Si6 0.494045 0.405341 0.539830
Si Si7 0.321867 0.358320 0.698537
Si Si8 0.431212 0.351970 0.099731
O O1 0.500000 0.446602 0.250000
O O2 0.900121 0.447042 0.106022
O O3 0.523202 0.393694 0.128658
O O4 0.818196 0.388213 0.215279
O O5 0.326990 0.165514 0.826707
O O6 0.716729 0.434778 0.983824
O O7 0.000000 0.500000 0.000000
O O8 0.242340 0.431221 0.960559
O O9 0.500000 0.252165 0.750000
O O10 0.762782 0.249228 0.851559
O O11 0.529564 0.316104 0.836750
O O12 0.212068 0.252164 0.895979
O O13 0.750000 0.750000 0.500000
O O14 0.866098 0.813901 0.420073
O O15 0.339411 0.388634 0.627170
O O16 0.613865 0.366958 0.480774
O O17 0.500000 0.377041 0.750000
O O18 0.000000 0.351864 0.750000
#
# Coordination Sequence:
#
# PCOD8132501 Si02
#       8
#     8   4   8   8   8   8   8   8
#     4   9  20  37  61  90 125 165 213 254 311 381
#     4  10  18  38  58  88 120 158 216 254 308 368
#     4  11  23  42  67 100 131 170 204 258 329 397
#     4  11  25  42  63  88 126 174 216 269 336 383
#     4  12  26  41  60  93 132 169 220 280 332 388
#     4  11  23  43  69  94 128 170 215 266 319 389
#     4  11  23  44  69  93 125 173 226 274 320 388
#     4  10  23  36  62  90 123 170 216 266 317 379
#
# _framework density 20.929808999999999
#
# number of rings (size 3 to 8) (size 9 to 14) (size 15 to 20)
#    0.000    1.333    1.333    4.400    2.800    4.267 
#    0.000    2.000    0.000    0.000    0.000    0.000 
#    0.000    0.000    0.000    0.000    0.000    0.000 
#
# Total GULP energy -371698.681894 kJ/mol
# GULP energy per Si atom -12389.956063 kJ/mol
# Density = 2.088217 g / cm^3
# Si number density = 20.929809 Si / 1000 Ang^3
#
#
#
# Elastic Constant Matrix: (Units=GPa)
#
#
# Indices 1 2 3 4 5 6 
#
# 1 94.8710 21.4756 23.8872 0.0000 -5.9094 0.0000
# 2 21.4756 95.6099 58.0504 0.0000 -10.6660 0.0000
# 3 23.8872 58.0504 123.8484 0.0000 -10.9355 0.0000
# 4 0.0000 0.0000 0.0000 21.9571 0.0000 -0.4167
# 5 -5.9094 -10.6660 -10.9355 0.0000 37.6247 0.0000
# 6 0.0000 0.0000 0.0000 -0.4167 0.0000 29.9220
#
#
#
# Elastic Compliance Matrix: (Units=1/GPa)
#
#
# Indices 1 2 3 4 5 6 
#
# 1 0.011303 -0.001624 -0.001337 0.000000 0.000926 0.000000
# 2 -0.001624 0.015034 -0.006548 0.000000 0.002104 0.000000
# 3 -0.001337 -0.006548 0.011515 0.000000 0.001280 0.000000
# 4 0.000000 0.000000 0.000000 0.045555 0.000000 0.000634
# 5 0.000926 0.002104 0.001280 0.000000 0.027692 0.000000
# 6 0.000000 0.000000 0.000000 0.000634 0.000000 0.033429
#
#
# Mechanical properties :
#
#
# Convention : Reuss Voigt Hill
#
# Bulk Modulus (GPa) = 53.09575 57.90620 55.50097
# Shear Modulus (GPa) = 29.44236 31.96183 30.70210
#
# Velocity S-wave (km/s) = 3.75469 3.91205 3.83418
# Velocity P-wave (km/s) = 6.64985 6.93775 6.79533
#
# Compressibility (1/GPa) = 0.01883390
#
# Stress axis : x y z
#
# Youngs Moduli (GPa) = 88.47582 66.51507 86.84687
#
# Poissons Ratio (x) = 0.10799 0.11613
# Poissons Ratio (y) = 0.14364 0.56867
# Poissons Ratio (z) = 0.11831 0.43554
#
# Static dielectric constant tensor:
#      x y z
#    x 4.021390 0.000000 -0.245870 
#    y 0.000000 4.074900 0.000000 
#    z -0.245870 0.000000 4.571400 
# 
# 
# High freq. dielectric constant tensor:
#      x y z
#    x 1.825880 0.000000 -0.003930 
#    y 0.000000 1.794630 0.000000 
#    z -0.003930 0.000000 1.841990 
# 
# From -- ./inp_files/186720.got.cif
#   From: 2010.06.25/outbox.cif.g09.slc.cpg/sg15_94_cif.got.tgz:186720.got - 2010.06.28 07:06:18.
