data_PCOD8132163
_publ_section_title
;
Structure prediction by ZEFSAII (Michael W. Deem and Ramdas Pophale) SiO2 
 PCOD8132163
Probable space group: C 2/C
;
_chemical_formula_sum "Si O2"
_cell_formula_units_Z 60
_cell_length_a 17.944823
_cell_length_b 27.013826
_cell_length_c 13.177782
_cell_angle_alpha 90.000000
_cell_angle_beta 29.246301
_cell_angle_gamma 90.000000
_cell_volume 3120.971980
_symmetry_space_group_name_H-M "C 2/C"
_symmetry_group_IT_number 15
_symmetry_cell_setting 'monoclinic'
loop_
_space_group_symop_operation_xyz
x,y,z
-x,y,1/2-z
-x,-y,-z
x,-y,1/2+z
1/2+x,1/2+y,z
1/2-x,1/2+y,1/2-z
1/2-x,1/2-y,-z
1/2+x,1/2-y,1/2+z
loop_
_atom_site_type_symbol
_atom_site_label
_atom_site_fract_x
_atom_site_fract_y
_atom_site_fract_z
Si Si1 0.643074 0.437607 0.279313
Si Si2 0.238645 0.628147 0.685024
Si Si3 0.671132 0.131881 0.070465
Si Si4 0.164835 0.690432 0.271217
Si Si5 0.433547 0.126005 0.937780
Si Si6 0.000000 0.092969 0.250000
Si Si7 0.157578 0.287578 0.420726
Si Si8 0.843629 0.051039 0.243530
O O1 0.728509 0.412836 0.271025
O O2 0.700189 0.408766 0.110979
O O3 0.700744 0.493802 0.208117
O O4 0.458676 0.434399 0.514052
O O5 0.366167 0.629127 0.446651
O O6 0.239097 0.683341 0.731238
O O7 0.076645 0.609803 0.835458
O O8 0.690278 0.182682 0.984925
O O9 0.500000 0.110986 0.250000
O O10 0.702264 0.144223 0.151921
O O11 0.145566 0.671696 0.409878
O O12 0.295101 0.731173 0.121734
O O13 0.018818 0.716851 0.396880
O O14 0.312386 0.081733 0.072950
O O15 0.500000 0.143001 0.750000
O O16 0.935493 0.058250 0.238642
#
# Coordination Sequence:
#
# PCOD8132163 Si02
#       8
#     8   8   8   8   8   4   8   8
#     4   9  20  39  59  89 116 152 193 241 293 359
#     4   9  19  37  59  82 115 151 195 234 293 341
#     4   9  18  37  60  86 119 150 190 242 292 349
#     4  10  21  37  58  86 118 150 195 244 289 350
#     4  11  22  40  57  85 117 156 197 247 284 343
#     4  10  18  36  58  80 112 158 188 240 288 340
#     4   9  19  36  58  83 116 151 187 237 292 353
#     4  10  21  38  60  83 121 154 194 241 297 344
#
# _framework density 19.224779000000002
#
# number of rings (size 3 to 8) (size 9 to 14) (size 15 to 20)
#    0.000    2.400    1.333    1.200    0.000    4.267 
#    8.400    2.667    0.000    0.000    0.000    0.000 
#    0.000    0.000    0.000    0.000    0.000    0.000 
#
# Total GULP energy -371867.182149 kJ/mol
# GULP energy per Si atom -12395.572738 kJ/mol
# Density = 1.918102 g / cm^3
# Si number density = 19.224779 Si / 1000 Ang^3
#
#
#
# Elastic Constant Matrix: (Units=GPa)
#
#
# Indices 1 2 3 4 5 6 
#
# 1 64.1883 37.6186 33.9947 -0.0216 7.1846 0.0132
# 2 37.6186 80.8110 54.8265 -0.0091 3.7194 0.0022
# 3 33.9947 54.8265 119.5050 0.0161 14.5406 0.0050
# 4 -0.0216 -0.0091 0.0161 32.3488 0.0052 -4.9106
# 5 7.1846 3.7194 14.5406 0.0052 30.2592 -0.0129
# 6 0.0132 0.0022 0.0050 -4.9106 -0.0129 13.9763
#
#
#
# Elastic Compliance Matrix: (Units=1/GPa)
#
#
# Indices 1 2 3 4 5 6 
#
# 1 0.022135 -0.008933 -0.001798 0.000011 -0.003294 -0.000018
# 2 -0.008933 0.021671 -0.007791 0.000005 0.003201 0.000013
# 3 -0.001798 -0.007791 0.013048 -0.000011 -0.004886 -0.000010
# 4 0.000011 0.000005 -0.000011 0.032655 0.000001 0.011473
# 5 -0.003294 0.003201 -0.004886 0.000001 0.035784 0.000038
# 6 -0.000018 0.000013 -0.000010 0.011473 0.000038 0.075581
#
#
# Mechanical properties :
#
#
# Convention : Reuss Voigt Hill
#
# Bulk Modulus (GPa) = 50.47518 57.48711 53.98115
# Shear Modulus (GPa) = 20.44815 24.52114 22.48464
#
# Velocity S-wave (km/s) = 3.26488 3.57528 3.42360
# Velocity P-wave (km/s) = 6.36591 6.85646 6.61574
#
# Compressibility (1/GPa) = 0.01981172
#
# Stress axis : x y z
#
# Youngs Moduli (GPa) = 45.17678 46.14391 76.64104
#
# Poissons Ratio (x) = 0.41221 0.13777
# Poissons Ratio (y) = 0.40357 0.59709
# Poissons Ratio (z) = 0.08121 0.35949
#
# Static dielectric constant tensor:
#      x y z
#    x 3.512370 -0.000020 0.210650 
#    y -0.000020 3.230610 0.000070 
#    z 0.210650 0.000070 3.922040 
# 
# 
# High freq. dielectric constant tensor:
#      x y z
#    x 1.743790 0.000000 0.006910 
#    y 0.000000 1.725900 0.000010 
#    z 0.006910 0.000010 1.763050 
# 
# From -- ./inp_files/169912.got.cif
#   From: 2010.06.25/outbox.cif.g09.slc.cpg/sg15_85_cif.got.tgz:169912.got - 2010.06.28 07:06:18.
