data_PCOD8132871
_publ_section_title
;
Structure prediction by ZEFSAII (Michael W. Deem and Ramdas Pophale) SiO2 
 PCOD8132871
Probable space group: C 2/C
;
_chemical_formula_sum "Si O2"
_cell_formula_units_Z 60
_cell_length_a 22.721008
_cell_length_b 23.646542
_cell_length_c 9.231846
_cell_angle_alpha 90.000000
_cell_angle_beta 137.301925
_cell_angle_gamma 90.000000
_cell_volume 3363.565827
_symmetry_space_group_name_H-M "C 2/C"
_symmetry_group_IT_number 15
_symmetry_cell_setting 'monoclinic'
loop_
_space_group_symop_operation_xyz
x,y,z
-x,y,1/2-z
-x,-y,-z
x,-y,1/2+z
1/2+x,1/2+y,z
1/2-x,1/2+y,1/2-z
1/2-x,1/2-y,-z
1/2+x,1/2-y,1/2+z
loop_
_atom_site_type_symbol
_atom_site_label
_atom_site_fract_x
_atom_site_fract_y
_atom_site_fract_z
Si Si1 0.102453 0.229040 0.207123
Si Si2 0.000000 0.505492 0.250000
Si Si3 0.156175 0.665615 0.136254
Si Si4 0.584904 0.285471 0.074271
Si Si5 0.455826 0.075299 0.424749
Si Si6 0.228728 0.182562 0.658965
Si Si7 0.627779 0.142067 0.760978
Si Si8 0.667760 0.283049 0.527902
O O1 0.190030 0.218453 0.454835
O O2 0.089129 0.295857 0.159602
O O3 0.113035 0.199122 0.070045
O O4 0.017458 0.202441 0.131740
O O5 0.936840 0.544087 0.237431
O O6 0.056686 0.467049 0.461914
O O7 0.108685 0.726399 0.037431
O O8 0.109166 0.627486 0.172355
O O9 0.255761 0.672000 0.365559
O O10 0.152742 0.635529 0.974175
O O11 0.645148 0.334731 0.107978
O O12 0.603075 0.280134 0.276946
O O13 0.555826 0.095593 0.595506
O O14 0.287708 0.133092 0.692937
O O15 0.289088 0.221734 0.868764
#
# Coordination Sequence:
#
# PCOD8132871 Si02
#       8
#     8   4   8   8   8   8   8   8
#     4  11  18  31  46  67  96 132 174 202 231 281
#     4  10  24  38  48  80  96 118 160 224 272 278
#     4  11  18  32  50  66  89 134 175 192 242 298
#     4  11  21  28  45  69 101 130 167 208 244 268
#     4  11  22  36  57  70  99 129 165 209 253 310
#     4  10  19  30  46  65  93 124 171 214 223 275
#     4  11  18  32  50  68  87 132 177 199 232 296
#     4  10  20  31  42  67 100 126 164 219 237 269
#
# _framework density 17.838211999999999
#
# number of rings (size 3 to 8) (size 9 to 14) (size 15 to 20)
#    0.000    1.333    6.667    3.200    0.000    3.200 
#    0.000    0.000    0.000    0.000    0.000    0.000 
#    0.000    0.000    0.000   84.000    0.000    0.000 
#
# Total GULP energy -371745.749855 kJ/mol
# GULP energy per Si atom -12391.524995 kJ/mol
# Density = 1.779761 g / cm^3
# Si number density = 17.838212 Si / 1000 Ang^3
#
#
#
# Elastic Constant Matrix: (Units=GPa)
#
#
# Indices 1 2 3 4 5 6 
#
# 1 86.3434 19.6721 -7.6925 0.0000 0.9215 0.0000
# 2 19.6721 41.4957 6.2084 0.0000 1.2811 0.0000
# 3 -7.6925 6.2084 27.7161 0.0000 -5.3276 0.0000
# 4 0.0000 0.0000 0.0000 8.6573 0.0000 -7.2306
# 5 0.9215 1.2811 -5.3276 0.0000 35.4650 0.0000
# 6 0.0000 0.0000 0.0000 -7.2306 0.0000 26.8363
#
#
#
# Elastic Compliance Matrix: (Units=1/GPa)
#
#
# Indices 1 2 3 4 5 6 
#
# 1 0.013757 -0.007385 0.005617 0.000000 0.000753 0.000000
# 2 -0.007385 0.029011 -0.008972 0.000000 -0.002204 0.000000
# 3 0.005617 -0.008972 0.040863 0.000000 0.006317 0.000000
# 4 0.000000 0.000000 0.000000 0.149050 0.000000 0.040159
# 5 0.000753 -0.002204 0.006317 0.000000 0.029206 0.000000
# 6 0.000000 0.000000 0.000000 0.040159 0.000000 0.048083
#
#
# Mechanical properties :
#
#
# Convention : Reuss Voigt Hill
#
# Bulk Modulus (GPa) = 16.09000 21.32569 18.70784
# Shear Modulus (GPa) = 14.19782 23.34954 18.77368
#
# Velocity S-wave (km/s) = 2.82427 3.62188 3.24766
# Velocity P-wave (km/s) = 4.43564 5.42879 4.95715
#
# Compressibility (1/GPa) = 0.06215042
#
# Stress axis : x y z
#
# Youngs Moduli (GPa) = 72.69162 34.47024 24.47196
#
# Poissons Ratio (x) = 0.25458 -0.13747
# Poissons Ratio (y) = 0.53686 0.21956
# Poissons Ratio (z) = -0.40833 0.30926
#
# Static dielectric constant tensor:
#      x y z
#    x 3.888120 0.000000 -0.101680 
#    y 0.000000 2.834710 0.000000 
#    z -0.101680 0.000000 3.161680 
# 
# 
# High freq. dielectric constant tensor:
#      x y z
#    x 1.720020 0.000000 -0.017150 
#    y 0.000000 1.607160 0.000000 
#    z -0.017150 0.000000 1.686040 
# 
# From -- ./inp_files/63937.got.cif
#   From: 2010.06.25/outbox.cif.g09.slc.cpg/sg15_32_cif.got.tgz:63937.got - 2010.06.28 07:06:18.
