data_PCOD8132957
_publ_section_title
;
Structure prediction by ZEFSAII (Michael W. Deem and Ramdas Pophale) SiO2 
 PCOD8132957
Probable space group: C 2/C
;
_chemical_formula_sum "Si O2"
_cell_formula_units_Z 56
_cell_length_a 20.928655
_cell_length_b 6.347632
_cell_length_c 26.162221
_cell_angle_alpha 90.000000
_cell_angle_beta 63.468779
_cell_angle_gamma 90.000000
_cell_volume 3109.573186
_symmetry_space_group_name_H-M "C 2/C"
_symmetry_group_IT_number 15
_symmetry_cell_setting 'monoclinic'
loop_
_space_group_symop_operation_xyz
x,y,z
-x,y,1/2-z
-x,-y,-z
x,-y,1/2+z
1/2+x,1/2+y,z
1/2-x,1/2+y,1/2-z
1/2-x,1/2-y,-z
1/2+x,1/2-y,1/2+z
loop_
_atom_site_type_symbol
_atom_site_label
_atom_site_fract_x
_atom_site_fract_y
_atom_site_fract_z
Si Si1 0.029402 0.532135 0.296220
Si Si2 0.649856 0.663716 0.773845
Si Si3 0.302932 0.438373 0.970411
Si Si4 0.242757 0.042450 0.317429
Si Si5 0.108447 0.635702 0.616719
Si Si6 0.636748 0.275947 0.714279
Si Si7 0.240449 0.318307 0.578649
O O1 0.073259 0.724761 0.305642
O O2 0.083401 0.336245 0.273210
O O3 0.000000 0.594023 0.250000
O O4 0.967900 0.480795 0.359992
O O5 0.714553 0.824710 0.740252
O O6 0.667754 0.529702 0.818725
O O7 0.646225 0.516958 0.725478
O O8 0.377559 0.316003 0.931495
O O9 0.277017 0.577330 0.930793
O O10 0.250000 0.250000 0.000000
O O11 0.304335 0.590912 0.019437
O O12 0.230421 0.176309 0.373726
O O13 0.286481 0.834510 0.315899
O O14 0.102240 0.766974 0.671069
O O15 0.169311 0.457254 0.596438
#
# Coordination Sequence:
#
# PCOD8132957 Si02
#       7
#     8   8   8   8   8   8   8
#     4   9  20  32  45  73 104 134 172 206 248 310
#     4  11  19  31  50  70 104 139 170 203 250 307
#     4   9  17  31  50  75  97 129 170 214 267 301
#     4  10  19  31  48  74 102 134 170 209 248 303
#     4   9  17  31  49  71 101 130 167 212 260 305
#     4   9  18  31  46  70 102 135 168 206 248 303
#     4   9  18  31  50  75 102 126 167 219 260 298
#
# _framework density 18.008903
#
# number of rings (size 3 to 8) (size 9 to 14) (size 15 to 20)
#    0.000    2.571    1.429    1.714    0.000    2.857 
#    0.000    0.000    0.000    0.857    0.000   10.000 
#    0.000    0.000    0.000    0.000    0.000    0.000 
#
# Total GULP energy -346953.255791 kJ/mol
# GULP energy per Si atom -12391.187707 kJ/mol
# Density = 1.796791 g / cm^3
# Si number density = 18.008903 Si / 1000 Ang^3
#
#
#
# Elastic Constant Matrix: (Units=GPa)
#
#
# Indices 1 2 3 4 5 6 
#
# 1 80.3409 35.4269 36.3967 0.0178 -1.0663 0.0129
# 2 35.4269 86.4894 33.0558 0.0710 -6.2308 0.0089
# 3 36.3967 33.0558 89.8267 0.0046 -5.2928 -0.0027
# 4 0.0178 0.0710 0.0046 25.7390 -0.0007 2.0897
# 5 -1.0663 -6.2308 -5.2928 -0.0007 20.4498 0.0182
# 6 0.0129 0.0089 -0.0027 2.0897 0.0182 26.2166
#
#
#
# Elastic Compliance Matrix: (Units=1/GPa)
#
#
# Indices 1 2 3 4 5 6 
#
# 1 0.017011 -0.005159 -0.005113 0.000004 -0.002008 -0.000006
# 2 -0.005159 0.015186 -0.003291 -0.000037 0.003506 -0.000002
# 3 -0.005113 -0.003291 0.014563 0.000010 0.002500 0.000003
# 4 0.000004 -0.000037 0.000010 0.039105 -0.000005 -0.003117
# 5 -0.002008 0.003506 0.002500 -0.000005 0.050511 -0.000035
# 6 -0.000006 -0.000002 0.000003 -0.003117 -0.000035 0.038392
#
#
# Mechanical properties :
#
#
# Convention : Reuss Voigt Hill
#
# Bulk Modulus (GPa) = 50.93192 51.82397 51.37795
# Shear Modulus (GPa) = 23.98800 24.59960 24.29380
#
# Velocity S-wave (km/s) = 3.65363 3.69991 3.67684
# Velocity P-wave (km/s) = 6.79276 6.86235 6.82764
#
# Compressibility (1/GPa) = 0.01963405
#
# Stress axis : x y z
#
# Youngs Moduli (GPa) = 58.78475 65.85141 68.66867
#
# Poissons Ratio (x) = 0.33970 0.35108
# Poissons Ratio (y) = 0.30325 0.22602
# Poissons Ratio (z) = 0.30055 0.21675
#
# Static dielectric constant tensor:
#      x y z
#    x 3.122550 -0.000120 -0.106890 
#    y -0.000120 3.472400 -0.000060 
#    z -0.106890 -0.000060 3.506520 
# 
# 
# High freq. dielectric constant tensor:
#      x y z
#    x 1.656400 0.000000 -0.006850 
#    y 0.000000 1.709910 -0.000010 
#    z -0.006850 -0.000010 1.680870 
# 
# From -- ./inp_files/316877.got.cif
#   From: 2010.06.25/outbox.cif.g09.slc.cpg/sg15_159_cif.got.tgz:316877.got - 2010.06.28 07:06:18.
