data_PCOD8132138
_publ_section_title
;
Structure prediction by ZEFSAII (Michael W. Deem and Ramdas Pophale) SiO2 
 PCOD8132138
Probable space group: C 2/C
;
_chemical_formula_sum "Si O2"
_cell_formula_units_Z 52
_cell_length_a 15.909575
_cell_length_b 8.423001
_cell_length_c 29.267952
_cell_angle_alpha 90.000000
_cell_angle_beta 136.518159
_cell_angle_gamma 90.000000
_cell_volume 2698.888091
_symmetry_space_group_name_H-M "C 2/C"
_symmetry_group_IT_number 15
_symmetry_cell_setting 'monoclinic'
loop_
_space_group_symop_operation_xyz
x,y,z
-x,y,1/2-z
-x,-y,-z
x,-y,1/2+z
1/2+x,1/2+y,z
1/2-x,1/2+y,1/2-z
1/2-x,1/2-y,-z
1/2+x,1/2-y,1/2+z
loop_
_atom_site_type_symbol
_atom_site_label
_atom_site_fract_x
_atom_site_fract_y
_atom_site_fract_z
Si Si1 0.302279 0.503469 0.910563
Si Si2 0.224019 0.098634 0.789011
Si Si3 0.998172 0.751770 0.511135
Si Si4 0.000000 0.165196 0.750000
Si Si5 0.723342 0.024330 0.283394
Si Si6 0.955944 0.423450 0.657396
Si Si7 0.525148 0.035244 0.083755
O O1 0.367055 0.330448 0.932973
O O2 0.276202 0.562608 0.848763
O O3 0.172227 0.509149 0.884588
O O4 0.391604 0.618826 0.973387
O O5 0.109930 0.054371 0.776368
O O6 0.197157 0.043022 0.726827
O O7 0.242766 0.287490 0.796269
O O8 0.333135 0.995055 0.851507
O O9 0.972492 0.629763 0.542483
O O10 0.991674 0.672004 0.459380
O O11 0.044874 0.265680 0.811846
O O12 0.578905 0.980254 0.220452
O O13 0.960199 0.401808 0.604219
#
# Coordination Sequence:
#
# PCOD8132138 Si02
#       7
#     8   8   8   4   8   8   8
#     4  11  20  38  58  85 114 150 193 236 269 355
#     4  10  20  36  60  83 115 140 192 232 289 333
#     4  10  23  37  59  79 117 160 193 223 284 325
#     4  10  18  36  56  92 106 148 178 242 288 344
#     4  10  20  35  61  85 110 149 179 240 289 335
#     4  10  19  35  62  83 113 143 188 238 293 321
#     4  10  21  40  57  84 114 158 187 237 275 343
#
# _framework density 19.267194
#
# number of rings (size 3 to 8) (size 9 to 14) (size 15 to 20)
#    0.000    1.846    4.615    0.000    6.462    1.231 
#    0.000    3.077    0.000    0.000    0.000    0.000 
#    0.000    0.000    0.000    0.000    0.000    0.000 
#
# Total GULP energy -322207.993220 kJ/mol
# GULP energy per Si atom -12392.615124 kJ/mol
# Density = 1.922334 g / cm^3
# Si number density = 19.267194 Si / 1000 Ang^3
#
#
#
# Elastic Constant Matrix: (Units=GPa)
#
#
# Indices 1 2 3 4 5 6 
#
# 1 163.4972 31.0077 67.7488 0.0000 -5.2896 0.0000
# 2 31.0077 43.3634 20.8782 0.0000 2.7742 0.0000
# 3 67.7488 20.8782 101.0888 0.0000 -12.8517 0.0000
# 4 0.0000 0.0000 0.0000 24.0550 0.0000 -5.7521
# 5 -5.2896 2.7742 -12.8517 0.0000 30.7760 0.0000
# 6 0.0000 0.0000 0.0000 -5.7521 0.0000 24.9725
#
#
#
# Elastic Compliance Matrix: (Units=1/GPa)
#
#
# Indices 1 2 3 4 5 6 
#
# 1 0.009038 -0.003896 -0.005291 0.000000 -0.000305 0.000000
# 2 -0.003896 0.027967 -0.003771 0.000000 -0.004765 0.000000
# 3 -0.005291 -0.003771 0.014938 0.000000 0.005668 0.000000
# 4 0.000000 0.000000 0.000000 0.043995 0.000000 0.010134
# 5 -0.000305 -0.004765 0.005668 0.000000 0.035237 0.000000
# 6 0.000000 0.000000 0.000000 0.010134 0.000000 0.042378
#
#
# Mechanical properties :
#
#
# Convention : Reuss Voigt Hill
#
# Bulk Modulus (GPa) = 38.42190 60.80208 49.61199
# Shear Modulus (GPa) = 24.02180 28.51504 26.26842
#
# Velocity S-wave (km/s) = 3.53480 3.85122 3.69640
# Velocity P-wave (km/s) = 6.05348 7.16950 6.63500
#
# Compressibility (1/GPa) = 0.02602682
#
# Stress axis : x y z
#
# Youngs Moduli (GPa) = 110.64646 35.75635 66.94346
#
# Poissons Ratio (x) = 0.13929 0.35422
# Poissons Ratio (y) = 0.43102 0.25246
# Poissons Ratio (z) = 0.58546 0.13485
#
# Static dielectric constant tensor:
#      x y z
#    x 3.771770 0.000000 -0.039310 
#    y 0.000000 3.272960 0.000000 
#    z -0.039310 0.000000 3.788010 
# 
# 
# High freq. dielectric constant tensor:
#      x y z
#    x 1.749980 0.000000 -0.006690 
#    y 0.000000 1.719890 0.000000 
#    z -0.006690 0.000000 1.766160 
# 
# From -- ./inp_files/272301.got.cif
#   From: 2010.06.25/outbox.cif.g09.slc.cpg/sg15_137_cif.got.tgz:272301.got - 2010.06.28 07:06:18.
