data_PCOD8132465
_publ_section_title
;
Structure prediction by ZEFSAII (Michael W. Deem and Ramdas Pophale) SiO2 
 PCOD8132465
Probable space group: C 2/C
;
_chemical_formula_sum "Si O2"
_cell_formula_units_Z 56
_cell_length_a 8.701557
_cell_length_b 15.124970
_cell_length_c 22.969648
_cell_angle_alpha 90.000000
_cell_angle_beta 106.198219
_cell_angle_gamma 90.000000
_cell_volume 2903.045390
_symmetry_space_group_name_H-M "C 2/C"
_symmetry_group_IT_number 15
_symmetry_cell_setting 'monoclinic'
loop_
_space_group_symop_operation_xyz
x,y,z
-x,y,1/2-z
-x,-y,-z
x,-y,1/2+z
1/2+x,1/2+y,z
1/2-x,1/2+y,1/2-z
1/2-x,1/2-y,-z
1/2+x,1/2-y,1/2+z
loop_
_atom_site_type_symbol
_atom_site_label
_atom_site_fract_x
_atom_site_fract_y
_atom_site_fract_z
Si Si1 0.819736 0.552177 0.722384
Si Si2 0.159747 0.944991 0.027334
Si Si3 0.277986 0.303442 0.370947
Si Si4 0.239899 0.080908 0.120142
Si Si5 0.830175 0.054255 0.206812
Si Si6 0.040720 0.685165 0.190251
Si Si7 0.384862 0.368250 0.594688
O O1 0.825422 0.645944 0.689995
O O2 0.720930 0.482584 0.673496
O O3 0.724515 0.543515 0.774617
O O4 0.000000 0.518582 0.750000
O O5 0.143310 0.866429 0.072630
O O6 0.277469 0.019305 0.067093
O O7 0.215689 0.899872 0.972837
O O8 0.000000 0.000000 0.000000
O O9 0.424035 0.264211 0.350124
O O10 0.167472 0.229029 0.389580
O O11 0.389948 0.143046 0.142462
O O12 0.073336 0.135394 0.098413
O O13 0.693206 0.121646 0.213805
O O14 0.842818 0.057303 0.138362
O O15 0.000000 0.085930 0.250000
O O16 0.000000 0.721813 0.250000
#
# Coordination Sequence:
#
# PCOD8132465 Si02
#       7
#     8   8   8   8   8   8   8
#     4  11  20  37  56  83 119 152 192 233 289 356
#     4   9  20  40  63  82 113 160 202 235 286 346
#     4  10  24  36  59  87 118 154 193 244 289 347
#     4  10  18  37  65  82 114 159 191 232 296 344
#     4  11  19  33  60  85 114 151 193 232 294 352
#     4  11  20  37  58  89 122 150 184 243 301 341
#     4  10  20  37  62  86 114 154 195 245 292 344
#
# _framework density 19.290087
#
# number of rings (size 3 to 8) (size 9 to 14) (size 15 to 20)
#    0.000    1.714    4.286    0.429    0.000    4.000 
#    0.000    5.714    3.143    0.000    0.000    0.000 
#    0.000    0.000    0.000    0.000    0.000    0.000 
#
# Total GULP energy -346868.438703 kJ/mol
# GULP energy per Si atom -12388.158525 kJ/mol
# Density = 1.924618 g / cm^3
# Si number density = 19.290087 Si / 1000 Ang^3
#
#
#
# Elastic Constant Matrix: (Units=GPa)
#
#
# Indices 1 2 3 4 5 6 
#
# 1 101.4577 43.0941 55.2343 0.0000 -2.8587 0.0000
# 2 43.0941 94.2813 66.2749 0.0000 -8.1186 0.0000
# 3 55.2343 66.2749 145.5191 0.0000 -13.6160 0.0000
# 4 0.0000 0.0000 0.0000 36.5874 0.0000 -5.0895
# 5 -2.8587 -8.1186 -13.6160 0.0000 27.0584 0.0000
# 6 0.0000 0.0000 0.0000 -5.0895 0.0000 27.0109
#
#
#
# Elastic Compliance Matrix: (Units=1/GPa)
#
#
# Indices 1 2 3 4 5 6 
#
# 1 0.013305 -0.003768 -0.003472 0.000000 -0.001472 0.000000
# 2 -0.003768 0.016703 -0.006029 0.000000 0.001580 0.000000
# 3 -0.003472 -0.006029 0.011263 0.000000 0.003492 0.000000
# 4 0.000000 0.000000 0.000000 0.028067 0.000000 0.005289
# 5 -0.001472 0.001580 0.003492 0.000000 0.039033 0.000000
# 6 0.000000 0.000000 0.000000 0.005289 0.000000 0.038019
#
#
# Mechanical properties :
#
#
# Convention : Reuss Voigt Hill
#
# Bulk Modulus (GPa) = 67.87583 74.49607 71.18595
# Shear Modulus (GPa) = 28.11540 29.90832 29.01186
#
# Velocity S-wave (km/s) = 3.82187 3.94185 3.88232
# Velocity P-wave (km/s) = 7.39857 7.70845 7.55510
#
# Compressibility (1/GPa) = 0.01473278
#
# Stress axis : x y z
#
# Youngs Moduli (GPa) = 75.15749 59.86953 88.79018
#
# Poissons Ratio (x) = 0.22557 0.30829
# Poissons Ratio (y) = 0.28317 0.53534
# Poissons Ratio (z) = 0.26095 0.36097
#
# Static dielectric constant tensor:
#      x y z
#    x 3.400420 0.000000 -0.117370 
#    y 0.000000 3.580450 0.000000 
#    z -0.117370 0.000000 4.073500 
# 
# 
# High freq. dielectric constant tensor:
#      x y z
#    x 1.736420 0.000000 -0.001670 
#    y 0.000000 1.736070 0.000000 
#    z -0.001670 0.000000 1.767290 
# 
# From -- ./inp_files/264218.got.cif
#   From: 2010.06.25/outbox.cif.g09.slc.cpg/sg15_133_cif.got.tgz:264218.got - 2010.06.28 07:06:18.
