data_PCOD8132428
_publ_section_title
;
Structure prediction by ZEFSAII (Michael W. Deem and Ramdas Pophale) SiO2 
 PCOD8132428
Probable space group: C 2/C
;
_chemical_formula_sum "Si O2"
_cell_formula_units_Z 48
_cell_length_a 16.440795
_cell_length_b 11.720852
_cell_length_c 32.027296
_cell_angle_alpha 90.000000
_cell_angle_beta 24.959067
_cell_angle_gamma 90.000000
_cell_volume 2604.261190
_symmetry_space_group_name_H-M "C 2/C"
_symmetry_group_IT_number 15
_symmetry_cell_setting 'monoclinic'
loop_
_space_group_symop_operation_xyz
x,y,z
-x,y,1/2-z
-x,-y,-z
x,-y,1/2+z
1/2+x,1/2+y,z
1/2-x,1/2+y,1/2-z
1/2-x,1/2-y,-z
1/2+x,1/2-y,1/2+z
loop_
_atom_site_type_symbol
_atom_site_label
_atom_site_fract_x
_atom_site_fract_y
_atom_site_fract_z
Si Si1 0.500000 0.913713 0.250000
Si Si2 0.404026 0.905525 0.731776
Si Si3 0.477768 0.514515 0.442782
Si Si4 0.182424 0.379568 0.528632
Si Si5 0.602289 0.333076 0.448639
Si Si6 0.383554 0.105331 0.536453
Si Si7 0.500000 0.292271 0.250000
O O1 0.318185 0.831308 0.330205
O O2 0.471096 0.997098 0.303156
O O3 0.490522 0.890244 0.645698
O O4 0.418306 0.786812 0.750617
O O5 0.187119 0.951390 0.827991
O O6 0.346217 0.469791 0.466351
O O7 0.474255 0.415086 0.479226
O O8 0.395374 0.626407 0.504224
O O9 0.250000 0.250000 0.500000
O O10 0.129420 0.412630 0.506716
O O11 0.516837 0.209733 0.486324
O O12 0.170709 0.124933 0.654681
O O13 0.500000 0.000000 0.500000
#
# Coordination Sequence:
#
# PCOD8132428 Si02
#       7
#     4   8   8   8   8   8   4
#     4   9  18  31  66  96 124 151 207 272 312 350
#     4  10  19  35  66  97 118 157 212 266 313 358
#     4  10  19  35  66  94 117 154 218 268 299 360
#     4  12  22  40  63  97 125 161 211 260 305 373
#     4  10  18  37  61  94 119 160 211 259 309 360
#     4  12  27  42  62  89 134 174 202 250 325 392
#     4  11  20  41  66  88 120 173 207 248 322 376
#
# _framework density 18.431332000000001
#
# number of rings (size 3 to 8) (size 9 to 14) (size 15 to 20)
#    0.000    1.333    6.667    0.000    0.000    2.000 
#    0.000    0.833    0.000    0.000    0.000    0.000 
#    0.000    0.000    0.000    0.000    0.000    0.000 
#
# Total GULP energy -297569.694630 kJ/mol
# GULP energy per Si atom -12398.737276 kJ/mol
# Density = 1.838938 g / cm^3
# Si number density = 18.431332 Si / 1000 Ang^3
#
#
#
# Elastic Constant Matrix: (Units=GPa)
#
#
# Indices 1 2 3 4 5 6 
#
# 1 119.7301 70.1386 51.7898 -0.0047 12.2781 -0.0011
# 2 70.1386 117.7122 66.7271 -0.0033 -3.9535 -0.0020
# 3 51.7898 66.7271 126.3639 -0.0209 12.0282 -0.0087
# 4 -0.0047 -0.0033 -0.0209 25.3525 -0.0025 -6.9756
# 5 12.2781 -3.9535 12.0282 -0.0025 26.8821 0.0003
# 6 -0.0011 -0.0020 -0.0087 -6.9756 0.0003 33.2395
#
#
#
# Elastic Compliance Matrix: (Units=1/GPa)
#
#
# Indices 1 2 3 4 5 6 
#
# 1 0.014345 -0.008373 -0.000749 0.000000 -0.007448 0.000000
# 2 -0.008373 0.017650 -0.006789 -0.000005 0.009458 -0.000002
# 3 -0.000749 -0.006789 0.012396 0.000010 -0.006203 0.000005
# 4 0.000000 -0.000005 0.000010 0.041861 -0.000002 0.008785
# 5 -0.007448 0.009458 -0.006203 -0.000002 0.044768 -0.000002
# 6 0.000000 -0.000002 0.000005 0.008785 -0.000002 0.031928
#
#
# Mechanical properties :
#
#
# Convention : Reuss Voigt Hill
#
# Bulk Modulus (GPa) = 79.55723 82.34635 80.95179
# Shear Modulus (GPa) = 25.13073 28.77154 26.95113
#
# Velocity S-wave (km/s) = 3.69654 3.95525 3.82808
# Velocity P-wave (km/s) = 7.84073 8.10142 7.97214
#
# Compressibility (1/GPa) = 0.01256957
#
# Stress axis : x y z
#
# Youngs Moduli (GPa) = 69.71189 56.65567 80.67139
#
# Poissons Ratio (x) = 0.47438 0.06040
# Poissons Ratio (y) = 0.58370 0.54768
# Poissons Ratio (z) = 0.05220 0.38464
#
# Static dielectric constant tensor:
#      x y z
#    x 2.541940 -0.000690 0.159380 
#    y -0.000690 3.300510 0.000150 
#    z 0.159380 0.000150 3.314610 
# 
# 
# High freq. dielectric constant tensor:
#      x y z
#    x 1.700180 0.000000 -0.004830 
#    y 0.000000 1.699530 0.000000 
#    z -0.004830 0.000000 1.731720 
# 
# From -- ./inp_files/151893.got.cif
#   From: 2010.06.25/outbox.cif.g09.slc.cpg/sg15_76_cif.got.tgz:151893.got - 2010.06.28 07:06:18.
