data_PCOD8132828
_publ_section_title
;
Structure prediction by ZEFSAII (Michael W. Deem and Ramdas Pophale) SiO2 
 PCOD8132828
Probable space group: C 2/C
;
_chemical_formula_sum "Si O2"
_cell_formula_units_Z 48
_cell_length_a 13.040963
_cell_length_b 23.811158
_cell_length_c 11.586314
_cell_angle_alpha 90.000000
_cell_angle_beta 48.401088
_cell_angle_gamma 90.000000
_cell_volume 2690.463765
_symmetry_space_group_name_H-M "C 2/C"
_symmetry_group_IT_number 15
_symmetry_cell_setting 'monoclinic'
loop_
_space_group_symop_operation_xyz
x,y,z
-x,y,1/2-z
-x,-y,-z
x,-y,1/2+z
1/2+x,1/2+y,z
1/2-x,1/2+y,1/2-z
1/2-x,1/2-y,-z
1/2+x,1/2-y,1/2+z
loop_
_atom_site_type_symbol
_atom_site_label
_atom_site_fract_x
_atom_site_fract_y
_atom_site_fract_z
Si Si1 0.134424 0.396325 0.948051
Si Si2 0.834679 0.051538 0.136826
Si Si3 0.146491 0.481823 0.127914
Si Si4 0.343430 0.800084 0.385819
Si Si5 0.919580 0.058619 0.692285
Si Si6 0.167433 0.616382 0.796548
O O1 0.235931 0.399864 0.761881
O O2 0.157429 0.457402 0.990663
O O3 0.176943 0.346935 0.001427
O O4 0.977182 0.384343 0.025569
O O5 0.767088 0.024548 0.071258
O O6 0.866127 0.004326 0.209491
O O7 0.978493 0.077901 0.987818
O O8 0.147499 0.429388 0.212736
O O9 0.000000 0.513304 0.250000
O O10 0.500000 0.780231 0.250000
O O11 0.250000 0.750000 0.500000
O O12 0.298487 0.824929 0.294267
O O13 0.791108 0.101462 0.790481
O O14 0.000000 0.062830 0.750000
#
# Coordination Sequence:
#
# PCOD8132828 Si02
#       6
#     8   8   8   8   8   8
#     4   9  17  31  48  68  95 123 157 197 233 282
#     4  10  19  28  43  67  93 127 166 198 228 272
#     4   8  15  27  43  63  90 124 156 188 229 272
#     4   9  18  33  53  77  98 118 149 197 251 293
#     4  10  20  31  42  64  99 133 162 194 233 276
#     4   8  17  32  46  65  95 124 153 190 233 280
#
# _framework density 17.840789999999998
#
# number of rings (size 3 to 8) (size 9 to 14) (size 15 to 20)
#    0.000    3.000    0.000    3.000    0.000   10.000 
#    0.000    0.000    0.000    0.000    0.000   11.667 
#    0.000    0.000    0.000    0.000    0.000    0.000 
#
# Total GULP energy -297347.713797 kJ/mol
# GULP energy per Si atom -12389.488075 kJ/mol
# Density = 1.780018 g / cm^3
# Si number density = 17.840790 Si / 1000 Ang^3
#
#
#
# Elastic Constant Matrix: (Units=GPa)
#
#
# Indices 1 2 3 4 5 6 
#
# 1 115.1143 32.8034 30.3975 0.0000 -13.5719 0.0000
# 2 32.8034 52.1318 47.2576 0.0000 -10.4138 0.0000
# 3 30.3975 47.2576 111.1016 0.0000 -24.1676 0.0000
# 4 0.0000 0.0000 0.0000 32.6393 0.0000 -3.7496
# 5 -13.5719 -10.4138 -24.1676 0.0000 20.7100 0.0000
# 6 0.0000 0.0000 0.0000 -3.7496 0.0000 9.8304
#
#
#
# Elastic Compliance Matrix: (Units=1/GPa)
#
#
# Indices 1 2 3 4 5 6 
#
# 1 0.010940 -0.006768 0.000944 0.000000 0.004868 0.000000
# 2 -0.006768 0.035408 -0.013805 0.000000 -0.002741 0.000000
# 3 0.000944 -0.013805 0.017743 0.000000 0.014382 0.000000
# 4 0.000000 0.000000 0.000000 0.032042 0.000000 0.012222
# 5 0.004868 -0.002741 0.014382 0.000000 0.066882 0.000000
# 6 0.000000 0.000000 0.000000 0.012222 0.000000 0.106387
#
#
# Mechanical properties :
#
#
# Convention : Reuss Voigt Hill
#
# Bulk Modulus (GPa) = 40.26764 55.47385 47.87074
# Shear Modulus (GPa) = 15.77602 23.82856 19.80229
#
# Velocity S-wave (km/s) = 2.97689 3.65858 3.33520
# Velocity P-wave (km/s) = 5.86817 7.00059 6.45924
#
# Compressibility (1/GPa) = 0.02483384
#
# Stress axis : x y z
#
# Youngs Moduli (GPa) = 91.40670 28.24252 56.35986
#
# Poissons Ratio (x) = 0.19113 -0.05323
# Poissons Ratio (y) = 0.61860 0.77807
# Poissons Ratio (z) = -0.08632 0.38990
#
# Static dielectric constant tensor:
#      x y z
#    x 3.431350 0.000000 -0.331450 
#    y 0.000000 2.905230 0.000000 
#    z -0.331450 0.000000 3.369160 
# 
# 
# High freq. dielectric constant tensor:
#      x y z
#    x 1.684050 0.000000 -0.022280 
#    y 0.000000 1.629770 0.000000 
#    z -0.022280 0.000000 1.699010 
# 
# From -- ./inp_files/90629.got.cif
#   From: 2010.06.25/outbox.cif.g09.slc.cpg/sg15_46_cif.got.tgz:90629.got - 2010.06.28 07:06:18.
