data_PCOD8132826
_publ_section_title
;
Structure prediction by ZEFSAII (Michael W. Deem and Ramdas Pophale) SiO2 
 PCOD8132826
Probable space group: C 2/C
;
_chemical_formula_sum "Si O2"
_cell_formula_units_Z 40
_cell_length_a 20.227156
_cell_length_b 23.004147
_cell_length_c 5.211405
_cell_angle_alpha 90.000000
_cell_angle_beta 78.649095
_cell_angle_gamma 90.000000
_cell_volume 2377.480070
_symmetry_space_group_name_H-M "C 2/C"
_symmetry_group_IT_number 15
_symmetry_cell_setting 'monoclinic'
loop_
_space_group_symop_operation_xyz
x,y,z
-x,y,1/2-z
-x,-y,-z
x,-y,1/2+z
1/2+x,1/2+y,z
1/2-x,1/2+y,1/2-z
1/2-x,1/2-y,-z
1/2+x,1/2-y,1/2+z
loop_
_atom_site_type_symbol
_atom_site_label
_atom_site_fract_x
_atom_site_fract_y
_atom_site_fract_z
Si Si1 0.077728 0.228378 0.139210
Si Si2 0.575048 0.975837 0.990603
Si Si3 0.130032 0.358122 0.087004
Si Si4 0.847064 0.206221 0.918538
Si Si5 0.294814 0.163639 0.467273
O O1 0.091094 0.297271 0.118077
O O2 0.117266 0.196105 0.336634
O O3 0.000000 0.217194 0.250000
O O4 0.100196 0.198819 0.855022
O O5 0.612051 0.987260 0.689727
O O6 0.574935 0.908293 0.074375
O O7 0.500000 0.000000 0.000000
O O8 0.167890 0.368880 0.327278
O O9 0.185514 0.363970 0.820176
O O10 0.816928 0.270059 0.940973
O O11 0.786035 0.160170 0.933638
#
# Coordination Sequence:
#
# PCOD8132826 Si02
#       5
#     8   8   8   8   8
#     4  10  19  28  43  65  92 118 149 189 222 284
#     4  10  21  34  45  61  86 123 151 199 239 270
#     4  10  19  31  46  65  81 117 164 194 231 261
#     4   9  17  30  43  64  86 113 144 189 244 255
#     4   9  17  30  48  62  82 108 153 203 222 276
#
# _framework density 16.824535000000001
#
# number of rings (size 3 to 8) (size 9 to 14) (size 15 to 20)
#    0.000    2.400    0.000    3.000    2.800    4.800 
#    7.200    0.000    0.000    0.000    0.000    0.000 
#    0.000    0.000    0.000    0.000    0.000  252.000 
#
# Total GULP energy -247843.848593 kJ/mol
# GULP energy per Si atom -12392.192430 kJ/mol
# Density = 1.678624 g / cm^3
# Si number density = 16.824535 Si / 1000 Ang^3
#
#
#
# Elastic Constant Matrix: (Units=GPa)
#
#
# Indices 1 2 3 4 5 6 
#
# 1 87.3656 23.4206 40.2683 0.0000 -9.2326 0.0000
# 2 23.4206 27.1219 12.6602 0.0000 4.8124 0.0000
# 3 40.2683 12.6602 145.5211 0.0000 7.6056 0.0000
# 4 0.0000 0.0000 0.0000 16.4122 0.0000 6.1584
# 5 -9.2326 4.8124 7.6056 0.0000 31.5810 0.0000
# 6 0.0000 0.0000 0.0000 6.1584 0.0000 22.0956
#
#
#
# Elastic Compliance Matrix: (Units=1/GPa)
#
#
# Indices 1 2 3 4 5 6 
#
# 1 0.018493 -0.015558 -0.004223 0.000000 0.008794 0.000000
# 2 -0.015558 0.052354 0.000410 0.000000 -0.012625 0.000000
# 3 -0.004223 0.000410 0.008176 0.000000 -0.003266 0.000000
# 4 0.000000 0.000000 0.000000 0.068047 0.000000 -0.018966
# 5 0.008794 -0.012625 -0.003266 0.000000 0.036946 0.000000
# 6 0.000000 0.000000 0.000000 -0.018966 0.000000 0.050544
#
#
# Mechanical properties :
#
#
# Convention : Reuss Voigt Hill
#
# Bulk Modulus (GPa) = 24.82617 45.85632 35.34125
# Shear Modulus (GPa) = 17.43807 26.26171 21.84989
#
# Velocity S-wave (km/s) = 3.22291 3.95513 3.60765
# Velocity P-wave (km/s) = 5.35140 6.94062 6.19717
#
# Compressibility (1/GPa) = 0.04028007
#
# Stress axis : x y z
#
# Youngs Moduli (GPa) = 54.07482 19.10069 122.31592
#
# Poissons Ratio (x) = 0.29717 0.51659
# Poissons Ratio (y) = 0.84130 -0.05018
# Poissons Ratio (z) = 0.22838 -0.00784
#
# Static dielectric constant tensor:
#      x y z
#    x 3.082000 0.000000 0.005170 
#    y 0.000000 2.757890 0.000000 
#    z 0.005170 0.000000 1.089440 
# 
# 
# High freq. dielectric constant tensor:
#      x y z
#    x 1.630280 0.000000 0.010220 
#    y 0.000000 1.584110 0.000000 
#    z 0.010220 0.000000 1.682500 
# 
# From -- ./inp_files/10129.got.cif
#   From: 2010.06.25/outbox.cif.g09.slc.cpg/sg15_6_cif.got.tgz:10129.got - 2010.06.28 07:06:18.
