data_PCOD8132079
_publ_section_title
;
Structure prediction by ZEFSAII (Michael W. Deem and Ramdas Pophale) SiO2 
 PCOD8132079
Probable space group: C 2/C
;
_chemical_formula_sum "Si O2"
_cell_formula_units_Z 52
_cell_length_a 24.326258
_cell_length_b 16.809147
_cell_length_c 9.179187
_cell_angle_alpha 90.000000
_cell_angle_beta 39.101086
_cell_angle_gamma 90.000000
_cell_volume 2367.235701
_symmetry_space_group_name_H-M "C 2/C"
_symmetry_group_IT_number 15
_symmetry_cell_setting 'monoclinic'
loop_
_space_group_symop_operation_xyz
x,y,z
-x,y,1/2-z
-x,-y,-z
x,-y,1/2+z
1/2+x,1/2+y,z
1/2-x,1/2+y,1/2-z
1/2-x,1/2-y,-z
1/2+x,1/2-y,1/2+z
loop_
_atom_site_type_symbol
_atom_site_label
_atom_site_fract_x
_atom_site_fract_y
_atom_site_fract_z
Si Si1 0.876448 0.946018 0.316795
Si Si2 0.653075 0.067278 0.990106
Si Si3 0.856452 0.092018 0.537271
Si Si4 0.500000 0.663596 0.750000
Si Si5 0.366149 0.217107 0.635748
Si Si6 0.322546 0.234511 0.049261
Si Si7 0.673289 0.915753 0.776693
O O1 0.899163 0.938244 0.099765
O O2 0.777311 0.922875 0.555039
O O3 0.939186 0.888654 0.274334
O O4 0.893477 0.037581 0.329798
O O5 0.753954 0.082329 0.755601
O O6 0.601539 0.135871 0.008456
O O7 0.630266 0.980446 0.973553
O O8 0.629676 0.072138 0.208606
O O9 0.877416 0.184507 0.463823
O O10 0.558297 0.717961 0.525143
O O11 0.280872 0.250445 0.728120
O O12 0.344581 0.197428 0.847256
O O13 0.350378 0.171751 0.115677
#
# Coordination Sequence:
#
# PCOD8132079 Si02
#       7
#     8   8   8   4   8   8   8
#     4  10  22  37  56  86 126 163 197 237 305 363
#     4   9  19  33  61  90 119 153 195 258 299 343
#     4   9  21  36  58  86 119 158 203 249 292 345
#     4  12  24  38  60  84 128 168 192 242 294 378
#     4  10  22  37  58  88 121 159 202 242 302 352
#     4  10  20  37  63  88 117 152 208 259 290 343
#     4  10  18  35  63  93 118 147 206 256 303 343
#
# _framework density 21.966549000000001
#
# number of rings (size 3 to 8) (size 9 to 14) (size 15 to 20)
#    0.000    2.154    1.538    0.923    4.308    6.154 
#    0.000    0.000    0.000    3.692    0.000    0.000 
#    0.000    0.000    0.000    0.000    0.000    0.000 
#
# Total GULP energy -322429.474690 kJ/mol
# GULP energy per Si atom -12401.133642 kJ/mol
# Density = 2.191655 g / cm^3
# Si number density = 21.966549 Si / 1000 Ang^3
#
#
#
# Elastic Constant Matrix: (Units=GPa)
#
#
# Indices 1 2 3 4 5 6 
#
# 1 83.5219 63.5278 33.8638 0.0000 40.0267 0.0000
# 2 63.5278 188.8574 42.5224 0.0000 34.3359 0.0000
# 3 33.8638 42.5224 40.7137 0.0000 19.0227 0.0000
# 4 0.0000 0.0000 0.0000 34.2605 0.0000 11.9806
# 5 40.0267 34.3359 19.0227 0.0000 38.1520 0.0000
# 6 0.0000 0.0000 0.0000 11.9806 0.0000 32.3045
#
#
#
# Elastic Compliance Matrix: (Units=1/GPa)
#
#
# Indices 1 2 3 4 5 6 
#
# 1 0.029917 -0.003529 -0.010452 0.000000 -0.023000 0.000000
# 2 -0.003529 0.007700 -0.004692 0.000000 -0.000888 0.000000
# 3 -0.010452 -0.004692 0.040492 0.000000 -0.005001 0.000000
# 4 0.000000 0.000000 0.000000 0.033537 0.000000 -0.012438
# 5 -0.023000 -0.000888 -0.005001 0.000000 0.053634 0.000000
# 6 0.000000 0.000000 0.000000 -0.012438 0.000000 0.035568
#
#
# Mechanical properties :
#
#
# Convention : Reuss Voigt Hill
#
# Bulk Modulus (GPa) = 24.53128 65.88012 45.20570
# Shear Modulus (GPa) = 19.85843 32.48868 26.17355
#
# Velocity S-wave (km/s) = 3.00997 3.84996 3.45558
# Velocity P-wave (km/s) = 4.82408 7.05827 6.04528
#
# Compressibility (1/GPa) = 0.04076429
#
# Stress axis : x y z
#
# Youngs Moduli (GPa) = 33.42588 129.87248 24.69597
#
# Poissons Ratio (x) = 0.45826 0.25812
# Poissons Ratio (y) = 0.11794 0.11587
# Poissons Ratio (z) = 0.34937 0.60936
#
# Static dielectric constant tensor:
#      x y z
#    x 3.862430 0.000000 0.245460 
#    y 0.000000 4.199220 0.000000 
#    z 0.245460 0.000000 3.684170 
# 
# 
# High freq. dielectric constant tensor:
#      x y z
#    x 1.849890 0.000000 0.022250 
#    y 0.000000 1.876000 0.000000 
#    z 0.022250 0.000000 1.840080 
# 
# From -- ./inp_files/56937.got.cif
#   From: 2010.06.25/outbox.cif.g09.slc.cpg/sg15_29_cif.got.tgz:56937.got - 2010.06.28 07:06:18.
