data_PCOD8132759
_publ_section_title
;
Structure prediction by ZEFSAII (Michael W. Deem and Ramdas Pophale) SiO2 
 PCOD8132759
Probable space group: C 2/C
;
_chemical_formula_sum "Si O2"
_cell_formula_units_Z 56
_cell_length_a 15.154278
_cell_length_b 17.215680
_cell_length_c 15.958168
_cell_angle_alpha 90.000000
_cell_angle_beta 140.028553
_cell_angle_gamma 90.000000
_cell_volume 2674.557269
_symmetry_space_group_name_H-M "C 2/C"
_symmetry_group_IT_number 15
_symmetry_cell_setting 'monoclinic'
loop_
_space_group_symop_operation_xyz
x,y,z
-x,y,1/2-z
-x,-y,-z
x,-y,1/2+z
1/2+x,1/2+y,z
1/2-x,1/2+y,1/2-z
1/2-x,1/2-y,-z
1/2+x,1/2-y,1/2+z
loop_
_atom_site_type_symbol
_atom_site_label
_atom_site_fract_x
_atom_site_fract_y
_atom_site_fract_z
Si Si1 0.541696 0.024002 0.875090
Si Si2 0.133882 0.244770 0.790519
Si Si3 0.108512 0.646742 0.047421
Si Si4 0.327003 0.890806 0.437341
Si Si5 0.593189 0.311415 0.072569
Si Si6 0.245289 0.959388 0.216965
Si Si7 0.199746 0.876161 0.663678
O O1 0.500000 0.037613 0.750000
O O2 0.403817 0.016885 0.827376
O O3 0.620566 0.099073 0.969498
O O4 0.629462 0.945162 0.952691
O O5 0.242254 0.183690 0.910610
O O6 0.092395 0.213547 0.669144
O O7 0.202331 0.330384 0.830889
O O8 0.000000 0.253264 0.750000
O O9 0.137687 0.737602 0.049227
O O10 0.228954 0.616512 0.194366
O O11 0.958957 0.640034 0.982430
O O12 0.226656 0.940702 0.302516
O O13 0.698048 0.382610 0.131676
O O14 0.442267 0.332316 0.932806
O O15 0.166310 0.033250 0.118230
#
# Coordination Sequence:
#
# PCOD8132759 Si02
#       7
#     8   8   8   8   8   8   8
#     4  11  22  37  63  89 114 155 209 264 308 358
#     4  10  23  37  56  92 135 166 195 254 308 367
#     4  10  19  39  61  85 114 160 211 251 299 365
#     4  10  18  41  60  82 123 164 206 245 303 369
#     4  10  22  36  61  88 117 166 208 245 306 367
#     4  10  20  37  61  87 117 157 211 251 290 369
#     4  11  19  36  60  87 121 164 202 240 300 373
#
# _framework density 20.938044000000001
#
# number of rings (size 3 to 8) (size 9 to 14) (size 15 to 20)
#    0.000    1.714    4.286    1.286    2.000    2.286 
#    0.000    0.714    0.000    0.000    0.000    0.000 
#    0.000    0.000    0.000    0.000    0.000    0.000 
#
# Total GULP energy -346960.279373 kJ/mol
# GULP energy per Si atom -12391.438549 kJ/mol
# Density = 2.089039 g / cm^3
# Si number density = 20.938044 Si / 1000 Ang^3
#
#
#
# Elastic Constant Matrix: (Units=GPa)
#
#
# Indices 1 2 3 4 5 6 
#
# 1 30.8124 29.8298 19.2466 -0.0005 -1.7882 0.0001
# 2 29.8298 189.2916 52.3529 -0.0004 -9.9025 0.0000
# 3 19.2466 52.3529 88.9531 -0.0012 -2.5889 -0.0002
# 4 -0.0005 -0.0004 -0.0012 36.7029 -0.0006 5.5506
# 5 -1.7882 -9.9025 -2.5889 -0.0006 24.4203 0.0000
# 6 0.0001 0.0000 -0.0002 5.5506 0.0000 18.4098
#
#
#
# Elastic Compliance Matrix: (Units=1/GPa)
#
#
# Indices 1 2 3 4 5 6 
#
# 1 0.040841 -0.004746 -0.006031 0.000000 0.000427 0.000000
# 2 -0.004746 0.006978 -0.003017 0.000000 0.002162 0.000000
# 3 -0.006031 -0.003017 0.014318 0.000000 -0.000147 0.000000
# 4 0.000000 0.000000 0.000000 0.028547 0.000001 -0.008607
# 5 0.000427 0.002162 -0.000147 0.000001 0.041842 0.000000
# 6 0.000000 0.000000 0.000000 -0.008607 0.000000 0.056914
#
#
# Mechanical properties :
#
#
# Convention : Reuss Voigt Hill
#
# Bulk Modulus (GPa) = 28.94418 56.87952 42.91185
# Shear Modulus (GPa) = 21.87746 29.74844 25.81295
#
# Velocity S-wave (km/s) = 3.23595 3.77342 3.51497
# Velocity P-wave (km/s) = 5.27404 6.79776 6.08379
#
# Compressibility (1/GPa) = 0.03454926
#
# Stress axis : x y z
#
# Youngs Moduli (GPa) = 24.48533 143.30088 69.84020
#
# Poissons Ratio (x) = 0.68004 0.42122
# Poissons Ratio (y) = 0.11620 0.21073
# Poissons Ratio (z) = 0.14768 0.43239
#
# Static dielectric constant tensor:
#      x y z
#    x 3.260300 0.000000 0.088550 
#    y 0.000000 4.530420 0.000000 
#    z 0.088550 0.000000 3.963150 
# 
# 
# High freq. dielectric constant tensor:
#      x y z
#    x 1.747640 0.000000 0.011080 
#    y 0.000000 1.850220 0.000000 
#    z 0.011080 0.000000 1.830980 
# 
# From -- ./inp_files/211234.got.cif
#   From: 2010.06.25/outbox.cif.g09.slc.cpg/sg15_106_cif.got.tgz:211234.got - 2010.06.28 07:06:18.
