data_PCOD8132279
_publ_section_title
;
Structure prediction by ZEFSAII (Michael W. Deem and Ramdas Pophale) SiO2 
 PCOD8132279
Probable space group: C 2/C
;
_chemical_formula_sum "Si O2"
_cell_formula_units_Z 60
_cell_length_a 11.228978
_cell_length_b 13.507367
_cell_length_c 22.049716
_cell_angle_alpha 90.000000
_cell_angle_beta 69.972555
_cell_angle_gamma 90.000000
_cell_volume 3142.128736
_symmetry_space_group_name_H-M "C 2/C"
_symmetry_group_IT_number 15
_symmetry_cell_setting 'monoclinic'
loop_
_space_group_symop_operation_xyz
x,y,z
-x,y,1/2-z
-x,-y,-z
x,-y,1/2+z
1/2+x,1/2+y,z
1/2-x,1/2+y,1/2-z
1/2-x,1/2-y,-z
1/2+x,1/2-y,1/2+z
loop_
_atom_site_type_symbol
_atom_site_label
_atom_site_fract_x
_atom_site_fract_y
_atom_site_fract_z
Si Si1 0.264562 0.177156 0.842857
Si Si2 0.484927 0.661811 0.684537
Si Si3 0.726547 0.471829 0.907446
Si Si4 0.363520 0.212280 0.436730
Si Si5 0.675611 0.400813 0.525286
Si Si6 0.110876 0.717823 0.468722
Si Si7 0.515778 0.559254 0.347614
Si Si8 0.500000 0.714042 0.250000
O O1 0.155109 0.188694 0.812345
O O2 0.223978 0.247282 0.904789
O O3 0.391834 0.213372 0.790785
O O4 0.290030 0.065305 0.862078
O O5 0.500000 0.704364 0.750000
O O6 0.591348 0.704789 0.619626
O O7 0.490101 0.543821 0.686169
O O8 0.825918 0.384604 0.904644
O O9 0.615512 0.431597 0.884579
O O10 0.664882 0.506836 0.981543
O O11 0.250000 0.250000 0.500000
O O12 0.481805 0.183872 0.459245
O O13 0.825332 0.372413 0.505224
O O14 0.586120 0.310927 0.517020
O O15 0.624132 0.430332 0.599942
O O16 0.551241 0.645540 0.294965
#
# Coordination Sequence:
#
# PCOD8132279 Si02
#       8
#     8   8   8   8   8   8   8   4
#     4   9  21  41  57  85 120 156 196 247 299 361
#     4  10  22  41  59  84 122 158 197 252 307 351
#     4  10  22  38  59  90 121 153 197 249 307 359
#     4  11  22  39  61  90 122 162 205 245 300 371
#     4  10  18  36  62  86 118 154 195 253 303 345
#     4   9  19  36  60  87 122 154 189 247 311 343
#     4  11  21  37  63  89 112 157 211 244 289 360
#     4  12  22  38  64  86 118 152 216 244 282 374
#
# _framework density 19.095336
#
# number of rings (size 3 to 8) (size 9 to 14) (size 15 to 20)
#    0.000    1.867    2.000    2.800    1.867    0.533 
#    1.200    2.667    0.000    0.000    0.000    0.000 
#    0.000    0.000    0.000    0.000    0.000    0.000 
#
# Total GULP energy -371901.352906 kJ/mol
# GULP energy per Si atom -12396.711764 kJ/mol
# Density = 1.905187 g / cm^3
# Si number density = 19.095336 Si / 1000 Ang^3
#
#
#
# Elastic Constant Matrix: (Units=GPa)
#
#
# Indices 1 2 3 4 5 6 
#
# 1 107.5430 50.5199 43.3240 0.0000 4.5137 0.0000
# 2 50.5199 80.0970 26.3592 0.0000 -1.5920 0.0000
# 3 43.3240 26.3592 94.8789 0.0000 0.4899 0.0000
# 4 0.0000 0.0000 0.0000 28.5495 0.0000 2.5065
# 5 4.5137 -1.5920 0.4899 0.0000 35.6244 0.0000
# 6 0.0000 0.0000 0.0000 2.5065 0.0000 24.4015
#
#
#
# Elastic Compliance Matrix: (Units=1/GPa)
#
#
# Indices 1 2 3 4 5 6 
#
# 1 0.015004 -0.007986 -0.004621 0.000000 -0.002194 0.000000
# 2 -0.007986 0.018008 -0.001366 0.000000 0.001835 0.000000
# 3 -0.004621 -0.001366 0.013027 0.000000 0.000345 0.000000
# 4 0.000000 0.000000 0.000000 0.035346 0.000000 -0.003631
# 5 -0.002194 0.001835 0.000345 0.000000 0.028426 0.000000
# 6 0.000000 0.000000 0.000000 -0.003631 0.000000 0.041354
#
#
# Mechanical properties :
#
#
# Convention : Reuss Voigt Hill
#
# Bulk Modulus (GPa) = 55.26929 58.10277 56.68603
# Shear Modulus (GPa) = 27.00620 28.53614 27.77117
#
# Velocity S-wave (km/s) = 3.76477 3.86995 3.81772
# Velocity P-wave (km/s) = 6.92133 7.10369 7.01310
#
# Compressibility (1/GPa) = 0.01809323
#
# Stress axis : x y z
#
# Youngs Moduli (GPa) = 66.64859 55.53056 76.76077
#
# Poissons Ratio (x) = 0.44349 0.35472
# Poissons Ratio (y) = 0.53228 0.10483
# Poissons Ratio (z) = 0.30799 0.07584
#
# Static dielectric constant tensor:
#      x y z
#    x 3.387770 0.000000 0.194610 
#    y 0.000000 3.480310 0.000000 
#    z 0.194610 0.000000 3.541090 
# 
# 
# High freq. dielectric constant tensor:
#      x y z
#    x 1.737320 0.000000 0.015890 
#    y 0.000000 1.739710 0.000000 
#    z 0.015890 0.000000 1.745260 
# 
# From -- ./inp_files/268801.got.cif
#   From: 2010.06.25/outbox.cif.g09.slc.cpg/sg15_135_cif.got.tgz:268801.got - 2010.06.28 07:06:18.
