data_PCOD8132659
_publ_section_title
;
Structure prediction by ZEFSAII (Michael W. Deem and Ramdas Pophale) SiO2 
 PCOD8132659
Probable space group: C 2/C
;
_chemical_formula_sum "Si O2"
_cell_formula_units_Z 40
_cell_length_a 8.437014
_cell_length_b 22.868565
_cell_length_c 19.749029
_cell_angle_alpha 90.000000
_cell_angle_beta 30.119633
_cell_angle_gamma 90.000000
_cell_volume 1912.098608
_symmetry_space_group_name_H-M "C 2/C"
_symmetry_group_IT_number 15
_symmetry_cell_setting 'monoclinic'
loop_
_space_group_symop_operation_xyz
x,y,z
-x,y,1/2-z
-x,-y,-z
x,-y,1/2+z
1/2+x,1/2+y,z
1/2-x,1/2+y,1/2-z
1/2-x,1/2-y,-z
1/2+x,1/2-y,1/2+z
loop_
_atom_site_type_symbol
_atom_site_label
_atom_site_fract_x
_atom_site_fract_y
_atom_site_fract_z
Si Si1 0.100057 0.838532 0.527267
Si Si2 0.916285 0.949762 0.202444
Si Si3 0.265585 0.233822 0.704421
Si Si4 0.303523 0.528231 0.511091
Si Si5 0.649294 0.339725 0.360923
O O1 0.447347 0.812088 0.411273
O O2 0.086414 0.906492 0.549230
O O3 0.969416 0.831125 0.498355
O O4 0.862579 0.801605 0.662067
O O5 0.556168 0.971627 0.330519
O O6 0.987633 0.888252 0.139157
O O7 0.000000 0.944764 0.250000
O O8 0.144418 0.994382 0.078456
O O9 0.140086 0.223357 0.827068
O O10 0.000000 0.215390 0.750000
O O11 0.500000 0.500000 0.500000
O O12 0.000000 0.361473 0.250000
#
# Coordination Sequence:
#
# PCOD8132659 Si02
#       5
#     8   8   8   8   8
#     4  10  22  40  63  93 125 169 223 263 326 404
#     4  12  24  41  65  99 132 173 221 280 334 386
#     4  10  21  38  63  91 124 164 211 277 321 387
#     4  12  23  43  69  96 133 182 222 271 329 412
#     4  10  18  39  64  84 121 171 211 254 332 400
#
# _framework density 20.919422999999998
#
# number of rings (size 3 to 8) (size 9 to 14) (size 15 to 20)
#    0.000    1.200    6.000    1.800    0.000    2.400 
#    0.000    5.000    0.000    0.000    0.000    0.000 
#    0.000    0.000    0.000    0.000    0.000    0.000 
#
# Total GULP energy -247879.987359 kJ/mol
# GULP energy per Si atom -12393.999368 kJ/mol
# Density = 2.087181 g / cm^3
# Si number density = 20.919423 Si / 1000 Ang^3
#
#
#
# Elastic Constant Matrix: (Units=GPa)
#
#
# Indices 1 2 3 4 5 6 
#
# 1 111.1903 40.7182 18.4409 -0.0018 3.3755 -0.0086
# 2 40.7182 144.8843 31.0224 0.0066 16.2252 -0.0034
# 3 18.4409 31.0224 53.2808 -0.0579 6.5922 0.0003
# 4 -0.0018 0.0066 -0.0579 25.3322 -0.0039 12.6548
# 5 3.3755 16.2252 6.5922 -0.0039 36.7774 -0.0046
# 6 -0.0086 -0.0034 0.0003 12.6548 -0.0046 37.4112
#
#
#
# Elastic Compliance Matrix: (Units=1/GPa)
#
#
# Indices 1 2 3 4 5 6 
#
# 1 0.010243 -0.002474 -0.002172 -0.000006 0.000541 0.000004
# 2 -0.002474 0.008757 -0.003879 -0.000014 -0.002941 0.000005
# 3 -0.002172 -0.003879 0.022031 0.000062 -0.002038 -0.000022
# 4 -0.000006 -0.000014 0.000062 0.047503 -0.000001 -0.016068
# 5 0.000541 -0.002941 -0.002038 -0.000001 0.028804 0.000004
# 6 0.000004 0.000005 -0.000022 -0.016068 0.000004 0.032165
#
#
# Mechanical properties :
#
#
# Convention : Reuss Voigt Hill
#
# Bulk Modulus (GPa) = 41.69735 54.41316 48.05525
# Shear Modulus (GPa) = 28.64565 34.51572 31.58069
#
# Velocity S-wave (km/s) = 3.70446 4.06635 3.88962
# Velocity P-wave (km/s) = 6.18652 6.93644 6.57219
#
# Compressibility (1/GPa) = 0.02398234
#
# Stress axis : x y z
#
# Youngs Moduli (GPa) = 97.62322 114.19012 45.39127
#
# Poissons Ratio (x) = 0.28255 0.09857
# Poissons Ratio (y) = 0.24156 0.17606
# Poissons Ratio (z) = 0.21199 0.44290
#
# Static dielectric constant tensor:
#      x y z
#    x 4.047600 0.000000 0.205680 
#    y 0.000000 3.837580 0.000040 
#    z 0.205680 0.000040 3.832210 
# 
# 
# High freq. dielectric constant tensor:
#      x y z
#    x 1.828710 0.000000 0.005480 
#    y 0.000000 1.822060 0.000000 
#    z 0.005480 0.000000 1.798270 
# 
# From -- ./inp_files/266011.got.cif
#   From: 2010.06.25/outbox.cif.g09.slc.cpg/sg15_134_cif.got.tgz:266011.got - 2010.06.28 07:06:18.
