data_PCOD8132930
_publ_section_title
;
Structure prediction by ZEFSAII (Michael W. Deem and Ramdas Pophale) SiO2 
 PCOD8132930
Probable space group: C 2/C
;
_chemical_formula_sum "Si O2"
_cell_formula_units_Z 60
_cell_length_a 25.657992
_cell_length_b 27.213662
_cell_length_c 5.463345
_cell_angle_alpha 90.000000
_cell_angle_beta 65.085263
_cell_angle_gamma 90.000000
_cell_volume 3459.750421
_symmetry_space_group_name_H-M "C 2/C"
_symmetry_group_IT_number 15
_symmetry_cell_setting 'monoclinic'
loop_
_space_group_symop_operation_xyz
x,y,z
-x,y,1/2-z
-x,-y,-z
x,-y,1/2+z
1/2+x,1/2+y,z
1/2-x,1/2+y,1/2-z
1/2-x,1/2-y,-z
1/2+x,1/2-y,1/2+z
loop_
_atom_site_type_symbol
_atom_site_label
_atom_site_fract_x
_atom_site_fract_y
_atom_site_fract_z
Si Si1 0.807297 0.717582 0.881268
Si Si2 0.388937 0.695451 0.239248
Si Si3 0.321560 0.375295 0.188681
Si Si4 0.579596 0.521190 0.493797
Si Si5 0.071353 0.122687 0.711092
Si Si6 0.791449 0.982825 0.211152
Si Si7 0.000000 0.836549 0.750000
Si Si8 0.770818 0.693820 0.453253
O O1 0.865024 0.749983 0.755619
O O2 0.806458 0.684151 0.635836
O O3 0.750000 0.750000 0.000000
O O4 0.808386 0.685595 0.131128
O O5 0.337158 0.660461 0.433337
O O6 0.442903 0.696131 0.320914
O O7 0.410616 0.674979 0.937897
O O8 0.379630 0.394526 0.198683
O O9 0.291445 0.424693 0.153990
O O10 0.281879 0.344419 0.454343
O O11 0.550896 0.500882 0.299045
O O12 0.567159 0.579637 0.518086
O O13 0.647038 0.508635 0.360138
O O14 0.011689 0.130518 0.981619
O O15 0.759789 0.992577 0.537033
O O16 0.750000 0.750000 0.500000
#
# Coordination Sequence:
#
# PCOD8132930 Si02
#       8
#     8   8   8   8   8   8   4   8
#     4  10  19  33  51  73 100 115 146 194 247 302
#     4  11  21  35  53  67  94 125 156 205 255 303
#     4  11  20  29  55  69  97 126 152 210 259 291
#     4  10  19  34  50  67  88 112 162 208 255 300
#     4  11  21  35  52  65  90 123 163 214 255 299
#     4  10  19  31  44  71  93 122 166 195 244 300
#     4  10  26  36  46  74  86 124 174 196 264 308
#     4  10  19  32  45  80  97 116 152 188 257 304
#
# _framework density 17.342292
#
# number of rings (size 3 to 8) (size 9 to 14) (size 15 to 20)
#    0.000    1.600    5.333    3.600    3.733    0.000 
#    0.000    0.667    0.000    0.000    0.000    0.000 
#    0.000    0.000    0.000    0.000    0.000    0.000 
#
# Total GULP energy -371804.494592 kJ/mol
# GULP energy per Si atom -12393.483153 kJ/mol
# Density = 1.730282 g / cm^3
# Si number density = 17.342292 Si / 1000 Ang^3
#
#
#
# Elastic Constant Matrix: (Units=GPa)
#
#
# Indices 1 2 3 4 5 6 
#
# 1 42.0807 19.8918 28.5697 0.0000 9.8270 0.0000
# 2 19.8918 46.7110 27.6845 0.0000 -11.2659 0.0000
# 3 28.5697 27.6845 120.9075 0.0000 26.7432 0.0000
# 4 0.0000 0.0000 0.0000 26.5826 0.0000 2.6204
# 5 9.8270 -11.2659 26.7432 0.0000 31.3447 0.0000
# 6 0.0000 0.0000 0.0000 2.6204 0.0000 12.4513
#
#
#
# Elastic Compliance Matrix: (Units=1/GPa)
#
#
# Indices 1 2 3 4 5 6 
#
# 1 0.038259 -0.021156 0.000171 0.000000 -0.019745 0.000000
# 2 -0.021156 0.046810 -0.013445 0.000000 0.034928 0.000000
# 3 0.000171 -0.013445 0.015272 0.000000 -0.017916 0.000000
# 4 0.000000 0.000000 0.000000 0.038416 0.000000 -0.008085
# 5 -0.019745 0.034928 -0.017916 0.000000 0.065933 0.000000
# 6 0.000000 0.000000 0.000000 -0.008085 0.000000 0.082014
#
#
# Mechanical properties :
#
#
# Convention : Reuss Voigt Hill
#
# Bulk Modulus (GPa) = 31.76513 40.22123 35.99318
# Shear Modulus (GPa) = 13.65906 22.97927 18.31917
#
# Velocity S-wave (km/s) = 2.80949 3.64406 3.25365
# Velocity P-wave (km/s) = 5.37407 6.39910 5.90886
#
# Compressibility (1/GPa) = 0.03148106
#
# Stress axis : x y z
#
# Youngs Moduli (GPa) = 26.13744 21.36288 65.48109
#
# Poissons Ratio (x) = 0.45196 -0.01120
# Poissons Ratio (y) = 0.55297 0.88039
# Poissons Ratio (z) = -0.00447 0.28722
#
# Static dielectric constant tensor:
#      x y z
#    x 3.208580 0.000000 0.708060 
#    y 0.000000 2.949110 0.000000 
#    z 0.708060 0.000000 4.199530 
# 
# 
# High freq. dielectric constant tensor:
#      x y z
#    x 1.629830 0.000000 0.045350 
#    y 0.000000 1.628340 0.000000 
#    z 0.045350 0.000000 1.681290 
# 
# From -- ./inp_files/14296.got.cif
#   From: 2010.06.25/outbox.cif.g09.slc.cpg/sg15_8_cif.got.tgz:14296.got - 2010.06.28 07:06:18.
