data_PCOD8132213
_publ_section_title
;
Structure prediction by ZEFSAII (Michael W. Deem and Ramdas Pophale) SiO2 
 PCOD8132213
Probable space group: C 2/C
;
_chemical_formula_sum "Si O2"
_cell_formula_units_Z 56
_cell_length_a 8.554649
_cell_length_b 16.677530
_cell_length_c 20.189785
_cell_angle_alpha 90.000000
_cell_angle_beta 112.699750
_cell_angle_gamma 90.000000
_cell_volume 2657.361989
_symmetry_space_group_name_H-M "C 2/C"
_symmetry_group_IT_number 15
_symmetry_cell_setting 'monoclinic'
loop_
_space_group_symop_operation_xyz
x,y,z
-x,y,1/2-z
-x,-y,-z
x,-y,1/2+z
1/2+x,1/2+y,z
1/2-x,1/2+y,1/2-z
1/2-x,1/2-y,-z
1/2+x,1/2-y,1/2+z
loop_
_atom_site_type_symbol
_atom_site_label
_atom_site_fract_x
_atom_site_fract_y
_atom_site_fract_z
Si Si1 0.715807 0.451555 0.094474
Si Si2 0.545423 0.217865 0.132051
Si Si3 0.405040 0.300631 0.496976
Si Si4 0.577502 0.045145 0.694732
Si Si5 0.802311 0.102664 0.229768
Si Si6 0.791047 0.130453 0.382646
Si Si7 0.622670 0.625508 0.715189
O O1 0.644978 0.392563 0.027028
O O2 0.672945 0.544821 0.075489
O O3 0.634037 0.430488 0.152302
O O4 0.919512 0.438193 0.121265
O O5 0.529374 0.254945 0.056896
O O6 0.722016 0.170696 0.169531
O O7 0.386636 0.161049 0.118109
O O8 0.548916 0.287829 0.187088
O O9 0.250000 0.250000 0.500000
O O10 0.558958 0.307304 0.574548
O O11 0.500000 0.010770 0.750000
O O12 0.684825 0.127578 0.723548
O O13 0.711149 0.979089 0.691530
O O14 0.769959 0.122453 0.301036
O O15 0.000000 0.096631 0.250000
O O16 0.500000 0.585718 0.750000
#
# Coordination Sequence:
#
# PCOD8132213 Si02
#       7
#     8   8   8   8   8   8   8
#     4  10  22  40  67  89 128 177 215 264 330 391
#     4  11  24  42  65  95 132 179 217 269 336 393
#     4  11  26  46  63  94 134 174 225 276 328 390
#     4  10  18  36  59  90 130 159 205 263 322 378
#     4  12  22  36  66 100 129 166 218 276 322 387
#     4  12  22  43  69  92 131 177 220 266 332 399
#     4  10  20  35  60  97 131 160 212 268 325 382
#
# _framework density 21.073532
#
# number of rings (size 3 to 8) (size 9 to 14) (size 15 to 20)
#    0.000    1.143    4.286    3.429    0.000    5.143 
#    0.000    0.714    0.000    0.000    0.000    0.000 
#    0.000    0.000    0.000    0.000    0.000    0.000 
#
# Total GULP energy -347072.288635 kJ/mol
# GULP energy per Si atom -12395.438880 kJ/mol
# Density = 2.102557 g / cm^3
# Si number density = 21.073532 Si / 1000 Ang^3
#
#
#
# Elastic Constant Matrix: (Units=GPa)
#
#
# Indices 1 2 3 4 5 6 
#
# 1 132.5466 43.1285 23.9622 0.0000 7.7392 0.0000
# 2 43.1285 107.3108 24.1227 0.0000 -0.9178 0.0000
# 3 23.9622 24.1227 60.7250 0.0000 8.3417 0.0000
# 4 0.0000 0.0000 0.0000 19.1412 0.0000 7.6889
# 5 7.7392 -0.9178 8.3417 0.0000 26.3600 0.0000
# 6 0.0000 0.0000 0.0000 7.6889 0.0000 31.9844
#
#
#
# Elastic Compliance Matrix: (Units=1/GPa)
#
#
# Indices 1 2 3 4 5 6 
#
# 1 0.009079 -0.003215 -0.002011 0.000000 -0.002141 0.000000
# 2 -0.003215 0.011446 -0.003620 0.000000 0.002488 0.000000
# 3 -0.002011 -0.003620 0.019482 0.000000 -0.005701 0.000000
# 4 0.000000 0.000000 0.000000 0.057827 0.000000 -0.013901
# 5 -0.002141 0.002488 -0.005701 0.000000 0.040456 0.000000
# 6 0.000000 0.000000 0.000000 -0.013901 0.000000 0.034607
#
#
# Mechanical properties :
#
#
# Convention : Reuss Voigt Hill
#
# Bulk Modulus (GPa) = 44.81328 53.66768 49.24048
# Shear Modulus (GPa) = 25.24884 29.45504 27.35194
#
# Velocity S-wave (km/s) = 3.46516 3.74267 3.60659
# Velocity P-wave (km/s) = 6.10910 6.64823 6.38436
#
# Compressibility (1/GPa) = 0.02231481
#
# Stress axis : x y z
#
# Youngs Moduli (GPa) = 110.14034 87.36739 51.32816
#
# Poissons Ratio (x) = 0.28090 0.10324
# Poissons Ratio (y) = 0.35412 0.18580
# Poissons Ratio (z) = 0.22154 0.31626
#
# Static dielectric constant tensor:
#      x y z
#    x 3.947510 0.000000 0.182190 
#    y 0.000000 3.913460 0.000000 
#    z 0.182190 0.000000 3.772270 
# 
# 
# High freq. dielectric constant tensor:
#      x y z
#    x 1.837200 0.000000 0.015020 
#    y 0.000000 1.830870 0.000000 
#    z 0.015020 0.000000 1.806210 
# 
# From -- ./inp_files/191056.got.cif
#   From: 2010.06.25/outbox.cif.g09.slc.cpg/sg15_96_cif.got.tgz:191056.got - 2010.06.28 07:06:18.
