data_PCOD8132699
_publ_section_title
;
Structure prediction by ZEFSAII (Michael W. Deem and Ramdas Pophale) SiO2 
 PCOD8132699
Probable space group: C 2/C
;
_chemical_formula_sum "Si O2"
_cell_formula_units_Z 48
_cell_length_a 8.935577
_cell_length_b 15.549493
_cell_length_c 17.757261
_cell_angle_alpha 90.000000
_cell_angle_beta 87.871066
_cell_angle_gamma 90.000000
_cell_volume 2465.556406
_symmetry_space_group_name_H-M "C 2/C"
_symmetry_group_IT_number 15
_symmetry_cell_setting 'monoclinic'
loop_
_space_group_symop_operation_xyz
x,y,z
-x,y,1/2-z
-x,-y,-z
x,-y,1/2+z
1/2+x,1/2+y,z
1/2-x,1/2+y,1/2-z
1/2-x,1/2-y,-z
1/2+x,1/2-y,1/2+z
loop_
_atom_site_type_symbol
_atom_site_label
_atom_site_fract_x
_atom_site_fract_y
_atom_site_fract_z
Si Si1 0.246621 0.904659 0.581843
Si Si2 0.722893 0.062707 0.589480
Si Si3 0.891817 0.253487 0.359866
Si Si4 0.456133 0.091215 0.334524
Si Si5 0.678201 0.686874 0.301376
Si Si6 0.512785 0.507797 0.329975
O O1 0.280246 0.943795 0.500107
O O2 0.157026 0.814517 0.574761
O O3 0.399658 0.882004 0.621362
O O4 0.149089 0.973999 0.630422
O O5 0.660142 0.152501 0.619177
O O6 0.893002 0.050742 0.614383
O O7 0.618193 0.988902 0.623162
O O8 0.814382 0.219852 0.284356
O O9 0.074053 0.253435 0.350300
O O10 0.500000 0.061615 0.250000
O O11 0.344685 0.174529 0.332437
O O12 0.599167 0.594719 0.306832
O O13 0.500000 0.457584 0.250000
#
# Coordination Sequence:
#
# PCOD8132699 Si02
#       6
#     8   8   8   8   8   8
#     4  11  20  39  60  83 121 153 188 235 301 356
#     4  11  24  34  58  93 116 146 191 252 292 339
#     4  10  19  38  58  81 116 149 192 237 299 345
#     4  11  21  38  60  84 111 156 204 235 283 353
#     4   9  18  37  62  79 105 158 199 229 285 356
#     4  10  18  40  61  82 109 159 200 229 276 357
#
# _framework density 19.468221
#
# number of rings (size 3 to 8) (size 9 to 14) (size 15 to 20)
#    0.000    1.667    5.000    2.500    2.333    0.000 
#    3.000    0.833    0.000    0.000    0.000    0.000 
#    0.000    0.000    0.000    0.000    0.000    0.000 
#
# Total GULP energy -297518.654451 kJ/mol
# GULP energy per Si atom -12396.610602 kJ/mol
# Density = 1.942391 g / cm^3
# Si number density = 19.468221 Si / 1000 Ang^3
#
#
#
# Elastic Constant Matrix: (Units=GPa)
#
#
# Indices 1 2 3 4 5 6 
#
# 1 143.4754 34.5930 59.0524 0.0000 -1.5727 0.0000
# 2 34.5930 66.9708 33.7884 0.0000 -14.8131 0.0000
# 3 59.0524 33.7884 131.4293 0.0000 -3.8325 0.0000
# 4 0.0000 0.0000 0.0000 13.3258 0.0000 -2.3102
# 5 -1.5727 -14.8131 -3.8325 0.0000 26.4929 0.0000
# 6 0.0000 0.0000 0.0000 -2.3102 0.0000 19.8487
#
#
#
# Elastic Compliance Matrix: (Units=1/GPa)
#
#
# Indices 1 2 3 4 5 6 
#
# 1 0.009133 -0.003488 -0.003262 0.000000 -0.001880 0.000000
# 2 -0.003488 0.020926 -0.003492 0.000000 0.010988 0.000000
# 3 -0.003262 -0.003492 0.009951 0.000000 -0.000707 0.000000
# 4 0.000000 0.000000 0.000000 0.076588 0.000000 0.008914
# 5 -0.001880 0.010988 -0.000707 0.000000 0.043676 0.000000
# 6 0.000000 0.000000 0.000000 0.008914 0.000000 0.051419
#
#
# Mechanical properties :
#
#
# Convention : Reuss Voigt Hill
#
# Bulk Modulus (GPa) = 51.21168 66.30478 58.75823
# Shear Modulus (GPa) = 20.94822 26.22957 23.58890
#
# Velocity S-wave (km/s) = 3.28383 3.67454 3.48467
# Velocity P-wave (km/s) = 6.38283 7.22045 6.81452
#
# Compressibility (1/GPa) = 0.01952679
#
# Stress axis : x y z
#
# Youngs Moduli (GPa) = 109.49897 47.78816 100.48940
#
# Poissons Ratio (x) = 0.16666 0.32775
# Poissons Ratio (y) = 0.38188 0.35094
# Poissons Ratio (z) = 0.35714 0.16689
#
# Static dielectric constant tensor:
#      x y z
#    x 4.050490 0.000000 -0.074760 
#    y 0.000000 3.258400 0.000000 
#    z -0.074760 0.000000 3.603240 
# 
# 
# High freq. dielectric constant tensor:
#      x y z
#    x 1.770250 0.000000 -0.012490 
#    y 0.000000 1.727620 0.000000 
#    z -0.012490 0.000000 1.758230 
# 
# From -- ./inp_files/189231.got.cif
#   From: 2010.06.25/outbox.cif.g09.slc.cpg/sg15_95_cif.got.tgz:189231.got - 2010.06.28 07:06:18.
