data_PCOD8132544
_publ_section_title
;
Structure prediction by ZEFSAII (Michael W. Deem and Ramdas Pophale) SiO2 
 PCOD8132544
Probable space group: C 2/C
;
_chemical_formula_sum "Si O2"
_cell_formula_units_Z 60
_cell_length_a 8.199107
_cell_length_b 12.428687
_cell_length_c 28.062240
_cell_angle_alpha 90.000000
_cell_angle_beta 89.994873
_cell_angle_gamma 90.000000
_cell_volume 2859.658270
_symmetry_space_group_name_H-M "C 2/C"
_symmetry_group_IT_number 15
_symmetry_cell_setting 'monoclinic'
loop_
_space_group_symop_operation_xyz
x,y,z
-x,y,1/2-z
-x,-y,-z
x,-y,1/2+z
1/2+x,1/2+y,z
1/2-x,1/2+y,1/2-z
1/2-x,1/2-y,-z
1/2+x,1/2-y,1/2+z
loop_
_atom_site_type_symbol
_atom_site_label
_atom_site_fract_x
_atom_site_fract_y
_atom_site_fract_z
Si Si1 0.342731 0.174651 0.854968
Si Si2 0.864915 0.589870 0.487942
Si Si3 0.184746 0.406708 0.246467
Si Si4 0.794917 0.625612 0.650804
Si Si5 0.133101 0.193669 0.561045
Si Si6 0.108906 0.091600 0.148758
Si Si7 0.000000 0.947079 0.750000
Si Si8 0.122908 0.028281 0.919860
O O1 0.307356 0.170392 0.798757
O O2 0.523695 0.137327 0.868859
O O3 0.312084 0.298010 0.870294
O O4 0.226050 0.097204 0.883213
O O5 0.929004 0.688519 0.455054
O O6 0.795255 0.648152 0.535016
O O7 0.723239 0.531491 0.459822
O O8 0.000000 0.500000 0.500000
O O9 0.216896 0.335259 0.294226
O O10 0.332685 0.489043 0.240880
O O11 0.000000 0.459260 0.250000
O O12 0.672766 0.695080 0.617858
O O13 0.747427 0.499289 0.650568
O O14 0.991394 0.108843 0.550627
O O15 0.028152 0.117837 0.200742
O O16 0.971412 0.060270 0.110821
#
# Coordination Sequence:
#
# PCOD8132544 Si02
#       8
#     8   8   8   8   8   8   4   8
#     4  11  21  37  61  90 124 166 210 249 315 369
#     4  11  24  42  66  92 120 161 203 260 318 372
#     4   9  19  35  62  88 127 169 211 261 310 376
#     4   9  20  39  60  85 124 159 202 263 299 369
#     4  10  23  43  63  90 124 157 205 254 319 375
#     4  10  22  37  62  88 122 167 207 252 310 370
#     4  10  18  38  62  84 128 172 208 262 318 362
#     4  11  23  40  63  94 125 163 206 257 309 382
#
# _framework density 20.981528999999998
#
# number of rings (size 3 to 8) (size 9 to 14) (size 15 to 20)
#    0.000    1.867    1.333    2.000    2.800    4.800 
#    0.000    0.000   11.733    0.000    0.000    0.000 
#    0.000    0.000    0.000    0.000    0.000    0.000 
#
# Total GULP energy -371789.137843 kJ/mol
# GULP energy per Si atom -12392.971261 kJ/mol
# Density = 2.093377 g / cm^3
# Si number density = 20.981529 Si / 1000 Ang^3
#
#
#
# Elastic Constant Matrix: (Units=GPa)
#
#
# Indices 1 2 3 4 5 6 
#
# 1 65.9442 26.3148 16.3232 0.0000 11.3023 0.0000
# 2 26.3148 87.9974 24.0689 0.0000 8.7298 0.0000
# 3 16.3232 24.0689 79.2929 0.0000 18.7487 0.0000
# 4 0.0000 0.0000 0.0000 -432.4173 0.0000 140.1214
# 5 11.3023 8.7298 18.7487 0.0000 33.8039 0.0000
# 6 0.0000 0.0000 0.0000 140.1214 0.0000 -20.9836
#
#
#
# Elastic Compliance Matrix: (Units=1/GPa)
#
#
# Indices 1 2 3 4 5 6 
#
# 1 0.018043 -0.004622 -0.001343 0.000000 -0.004094 0.000000
# 2 -0.004622 0.013625 -0.003128 0.000000 -0.000238 0.000000
# 3 -0.001343 -0.003128 0.015584 0.000000 -0.007386 0.000000
# 4 0.000000 0.000000 0.000000 0.001987 0.000000 0.013269
# 5 -0.004094 -0.000238 -0.007386 0.000000 0.035109 0.000000
# 6 0.000000 0.000000 0.000000 0.013269 0.000000 0.040947
#
#
# Mechanical properties :
#
#
# Convention : Reuss Voigt Hill
#
# Bulk Modulus (GPa) = 34.40495 40.73870 37.57183
# Shear Modulus (GPa) = 32.64317 -72.81756 -20.08719
#
# Velocity S-wave (km/s) = 3.94865 -5.89753 -3.09750
# Velocity P-wave (km/s) = 6.10102 5.18806 2.27008
#
# Compressibility (1/GPa) = 0.02906558
#
# Stress axis : x y z
#
# Youngs Moduli (GPa) = 55.42346 73.39251 64.16835
#
# Poissons Ratio (x) = 0.33922 0.08620
# Poissons Ratio (y) = 0.25617 0.20072
# Poissons Ratio (z) = 0.07445 0.22957
#
# Static dielectric constant tensor:
#      x y z
#    x 3.859290 0.000000 0.020240 
#    y 0.000000 3.662160 0.000000 
#    z 0.020240 0.000000 4.214950 
# 
# 
# High freq. dielectric constant tensor:
#      x y z
#    x 1.822240 0.000000 0.008820 
#    y 0.000000 1.805720 0.000000 
#    z 0.008820 0.000000 1.837860 
# 
# From -- ./inp_files/307174.got.cif
#   From: 2010.06.25/outbox.cif.g09.slc.cpg/sg15_154_cif.got.tgz:307174.got - 2010.06.28 07:06:18.
