data_PCOD8132121
_publ_section_title
;
Structure prediction by ZEFSAII (Michael W. Deem and Ramdas Pophale) SiO2 
 PCOD8132121
Probable space group: C 2/C
;
_chemical_formula_sum "Si O2"
_cell_formula_units_Z 56
_cell_length_a 10.772220
_cell_length_b 26.361589
_cell_length_c 14.012040
_cell_angle_alpha 90.000000
_cell_angle_beta 42.840849
_cell_angle_gamma 90.000000
_cell_volume 2705.604069
_symmetry_space_group_name_H-M "C 2/C"
_symmetry_group_IT_number 15
_symmetry_cell_setting 'monoclinic'
loop_
_space_group_symop_operation_xyz
x,y,z
-x,y,1/2-z
-x,-y,-z
x,-y,1/2+z
1/2+x,1/2+y,z
1/2-x,1/2+y,1/2-z
1/2-x,1/2-y,-z
1/2+x,1/2-y,1/2+z
loop_
_atom_site_type_symbol
_atom_site_label
_atom_site_fract_x
_atom_site_fract_y
_atom_site_fract_z
Si Si1 0.578852 0.315189 0.605439
Si Si2 0.526207 0.795329 0.122592
Si Si3 0.233993 0.630636 0.826645
Si Si4 0.126815 0.100057 0.554965
Si Si5 0.074802 0.445600 0.985937
Si Si6 0.163152 0.092174 0.326149
Si Si7 0.901272 0.981670 0.901692
O O1 0.500000 0.300389 0.750000
O O2 0.558751 0.261370 0.560314
O O3 0.462711 0.360611 0.629109
O O4 0.792427 0.329632 0.497406
O O5 0.500000 0.797042 0.250000
O O6 0.353730 0.817117 0.161081
O O7 0.421350 0.621645 0.663623
O O8 0.266496 0.631119 0.923038
O O9 0.094422 0.586048 0.879675
O O10 0.233635 0.104171 0.393878
O O11 0.118392 0.041453 0.587490
O O12 0.170135 0.417668 0.840546
O O13 0.205965 0.453777 0.003627
O O14 0.000000 0.500000 0.000000
O O15 0.030007 0.042427 0.411434
O O16 0.000000 0.963837 0.750000
#
# Coordination Sequence:
#
# PCOD8132121 Si02
#       7
#     8   8   8   8   8   8   8
#     4  10  20  39  60  91 118 146 192 260 313 353
#     4  10  21  37  64  90 116 148 202 254 304 363
#     4  11  21  38  58  81 120 161 191 245 306 349
#     4  11  22  38  54  81 123 159 200 237 293 366
#     4  11  21  37  58  82 116 153 201 250 305 358
#     4  11  22  35  60  85 114 157 202 240 301 366
#     4  10  18  36  55  79 111 153 191 241 293 348
#
# _framework density 20.697780999999999
#
# number of rings (size 3 to 8) (size 9 to 14) (size 15 to 20)
#    0.000    1.429    2.857    5.143    0.000    0.571 
#    0.000    2.143    0.000    1.714    0.000    0.000 
#    0.000    0.000    0.000    0.000    0.000    0.000 
#
# Total GULP energy -346966.984333 kJ/mol
# GULP energy per Si atom -12391.678012 kJ/mol
# Density = 2.065067 g / cm^3
# Si number density = 20.697781 Si / 1000 Ang^3
#
#
#
# Elastic Constant Matrix: (Units=GPa)
#
#
# Indices 1 2 3 4 5 6 
#
# 1 87.3623 32.0931 23.3526 0.0000 -6.6394 0.0000
# 2 32.0931 85.8643 14.4269 0.0000 -7.2307 0.0000
# 3 23.3526 14.4269 68.4423 0.0000 -6.4403 0.0000
# 4 0.0000 0.0000 0.0000 27.2583 0.0000 -10.4740
# 5 -6.6394 -7.2307 -6.4403 0.0000 33.5647 0.0000
# 6 0.0000 0.0000 0.0000 -10.4740 0.0000 28.8952
#
#
#
# Elastic Compliance Matrix: (Units=1/GPa)
#
#
# Indices 1 2 3 4 5 6 
#
# 1 0.014227 -0.004589 -0.003784 0.000000 0.001100 0.000000
# 2 -0.004589 0.013709 -0.001152 0.000000 0.001824 0.000000
# 3 -0.003784 -0.001152 0.016346 0.000000 0.002140 0.000000
# 4 0.000000 0.000000 0.000000 0.042623 0.000000 0.015450
# 5 0.001100 0.001824 0.002140 0.000000 0.030814 0.000000
# 6 0.000000 0.000000 0.000000 0.015450 0.000000 0.040208
#
#
# Mechanical properties :
#
#
# Convention : Reuss Voigt Hill
#
# Bulk Modulus (GPa) = 39.63191 42.37934 41.00563
# Shear Modulus (GPa) = 26.97036 29.39671 28.18354
#
# Velocity S-wave (km/s) = 3.61370 3.77275 3.69408
# Velocity P-wave (km/s) = 6.04990 6.28474 6.16844
#
# Compressibility (1/GPa) = 0.02523219
#
# Stress axis : x y z
#
# Youngs Moduli (GPa) = 70.28643 72.94553 61.17705
#
# Poissons Ratio (x) = 0.33478 0.23147
# Poissons Ratio (y) = 0.32258 0.07048
# Poissons Ratio (z) = 0.26593 0.08404
#
# Static dielectric constant tensor:
#      x y z
#    x 3.902610 0.000000 -0.150680 
#    y 0.000000 3.786450 0.000000 
#    z -0.150680 0.000000 3.851010 
# 
# 
# High freq. dielectric constant tensor:
#      x y z
#    x 1.801490 0.000000 -0.012500 
#    y 0.000000 1.807160 0.000000 
#    z -0.012500 0.000000 1.805590 
# 
# From -- ./inp_files/148529.got.cif
#   From: 2010.06.25/outbox.cif.g09.slc.cpg/sg15_75_cif.got.tgz:148529.got - 2010.06.28 07:06:18.
