data_PCOD8132612
_publ_section_title
;
Structure prediction by ZEFSAII (Michael W. Deem and Ramdas Pophale) SiO2 
 PCOD8132612
Probable space group: C 2/C
;
_chemical_formula_sum "Si O2"
_cell_formula_units_Z 56
_cell_length_a 20.298799
_cell_length_b 16.677717
_cell_length_c 16.250597
_cell_angle_alpha 90.000000
_cell_angle_beta 27.761137
_cell_angle_gamma 90.000000
_cell_volume 2562.495973
_symmetry_space_group_name_H-M "C 2/C"
_symmetry_group_IT_number 15
_symmetry_cell_setting 'monoclinic'
loop_
_space_group_symop_operation_xyz
x,y,z
-x,y,1/2-z
-x,-y,-z
x,-y,1/2+z
1/2+x,1/2+y,z
1/2-x,1/2+y,1/2-z
1/2-x,1/2-y,-z
1/2+x,1/2-y,1/2+z
loop_
_atom_site_type_symbol
_atom_site_label
_atom_site_fract_x
_atom_site_fract_y
_atom_site_fract_z
Si Si1 0.101090 0.713055 0.434467
Si Si2 0.991175 0.857682 0.662122
Si Si3 0.413612 0.473200 0.505166
Si Si4 0.147693 0.859426 0.052579
Si Si5 0.774568 0.088752 0.867271
Si Si6 0.633114 0.226974 0.939166
Si Si7 0.258921 0.074867 0.146981
O O1 0.266844 0.724718 0.233240
O O2 0.104135 0.622199 0.468575
O O3 0.050273 0.776012 0.558020
O O4 0.017731 0.718446 0.439822
O O5 0.827312 0.865557 0.817544
O O6 0.000000 0.851382 0.750000
O O7 0.077912 0.934753 0.533267
O O8 0.302522 0.425632 0.569355
O O9 0.559948 0.422701 0.337404
O O10 0.353250 0.464618 0.663704
O O11 0.251179 0.863799 0.017405
O O12 0.000000 0.891854 0.250000
O O13 0.125193 0.772425 0.035711
O O14 0.700782 0.140219 0.877638
O O15 0.693182 0.002800 0.958785
#
# Coordination Sequence:
#
# PCOD8132612 Si02
#       7
#     8   8   8   8   8   8   8
#     4  12  24  41  65  93 130 172 220 267 321 403
#     4  11  22  40  67  96 125 168 221 273 319 377
#     4  10  18  38  66  93 123 162 221 265 310 391
#     4  10  19  36  61  96 126 161 214 269 323 384
#     4  10  21  34  62  90 127 166 207 272 325 378
#     4  12  23  41  62  93 128 174 219 262 332 390
#     4  11  21  40  62  95 127 167 221 259 325 397
#
# _framework density 21.853691999999999
#
# number of rings (size 3 to 8) (size 9 to 14) (size 15 to 20)
#    0.000    1.143    2.857    7.714    0.000    1.143 
#    0.000    0.000    0.000    0.857    0.000    0.000 
#    0.000    0.000    0.000    0.000    0.000    0.000 
#
# Total GULP energy -346970.592911 kJ/mol
# GULP energy per Si atom -12391.806890 kJ/mol
# Density = 2.180395 g / cm^3
# Si number density = 21.853692 Si / 1000 Ang^3
#
#
#
# Elastic Constant Matrix: (Units=GPa)
#
#
# Indices 1 2 3 4 5 6 
#
# 1 149.0090 66.7004 30.8333 0.0003 11.1222 -0.0002
# 2 66.7004 130.8112 22.7152 0.0002 -4.2633 -0.0001
# 3 30.8333 22.7152 27.7978 0.0003 3.0757 -0.0003
# 4 0.0003 0.0002 0.0003 23.7998 -0.0001 0.5791
# 5 11.1222 -4.2633 3.0757 -0.0001 26.1061 0.0002
# 6 -0.0002 -0.0001 -0.0003 0.5791 0.0002 51.6594
#
#
#
# Elastic Compliance Matrix: (Units=1/GPa)
#
#
# Indices 1 2 3 4 5 6 
#
# 1 0.010488 -0.004133 -0.007788 0.000000 -0.004226 0.000000
# 2 -0.004133 0.010681 -0.004591 0.000000 0.004046 0.000000
# 3 -0.007788 -0.004591 0.048716 0.000000 -0.003171 0.000000
# 4 0.000000 0.000000 0.000000 0.042029 0.000000 -0.000471
# 5 -0.004226 0.004046 -0.003171 0.000000 0.041140 0.000000
# 6 0.000000 0.000000 0.000000 -0.000471 0.000000 0.019363
#
#
# Mechanical properties :
#
#
# Convention : Reuss Voigt Hill
#
# Bulk Modulus (GPa) = 27.13033 60.90174 44.01604
# Shear Modulus (GPa) = 22.96432 32.80432 27.88432
#
# Velocity S-wave (km/s) = 3.24515 3.87859 3.57593
# Velocity P-wave (km/s) = 5.14615 6.92722 6.10202
#
# Compressibility (1/GPa) = 0.03685911
#
# Stress axis : x y z
#
# Youngs Moduli (GPa) = 95.34597 93.62185 20.52721
#
# Poissons Ratio (x) = 0.38695 0.15987
# Poissons Ratio (y) = 0.39408 0.09425
# Poissons Ratio (z) = 0.74259 0.42986
#
# Static dielectric constant tensor:
#      x y z
#    x 4.329460 0.000000 0.182580 
#    y 0.000000 4.088750 0.000000 
#    z 0.182580 0.000000 3.447440 
# 
# 
# High freq. dielectric constant tensor:
#      x y z
#    x 1.879250 0.000000 0.012040 
#    y 0.000000 1.872320 0.000000 
#    z 0.012040 0.000000 1.799810 
# 
# From -- ./inp_files/216024.got.cif
#   From: 2010.06.25/outbox.cif.g09.slc.cpg/sg15_109_cif.got.tgz:216024.got - 2010.06.28 07:06:18.
