data_PCOD8132969
_publ_section_title
;
Structure prediction by ZEFSAII (Michael W. Deem and Ramdas Pophale) SiO2 
 PCOD8132969
Probable space group: C 2/C
;
_chemical_formula_sum "Si O2"
_cell_formula_units_Z 40
_cell_length_a 14.474428
_cell_length_b 20.516048
_cell_length_c 9.588930
_cell_angle_alpha 90.000000
_cell_angle_beta 46.425935
_cell_angle_gamma 90.000000
_cell_volume 2062.975310
_symmetry_space_group_name_H-M "C 2/C"
_symmetry_group_IT_number 15
_symmetry_cell_setting 'monoclinic'
loop_
_space_group_symop_operation_xyz
x,y,z
-x,y,1/2-z
-x,-y,-z
x,-y,1/2+z
1/2+x,1/2+y,z
1/2-x,1/2+y,1/2-z
1/2-x,1/2-y,-z
1/2+x,1/2-y,1/2+z
loop_
_atom_site_type_symbol
_atom_site_label
_atom_site_fract_x
_atom_site_fract_y
_atom_site_fract_z
Si Si1 0.011192 0.802437 0.571157
Si Si2 0.552025 0.444103 0.849821
Si Si3 0.715124 0.218105 0.683342
Si Si4 0.160565 0.529079 0.471630
Si Si5 0.602627 0.074641 0.820546
O O1 0.897805 0.758478 0.623114
O O2 0.000000 0.797832 0.750000
O O3 0.151006 0.779483 0.371403
O O4 0.998020 0.876423 0.535764
O O5 0.500000 0.456994 0.750000
O O6 0.703724 0.439471 0.699989
O O7 0.500000 0.500000 0.000000
O O8 0.750000 0.250000 0.500000
O O9 0.665918 0.143958 0.721079
O O10 0.143364 0.523908 0.656266
O O11 0.150776 0.456338 0.415889
O O12 0.052148 0.577538 0.519855
#
# Coordination Sequence:
#
# PCOD8132969 Si02
#       5
#     8   8   8   8   8
#     4   9  19  29  48  75 104 134 178 220 271 316
#     4  11  21  35  54  81 111 143 182 229 276 333
#     4  10  19  31  49  78 107 142 179 230 271 324
#     4  10  20  34  54  80 115 143 185 223 286 330
#     4  10  21  34  56  83 113 143 184 233 278 337
#
# _framework density 19.389471
#
# number of rings (size 3 to 8) (size 9 to 14) (size 15 to 20)
#    0.000    2.000    0.000    6.000   11.200    0.000 
#    0.000    0.000    0.000    0.000   10.400    8.400 
#    0.000    0.000    0.000    0.000    0.000    0.000 
#
# Total GULP energy -247840.484202 kJ/mol
# GULP energy per Si atom -12392.024210 kJ/mol
# Density = 1.934534 g / cm^3
# Si number density = 19.389471 Si / 1000 Ang^3
#
#
#
# Elastic Constant Matrix: (Units=GPa)
#
#
# Indices 1 2 3 4 5 6 
#
# 1 78.9341 55.1232 61.4206 0.0000 -30.8005 0.0000
# 2 55.1232 140.3656 64.7673 0.0000 -10.7467 0.0000
# 3 61.4206 64.7673 107.6933 0.0000 -45.4540 0.0000
# 4 0.0000 0.0000 0.0000 39.4297 0.0000 -4.0696
# 5 -30.8005 -10.7467 -45.4540 0.0000 52.1773 0.0000
# 6 0.0000 0.0000 0.0000 -4.0696 0.0000 25.0024
#
#
#
# Elastic Compliance Matrix: (Units=1/GPa)
#
#
# Indices 1 2 3 4 5 6 
#
# 1 0.025902 -0.005743 -0.008484 0.000000 0.006716 0.000000
# 2 -0.005743 0.012018 -0.006861 0.000000 -0.006892 0.000000
# 3 -0.008484 -0.006861 0.024577 0.000000 0.014989 0.000000
# 4 0.000000 0.000000 0.000000 0.025795 0.000000 0.004199
# 5 0.006716 -0.006892 0.014989 0.000000 0.034768 0.000000
# 6 0.000000 0.000000 0.000000 0.004199 0.000000 0.040679
#
#
# Mechanical properties :
#
#
# Convention : Reuss Voigt Hill
#
# Bulk Modulus (GPa) = 49.21134 76.62392 62.91763
# Shear Modulus (GPa) = 23.50868 33.03401 28.27135
#
# Velocity S-wave (km/s) = 3.48580 4.13208 3.82262
# Velocity P-wave (km/s) = 6.45264 7.89744 7.21131
#
# Compressibility (1/GPa) = 0.02032052
#
# Stress axis : x y z
#
# Youngs Moduli (GPa) = 38.60760 83.21047 40.68909
#
# Poissons Ratio (x) = 0.47788 0.34520
# Poissons Ratio (y) = 0.22173 0.27916
# Poissons Ratio (z) = 0.32754 0.57090
#
# Static dielectric constant tensor:
#      x y z
#    x 3.613550 0.000000 -0.605840 
#    y 0.000000 3.538250 0.000000 
#    z -0.605840 0.000000 3.912550 
# 
# 
# High freq. dielectric constant tensor:
#      x y z
#    x 1.729180 0.000000 -0.052230 
#    y 0.000000 1.748390 0.000000 
#    z -0.052230 0.000000 1.752570 
# 
# From -- ./inp_files/40555.got.cif
#   From: 2010.06.25/outbox.cif.g09.slc.cpg/sg15_21_cif.got.tgz:40555.got - 2010.06.28 07:06:18.
