data_PCOD8132318
_publ_section_title
;
Structure prediction by ZEFSAII (Michael W. Deem and Ramdas Pophale) SiO2 
 PCOD8132318
Probable space group: C 2/C
;
_chemical_formula_sum "Si O2"
_cell_formula_units_Z 56
_cell_length_a 20.873288
_cell_length_b 18.575766
_cell_length_c 9.062597
_cell_angle_alpha 90.000000
_cell_angle_beta 56.798119
_cell_angle_gamma 90.000000
_cell_volume 2940.248822
_symmetry_space_group_name_H-M "C 2/C"
_symmetry_group_IT_number 15
_symmetry_cell_setting 'monoclinic'
loop_
_space_group_symop_operation_xyz
x,y,z
-x,y,1/2-z
-x,-y,-z
x,-y,1/2+z
1/2+x,1/2+y,z
1/2-x,1/2+y,1/2-z
1/2-x,1/2-y,-z
1/2+x,1/2-y,1/2+z
loop_
_atom_site_type_symbol
_atom_site_label
_atom_site_fract_x
_atom_site_fract_y
_atom_site_fract_z
Si Si1 0.180474 0.217545 0.253667
Si Si2 0.285047 0.299151 0.327547
Si Si3 0.273447 0.089367 0.007772
Si Si4 0.431634 0.112273 0.430828
Si Si5 0.087054 0.228189 0.645412
Si Si6 0.423764 0.165526 0.755532
Si Si7 0.725614 0.947780 0.330033
O O1 0.251055 0.270293 0.214955
O O2 0.134669 0.188387 0.455079
O O3 0.121574 0.261458 0.225942
O O4 0.215053 0.153722 0.114565
O O5 0.250000 0.250000 0.500000
O O6 0.376884 0.290631 0.238455
O O7 0.267583 0.383815 0.365670
O O8 0.362291 0.113888 0.916087
O O9 0.258725 0.060927 0.862290
O O10 0.248660 0.026374 0.150944
O O11 0.500000 0.077275 0.250000
O O12 0.404678 0.186331 0.388614
O O13 0.456255 0.128063 0.567106
O O14 0.363751 0.055406 0.515909
O O15 0.000000 0.201615 0.750000
O O16 0.500000 0.183319 0.750000
#
# Coordination Sequence:
#
# PCOD8132318 Si02
#       7
#     8   8   8   8   8   8   8
#     4  10  20  39  59  89 122 156 208 248 291 361
#     4  10  18  36  64  88 118 155 207 251 297 353
#     4  11  25  39  59  86 128 159 205 251 300 364
#     4   9  18  36  55  87 123 150 199 238 290 374
#     4   9  18  33  60  94 119 146 194 251 304 354
#     4  10  21  39  59  90 124 159 198 249 305 352
#     4  11  23  39  57  90 121 162 205 243 305 363
#
# _framework density 19.046008
#
# number of rings (size 3 to 8) (size 9 to 14) (size 15 to 20)
#    0.000    2.000    5.714    0.429    4.000    5.143 
#    0.000    2.857    0.000    1.714    0.000    0.000 
#    0.000    0.000    0.000    0.000    0.000    0.000 
#
# Total GULP energy -347000.409502 kJ/mol
# GULP energy per Si atom -12392.871768 kJ/mol
# Density = 1.900266 g / cm^3
# Si number density = 19.046008 Si / 1000 Ang^3
#
#
#
# Elastic Constant Matrix: (Units=GPa)
#
#
# Indices 1 2 3 4 5 6 
#
# 1 147.7803 41.9391 26.3776 0.0000 1.8895 0.0000
# 2 41.9391 89.4731 29.9596 0.0000 3.6729 0.0000
# 3 26.3776 29.9596 83.6231 0.0000 -12.6627 0.0000
# 4 0.0000 0.0000 0.0000 27.5722 0.0000 4.7141
# 5 1.8895 3.6729 -12.6627 0.0000 19.0496 0.0000
# 6 0.0000 0.0000 0.0000 4.7141 0.0000 15.9606
#
#
#
# Elastic Compliance Matrix: (Units=1/GPa)
#
#
# Indices 1 2 3 4 5 6 
#
# 1 0.007957 -0.003156 -0.001564 0.000000 -0.001220 0.000000
# 2 -0.003156 0.014620 -0.005139 0.000000 -0.005922 0.000000
# 3 -0.001564 -0.005139 0.016086 0.000000 0.011838 0.000000
# 4 0.000000 0.000000 0.000000 0.038197 0.000000 -0.011282
# 5 -0.001220 -0.005922 0.011838 0.000000 0.061627 0.000000
# 6 0.000000 0.000000 0.000000 -0.011282 0.000000 0.065986
#
#
# Mechanical properties :
#
#
# Convention : Reuss Voigt Hill
#
# Bulk Modulus (GPa) = 52.78619 57.49213 55.13916
# Shear Modulus (GPa) = 21.69140 27.35648 24.52394
#
# Velocity S-wave (km/s) = 3.37841 3.79402 3.59223
# Velocity P-wave (km/s) = 6.55694 7.03166 6.79844
#
# Compressibility (1/GPa) = 0.01894435
#
# Stress axis : x y z
#
# Youngs Moduli (GPa) = 125.67176 68.40064 62.16746
#
# Poissons Ratio (x) = 0.21587 0.09724
# Poissons Ratio (y) = 0.39662 0.31948
# Poissons Ratio (z) = 0.19656 0.35151
#
# Static dielectric constant tensor:
#      x y z
#    x 3.820140 0.000000 -0.020400 
#    y 0.000000 3.245120 0.000000 
#    z -0.020400 0.000000 3.608430 
# 
# 
# High freq. dielectric constant tensor:
#      x y z
#    x 1.736010 0.000000 0.005950 
#    y 0.000000 1.714870 0.000000 
#    z 0.005950 0.000000 1.737970 
# 
# From -- ./inp_files/56495.got.cif
#   From: 2010.06.25/outbox.cif.g09.slc.cpg/sg15_29_cif.got.tgz:56495.got - 2010.06.28 07:06:18.
