data_PCOD8132274
_publ_section_title
;
Structure prediction by ZEFSAII (Michael W. Deem and Ramdas Pophale) SiO2 
 PCOD8132274
Probable space group: C 2/C
;
_chemical_formula_sum "Si O2"
_cell_formula_units_Z 44
_cell_length_a 17.392240
_cell_length_b 7.366613
_cell_length_c 16.567979
_cell_angle_alpha 90.000000
_cell_angle_beta 73.823569
_cell_angle_gamma 90.000000
_cell_volume 2038.678985
_symmetry_space_group_name_H-M "C 2/C"
_symmetry_group_IT_number 15
_symmetry_cell_setting 'monoclinic'
loop_
_space_group_symop_operation_xyz
x,y,z
-x,y,1/2-z
-x,-y,-z
x,-y,1/2+z
1/2+x,1/2+y,z
1/2-x,1/2+y,1/2-z
1/2-x,1/2-y,-z
1/2+x,1/2-y,1/2+z
loop_
_atom_site_type_symbol
_atom_site_label
_atom_site_fract_x
_atom_site_fract_y
_atom_site_fract_z
Si Si1 0.737166 0.724509 0.849114
Si Si2 0.557194 0.296263 0.397024
Si Si3 0.259869 0.699285 0.157972
Si Si4 0.500000 0.400525 0.250000
Si Si5 0.088521 0.844775 0.969727
Si Si6 0.350985 0.492167 0.383087
O O1 0.644579 0.786364 0.888987
O O2 0.749300 0.512265 0.861671
O O3 0.765684 0.776429 0.751546
O O4 0.791423 0.837012 0.895420
O O5 0.534362 0.267832 0.310006
O O6 0.485230 0.218987 0.475797
O O7 0.556425 0.514014 0.412292
O O8 0.342362 0.774907 0.093124
O O9 0.186892 0.808147 0.141629
O O10 0.430283 0.528916 0.306482
O O11 0.127662 0.962890 0.030448
#
# Coordination Sequence:
#
# PCOD8132274 Si02
#       6
#     8   8   8   4   8   8
#     4  11  21  37  63  86 119 160 201 243 295 352
#     4   9  18  35  57  86 115 158 197 241 292 356
#     4  11  20  36  58  88 115 155 198 247 288 353
#     4  10  18  36  62  84 116 164 194 236 300 352
#     4   9  20  35  58  86 120 152 201 244 298 348
#     4  11  21  37  61  86 118 158 199 244 300 351
#
# _framework density 21.582602999999999
#
# number of rings (size 3 to 8) (size 9 to 14) (size 15 to 20)
#    0.000    1.818    3.636    1.636    0.000    2.909 
#    0.000    1.818    0.000    0.000    0.000    0.000 
#    0.000    0.000    0.000    0.000    0.000    0.000 
#
# Total GULP energy -272688.629783 kJ/mol
# GULP energy per Si atom -12394.937717 kJ/mol
# Density = 2.153348 g / cm^3
# Si number density = 21.582603 Si / 1000 Ang^3
#
#
#
# Elastic Constant Matrix: (Units=GPa)
#
#
# Indices 1 2 3 4 5 6 
#
# 1 119.5159 28.2810 43.4881 0.0000 -23.6410 0.0000
# 2 28.2810 69.7574 2.2099 0.0000 -3.1282 0.0000
# 3 43.4881 2.2099 109.3519 0.0000 -33.6043 0.0000
# 4 0.0000 0.0000 0.0000 17.4306 0.0000 4.7811
# 5 -23.6410 -3.1282 -33.6043 0.0000 44.9869 0.0000
# 6 0.0000 0.0000 0.0000 4.7811 0.0000 30.4118
#
#
#
# Elastic Compliance Matrix: (Units=1/GPa)
#
#
# Indices 1 2 3 4 5 6 
#
# 1 0.011243 -0.004313 -0.003453 0.000000 0.003029 0.000000
# 2 -0.004313 0.016035 0.001346 0.000000 -0.000146 0.000000
# 3 -0.003453 0.001346 0.012930 0.000000 0.007937 0.000000
# 4 0.000000 0.000000 0.000000 0.059956 0.000000 -0.009426
# 5 0.003029 -0.000146 0.007937 0.000000 0.029739 0.000000
# 6 0.000000 0.000000 0.000000 -0.009426 0.000000 0.034364
#
#
# Mechanical properties :
#
#
# Convention : Reuss Voigt Hill
#
# Bulk Modulus (GPa) = 36.53871 49.62035 43.07953
# Shear Modulus (GPa) = 26.84848 33.54226 30.19537
#
# Velocity S-wave (km/s) = 3.53085 3.94653 3.74446
# Velocity P-wave (km/s) = 5.79560 6.61873 6.22079
#
# Compressibility (1/GPa) = 0.02736823
#
# Stress axis : x y z
#
# Youngs Moduli (GPa) = 88.94087 62.36437 77.33854
#
# Poissons Ratio (x) = 0.26898 0.26708
# Poissons Ratio (y) = 0.38361 -0.10413
# Poissons Ratio (z) = 0.30715 -0.08397
#
# Static dielectric constant tensor:
#      x y z
#    x 4.290910 0.000000 -0.362470 
#    y 0.000000 3.309060 0.000000 
#    z -0.362470 0.000000 4.267760 
# 
# 
# High freq. dielectric constant tensor:
#      x y z
#    x 1.866540 0.000000 -0.014790 
#    y 0.000000 1.781430 0.000000 
#    z -0.014790 0.000000 1.871290 
# 
# From -- ./inp_files/159228.got.cif
#   From: 2010.06.25/outbox.cif.g09.slc.cpg/sg15_80_cif.got.tgz:159228.got - 2010.06.28 07:06:18.
