data_PCOD8132672
_publ_section_title
;
Structure prediction by ZEFSAII (Michael W. Deem and Ramdas Pophale) SiO2 
 PCOD8132672
Probable space group: C 2/C
;
_chemical_formula_sum "Si O2"
_cell_formula_units_Z 44
_cell_length_a 11.951119
_cell_length_b 7.331418
_cell_length_c 25.302539
_cell_angle_alpha 90.000000
_cell_angle_beta 121.540853
_cell_angle_gamma 90.000000
_cell_volume 1889.454899
_symmetry_space_group_name_H-M "C 2/C"
_symmetry_group_IT_number 15
_symmetry_cell_setting 'monoclinic'
loop_
_space_group_symop_operation_xyz
x,y,z
-x,y,1/2-z
-x,-y,-z
x,-y,1/2+z
1/2+x,1/2+y,z
1/2-x,1/2+y,1/2-z
1/2-x,1/2-y,-z
1/2+x,1/2-y,1/2+z
loop_
_atom_site_type_symbol
_atom_site_label
_atom_site_fract_x
_atom_site_fract_y
_atom_site_fract_z
Si Si1 0.059960 0.333330 0.547668
Si Si2 0.255599 0.585825 0.643561
Si Si3 0.856446 0.904817 0.519486
Si Si4 0.000000 0.906380 0.750000
Si Si5 0.651969 0.138706 0.422978
Si Si6 0.998473 0.279720 0.359179
O O1 0.203864 0.400074 0.602436
O O2 0.063863 0.149972 0.514025
O O3 0.000000 0.500000 0.500000
O O4 0.967520 0.274209 0.573395
O O5 0.374962 0.536069 0.711283
O O6 0.303764 0.729462 0.612312
O O7 0.140342 0.667362 0.650279
O O8 0.750000 0.750000 0.500000
O O9 0.948002 0.895998 0.594242
O O10 0.779486 0.096850 0.492687
O O11 0.025472 0.777329 0.706514
O O12 0.600500 0.947646 0.386003
#
# Coordination Sequence:
#
# PCOD8132672 Si02
#       6
#     8   8   8   4   8   8
#     4  11  20  41  65  98 135 158 196 270 320 383
#     4  11  25  43  65  99 126 167 219 259 316 380
#     4  10  18  39  65  94 130 161 197 257 330 374
#     4  12  28  44  66  84 130 178 222 260 310 372
#     4  10  23  39  69  97 130 162 209 261 325 383
#     4  10  24  45  63  90 128 171 212 263 313 374
#
# _framework density 23.287141999999999
#
# number of rings (size 3 to 8) (size 9 to 14) (size 15 to 20)
#    0.000    1.455    5.455    2.182    0.000    8.000 
#    0.000    0.000    0.000    0.000    0.000    0.000 
#    0.000    0.000    0.000    0.000    0.000    0.000 
#
# Total GULP energy -272843.948203 kJ/mol
# GULP energy per Si atom -12401.997646 kJ/mol
# Density = 2.323414 g / cm^3
# Si number density = 23.287142 Si / 1000 Ang^3
#
#
#
# Elastic Constant Matrix: (Units=GPa)
#
#
# Indices 1 2 3 4 5 6 
#
# 1 122.4558 58.2284 59.3409 0.0000 -11.1728 0.0000
# 2 58.2284 77.9132 33.1112 0.0000 -9.2730 0.0000
# 3 59.3409 33.1112 154.7194 0.0000 -2.8301 0.0000
# 4 0.0000 0.0000 0.0000 40.9458 0.0000 6.8215
# 5 -11.1728 -9.2730 -2.8301 0.0000 51.8005 0.0000
# 6 0.0000 0.0000 0.0000 6.8215 0.0000 25.2604
#
#
#
# Elastic Compliance Matrix: (Units=1/GPa)
#
#
# Indices 1 2 3 4 5 6 
#
# 1 0.014280 -0.009024 -0.003523 0.000000 0.001272 0.000000
# 2 -0.009024 0.020117 -0.000815 0.000000 0.001610 0.000000
# 3 -0.003523 -0.000815 0.007980 0.000000 -0.000470 0.000000
# 4 0.000000 0.000000 0.000000 0.025573 0.000000 -0.006906
# 5 0.001272 0.001610 -0.000470 0.000000 0.019842 0.000000
# 6 0.000000 0.000000 0.000000 -0.006906 0.000000 0.041453
#
#
# Mechanical properties :
#
#
# Convention : Reuss Voigt Hill
#
# Bulk Modulus (GPa) = 63.87833 72.93883 68.40858
# Shear Modulus (GPa) = 31.02027 37.22851 34.12439
#
# Velocity S-wave (km/s) = 3.65372 4.00268 3.83217
# Velocity P-wave (km/s) = 6.72977 7.26302 7.00147
#
# Compressibility (1/GPa) = 0.01565476
#
# Stress axis : x y z
#
# Youngs Moduli (GPa) = 70.02705 49.71000 125.31160
#
# Poissons Ratio (x) = 0.44858 0.44142
# Poissons Ratio (y) = 0.63192 0.10209
# Poissons Ratio (z) = 0.24667 0.04050
#
# Static dielectric constant tensor:
#      x y z
#    x 2.474400 0.000000 -0.473400 
#    y 0.000000 0.756070 0.000000 
#    z -0.473400 0.000000 4.238580 
# 
# 
# High freq. dielectric constant tensor:
#      x y z
#    x 1.951100 0.000000 0.001860 
#    y 0.000000 1.927460 0.000000 
#    z 0.001860 0.000000 1.905970 
# 
# From -- ./inp_files/242640.got.cif
#   From: 2010.06.25/outbox.cif.g09.slc.cpg/sg15_122_cif.got.tgz:242640.got - 2010.06.28 07:06:18.
