data_PCOD8132350
_publ_section_title
;
Structure prediction by ZEFSAII (Michael W. Deem and Ramdas Pophale) SiO2 
 PCOD8132350
Probable space group: C 2/C
;
_chemical_formula_sum "Si O2"
_cell_formula_units_Z 52
_cell_length_a 12.289478
_cell_length_b 8.606227
_cell_length_c 27.146591
_cell_angle_alpha 90.000000
_cell_angle_beta 55.179794
_cell_angle_gamma 90.000000
_cell_volume 2357.095202
_symmetry_space_group_name_H-M "C 2/C"
_symmetry_group_IT_number 15
_symmetry_cell_setting 'monoclinic'
loop_
_space_group_symop_operation_xyz
x,y,z
-x,y,1/2-z
-x,-y,-z
x,-y,1/2+z
1/2+x,1/2+y,z
1/2-x,1/2+y,1/2-z
1/2-x,1/2-y,-z
1/2+x,1/2-y,1/2+z
loop_
_atom_site_type_symbol
_atom_site_label
_atom_site_fract_x
_atom_site_fract_y
_atom_site_fract_z
Si Si1 0.324453 0.381592 0.918439
Si Si2 0.729580 0.850199 0.624606
Si Si3 0.610421 0.466489 0.833591
Si Si4 0.500000 0.050794 0.250000
Si Si5 0.646704 0.955268 0.054673
Si Si6 0.351688 0.028828 0.609355
Si Si7 0.817486 0.368583 0.224589
O O1 0.452508 0.487126 0.873119
O O2 0.374097 0.205177 0.910420
O O3 0.220018 0.387560 0.900519
O O4 0.262846 0.442536 0.985069
O O5 0.839730 0.960039 0.622489
O O6 0.605059 0.839189 0.694626
O O7 0.796780 0.684292 0.597302
O O8 0.686309 0.912415 0.582829
O O9 0.675574 0.612887 0.788718
O O10 0.659066 0.310678 0.793236
O O11 0.433501 0.935668 0.228209
O O12 0.509553 0.992650 0.062226
O O13 0.313730 0.027938 0.676247
#
# Coordination Sequence:
#
# PCOD8132350 Si02
#       7
#     8   8   8   4   8   8   8
#     4  11  24  42  69  91 134 169 221 256 326 378
#     4  10  21  40  67  87 137 163 215 265 324 368
#     4  10  22  41  60 101 122 171 210 266 315 390
#     4  10  18  36  66  92 122 178 194 270 324 376
#     4  11  23  47  63  94 133 175 207 275 308 386
#     4  11  23  43  64  99 126 168 214 271 309 390
#     4  10  21  38  65  90 135 155 218 261 321 378
#
# _framework density 22.061053000000001
#
# number of rings (size 3 to 8) (size 9 to 14) (size 15 to 20)
#    0.000    1.538    4.615    0.462    0.000    9.231 
#    2.769    0.000    0.000    0.000    0.000    0.000 
#    0.000    0.000    0.000    0.000    0.000    0.000 
#
# Total GULP energy -322467.947242 kJ/mol
# GULP energy per Si atom -12402.613355 kJ/mol
# Density = 2.201084 g / cm^3
# Si number density = 22.061053 Si / 1000 Ang^3
#
#
#
# Elastic Constant Matrix: (Units=GPa)
#
#
# Indices 1 2 3 4 5 6 
#
# 1 158.9368 42.1396 45.4483 0.0000 -7.6828 0.0000
# 2 42.1396 33.1102 21.1854 0.0000 1.1844 0.0000
# 3 45.4483 21.1854 74.8902 0.0000 -7.6625 0.0000
# 4 0.0000 0.0000 0.0000 20.7691 0.0000 4.1001
# 5 -7.6828 1.1844 -7.6625 0.0000 42.4778 0.0000
# 6 0.0000 0.0000 0.0000 4.1001 0.0000 36.1995
#
#
#
# Elastic Compliance Matrix: (Units=1/GPa)
#
#
# Indices 1 2 3 4 5 6 
#
# 1 0.010136 -0.011147 -0.002831 0.000000 0.001633 0.000000
# 2 -0.011147 0.049507 -0.007730 0.000000 -0.004791 0.000000
# 3 -0.002831 -0.007730 0.017551 0.000000 0.002870 0.000000
# 4 0.000000 0.000000 0.000000 0.049250 0.000000 -0.005578
# 5 0.001633 -0.004791 0.002870 0.000000 0.024488 0.000000
# 6 0.000000 0.000000 0.000000 -0.005578 0.000000 0.028256
#
#
# Mechanical properties :
#
#
# Convention : Reuss Voigt Hill
#
# Bulk Modulus (GPa) = 29.60523 53.83153 41.71838
# Shear Modulus (GPa) = 21.38011 30.43355 25.90683
#
# Velocity S-wave (km/s) = 3.11647 3.71821 3.43056
# Velocity P-wave (km/s) = 5.13796 6.54886 5.88584
#
# Compressibility (1/GPa) = 0.03377781
#
# Stress axis : x y z
#
# Youngs Moduli (GPa) = 98.66199 20.19935 56.97687
#
# Poissons Ratio (x) = 0.22516 0.16127
# Poissons Ratio (y) = 1.09979 0.44044
# Poissons Ratio (z) = 0.27926 0.15614
#
# Static dielectric constant tensor:
#      x y z
#    x 4.225830 0.000000 -0.017730 
#    y 0.000000 3.624680 0.000000 
#    z -0.017730 0.000000 3.938450 
# 
# 
# High freq. dielectric constant tensor:
#      x y z
#    x 1.887500 0.000000 -0.000540 
#    y 0.000000 1.841050 0.000000 
#    z -0.000540 0.000000 1.868190 
# 
# From -- ./inp_files/291460.got.cif
#   From: 2010.06.25/outbox.cif.g09.slc.cpg/sg15_146_cif.got.tgz:291460.got - 2010.06.28 07:06:18.
