data_PCOD8132568
_publ_section_title
;
Structure prediction by ZEFSAII (Michael W. Deem and Ramdas Pophale) SiO2 
 PCOD8132568
Probable space group: C 2/C
;
_chemical_formula_sum "Si O2"
_cell_formula_units_Z 64
_cell_length_a 19.671402
_cell_length_b 11.503824
_cell_length_c 14.134291
_cell_angle_alpha 90.000000
_cell_angle_beta 74.696975
_cell_angle_gamma 90.000000
_cell_volume 3085.129390
_symmetry_space_group_name_H-M "C 2/C"
_symmetry_group_IT_number 15
_symmetry_cell_setting 'monoclinic'
loop_
_space_group_symop_operation_xyz
x,y,z
-x,y,1/2-z
-x,-y,-z
x,-y,1/2+z
1/2+x,1/2+y,z
1/2-x,1/2+y,1/2-z
1/2-x,1/2-y,-z
1/2+x,1/2-y,1/2+z
loop_
_atom_site_type_symbol
_atom_site_label
_atom_site_fract_x
_atom_site_fract_y
_atom_site_fract_z
Si Si1 0.682979 0.793142 0.135249
Si Si2 0.420779 0.681224 0.598264
Si Si3 0.420075 0.589251 0.304334
Si Si4 0.423041 0.369573 0.442777
Si Si5 0.156962 0.958934 0.862077
Si Si6 0.422039 0.193678 0.284445
Si Si7 0.181707 0.643029 0.431307
Si Si8 0.686294 0.010045 0.249662
O O1 0.618701 0.704069 0.140431
O O2 0.755288 0.725420 0.128812
O O3 0.669463 0.875747 0.231090
O O4 0.690749 0.877911 0.040091
O O5 0.498810 0.640362 0.540025
O O6 0.364843 0.583935 0.588628
O O7 0.418496 0.699834 0.711908
O O8 0.395032 0.799026 0.556999
O O9 0.500000 0.621125 0.250000
O O10 0.416327 0.485678 0.381801
O O11 0.380544 0.556191 0.223716
O O12 0.368411 0.366869 0.549859
O O13 0.406244 0.252403 0.391056
O O14 0.239742 0.950072 0.820185
O O15 0.500000 0.138183 0.250000
O O16 0.368833 0.091222 0.283117
O O17 0.184456 0.526695 0.364981
#
# Coordination Sequence:
#
# PCOD8132568 Si02
#       8
#     8   8   8   8   8   8   8   8
#     4  11  24  41  62  92 125 168 206 254 321 370
#     4  10  18  38  63  87 121 159 208 250 309 378
#     4  12  24  40  61  96 133 159 207 268 315 371
#     4  11  22  37  63  94 124 163 203 262 320 373
#     4  12  22  34  60  95 126 158 199 264 322 364
#     4   9  20  41  65  82 116 167 213 252 304 368
#     4  10  22  41  66  88 120 173 212 249 309 380
#     4  11  24  42  63  90 125 164 211 259 300 382
#
# _framework density 20.744672000000001
#
# number of rings (size 3 to 8) (size 9 to 14) (size 15 to 20)
#    0.000    1.250    5.000    1.500    3.500    1.000 
#    2.250    0.000    0.000    3.000    0.000    0.000 
#    0.000    0.000    0.000    0.000    0.000    0.000 
#
# Total GULP energy -396715.357746 kJ/mol
# GULP energy per Si atom -12397.354930 kJ/mol
# Density = 2.069746 g / cm^3
# Si number density = 20.744672 Si / 1000 Ang^3
#
#
#
# Elastic Constant Matrix: (Units=GPa)
#
#
# Indices 1 2 3 4 5 6 
#
# 1 114.0099 22.7562 15.4584 0.0000 -5.7460 0.0000
# 2 22.7562 61.1071 14.5168 0.0000 2.5685 0.0000
# 3 15.4584 14.5168 63.2467 0.0000 5.8906 0.0000
# 4 0.0000 0.0000 0.0000 67.9051 0.0000 -126.3160
# 5 -5.7460 2.5685 5.8906 0.0000 26.3853 0.0000
# 6 0.0000 0.0000 0.0000 -126.3160 0.0000 398.2071
#
#
#
# Elastic Compliance Matrix: (Units=1/GPa)
#
#
# Indices 1 2 3 4 5 6 
#
# 1 0.009841 -0.003333 -0.001910 0.000000 0.002894 0.000000
# 2 -0.003333 0.018454 -0.003254 0.000000 -0.001796 0.000000
# 3 -0.001910 -0.003254 0.017396 0.000000 -0.003983 0.000000
# 4 0.000000 0.000000 0.000000 0.035924 0.000000 0.011396
# 5 0.002894 -0.001796 -0.003983 0.000000 0.039594 0.000000
# 6 0.000000 0.000000 0.000000 0.011396 0.000000 0.006126
#
#
# Mechanical properties :
#
#
# Convention : Reuss Voigt Hill
#
# Bulk Modulus (GPa) = 34.84557 38.20293 36.52425
# Shear Modulus (GPa) = 32.48967 110.87500 71.68234
#
# Velocity S-wave (km/s) = 3.96178 7.31871 5.88469
# Velocity P-wave (km/s) = 6.14503 9.48018 7.98859
#
# Compressibility (1/GPa) = 0.02869805
#
# Stress axis : x y z
#
# Youngs Moduli (GPa) = 101.61364 54.18781 57.48543
#
# Poissons Ratio (x) = 0.18060 0.10979
# Poissons Ratio (y) = 0.33866 0.18705
# Poissons Ratio (z) = 0.19407 0.17632
#
# Static dielectric constant tensor:
#      x y z
#    x 3.992200 0.000000 0.089280 
#    y 0.000000 3.534590 0.000000 
#    z 0.089280 0.000000 3.845740 
# 
# 
# High freq. dielectric constant tensor:
#      x y z
#    x 1.824490 0.000000 0.010760 
#    y 0.000000 1.784560 0.000000 
#    z 0.010760 0.000000 1.810170 
# 
# From -- ./inp_files/167636.got.cif
#   From: 2010.06.25/outbox.cif.g09.slc.cpg/sg15_84_cif.got.tgz:167636.got - 2010.06.28 07:06:18.
