data_PCOD8132165
_publ_section_title
;
Structure prediction by ZEFSAII (Michael W. Deem and Ramdas Pophale) SiO2 
 PCOD8132165
Probable space group: C 2/C
;
_chemical_formula_sum "Si O2"
_cell_formula_units_Z 48
_cell_length_a 21.259532
_cell_length_b 16.587361
_cell_length_c 11.585964
_cell_angle_alpha 90.000000
_cell_angle_beta 138.939831
_cell_angle_gamma 90.000000
_cell_volume 2683.676629
_symmetry_space_group_name_H-M "C 2/C"
_symmetry_group_IT_number 15
_symmetry_cell_setting 'monoclinic'
loop_
_space_group_symop_operation_xyz
x,y,z
-x,y,1/2-z
-x,-y,-z
x,-y,1/2+z
1/2+x,1/2+y,z
1/2-x,1/2+y,1/2-z
1/2-x,1/2-y,-z
1/2+x,1/2-y,1/2+z
loop_
_atom_site_type_symbol
_atom_site_label
_atom_site_fract_x
_atom_site_fract_y
_atom_site_fract_z
Si Si1 0.857387 0.826800 0.832082
Si Si2 0.894774 0.094671 0.141168
Si Si3 0.286248 0.303775 0.311811
Si Si4 0.440890 0.272329 0.338308
Si Si5 0.647023 0.410477 0.435610
Si Si6 0.806439 0.668866 0.040879
O O1 0.869802 0.877845 0.734487
O O2 0.761546 0.772962 0.691226
O O3 0.850248 0.889759 0.926222
O O4 0.948028 0.767869 0.976290
O O5 0.000000 0.125308 0.250000
O O6 0.893707 0.998797 0.137117
O O7 0.814846 0.129723 0.944800
O O8 0.380428 0.276458 0.372727
O O9 0.206402 0.341997 0.114424
O O10 0.421640 0.350805 0.231912
O O11 0.414779 0.189197 0.231537
O O12 0.756539 0.405475 0.538417
O O13 0.750000 0.750000 0.000000
#
# Coordination Sequence:
#
# PCOD8132165 Si02
#       6
#     8   8   8   8   8   8
#     4  12  21  35  60  78 110 150 181 222 270 330
#     4  12  25  34  50  83 121 144 169 224 286 335
#     4  10  20  38  51  79 112 143 186 218 266 324
#     4  10  18  36  58  81 106 139 190 226 255 316
#     4  10  21  34  54  85 112 143 175 220 287 322
#     4   8  16  35  55  76 105 141 181 230 245 313
#
# _framework density 17.885911
#
# number of rings (size 3 to 8) (size 9 to 14) (size 15 to 20)
#    0.000    2.000    6.667    2.000    4.667    1.333 
#    0.000    0.000    0.000    1.000    0.000    2.333 
#    0.000    0.000    0.000    0.000    0.000    0.000 
#
# Total GULP energy -297456.613473 kJ/mol
# GULP energy per Si atom -12394.025561 kJ/mol
# Density = 1.784520 g / cm^3
# Si number density = 17.885911 Si / 1000 Ang^3
#
#
#
# Elastic Constant Matrix: (Units=GPa)
#
#
# Indices 1 2 3 4 5 6 
#
# 1 95.8781 44.0671 34.4915 0.0000 -17.0588 0.0000
# 2 44.0671 56.1673 38.2827 0.0000 -2.1130 0.0000
# 3 34.4915 38.2827 87.5863 0.0000 -7.4425 0.0000
# 4 0.0000 0.0000 0.0000 25.1498 0.0000 -0.7730
# 5 -17.0588 -2.1130 -7.4425 0.0000 22.5612 0.0000
# 6 0.0000 0.0000 0.0000 -0.7730 0.0000 22.3138
#
#
#
# Elastic Compliance Matrix: (Units=1/GPa)
#
#
# Indices 1 2 3 4 5 6 
#
# 1 0.019704 -0.014875 -0.000113 0.000000 0.013468 0.000000
# 2 -0.014875 0.036626 -0.011127 0.000000 -0.011488 0.000000
# 3 -0.000113 -0.011127 0.016698 0.000000 0.004380 0.000000
# 4 0.000000 0.000000 0.000000 0.039804 0.000000 0.001379
# 5 0.013468 -0.011488 0.004380 0.000000 0.054876 0.000000
# 6 0.000000 0.000000 0.000000 0.001379 0.000000 0.044863
#
#
# Mechanical properties :
#
#
# Convention : Reuss Voigt Hill
#
# Bulk Modulus (GPa) = 48.08443 52.59048 50.33746
# Shear Modulus (GPa) = 18.40032 22.19098 20.29565
#
# Velocity S-wave (km/s) = 3.21091 3.52617 3.37223
# Velocity P-wave (km/s) = 6.37879 6.78570 6.58538
#
# Compressibility (1/GPa) = 0.02079675
#
# Stress axis : x y z
#
# Youngs Moduli (GPa) = 50.75201 27.30269 59.88858
#
# Poissons Ratio (x) = 0.40613 0.00678
# Poissons Ratio (y) = 0.75494 0.66639
# Poissons Ratio (z) = 0.00575 0.30380
#
# Static dielectric constant tensor:
#      x y z
#    x 3.553360 0.000000 0.086360 
#    y 0.000000 3.044800 0.000000 
#    z 0.086360 0.000000 3.641560 
# 
# 
# High freq. dielectric constant tensor:
#      x y z
#    x 1.702030 0.000000 -0.011090 
#    y 0.000000 1.649000 0.000000 
#    z -0.011090 0.000000 1.689820 
# 
# From -- ./inp_files/119118.got.cif
#   From: 2010.06.25/outbox.cif.g09.slc.cpg/sg15_60_cif.got.tgz:119118.got - 2010.06.28 07:06:18.
