data_PCOD8132899
_publ_section_title
;
Structure prediction by ZEFSAII (Michael W. Deem and Ramdas Pophale) SiO2 
 PCOD8132899
Probable space group: C 2/C
;
_chemical_formula_sum "Si O2"
_cell_formula_units_Z 56
_cell_length_a 28.126771
_cell_length_b 12.877580
_cell_length_c 8.967353
_cell_angle_alpha 90.000000
_cell_angle_beta 112.436409
_cell_angle_gamma 90.000000
_cell_volume 3002.154843
_symmetry_space_group_name_H-M "C 2/C"
_symmetry_group_IT_number 15
_symmetry_cell_setting 'monoclinic'
loop_
_space_group_symop_operation_xyz
x,y,z
-x,y,1/2-z
-x,-y,-z
x,-y,1/2+z
1/2+x,1/2+y,z
1/2-x,1/2+y,1/2-z
1/2-x,1/2-y,-z
1/2+x,1/2-y,1/2+z
loop_
_atom_site_type_symbol
_atom_site_label
_atom_site_fract_x
_atom_site_fract_y
_atom_site_fract_z
Si Si1 0.269008 0.553897 0.445797
Si Si2 0.500000 0.857418 0.250000
Si Si3 0.569080 0.810802 0.086213
Si Si4 0.169760 0.240356 0.085515
Si Si5 0.568642 0.050795 0.086663
Si Si6 0.000000 0.359514 0.750000
Si Si7 0.831690 0.327942 0.739537
Si Si8 0.230014 0.858807 0.230886
O O1 0.314271 0.622133 0.426493
O O2 0.214341 0.589016 0.312960
O O3 0.278830 0.432882 0.421816
O O4 0.269382 0.568117 0.623079
O O5 0.541265 0.785731 0.211152
O O6 0.527377 0.929148 0.407098
O O7 0.619883 0.740673 0.132254
O O8 0.585911 0.931635 0.101633
O O9 0.529616 0.786161 0.903779
O O10 0.216017 0.300027 0.222279
O O11 0.155646 0.297460 0.914681
O O12 0.542098 0.070169 0.214516
O O13 0.618480 0.122918 0.123329
O O14 0.815538 0.225617 0.813180
#
# Coordination Sequence:
#
# PCOD8132899 Si02
#       8
#     8   4   8   8   8   4   8   8
#     4   9  18  35  52  74 101 128 162 202 239 286
#     4  10  23  30  42  76 105 128 155 216 246 280
#     4  11  18  31  47  71 102 132 164 198 245 286
#     4   9  18  32  53  73  97 135 169 188 233 304
#     4  11  18  31  47  71 102 132 164 198 245 286
#     4  10  19  30  50  64  97 136 169 190 240 310
#     4   9  18  32  53  73  97 135 169 188 233 304
#     4   9  18  35  52  74 101 128 162 202 239 286
#
# _framework density 18.653269000000002
#
# number of rings (size 3 to 8) (size 9 to 14) (size 15 to 20)
#    0.000    2.286    1.429    6.000    0.000    0.000 
#    5.143    1.429    0.000    0.000    0.000    6.000 
#    0.000    0.000    0.000    0.000    0.000    0.000 
#
# Total GULP energy -347158.892518 kJ/mol
# GULP energy per Si atom -12398.531876 kJ/mol
# Density = 1.861081 g / cm^3
# Si number density = 18.653269 Si / 1000 Ang^3
#
#
#
# Elastic Constant Matrix: (Units=GPa)
#
#
# Indices 1 2 3 4 5 6 
#
# 1 117.4172 20.6583 20.5417 0.0000 -6.6907 0.0000
# 2 20.6583 40.3000 6.5732 0.0000 5.4136 0.0000
# 3 20.5417 6.5732 43.8296 0.0000 -4.6986 0.0000
# 4 0.0000 0.0000 0.0000 23.0224 0.0000 -3.7438
# 5 -6.6907 5.4136 -4.6986 0.0000 27.9952 0.0000
# 6 0.0000 0.0000 0.0000 -3.7438 0.0000 26.1898
#
#
#
# Elastic Compliance Matrix: (Units=1/GPa)
#
#
# Indices 1 2 3 4 5 6 
#
# 1 0.010208 -0.004996 -0.003737 0.000000 0.002779 0.000000
# 2 -0.004996 0.028794 -0.002751 0.000000 -0.007224 0.000000
# 3 -0.003737 -0.002751 0.025398 0.000000 0.003902 0.000000
# 4 0.000000 0.000000 0.000000 0.044470 0.000000 0.006357
# 5 0.002779 -0.007224 0.003902 0.000000 0.038436 0.000000
# 6 0.000000 0.000000 0.000000 0.006357 0.000000 0.039092
#
#
# Mechanical properties :
#
#
# Convention : Reuss Voigt Hill
#
# Bulk Modulus (GPa) = 24.13644 33.01036 28.57340
# Shear Modulus (GPa) = 22.40378 25.69304 24.04841
#
# Velocity S-wave (km/s) = 3.46940 3.71536 3.59448
# Velocity P-wave (km/s) = 5.38670 6.01169 5.70776
#
# Compressibility (1/GPa) = 0.04143112
#
# Stress axis : x y z
#
# Youngs Moduli (GPa) = 97.96434 34.72912 39.37338
#
# Poissons Ratio (x) = 0.17352 0.14714
# Poissons Ratio (y) = 0.48947 0.10832
# Poissons Ratio (z) = 0.36608 0.09554
#
# Static dielectric constant tensor:
#      x y z
#    x 3.569280 0.000000 -0.106160 
#    y 0.000000 3.001540 0.000000 
#    z -0.106160 0.000000 3.352780 
# 
# 
# High freq. dielectric constant tensor:
#      x y z
#    x 1.731750 0.000000 -0.007950 
#    y 0.000000 1.677340 0.000000 
#    z -0.007950 0.000000 1.716960 
# 
# From -- ./inp_files/65470.got.cif
#   From: 2010.06.25/outbox.cif.g09.slc.cpg/sg15_33_cif.got.tgz:65470.got - 2010.06.28 07:06:18.
