data_PCOD8132576
_publ_section_title
;
Structure prediction by ZEFSAII (Michael W. Deem and Ramdas Pophale) SiO2 
 PCOD8132576
Probable space group: C 2/C
;
_chemical_formula_sum "Si O2"
_cell_formula_units_Z 60
_cell_length_a 22.353961
_cell_length_b 9.467099
_cell_length_c 17.399814
_cell_angle_alpha 90.000000
_cell_angle_beta 60.568442
_cell_angle_gamma 90.000000
_cell_volume 3207.051195
_symmetry_space_group_name_H-M "C 2/C"
_symmetry_group_IT_number 15
_symmetry_cell_setting 'monoclinic'
loop_
_space_group_symop_operation_xyz
x,y,z
-x,y,1/2-z
-x,-y,-z
x,-y,1/2+z
1/2+x,1/2+y,z
1/2-x,1/2+y,1/2-z
1/2-x,1/2-y,-z
1/2+x,1/2-y,1/2+z
loop_
_atom_site_type_symbol
_atom_site_label
_atom_site_fract_x
_atom_site_fract_y
_atom_site_fract_z
Si Si1 0.000000 0.392383 0.750000
Si Si2 0.859532 0.718782 0.380160
Si Si3 0.179722 0.509581 0.480830
Si Si4 0.750669 0.400062 0.839591
Si Si5 0.182518 0.993745 0.532034
Si Si6 0.439437 0.146838 0.706331
Si Si7 0.689873 0.117857 0.811857
Si Si8 0.414056 0.762833 0.389312
O O1 0.058696 0.292610 0.678682
O O2 0.030190 0.490462 0.798648
O O3 0.832810 0.644172 0.474391
O O4 0.823319 0.645730 0.330179
O O5 0.839985 0.882013 0.396212
O O6 0.249432 0.575906 0.473229
O O7 0.186129 0.486803 0.386423
O O8 0.117366 0.613522 0.538496
O O9 0.722231 0.269906 0.808300
O O10 0.763345 0.537631 0.779711
O O11 0.696044 0.445713 0.938629
O O12 0.120928 0.883344 0.565859
O O13 0.387037 0.145962 0.669405
O O14 0.504304 0.247931 0.645066
O O15 0.401254 0.200803 0.807709
#
# Coordination Sequence:
#
# PCOD8132576 Si02
#       8
#     4   8   8   8   8   8   8   8
#     4  10  18  38  64  84 108 160 204 238 274 366
#     4  11  19  42  62  87 116 157 199 244 288 352
#     4  11  20  37  63  87 116 157 202 238 294 350
#     4  11  24  39  60  89 126 152 196 247 306 349
#     4  11  22  39  60  90 119 154 199 249 291 352
#     4  10  21  40  60  86 121 154 201 243 291 350
#     4  12  24  38  61  91 124 155 192 254 301 347
#     4  10  22  39  63  84 117 164 203 234 288 364
#
# _framework density 18.708776
#
# number of rings (size 3 to 8) (size 9 to 14) (size 15 to 20)
#    0.000    1.333    6.667    2.000    3.733    1.600 
#    0.000    0.667    0.000    0.000    0.000    0.000 
#    0.000    0.000    0.000    0.000    0.000    0.000 
#
# Total GULP energy -372084.582305 kJ/mol
# GULP energy per Si atom -12402.819410 kJ/mol
# Density = 1.866619 g / cm^3
# Si number density = 18.708776 Si / 1000 Ang^3
#
#
#
# Elastic Constant Matrix: (Units=GPa)
#
#
# Indices 1 2 3 4 5 6 
#
# 1 91.0875 35.4793 52.2810 0.0000 -3.3299 0.0001
# 2 35.4793 86.5860 42.8497 0.0000 -4.4387 0.0001
# 3 52.2810 42.8497 89.8614 0.0000 -5.7632 0.0000
# 4 0.0000 0.0000 0.0000 30.2816 0.0000 -7.9318
# 5 -3.3299 -4.4387 -5.7632 0.0000 31.6688 0.0000
# 6 0.0001 0.0001 0.0000 -7.9318 0.0000 18.4620
#
#
#
# Elastic Compliance Matrix: (Units=1/GPa)
#
#
# Indices 1 2 3 4 5 6 
#
# 1 0.016953 -0.002708 -0.008582 0.000000 -0.000159 0.000000
# 2 -0.002708 0.015570 -0.005795 0.000000 0.000843 0.000000
# 3 -0.008582 -0.005795 0.018997 0.000000 0.001742 0.000000
# 4 0.000000 0.000000 0.000000 0.037211 0.000000 0.015987
# 5 -0.000159 0.000843 0.001742 0.000000 0.031995 0.000000
# 6 0.000000 0.000000 0.000000 0.015987 0.000000 0.061034
#
#
# Mechanical properties :
#
#
# Convention : Reuss Voigt Hill
#
# Bulk Modulus (GPa) = 57.63854 58.75054 58.19454
# Shear Modulus (GPa) = 22.55173 25.21081 23.88127
#
# Velocity S-wave (km/s) = 3.47567 3.67487 3.57665
# Velocity P-wave (km/s) = 6.85435 7.03399 6.94475
#
# Compressibility (1/GPa) = 0.01734950
#
# Stress axis : x y z
#
# Youngs Moduli (GPa) = 58.98562 64.22728 52.64125
#
# Poissons Ratio (x) = 0.17390 0.45179
# Poissons Ratio (y) = 0.15971 0.30505
# Poissons Ratio (z) = 0.50624 0.37219
#
# Static dielectric constant tensor:
#      x y z
#    x 3.468220 0.000000 -0.129100 
#    y 0.000000 3.290400 0.000000 
#    z -0.129100 0.000000 3.417940 
# 
# 
# High freq. dielectric constant tensor:
#      x y z
#    x 1.720170 0.000000 -0.011770 
#    y 0.000000 1.719260 0.000000 
#    z -0.011770 0.000000 1.726750 
# 
# From -- ./inp_files/218573.got.cif
#   From: 2010.06.25/outbox.cif.g09.slc.cpg/sg15_110_cif.got.tgz:218573.got - 2010.06.28 07:06:18.
