data_PCOD8132250
_publ_section_title
;
Structure prediction by ZEFSAII (Michael W. Deem and Ramdas Pophale) SiO2 
 PCOD8132250
Probable space group: C 2/C
;
_chemical_formula_sum "Si O2"
_cell_formula_units_Z 52
_cell_length_a 15.236547
_cell_length_b 8.182890
_cell_length_c 27.363922
_cell_angle_alpha 90.000000
_cell_angle_beta 134.973897
_cell_angle_gamma 90.000000
_cell_volume 2413.539339
_symmetry_space_group_name_H-M "C 2/C"
_symmetry_group_IT_number 15
_symmetry_cell_setting 'monoclinic'
loop_
_space_group_symop_operation_xyz
x,y,z
-x,y,1/2-z
-x,-y,-z
x,-y,1/2+z
1/2+x,1/2+y,z
1/2-x,1/2+y,1/2-z
1/2-x,1/2-y,-z
1/2+x,1/2-y,1/2+z
loop_
_atom_site_type_symbol
_atom_site_label
_atom_site_fract_x
_atom_site_fract_y
_atom_site_fract_z
Si Si1 0.839410 0.887032 0.337283
Si Si2 0.230025 0.427241 0.138616
Si Si3 0.952663 0.299190 0.145052
Si Si4 0.000000 0.952365 0.750000
Si Si5 0.964215 0.173930 0.425398
Si Si6 0.865283 0.564033 0.299034
Si Si7 0.694548 0.759213 0.576933
O O1 0.882970 0.760887 0.311613
O O2 0.770587 0.789275 0.353389
O O3 0.952316 0.982153 0.407651
O O4 0.754029 0.029228 0.281325
O O5 0.379698 0.428443 0.203961
O O6 0.167738 0.248295 0.106420
O O7 0.157428 0.493968 0.156647
O O8 0.195850 0.542409 0.078384
O O9 0.804406 0.315297 0.087484
O O10 0.001607 0.162517 0.202417
O O11 0.987368 0.259521 0.103787
O O12 0.016834 0.475938 0.180391
O O13 0.064391 0.190515 0.507709
#
# Coordination Sequence:
#
# PCOD8132250 Si02
#       7
#     8   8   8   4   8   8   8
#     4  11  22  36  59  80 113 151 193 249 296 356
#     4   9  19  34  60  84 114 151 191 240 285 350
#     4  10  20  35  60  83 115 151 192 244 290 353
#     4  10  18  36  60  94 120 150 198 250 304 342
#     4  11  21  37  57  85 118 158 194 231 291 361
#     4  10  19  36  56  83 107 146 194 238 305 348
#     4  10  21  38  57  85 117 156 195 235 289 355
#
# _framework density 21.545121000000002
#
# number of rings (size 3 to 8) (size 9 to 14) (size 15 to 20)
#    0.000    1.846    0.000    6.923    0.000    0.000 
#    0.000    6.923    0.000    4.615    0.000    0.000 
#    0.000    0.000    0.000    0.000    0.000    0.000 
#
# Total GULP energy -322179.412073 kJ/mol
# GULP energy per Si atom -12391.515849 kJ/mol
# Density = 2.149608 g / cm^3
# Si number density = 21.545121 Si / 1000 Ang^3
#
#
#
# Elastic Constant Matrix: (Units=GPa)
#
#
# Indices 1 2 3 4 5 6 
#
# 1 83.7933 39.3592 38.6421 0.0000 19.1039 0.0000
# 2 39.3592 98.2744 48.3593 0.0000 18.2137 0.0000
# 3 38.6421 48.3593 112.0970 0.0000 19.2396 0.0000
# 4 0.0000 0.0000 0.0000 46.6851 0.0000 -13.3789
# 5 19.1039 18.2137 19.2396 0.0000 38.2764 0.0000
# 6 0.0000 0.0000 0.0000 -13.3789 0.0000 36.2778
#
#
#
# Elastic Compliance Matrix: (Units=1/GPa)
#
#
# Indices 1 2 3 4 5 6 
#
# 1 0.016365 -0.004202 -0.003031 0.000000 -0.004645 0.000000
# 2 -0.004202 0.014483 -0.004352 0.000000 -0.002607 0.000000
# 3 -0.003031 -0.004352 0.012288 0.000000 -0.002593 0.000000
# 4 0.000000 0.000000 0.000000 0.023951 0.000000 0.008833
# 5 -0.004645 -0.002607 -0.002593 0.000000 0.030988 0.000000
# 6 0.000000 0.000000 0.000000 0.008833 0.000000 0.030823
#
#
# Mechanical properties :
#
#
# Convention : Reuss Voigt Hill
#
# Bulk Modulus (GPa) = 50.08616 60.76512 55.42564
# Shear Modulus (GPa) = 31.50126 35.43481 33.46803
#
# Velocity S-wave (km/s) = 3.82790 4.05986 3.94559
# Velocity P-wave (km/s) = 6.54482 7.08813 6.82188
#
# Compressibility (1/GPa) = 0.01996560
#
# Stress axis : x y z
#
# Youngs Moduli (GPa) = 61.10770 69.04544 81.37702
#
# Poissons Ratio (x) = 0.29010 0.24669
# Poissons Ratio (y) = 0.25675 0.35418
# Poissons Ratio (z) = 0.18525 0.30051
#
# Static dielectric constant tensor:
#      x y z
#    x 3.838540 0.000000 0.052760 
#    y 0.000000 4.172550 0.000000 
#    z 0.052760 0.000000 3.817900 
# 
# 
# High freq. dielectric constant tensor:
#      x y z
#    x 1.831060 0.000000 -0.005010 
#    y 0.000000 1.838700 0.000000 
#    z -0.005010 0.000000 1.843340 
# 
# From -- ./inp_files/295290.got.cif
#   From: 2010.06.25/outbox.cif.g09.slc.cpg/sg15_148_cif.got.tgz:295290.got - 2010.06.28 07:06:18.
