data_PCOD8132031
_publ_section_title
;
Structure prediction by ZEFSAII (Michael W. Deem and Ramdas Pophale) SiO2 
 PCOD8132031
Probable space group: C 2/C
;
_chemical_formula_sum "Si O2"
_cell_formula_units_Z 52
_cell_length_a 11.153457
_cell_length_b 15.645648
_cell_length_c 16.236988
_cell_angle_alpha 90.000000
_cell_angle_beta 64.657531
_cell_angle_gamma 90.000000
_cell_volume 2560.732992
_symmetry_space_group_name_H-M "C 2/C"
_symmetry_group_IT_number 15
_symmetry_cell_setting 'monoclinic'
loop_
_space_group_symop_operation_xyz
x,y,z
-x,y,1/2-z
-x,-y,-z
x,-y,1/2+z
1/2+x,1/2+y,z
1/2-x,1/2+y,1/2-z
1/2-x,1/2-y,-z
1/2+x,1/2-y,1/2+z
loop_
_atom_site_type_symbol
_atom_site_label
_atom_site_fract_x
_atom_site_fract_y
_atom_site_fract_z
Si Si1 0.236606 0.279281 0.883801
Si Si2 0.726619 0.615086 0.973541
Si Si3 0.268255 0.929784 0.962935
Si Si4 0.461019 0.389900 0.356930
Si Si5 0.000000 0.848102 0.750000
Si Si6 0.500760 0.806561 0.653278
Si Si7 0.060715 0.055968 0.386898
O O1 0.214111 0.176965 0.897846
O O2 0.392536 0.287721 0.822873
O O3 0.147146 0.320724 0.838097
O O4 0.199596 0.329535 0.977989
O O5 0.813769 0.528666 0.936159
O O6 0.581305 0.584496 0.039685
O O7 0.395431 0.868271 0.923231
O O8 0.171838 0.906980 0.914658
O O9 0.190073 0.918013 0.073403
O O10 0.500000 0.403329 0.250000
O O11 0.465645 0.290902 0.379017
O O12 0.560251 0.451559 0.381044
O O13 0.919254 0.906872 0.709897
O O14 0.500000 0.826305 0.750000
#
# Coordination Sequence:
#
# PCOD8132031 Si02
#       7
#     8   8   8   8   4   8   8
#     4  10  20  39  58  82 115 149 202 245 296 356
#     4   9  20  36  60  81 110 155 195 248 291 350
#     4  11  21  36  59  87 118 160 195 241 309 354
#     4  10  20  36  59  87 115 152 208 249 288 345
#     4  10  20  34  62  84 104 150 202 248 290 344
#     4  11  23  37  55  85 127 159 189 248 302 358
#     4  10  18  35  60  86 112 148 204 244 289 352
#
# _framework density 20.306685000000002
#
# number of rings (size 3 to 8) (size 9 to 14) (size 15 to 20)
#    0.000    1.846    0.769    5.077    0.000    0.615 
#    1.385    4.615    0.000    0.000    0.000    0.000 
#    0.000    0.000    0.000    0.000    0.000    0.000 
#
# Total GULP energy -322202.828317 kJ/mol
# GULP energy per Si atom -12392.416474 kJ/mol
# Density = 2.026047 g / cm^3
# Si number density = 20.306685 Si / 1000 Ang^3
#
#
#
# Elastic Constant Matrix: (Units=GPa)
#
#
# Indices 1 2 3 4 5 6 
#
# 1 85.2337 37.7735 28.8532 0.0000 4.4017 0.0000
# 2 37.7735 135.3810 38.4683 0.0000 -9.4189 0.0000
# 3 28.8532 38.4683 94.5136 0.0000 1.9276 0.0000
# 4 0.0000 0.0000 0.0000 22.9488 0.0000 2.6756
# 5 4.4017 -9.4189 1.9276 0.0000 27.4858 0.0000
# 6 0.0000 0.0000 0.0000 2.6756 0.0000 19.2612
#
#
#
# Elastic Compliance Matrix: (Units=1/GPa)
#
#
# Indices 1 2 3 4 5 6 
#
# 1 0.014410 -0.003412 -0.002944 0.000000 -0.003270 0.000000
# 2 -0.003412 0.009434 -0.002879 0.000000 0.003981 0.000000
# 3 -0.002944 -0.002879 0.012680 0.000000 -0.001404 0.000000
# 4 0.000000 0.000000 0.000000 0.044293 0.000000 -0.006153
# 5 -0.003270 0.003981 -0.001404 0.000000 0.038369 0.000000
# 6 0.000000 0.000000 0.000000 -0.006153 0.000000 0.052773
#
#
# Mechanical properties :
#
#
# Convention : Reuss Voigt Hill
#
# Bulk Modulus (GPa) = 55.39013 58.36869 56.87941
# Shear Modulus (GPa) = 25.45252 27.94141 26.69696
#
# Velocity S-wave (km/s) = 3.54419 3.71343 3.62980
# Velocity P-wave (km/s) = 6.63961 6.86965 6.75561
#
# Compressibility (1/GPa) = 0.01805376
#
# Stress axis : x y z
#
# Youngs Moduli (GPa) = 69.39724 106.00446 78.86619
#
# Poissons Ratio (x) = 0.36165 0.23216
# Poissons Ratio (y) = 0.23676 0.22708
# Poissons Ratio (z) = 0.20429 0.30522
#
# Static dielectric constant tensor:
#      x y z
#    x 3.464740 0.000000 0.247250 
#    y 0.000000 4.024280 0.000000 
#    z 0.247250 0.000000 3.770030 
# 
# 
# High freq. dielectric constant tensor:
#      x y z
#    x 1.770850 0.000000 0.017320 
#    y 0.000000 1.807250 0.000000 
#    z 0.017320 0.000000 1.787540 
# 
# From -- ./inp_files/197680.got.cif
#   From: 2010.06.25/outbox.cif.g09.slc.cpg/sg15_99_cif.got.tgz:197680.got - 2010.06.28 07:06:18.
