data_PCOD8132651
_publ_section_title
;
Structure prediction by ZEFSAII (Michael W. Deem and Ramdas Pophale) SiO2 
 PCOD8132651
Probable space group: C 2/C
;
_chemical_formula_sum "Si O2"
_cell_formula_units_Z 52
_cell_length_a 12.608380
_cell_length_b 11.278107
_cell_length_c 20.171102
_cell_angle_alpha 90.000000
_cell_angle_beta 116.539592
_cell_angle_gamma 90.000000
_cell_volume 2566.058506
_symmetry_space_group_name_H-M "C 2/C"
_symmetry_group_IT_number 15
_symmetry_cell_setting 'monoclinic'
loop_
_space_group_symop_operation_xyz
x,y,z
-x,y,1/2-z
-x,-y,-z
x,-y,1/2+z
1/2+x,1/2+y,z
1/2-x,1/2+y,1/2-z
1/2-x,1/2-y,-z
1/2+x,1/2-y,1/2+z
loop_
_atom_site_type_symbol
_atom_site_label
_atom_site_fract_x
_atom_site_fract_y
_atom_site_fract_z
Si Si1 0.873860 0.313867 0.678245
Si Si2 0.368274 0.446092 0.188812
Si Si3 0.500000 0.828167 0.250000
Si Si4 0.408494 0.174873 0.504929
Si Si5 0.334345 0.014136 0.275409
Si Si6 0.644968 0.676512 0.391106
Si Si7 0.536593 0.921434 0.924304
O O1 0.821205 0.182933 0.653282
O O2 0.796781 0.396601 0.705481
O O3 0.875096 0.367279 0.604955
O O4 0.000000 0.314626 0.750000
O O5 0.500000 0.434223 0.250000
O O6 0.291897 0.478347 0.231551
O O7 0.364025 0.535865 0.125436
O O8 0.591841 0.745543 0.314008
O O9 0.418615 0.908155 0.274292
O O10 0.429031 0.279961 0.564540
O O11 0.283355 0.206945 0.436256
O O12 0.516127 0.167179 0.481546
O O13 0.404844 0.046109 0.539009
O O14 0.405075 0.070352 0.356666
#
# Coordination Sequence:
#
# PCOD8132651 Si02
#       7
#     8   8   4   8   8   8   8
#     4   9  20  38  60  88 121 160 208 255 301 363
#     4  11  24  37  57  92 134 159 195 260 328 362
#     4  12  22  38  68  94 118 160 220 260 308 364
#     4  10  21  36  63  89 125 165 212 257 304 368
#     4  11  20  38  63  91 117 162 216 252 299 374
#     4  11  22  36  57  95 128 159 202 263 312 364
#     4  10  18  39  63  87 117 169 214 252 295 377
#
# _framework density 20.264541000000001
#
# number of rings (size 3 to 8) (size 9 to 14) (size 15 to 20)
#    0.000    1.538    6.154    0.000    2.154    1.231 
#    0.000    1.538    0.000    0.000    0.000    0.000 
#    0.000    0.000    0.000    0.000    0.000    0.000 
#
# Total GULP energy -322201.380328 kJ/mol
# GULP energy per Si atom -12392.360782 kJ/mol
# Density = 2.021842 g / cm^3
# Si number density = 20.264541 Si / 1000 Ang^3
#
#
#
# Elastic Constant Matrix: (Units=GPa)
#
#
# Indices 1 2 3 4 5 6 
#
# 1 116.8833 57.1233 38.3503 0.0000 -27.2681 0.0000
# 2 57.1233 126.3667 44.2114 0.0000 -24.6778 0.0000
# 3 38.3503 44.2114 80.7309 0.0000 -22.7947 0.0000
# 4 0.0000 0.0000 0.0000 12.5252 0.0000 3.1533
# 5 -27.2681 -24.6778 -22.7947 0.0000 33.6816 0.0000
# 6 0.0000 0.0000 0.0000 3.1533 0.0000 13.9201
#
#
#
# Elastic Compliance Matrix: (Units=1/GPa)
#
#
# Indices 1 2 3 4 5 6 
#
# 1 0.012470 -0.003709 -0.002237 0.000000 0.005864 0.000000
# 2 -0.003709 0.011445 -0.003691 0.000000 0.002884 0.000000
# 3 -0.002237 -0.003691 0.017549 0.000000 0.007362 0.000000
# 4 0.000000 0.000000 0.000000 0.084668 0.000000 -0.019179
# 5 0.005864 0.002884 0.007362 0.000000 0.041533 0.000000
# 6 0.000000 0.000000 0.000000 -0.019179 0.000000 0.076183
#
#
# Mechanical properties :
#
#
# Convention : Reuss Voigt Hill
#
# Bulk Modulus (GPa) = 45.06510 67.03901 56.05206
# Shear Modulus (GPa) = 18.48293 24.31177 21.39735
#
# Velocity S-wave (km/s) = 3.02335 3.46745 3.25299
# Velocity P-wave (km/s) = 5.87147 7.01318 6.46757
#
# Compressibility (1/GPa) = 0.02219012
#
# Stress axis : x y z
#
# Youngs Moduli (GPa) = 80.19002 87.37447 56.98209
#
# Poissons Ratio (x) = 0.32411 0.12745
# Poissons Ratio (y) = 0.29746 0.21033
# Poissons Ratio (z) = 0.17936 0.32252
#
# Static dielectric constant tensor:
#      x y z
#    x 3.542060 0.000000 -0.247500 
#    y 0.000000 4.029760 0.000000 
#    z -0.247500 0.000000 3.768330 
# 
# 
# High freq. dielectric constant tensor:
#      x y z
#    x 1.780060 0.000000 -0.017410 
#    y 0.000000 1.789620 0.000000 
#    z -0.017410 0.000000 1.787840 
# 
# From -- ./inp_files/237692.got.cif
#   From: 2010.06.25/outbox.cif.g09.slc.cpg/sg15_119_cif.got.tgz:237692.got - 2010.06.28 07:06:18.
