data_PCOD8132013
_publ_section_title
;
Structure prediction by ZEFSAII (Michael W. Deem and Ramdas Pophale) SiO2 
 PCOD8132013
Probable space group: C 2/C
;
_chemical_formula_sum "Si O2"
_cell_formula_units_Z 36
_cell_length_a 17.579445
_cell_length_b 6.913566
_cell_length_c 16.440701
_cell_angle_alpha 90.000000
_cell_angle_beta 67.568285
_cell_angle_gamma 90.000000
_cell_volume 1846.957841
_symmetry_space_group_name_H-M "C 2/C"
_symmetry_group_IT_number 15
_symmetry_cell_setting 'monoclinic'
loop_
_space_group_symop_operation_xyz
x,y,z
-x,y,1/2-z
-x,-y,-z
x,-y,1/2+z
1/2+x,1/2+y,z
1/2-x,1/2+y,1/2-z
1/2-x,1/2-y,-z
1/2+x,1/2-y,1/2+z
loop_
_atom_site_type_symbol
_atom_site_label
_atom_site_fract_x
_atom_site_fract_y
_atom_site_fract_z
Si Si1 0.356511 0.368944 0.413943
Si Si2 0.820760 0.589021 0.568561
Si Si3 0.000000 0.997368 0.750000
Si Si4 0.100978 0.818148 0.477424
Si Si5 0.430919 0.658321 0.122943
O O1 0.277120 0.377806 0.388356
O O2 0.357367 0.178082 0.469928
O O3 0.439030 0.365704 0.326315
O O4 0.353564 0.557322 0.472112
O O5 0.842625 0.364599 0.564890
O O6 0.856772 0.695131 0.633818
O O7 0.053204 0.857586 0.787154
O O8 0.010884 0.755249 0.544789
O O9 0.090507 0.943294 0.399969
#
# Coordination Sequence:
#
# PCOD8132013 Si02
#       5
#     8   8   4   8   8
#     4   9  20  35  57  79 111 142 182 228 278 317
#     4  10  18  35  59  83 100 142 196 227 253 335
#     4  10  20  40  50  74 124 150 162 230 290 316
#     4   9  17  34  57  79 101 142 182 223 269 324
#     4   9  19  33  54  77 110 142 177 220 275 326
#
# _framework density 19.491512
#
# number of rings (size 3 to 8) (size 9 to 14) (size 15 to 20)
#    0.000    2.667    0.000    2.667    0.000    0.000 
#    4.000   10.000    0.000    0.000    0.000    0.000 
#    0.000    0.000    0.000    0.000    0.000    0.000 
#
# Total GULP energy -223215.985150 kJ/mol
# GULP energy per Si atom -12400.888064 kJ/mol
# Density = 1.944715 g / cm^3
# Si number density = 19.491512 Si / 1000 Ang^3
#
#
#
# Elastic Constant Matrix: (Units=GPa)
#
#
# Indices 1 2 3 4 5 6 
#
# 1 125.9996 29.1763 37.3608 0.0002 19.1393 0.0001
# 2 29.1763 75.2477 23.4914 0.0007 4.0188 0.0011
# 3 37.3608 23.4914 79.8112 0.0000 10.7408 0.0000
# 4 0.0002 0.0007 0.0000 13.5402 0.0001 2.0014
# 5 19.1393 4.0188 10.7408 0.0001 33.2598 0.0002
# 6 0.0001 0.0011 0.0000 2.0014 0.0002 32.3182
#
#
#
# Elastic Compliance Matrix: (Units=1/GPa)
#
#
# Indices 1 2 3 4 5 6 
#
# 1 0.010245 -0.002669 -0.003408 0.000000 -0.004472 0.000000
# 2 -0.002669 0.015335 -0.003368 -0.000001 0.000771 0.000000
# 3 -0.003408 -0.003368 0.015470 0.000000 -0.002628 0.000000
# 4 0.000000 -0.000001 0.000000 0.074537 0.000000 -0.004616
# 5 -0.004472 0.000771 -0.002628 0.000000 0.033395 0.000000
# 6 0.000000 0.000000 0.000000 -0.004616 0.000000 0.031228
#
#
# Mechanical properties :
#
#
# Convention : Reuss Voigt Hill
#
# Bulk Modulus (GPa) = 45.12911 51.23507 48.18209
# Shear Modulus (GPa) = 24.21478 28.55896 26.38687
#
# Velocity S-wave (km/s) = 3.52849 3.83195 3.68334
# Velocity P-wave (km/s) = 6.30902 6.77653 6.54695
#
# Compressibility (1/GPa) = 0.02215865
#
# Stress axis : x y z
#
# Youngs Moduli (GPa) = 97.61335 65.21173 64.64203
#
# Poissons Ratio (x) = 0.17407 0.22030
# Poissons Ratio (y) = 0.26057 0.21770
# Poissons Ratio (z) = 0.33267 0.21961
#
# Static dielectric constant tensor:
#      x y z
#    x 3.828170 0.000000 0.181920 
#    y 0.000000 3.282530 0.000000 
#    z 0.181920 0.000000 3.239740 
# 
# 
# High freq. dielectric constant tensor:
#      x y z
#    x 1.783010 0.000000 0.014270 
#    y 0.000000 1.740310 0.000000 
#    z 0.014270 0.000000 1.723900 
# 
# From -- ./inp_files/171540.got.cif
#   From: 2010.06.25/outbox.cif.g09.slc.cpg/sg15_86_cif.got.tgz:171540.got - 2010.06.28 07:06:18.
