data_PCOD8132978
_publ_section_title
;
Structure prediction by ZEFSAII (Michael W. Deem and Ramdas Pophale) SiO2 
 PCOD8132978
Probable space group: C 2/C
;
_chemical_formula_sum "Si O2"
_cell_formula_units_Z 56
_cell_length_a 15.577601
_cell_length_b 12.660613
_cell_length_c 14.884815
_cell_angle_alpha 90.000000
_cell_angle_beta 60.786721
_cell_angle_gamma 90.000000
_cell_volume 2562.229104
_symmetry_space_group_name_H-M "C 2/C"
_symmetry_group_IT_number 15
_symmetry_cell_setting 'monoclinic'
loop_
_space_group_symop_operation_xyz
x,y,z
-x,y,1/2-z
-x,-y,-z
x,-y,1/2+z
1/2+x,1/2+y,z
1/2-x,1/2+y,1/2-z
1/2-x,1/2-y,-z
1/2+x,1/2-y,1/2+z
loop_
_atom_site_type_symbol
_atom_site_label
_atom_site_fract_x
_atom_site_fract_y
_atom_site_fract_z
Si Si1 0.009223 0.617425 0.963792
Si Si2 0.064725 0.899692 0.820597
Si Si3 0.548157 0.682007 0.530002
Si Si4 0.639724 0.513047 0.050377
Si Si5 0.313136 0.855143 0.477232
Si Si6 0.652303 0.597668 0.842455
Si Si7 0.359463 0.177445 0.760100
O O1 0.898445 0.662349 0.006751
O O2 0.065075 0.615743 0.841010
O O3 0.000000 0.500000 0.000000
O O4 0.066373 0.691874 0.007768
O O5 0.109636 0.800436 0.744192
O O6 0.953709 0.937358 0.845448
O O7 0.143115 0.996217 0.780063
O O8 0.047102 0.868221 0.932337
O O9 0.627450 0.615346 0.549082
O O10 0.442103 0.669659 0.630819
O O11 0.742359 0.547306 0.044956
O O12 0.648114 0.562505 0.947584
O O13 0.250000 0.750000 0.500000
O O14 0.364082 0.877766 0.354918
O O15 0.750518 0.664715 0.772616
#
# Coordination Sequence:
#
# PCOD8132978 Si02
#       7
#     8   8   8   8   8   8   8
#     4  11  23  36  51  79 116 147 179 227 282 336
#     4   8  14  27  48  75 102 131 172 220 262 316
#     4   8  15  32  51  70  99 138 178 218 264 320
#     4   8  15  30  52  72  96 135 181 219 263 320
#     4  11  21  35  56  83 109 140 182 233 283 328
#     4   8  14  25  47  74  99 133 177 217 262 320
#     4  10  19  31  50  77 109 144 178 222 279 336
#
# _framework density 21.855971
#
# number of rings (size 3 to 8) (size 9 to 14) (size 15 to 20)
#    0.000    2.857    0.000    5.571    0.000    2.286 
#    0.000    0.714    0.000    0.000    0.000    8.000 
#    0.000    0.000    0.000    0.000    0.000    0.000 
#
# Total GULP energy -346881.867349 kJ/mol
# GULP energy per Si atom -12388.638120 kJ/mol
# Density = 2.180623 g / cm^3
# Si number density = 21.855971 Si / 1000 Ang^3
#
#
#
# Elastic Constant Matrix: (Units=GPa)
#
#
# Indices 1 2 3 4 5 6 
#
# 1 61.3647 34.1298 26.2374 0.0000 -25.5139 0.0000
# 2 34.1298 150.4233 45.6114 0.0000 -15.4021 0.0000
# 3 26.2374 45.6114 63.3590 0.0000 -22.8159 0.0000
# 4 0.0000 0.0000 0.0000 18.0942 0.0000 -6.8600
# 5 -25.5139 -15.4021 -22.8159 0.0000 19.6968 0.0000
# 6 0.0000 0.0000 0.0000 -6.8600 0.0000 36.4692
#
#
#
# Elastic Compliance Matrix: (Units=1/GPa)
#
#
# Indices 1 2 3 4 5 6 
#
# 1 0.038984 -0.005532 0.007661 0.000000 0.055045 0.000000
# 2 -0.005532 0.009296 -0.007487 0.000000 -0.008569 0.000000
# 3 0.007661 -0.007487 0.033396 0.000000 0.042754 0.000000
# 4 0.000000 0.000000 0.000000 0.059510 0.000000 0.011194
# 5 0.055045 -0.008569 0.042754 0.000000 0.164895 0.000000
# 6 0.000000 0.000000 0.000000 0.011194 0.000000 0.029526
#
#
# Mechanical properties :
#
#
# Convention : Reuss Voigt Hill
#
# Bulk Modulus (GPa) = 14.09249 54.12270 34.10760
# Shear Modulus (GPa) = 13.51441 26.12994 19.82217
#
# Velocity S-wave (km/s) = 2.48934 3.46143 3.01482
# Velocity P-wave (km/s) = 3.83723 6.38689 5.26862
#
# Compressibility (1/GPa) = 0.07095980
#
# Stress axis : x y z
#
# Youngs Moduli (GPa) = 25.65184 107.57517 29.94354
#
# Poissons Ratio (x) = 0.59509 -0.22940
# Poissons Ratio (y) = 0.14190 0.22419
# Poissons Ratio (z) = -0.19652 0.80542
#
# Static dielectric constant tensor:
#      x y z
#    x 4.147360 0.000000 -0.272520 
#    y 0.000000 4.252740 0.000000 
#    z -0.272520 0.000000 4.079590 
# 
# 
# High freq. dielectric constant tensor:
#      x y z
#    x 1.831260 0.000000 -0.020770 
#    y 0.000000 1.841350 0.000000 
#    z -0.020770 0.000000 1.858490 
# 
# From -- ./inp_files/210559.got.cif
#   From: 2010.06.25/outbox.cif.g09.slc.cpg/sg15_106_cif.got.tgz:210559.got - 2010.06.28 07:06:18.
