data_PCOD8132108
_publ_section_title
;
Structure prediction by ZEFSAII (Michael W. Deem and Ramdas Pophale) SiO2 
 PCOD8132108
Probable space group: C 2/C
;
_chemical_formula_sum "Si O2"
_cell_formula_units_Z 56
_cell_length_a 11.485831
_cell_length_b 29.874055
_cell_length_c 8.172198
_cell_angle_alpha 90.000000
_cell_angle_beta 109.287949
_cell_angle_gamma 90.000000
_cell_volume 2646.719196
_symmetry_space_group_name_H-M "C 2/C"
_symmetry_group_IT_number 15
_symmetry_cell_setting 'monoclinic'
loop_
_space_group_symop_operation_xyz
x,y,z
-x,y,1/2-z
-x,-y,-z
x,-y,1/2+z
1/2+x,1/2+y,z
1/2-x,1/2+y,1/2-z
1/2-x,1/2-y,-z
1/2+x,1/2-y,1/2+z
loop_
_atom_site_type_symbol
_atom_site_label
_atom_site_fract_x
_atom_site_fract_y
_atom_site_fract_z
Si Si1 0.774327 0.954748 0.778064
Si Si2 0.233761 0.291949 0.211501
Si Si3 0.858761 0.956806 0.184356
Si Si4 0.645265 0.371574 0.091507
Si Si5 0.000000 0.333702 0.250000
Si Si6 0.355404 0.202719 0.194195
Si Si7 0.857363 0.621096 0.429155
Si Si8 0.000000 0.903139 0.750000
O O1 0.649242 0.927901 0.663522
O O2 0.881617 0.933899 0.717236
O O3 0.769608 0.007323 0.733259
O O4 0.802987 0.948153 0.980699
O O5 0.347248 0.324515 0.311752
O O6 0.116411 0.300981 0.274865
O O7 0.283521 0.241764 0.258678
O O8 0.199590 0.302264 0.010210
O O9 0.856912 0.910569 0.277453
O O10 0.000000 0.974978 0.250000
O O11 0.763245 0.377261 0.033665
O O12 0.522163 0.372760 0.921726
O O13 0.014732 0.365550 0.419575
O O14 0.500000 0.213871 0.250000
O O15 0.327659 0.156928 0.275382
#
# Coordination Sequence:
#
# PCOD8132108 Si02
#       8
#     8   8   8   8   4   8   8   4
#     4  11  21  35  59  90 126 166 209 255 314 379
#     4  10  23  42  66  94 125 166 214 260 316 381
#     4  12  21  36  62  89 133 170 207 261 322 375
#     4  10  22  37  58  90 126 166 207 251 319 376
#     4  10  20  42  67  88 126 170 208 258 319 378
#     4  11  22  44  67  93 124 162 213 268 320 372
#     4  10  22  40  62  89 121 165 210 254 313 373
#     4  10  18  36  51  88 126 166 202 250 309 378
#
# _framework density 21.158269000000001
#
# number of rings (size 3 to 8) (size 9 to 14) (size 15 to 20)
#    0.000    1.429    3.571    3.000    0.000    2.857 
#   10.286    1.429    0.000    7.714    7.429    0.000 
#    0.000    0.000    0.000    0.000    0.000    0.000 
#
# Total GULP energy -347055.614757 kJ/mol
# GULP energy per Si atom -12394.843384 kJ/mol
# Density = 2.111011 g / cm^3
# Si number density = 21.158269 Si / 1000 Ang^3
#
#
#
# Elastic Constant Matrix: (Units=GPa)
#
#
# Indices 1 2 3 4 5 6 
#
# 1 47.3666 18.6390 7.2325 0.0000 -3.3990 0.0000
# 2 18.6390 110.1389 36.7740 0.0000 -5.1254 0.0000
# 3 7.2325 36.7740 104.3845 0.0000 -9.9159 0.0000
# 4 0.0000 0.0000 0.0000 4.5959 0.0000 5.0559
# 5 -3.3990 -5.1254 -9.9159 0.0000 20.3867 0.0000
# 6 0.0000 0.0000 0.0000 5.0559 0.0000 32.6999
#
#
#
# Elastic Compliance Matrix: (Units=1/GPa)
#
#
# Indices 1 2 3 4 5 6 
#
# 1 0.022782 -0.003724 0.000006 0.000000 0.002865 0.000000
# 2 -0.003724 0.010913 -0.003549 0.000000 0.000397 0.000000
# 3 0.000006 -0.003549 0.011266 0.000000 0.004588 0.000000
# 4 0.000000 0.000000 0.000000 0.262179 0.000000 -0.040537
# 5 0.002865 0.000397 0.004588 0.000000 0.051861 0.000000
# 6 0.000000 0.000000 0.000000 -0.040537 0.000000 0.036849
#
#
# Mechanical properties :
#
#
# Convention : Reuss Voigt Hill
#
# Bulk Modulus (GPa) = 32.86642 43.02010 37.94326
# Shear Modulus (GPa) = 11.88987 24.81947 18.35467
#
# Velocity S-wave (km/s) = 2.37312 3.42868 2.94852
# Velocity P-wave (km/s) = 4.80377 6.00426 5.43725
#
# Compressibility (1/GPa) = 0.03042619
#
# Stress axis : x y z
#
# Youngs Moduli (GPa) = 43.89417 91.63343 88.76505
#
# Poissons Ratio (x) = 0.34124 -0.00050
# Poissons Ratio (y) = 0.16346 0.31502
# Poissons Ratio (z) = -0.00025 0.32520
#
# Static dielectric constant tensor:
#      x y z
#    x 3.893250 0.000000 0.189800 
#    y 0.000000 4.076660 0.000000 
#    z 0.189800 0.000000 4.516430 
# 
# 
# High freq. dielectric constant tensor:
#      x y z
#    x 1.797640 0.000000 -0.005260 
#    y 0.000000 1.824980 0.000000 
#    z -0.005260 0.000000 1.856070 
# 
# From -- ./inp_files/34373.got.cif
#   From: 2010.06.25/outbox.cif.g09.slc.cpg/sg15_18_cif.got.tgz:34373.got - 2010.06.28 07:06:18.
