data_PCOD8132844
_publ_section_title
;
Structure prediction by ZEFSAII (Michael W. Deem and Ramdas Pophale) SiO2 
 PCOD8132844
Probable space group: C 2/C
;
_chemical_formula_sum "Si O2"
_cell_formula_units_Z 52
_cell_length_a 16.581883
_cell_length_b 36.823537
_cell_length_c 5.298452
_cell_angle_alpha 90.000000
_cell_angle_beta 125.764242
_cell_angle_gamma 90.000000
_cell_volume 2625.177859
_symmetry_space_group_name_H-M "C 2/C"
_symmetry_group_IT_number 15
_symmetry_cell_setting 'monoclinic'
loop_
_space_group_symop_operation_xyz
x,y,z
-x,y,1/2-z
-x,-y,-z
x,-y,1/2+z
1/2+x,1/2+y,z
1/2-x,1/2+y,1/2-z
1/2-x,1/2-y,-z
1/2+x,1/2-y,1/2+z
loop_
_atom_site_type_symbol
_atom_site_label
_atom_site_fract_x
_atom_site_fract_y
_atom_site_fract_z
Si Si1 0.760267 0.796988 0.714554
Si Si2 0.889103 0.544832 0.561884
Si Si3 0.411915 0.749238 0.241639
Si Si4 0.796612 0.989266 0.279653
Si Si5 0.681915 0.921162 0.068646
Si Si6 0.206875 0.338389 0.103619
Si Si7 0.000000 0.691841 0.250000
O O1 0.678232 0.764801 0.597601
O O2 0.867528 0.777858 0.871164
O O3 0.767930 0.820690 0.982619
O O4 0.738204 0.820729 0.425441
O O5 0.809159 0.511922 0.419089
O O6 0.876929 0.571039 0.297350
O O7 0.000000 0.527734 0.750000
O O8 0.882221 0.570163 0.798487
O O9 0.500000 0.728636 0.250000
O O10 0.466222 0.783895 0.456490
O O11 0.779109 0.946596 0.252417
O O12 0.858191 0.999447 0.141070
O O13 0.726820 0.880987 0.154432
O O14 0.090406 0.333634 0.829167
#
# Coordination Sequence:
#
# PCOD8132844 Si02
#       7
#     8   8   8   8   8   8   4
#     4  10  23  36  57  72 104 127 162 207 259 302
#     4  10  19  29  42  62  85 121 170 209 239 274
#     4  10  20  37  57  78  96 128 164 209 254 298
#     4   8  16  28  41  58  80 115 163 204 237 265
#     4  10  20  31  44  59  90 126 158 201 251 284
#     4  11  22  37  46  76 100 133 163 207 260 301
#     4  10  22  32  54  72 102 122 170 216 240 304
#
# _framework density 19.808183
#
# number of rings (size 3 to 8) (size 9 to 14) (size 15 to 20)
#    0.000    2.154    1.538    1.385    4.308    7.385 
#    0.000    0.000    0.000    0.000    0.000    0.000 
#    0.000    0.000    0.000    0.000    0.000  138.462 
#
# Total GULP energy -322200.888291 kJ/mol
# GULP energy per Si atom -12392.341857 kJ/mol
# Density = 1.976310 g / cm^3
# Si number density = 19.808183 Si / 1000 Ang^3
#
#
#
# Elastic Constant Matrix: (Units=GPa)
#
#
# Indices 1 2 3 4 5 6 
#
# 1 90.8587 38.5479 29.7976 0.0000 -21.4315 0.0000
# 2 38.5479 109.5187 13.2517 0.0000 -12.7237 0.0000
# 3 29.7976 13.2517 72.1268 0.0000 -38.2607 0.0000
# 4 0.0000 0.0000 0.0000 14.0725 0.0000 -13.5122
# 5 -21.4315 -12.7237 -38.2607 0.0000 34.6453 0.0000
# 6 0.0000 0.0000 0.0000 -13.5122 0.0000 15.2671
#
#
#
# Elastic Compliance Matrix: (Units=1/GPa)
#
#
# Indices 1 2 3 4 5 6 
#
# 1 0.014866 -0.004374 -0.003167 0.000000 0.004092 0.000000
# 2 -0.004374 0.010827 0.001187 0.000000 0.002582 0.000000
# 3 -0.003167 0.001187 0.034156 0.000000 0.036197 0.000000
# 4 0.000000 0.000000 0.000000 0.473170 0.000000 0.418781
# 5 0.004092 0.002582 0.036197 0.000000 0.072318 0.000000
# 6 0.000000 0.000000 0.000000 0.418781 0.000000 0.436145
#
#
# Mechanical properties :
#
#
# Convention : Reuss Voigt Hill
#
# Bulk Modulus (GPa) = 21.21297 48.41098 34.81197
# Shear Modulus (GPa) = 4.67332 25.52410 15.09871
#
# Velocity S-wave (km/s) = 1.53766 3.59355 2.76388
# Velocity P-wave (km/s) = 3.72626 6.45841 5.27238
#
# Compressibility (1/GPa) = 0.04714097
#
# Stress axis : x y z
#
# Youngs Moduli (GPa) = 67.26956 92.36523 29.27716
#
# Poissons Ratio (x) = 0.40398 0.09273
# Poissons Ratio (y) = 0.29422 -0.03476
# Poissons Ratio (z) = 0.21307 -0.10966
#
# Static dielectric constant tensor:
#      x y z
#    x 3.658630 0.000000 -0.509940 
#    y 0.000000 3.433160 0.000000 
#    z -0.509940 0.000000 3.880340 
# 
# 
# High freq. dielectric constant tensor:
#      x y z
#    x 1.744580 0.000000 -0.042270 
#    y 0.000000 1.757730 0.000000 
#    z -0.042270 0.000000 1.769370 
# 
# From -- ./inp_files/9126.got.cif
#   From: 2010.06.25/outbox.cif.g09.slc.cpg/sg15_5_cif.got.tgz:9126.got - 2010.06.28 07:06:18.
