data_PCOD8132511
_publ_section_title
;
Structure prediction by ZEFSAII (Michael W. Deem and Ramdas Pophale) SiO2 
 PCOD8132511
Probable space group: C 2/C
;
_chemical_formula_sum "Si O2"
_cell_formula_units_Z 44
_cell_length_a 13.449681
_cell_length_b 17.312263
_cell_length_c 12.581695
_cell_angle_alpha 90.000000
_cell_angle_beta 45.582350
_cell_angle_gamma 90.000000
_cell_volume 2092.471505
_symmetry_space_group_name_H-M "C 2/C"
_symmetry_group_IT_number 15
_symmetry_cell_setting 'monoclinic'
loop_
_space_group_symop_operation_xyz
x,y,z
-x,y,1/2-z
-x,-y,-z
x,-y,1/2+z
1/2+x,1/2+y,z
1/2-x,1/2+y,1/2-z
1/2-x,1/2-y,-z
1/2+x,1/2-y,1/2+z
loop_
_atom_site_type_symbol
_atom_site_label
_atom_site_fract_x
_atom_site_fract_y
_atom_site_fract_z
Si Si1 0.244563 0.336515 0.075725
Si Si2 0.682298 0.967128 0.266755
Si Si3 0.239904 0.107433 0.169020
Si Si4 0.962258 0.764764 0.643163
Si Si5 0.475015 0.854469 0.972393
Si Si6 0.000000 0.569837 0.250000
O O1 0.278233 0.401247 0.140382
O O2 0.105310 0.288713 0.213347
O O3 0.220264 0.383865 0.984918
O O4 0.369381 0.273463 0.972761
O O5 0.561003 0.926297 0.424398
O O6 0.773397 0.018565 0.281046
O O7 0.612285 0.017876 0.226515
O O8 0.094093 0.148525 0.304744
O O9 0.357391 0.149396 0.151638
O O10 0.919989 0.726786 0.560981
O O11 0.422578 0.872952 0.892561
#
# Coordination Sequence:
#
# PCOD8132511 Si02
#       6
#     8   8   8   8   8   4
#     4  11  23  38  63  91 124 158 197 249 303 352
#     4  10  21  37  61  89 118 156 198 250 294 357
#     4  11  21  36  61  89 121 153 202 244 301 351
#     4  11  23  38  59  92 123 156 197 250 300 355
#     4  10  21  36  59  86 118 155 199 245 292 357
#     4  10  18  38  60  84 118 154 206 242 290 356
#
# _framework density 21.027764999999999
#
# number of rings (size 3 to 8) (size 9 to 14) (size 15 to 20)
#    0.000    1.455    1.818    5.455    2.545    2.182 
#    0.000    3.636    4.000    0.000    0.000    0.000 
#    0.000    0.000    0.000    0.000    0.000    0.000 
#
# Total GULP energy -272580.033657 kJ/mol
# GULP energy per Si atom -12390.001530 kJ/mol
# Density = 2.097990 g / cm^3
# Si number density = 21.027765 Si / 1000 Ang^3
#
#
#
# Elastic Constant Matrix: (Units=GPa)
#
#
# Indices 1 2 3 4 5 6 
#
# 1 67.4836 36.1465 54.9338 -0.0003 11.5025 0.0003
# 2 36.1465 112.9567 62.1395 0.0001 16.3645 -0.0001
# 3 54.9338 62.1395 128.0980 -0.0001 17.5758 0.0001
# 4 -0.0003 0.0001 -0.0001 44.1249 0.0003 12.8022
# 5 11.5025 16.3645 17.5758 0.0003 41.4753 -0.0003
# 6 0.0003 -0.0001 0.0001 12.8022 -0.0003 22.6494
#
#
#
# Elastic Compliance Matrix: (Units=1/GPa)
#
#
# Indices 1 2 3 4 5 6 
#
# 1 0.023479 -0.002515 -0.008591 0.000000 -0.001879 0.000000
# 2 -0.002515 0.012579 -0.004712 0.000000 -0.002269 0.000000
# 3 -0.008591 -0.004712 0.014009 0.000000 -0.001695 0.000000
# 4 0.000000 0.000000 0.000000 0.027109 0.000000 -0.015323
# 5 -0.001879 -0.002269 -0.001695 0.000000 0.026245 0.000001
# 6 0.000000 0.000000 0.000000 -0.015323 0.000001 0.052812
#
#
# Mechanical properties :
#
#
# Convention : Reuss Voigt Hill
#
# Bulk Modulus (GPa) = 54.25771 68.33087 61.29429
# Shear Modulus (GPa) = 25.77155 32.00448 28.88801
#
# Velocity S-wave (km/s) = 3.50465 3.90553 3.71051
# Velocity P-wave (km/s) = 6.49890 7.27349 6.89707
#
# Compressibility (1/GPa) = 0.01843056
#
# Stress axis : x y z
#
# Youngs Moduli (GPa) = 42.59096 79.50015 71.38294
#
# Poissons Ratio (x) = 0.19996 0.61325
# Poissons Ratio (y) = 0.10712 0.33635
# Poissons Ratio (z) = 0.36590 0.37460
#
# Static dielectric constant tensor:
#      x y z
#    x 3.497700 0.000000 0.341070 
#    y 0.000000 4.082480 0.000000 
#    z 0.341070 0.000000 4.154050 
# 
# 
# High freq. dielectric constant tensor:
#      x y z
#    x 1.783550 0.000000 0.015440 
#    y 0.000000 1.828060 0.000000 
#    z 0.015440 0.000000 1.834990 
# 
# From -- ./inp_files/98159.got.cif
#   From: 2010.06.25/outbox.cif.g09.slc.cpg/sg15_50_cif.got.tgz:98159.got - 2010.06.28 07:06:18.
