data_PCOD8132674
_publ_section_title
;
Structure prediction by ZEFSAII (Michael W. Deem and Ramdas Pophale) SiO2 
 PCOD8132674
Probable space group: C 2/C
;
_chemical_formula_sum "Si O2"
_cell_formula_units_Z 44
_cell_length_a 11.614786
_cell_length_b 8.528267
_cell_length_c 30.340121
_cell_angle_alpha 90.000000
_cell_angle_beta 134.478312
_cell_angle_gamma 90.000000
_cell_volume 2144.336065
_symmetry_space_group_name_H-M "C 2/C"
_symmetry_group_IT_number 15
_symmetry_cell_setting 'monoclinic'
loop_
_space_group_symop_operation_xyz
x,y,z
-x,y,1/2-z
-x,-y,-z
x,-y,1/2+z
1/2+x,1/2+y,z
1/2-x,1/2+y,1/2-z
1/2-x,1/2-y,-z
1/2+x,1/2-y,1/2+z
loop_
_atom_site_type_symbol
_atom_site_label
_atom_site_fract_x
_atom_site_fract_y
_atom_site_fract_z
Si Si1 0.302683 0.862222 0.854567
Si Si2 0.886529 0.648978 0.558186
Si Si3 0.204569 0.695304 0.610035
Si Si4 0.000000 0.654243 0.750000
Si Si5 0.599190 0.173235 0.483695
Si Si6 0.956633 0.459191 0.656149
O O1 0.153123 0.757433 0.802287
O O2 0.424693 0.763410 0.919439
O O3 0.400403 0.895009 0.835834
O O4 0.234040 0.021542 0.859332
O O5 0.750000 0.750000 0.500000
O O6 0.910793 0.509256 0.530207
O O7 0.848943 0.580322 0.597102
O O8 0.058796 0.742906 0.604788
O O9 0.118249 0.698480 0.539866
O O10 0.349392 0.819732 0.648465
O O11 0.959173 0.547842 0.781055
O O12 0.750000 0.250000 0.500000
#
# Coordination Sequence:
#
# PCOD8132674 Si02
#       6
#     8   8   8   4   8   8
#     4  10  24  43  63  94 124 166 214 254 314 375
#     4  10  22  35  60  99 127 155 208 261 317 379
#     4  10  20  41  65  89 126 164 202 266 327 358
#     4  12  28  42  64  90 130 172 212 254 304 382
#     4  10  18  39  66  93 124 156 203 266 320 369
#     4  10  24  44  61  93 125 166 215 253 308 382
#
# _framework density 20.519172000000001
#
# number of rings (size 3 to 8) (size 9 to 14) (size 15 to 20)
#    0.000    2.182    3.636    2.182    5.091    7.273 
#    0.000    0.000    0.000    0.000    0.000    0.000 
#    0.000    0.000    0.000    0.000    0.000    0.000 
#
# Total GULP energy -272545.699169 kJ/mol
# GULP energy per Si atom -12388.440871 kJ/mol
# Density = 2.047247 g / cm^3
# Si number density = 20.519172 Si / 1000 Ang^3
#
#
#
# Elastic Constant Matrix: (Units=GPa)
#
#
# Indices 1 2 3 4 5 6 
#
# 1 94.1358 52.0954 36.0413 0.0000 8.9362 0.0000
# 2 52.0954 74.0535 56.3175 0.0000 7.8305 0.0000
# 3 36.0413 56.3175 122.8080 0.0000 10.5281 0.0000
# 4 0.0000 0.0000 0.0000 43.0073 0.0000 -0.0316
# 5 8.9362 7.8305 10.5281 0.0000 33.6032 0.0000
# 6 0.0000 0.0000 0.0000 -0.0316 0.0000 34.1708
#
#
#
# Elastic Compliance Matrix: (Units=1/GPa)
#
#
# Indices 1 2 3 4 5 6 
#
# 1 0.017568 -0.012834 0.000898 0.000000 -0.001963 0.000000
# 2 -0.012834 0.030230 -0.010055 0.000000 -0.000481 0.000000
# 3 0.000898 -0.010055 0.012650 0.000000 -0.001859 0.000000
# 4 0.000000 0.000000 0.000000 0.023252 0.000000 0.000021
# 5 -0.001963 -0.000481 -0.001859 0.000000 0.030975 0.000000
# 6 0.000000 0.000000 0.000000 0.000021 0.000000 0.029265
#
#
# Mechanical properties :
#
#
# Convention : Reuss Voigt Hill
#
# Bulk Modulus (GPa) = 60.73463 64.43397 62.58430
# Shear Modulus (GPa) = 25.85163 31.92581 28.88872
#
# Velocity S-wave (km/s) = 3.55333 3.94877 3.75626
# Velocity P-wave (km/s) = 6.81895 7.22914 7.02704
#
# Compressibility (1/GPa) = 0.01646507
#
# Stress axis : x y z
#
# Youngs Moduli (GPa) = 56.92179 33.07944 79.05272
#
# Poissons Ratio (x) = 0.42455 -0.07099
# Poissons Ratio (y) = 0.73054 0.79490
# Poissons Ratio (z) = -0.05111 0.33262
#
# Static dielectric constant tensor:
#      x y z
#    x 4.481590 0.000000 0.158780 
#    y 0.000000 3.805030 0.000000 
#    z 0.158780 0.000000 3.986660 
# 
# 
# High freq. dielectric constant tensor:
#      x y z
#    x 1.808880 0.000000 -0.006030 
#    y 0.000000 1.788670 0.000000 
#    z -0.006030 0.000000 1.803230 
# 
# From -- ./inp_files/267367.got.cif
#   From: 2010.06.25/outbox.cif.g09.slc.cpg/sg15_134_cif.got.tgz:267367.got - 2010.06.28 07:06:18.
