data_PCOD8132598
_publ_section_title
;
Structure prediction by ZEFSAII (Michael W. Deem and Ramdas Pophale) SiO2 
 PCOD8132598
Probable space group: C 2/C
;
_chemical_formula_sum "Si O2"
_cell_formula_units_Z 60
_cell_length_a 25.081753
_cell_length_b 8.204729
_cell_length_c 23.957117
_cell_angle_alpha 90.000000
_cell_angle_beta 143.613643
_cell_angle_gamma 90.000000
_cell_volume 2924.675898
_symmetry_space_group_name_H-M "C 2/C"
_symmetry_group_IT_number 15
_symmetry_cell_setting 'monoclinic'
loop_
_space_group_symop_operation_xyz
x,y,z
-x,y,1/2-z
-x,-y,-z
x,-y,1/2+z
1/2+x,1/2+y,z
1/2-x,1/2+y,1/2-z
1/2-x,1/2-y,-z
1/2+x,1/2-y,1/2+z
loop_
_atom_site_type_symbol
_atom_site_label
_atom_site_fract_x
_atom_site_fract_y
_atom_site_fract_z
Si Si1 0.723410 0.505962 0.146448
Si Si2 0.098441 0.365942 0.234832
Si Si3 0.597871 0.320263 0.342743
Si Si4 0.924287 0.857818 0.054126
Si Si5 0.619125 0.511798 0.751437
Si Si6 0.694106 0.713784 0.722368
Si Si7 0.019491 0.426690 0.576264
Si Si8 0.000000 0.491673 0.750000
O O1 0.812354 0.479847 0.183172
O O2 0.719713 0.348242 0.182810
O O3 0.729666 0.665275 0.190617
O O4 0.633044 0.524383 0.034153
O O5 0.127933 0.180327 0.263687
O O6 0.048212 0.415013 0.135694
O O7 0.022724 0.393999 0.217588
O O8 0.500000 0.402249 0.250000
O O9 0.632223 0.352072 0.434907
O O10 0.653941 0.399702 0.338657
O O11 0.588034 0.123575 0.331204
O O12 0.939275 0.677905 0.038726
O O13 0.019580 0.937124 0.148589
O O14 0.687887 0.566036 0.761268
O O15 0.599979 0.802241 0.637714
O O16 0.000000 0.500000 0.500000
#
# Coordination Sequence:
#
# PCOD8132598 Si02
#       8
#     8   8   8   8   8   8   8   4
#     4  11  24  40  59  89 130 157 205 253 320 363
#     4  11  23  39  61  93 120 163 203 256 311 368
#     4   8  16  37  61  83 117 154 205 250 297 359
#     4  10  21  38  62  91 120 164 205 258 300 364
#     4  10  21  39  67  86 121 165 210 247 305 370
#     4  10  23  40  58  86 125 168 195 251 312 370
#     4  10  22  38  62  91 119 161 213 248 300 372
#     4  10  18  38  66  82 118 158 214 240 298 370
#
# _framework density 20.515093
#
# number of rings (size 3 to 8) (size 9 to 14) (size 15 to 20)
#    0.400    1.600    1.333    2.400   10.267    1.067 
#    0.000    3.333    0.000    0.000    0.000    0.000 
#    0.000    0.000    0.000    0.000    0.000    0.000 
#
# Total GULP energy -371666.848553 kJ/mol
# GULP energy per Si atom -12388.894952 kJ/mol
# Density = 2.046840 g / cm^3
# Si number density = 20.515093 Si / 1000 Ang^3
#
#
#
# Elastic Constant Matrix: (Units=GPa)
#
#
# Indices 1 2 3 4 5 6 
#
# 1 99.9130 28.8370 35.4384 0.0000 -26.0792 0.0000
# 2 28.8370 102.0420 23.7250 0.0000 -16.1302 0.0003
# 3 35.4384 23.7250 79.1436 0.0000 -23.3852 0.0000
# 4 0.0000 0.0000 0.0000 17.5792 0.0000 -12.0719
# 5 -26.0792 -16.1302 -23.3852 0.0000 24.5940 0.0000
# 6 0.0000 0.0003 0.0000 -12.0719 0.0000 30.5346
#
#
#
# Elastic Compliance Matrix: (Units=1/GPa)
#
#
# Indices 1 2 3 4 5 6 
#
# 1 0.014467 -0.001630 -0.002465 0.000000 0.011928 0.000000
# 2 -0.001630 0.011267 -0.001356 0.000000 0.004372 0.000000
# 3 -0.002465 -0.001356 0.018233 0.000000 0.013834 0.000000
# 4 0.000000 0.000000 0.000000 0.078085 0.000000 0.030871
# 5 0.011928 0.004372 0.013834 0.000000 0.069330 0.000000
# 6 0.000000 0.000000 0.000000 0.030871 0.000000 0.044955
#
#
# Mechanical properties :
#
#
# Convention : Reuss Voigt Hill
#
# Bulk Modulus (GPa) = 30.24294 50.78882 40.51588
# Shear Modulus (GPa) = 19.36043 27.41476 23.38760
#
# Velocity S-wave (km/s) = 3.07533 3.65954 3.38008
# Velocity P-wave (km/s) = 5.23297 6.53199 5.91823
#
# Compressibility (1/GPa) = 0.03306556
#
# Stress axis : x y z
#
# Youngs Moduli (GPa) = 69.12412 88.75635 54.84558
#
# Poissons Ratio (x) = 0.14465 0.13519
# Poissons Ratio (y) = 0.11265 0.07436
# Poissons Ratio (z) = 0.17038 0.12034
#
# Static dielectric constant tensor:
#      x y z
#    x 4.099550 0.000000 -0.281080 
#    y 0.000000 3.672930 0.000000 
#    z -0.281080 0.000000 3.398910 
# 
# 
# High freq. dielectric constant tensor:
#      x y z
#    x 1.811390 0.000000 -0.019490 
#    y 0.000000 1.797400 0.000000 
#    z -0.019490 0.000000 1.770100 
# 
# From -- ./inp_files/281683.got.cif
#   From: 2010.06.25/outbox.cif.g09.slc.cpg/sg15_141_cif.got.tgz:281683.got - 2010.06.28 07:06:18.
