data_PCOD8132055
_publ_section_title
;
Structure prediction by ZEFSAII (Michael W. Deem and Ramdas Pophale) SiO2 
 PCOD8132055
Probable space group: C 2/C
;
_chemical_formula_sum "Si O2"
_cell_formula_units_Z 44
_cell_length_a 12.995403
_cell_length_b 15.727295
_cell_length_c 15.624818
_cell_angle_alpha 90.000000
_cell_angle_beta 148.736475
_cell_angle_gamma 90.000000
_cell_volume 1657.315653
_symmetry_space_group_name_H-M "C 2/C"
_symmetry_group_IT_number 15
_symmetry_cell_setting 'monoclinic'
loop_
_space_group_symop_operation_xyz
x,y,z
-x,y,1/2-z
-x,-y,-z
x,-y,1/2+z
1/2+x,1/2+y,z
1/2-x,1/2+y,1/2-z
1/2-x,1/2-y,-z
1/2+x,1/2-y,1/2+z
loop_
_atom_site_type_symbol
_atom_site_label
_atom_site_fract_x
_atom_site_fract_y
_atom_site_fract_z
Si Si1 0.860247 0.420602 0.264163
Si Si2 0.511614 0.329442 0.602515
Si Si3 0.033769 0.318924 0.544053
Si Si4 0.000000 0.283445 0.250000
Si Si5 0.684894 0.057896 0.501773
Si Si6 0.535652 0.484356 0.147638
O O1 0.973224 0.371243 0.418030
O O2 0.830081 0.349577 0.165020
O O3 0.640175 0.448446 0.136527
O O4 0.997609 0.501071 0.337136
O O5 0.478840 0.281526 0.487467
O O6 0.419872 0.274680 0.616063
O O7 0.430841 0.425606 0.552571
O O8 0.745239 0.342547 0.776477
O O9 0.892552 0.349376 0.522015
O O10 0.799368 0.009733 0.660402
O O11 0.844673 0.072971 0.539249
#
# Coordination Sequence:
#
# PCOD8132055 Si02
#       6
#     8   8   8   4   8   8
#     4  10  19  38  57  86 124 160 207 250 302 367
#     4  11  21  36  60  98 123 156 201 264 307 360
#     4  10  21  36  60  90 131 154 202 256 314 358
#     4  10  24  32  56  90 128 148 196 266 318 334
#     4  10  18  35  62  87 114 165 210 247 295 376
#     4  10  19  34  65  87 110 162 215 245 295 376
#
# _framework density 26.548954999999999
#
# number of rings (size 3 to 8) (size 9 to 14) (size 15 to 20)
#    0.000    1.818    3.636    2.182    2.545    1.455 
#    0.000    0.909    8.000   33.818    0.000    0.000 
#    0.000    0.000    0.000    0.000    0.000    0.000 
#
# Total GULP energy -272698.687323 kJ/mol
# GULP energy per Si atom -12395.394878 kJ/mol
# Density = 2.648853 g / cm^3
# Si number density = 26.548955 Si / 1000 Ang^3
#
#
#
# Elastic Constant Matrix: (Units=GPa)
#
#
# Indices 1 2 3 4 5 6 
#
# 1 178.7499 80.4263 57.8113 -0.0011 47.1426 -0.0016
# 2 80.4263 113.9265 17.2427 -0.0043 16.3696 0.0046
# 3 57.8113 17.2427 85.8297 -0.0019 18.8492 -0.0110
# 4 -0.0011 -0.0043 -0.0019 44.5759 -0.0061 7.6721
# 5 47.1426 16.3696 18.8492 -0.0061 46.0288 -0.0093
# 6 -0.0016 0.0046 -0.0110 7.6721 -0.0093 34.6313
#
#
#
# Elastic Compliance Matrix: (Units=1/GPa)
#
#
# Indices 1 2 3 4 5 6 
#
# 1 0.012587 -0.006898 -0.005274 -0.000001 -0.008279 -0.000002
# 2 -0.006898 0.013154 0.001626 0.000002 0.001721 -0.000001
# 3 -0.005274 0.001626 0.015183 0.000000 -0.001394 0.000004
# 4 -0.000001 0.000002 0.000000 0.023323 0.000003 -0.005167
# 5 -0.008279 0.001721 -0.001394 0.000003 0.030163 0.000006
# 6 -0.000002 -0.000001 0.000004 -0.005167 0.000006 0.030020
#
#
# Mechanical properties :
#
#
# Convention : Reuss Voigt Hill
#
# Bulk Modulus (GPa) = 50.42677 76.60742 63.51710
# Shear Modulus (GPa) = 32.86550 39.91558 36.39054
#
# Velocity S-wave (km/s) = 3.52223 3.88167 3.70631
# Velocity P-wave (km/s) = 5.96461 7.00054 6.50324
#
# Compressibility (1/GPa) = 0.01983074
#
# Stress axis : x y z
#
# Youngs Moduli (GPa) = 79.44393 76.02231 65.86268
#
# Poissons Ratio (x) = 0.52442 0.34739
# Poissons Ratio (y) = 0.54803 -0.10708
# Poissons Ratio (z) = 0.41902 -0.12360
#
# Static dielectric constant tensor:
#      x y z
#    x 5.161870 -0.000030 0.066830 
#    y -0.000030 5.010760 -0.000080 
#    z 0.066830 -0.000080 4.940620 
# 
# 
# High freq. dielectric constant tensor:
#      x y z
#    x 2.055920 0.000000 0.009270 
#    y 0.000000 2.049090 -0.000010 
#    z 0.009270 -0.000010 2.104510 
# 
# From -- ./inp_files/244632.got.cif
#   From: 2010.06.25/outbox.cif.g09.slc.cpg/sg15_123_cif.got.tgz:244632.got - 2010.06.28 07:06:18.
