data_PCOD8132025
_publ_section_title
;
Structure prediction by ZEFSAII (Michael W. Deem and Ramdas Pophale) SiO2 
 PCOD8132025
Probable space group: C 2/C
;
_chemical_formula_sum "Si O2"
_cell_formula_units_Z 64
_cell_length_a 9.117468
_cell_length_b 28.312454
_cell_length_c 15.550837
_cell_angle_alpha 90.000000
_cell_angle_beta 131.522092
_cell_angle_gamma 90.000000
_cell_volume 3005.477385
_symmetry_space_group_name_H-M "C 2/C"
_symmetry_group_IT_number 15
_symmetry_cell_setting 'monoclinic'
loop_
_space_group_symop_operation_xyz
x,y,z
-x,y,1/2-z
-x,-y,-z
x,-y,1/2+z
1/2+x,1/2+y,z
1/2-x,1/2+y,1/2-z
1/2-x,1/2-y,-z
1/2+x,1/2-y,1/2+z
loop_
_atom_site_type_symbol
_atom_site_label
_atom_site_fract_x
_atom_site_fract_y
_atom_site_fract_z
Si Si1 0.088325 0.580375 0.528619
Si Si2 0.654202 0.421034 0.883614
Si Si3 0.227778 0.319119 0.074405
Si Si4 0.339662 0.324512 0.312349
Si Si5 0.946164 0.019867 0.628476
Si Si6 0.062942 0.754121 0.018002
Si Si7 0.314654 0.924824 0.234528
Si Si8 0.394921 0.683638 0.116302
O O1 0.099288 0.634793 0.504587
O O2 0.246182 0.549801 0.536165
O O3 0.127714 0.573659 0.644243
O O4 0.864788 0.565260 0.423437
O O5 0.500000 0.414043 0.750000
O O6 0.590512 0.465825 0.917699
O O7 0.651695 0.370558 0.931678
O O8 0.256075 0.313076 0.187215
O O9 0.425720 0.328010 0.099950
O O10 0.120227 0.270660 0.004056
O O11 0.295728 0.282157 0.361140
O O12 0.249308 0.372108 0.316403
O O13 0.000000 0.020584 0.750000
O O14 0.127662 0.041116 0.645077
O O15 0.186907 0.710048 0.030843
O O16 0.982774 0.789496 0.911377
O O17 0.500000 0.941406 0.250000
O O18 0.500000 0.686912 0.250000
#
# Coordination Sequence:
#
# PCOD8132025 Si02
#       8
#     8   8   8   8   8   8   8   8
#     4  10  18  35  60  83 113 151 194 239 291 340
#     4  10  20  35  58  84 113 149 198 237 282 351
#     4  10  19  36  55  83 112 151 198 238 290 343
#     4  10  21  34  57  83 116 150 189 247 289 345
#     4   9  18  36  60  87 110 146 192 241 289 355
#     4  11  21  34  57  79 116 150 196 232 288 342
#     4  10  21  34  58  88 120 144 187 246 301 348
#     4  10  22  36  52  82 113 150 189 234 281 342
#
# _framework density 21.294454999999999
#
# number of rings (size 3 to 8) (size 9 to 14) (size 15 to 20)
#    0.000    2.000    2.500    1.500    1.750    1.500 
#    0.000    0.625    0.000    0.000    0.000    0.000 
#    0.000    0.000    0.000    0.000    0.000    0.000 
#
# Total GULP energy -396556.070613 kJ/mol
# GULP energy per Si atom -12392.377207 kJ/mol
# Density = 2.124599 g / cm^3
# Si number density = 21.294455 Si / 1000 Ang^3
#
#
#
# Elastic Constant Matrix: (Units=GPa)
#
#
# Indices 1 2 3 4 5 6 
#
# 1 99.2588 56.6558 15.4374 0.0000 25.3892 0.0000
# 2 56.6558 166.0661 29.6721 0.0000 15.7021 0.0000
# 3 15.4374 29.6721 49.5239 0.0000 18.0830 0.0000
# 4 0.0000 0.0000 0.0000 30.3577 0.0000 17.9918
# 5 25.3892 15.7021 18.0830 0.0000 35.2013 0.0000
# 6 0.0000 0.0000 0.0000 17.9918 0.0000 32.1320
#
#
#
# Elastic Compliance Matrix: (Units=1/GPa)
#
#
# Indices 1 2 3 4 5 6 
#
# 1 0.014782 -0.004415 0.001491 0.000000 -0.009458 0.000000
# 2 -0.004415 0.008100 -0.004087 0.000000 0.001671 0.000000
# 3 0.001491 -0.004087 0.026960 0.000000 -0.013102 0.000000
# 4 0.000000 0.000000 0.000000 0.049301 0.000000 -0.027605
# 5 -0.009458 0.001671 -0.013102 0.000000 0.041215 0.000000
# 6 0.000000 0.000000 0.000000 -0.027605 0.000000 0.046579
#
#
# Mechanical properties :
#
#
# Convention : Reuss Voigt Hill
#
# Bulk Modulus (GPa) = 27.91707 57.59770 42.75738
# Shear Modulus (GPa) = 23.48516 33.74377 28.61446
#
# Velocity S-wave (km/s) = 3.32456 3.98506 3.66970
# Velocity P-wave (km/s) = 5.27972 6.94846 6.17076
#
# Compressibility (1/GPa) = 0.03582037
#
# Stress axis : x y z
#
# Youngs Moduli (GPa) = 67.64858 123.45210 37.09169
#
# Poissons Ratio (x) = 0.54508 -0.05531
# Poissons Ratio (y) = 0.29869 0.15159
# Poissons Ratio (z) = -0.10087 0.50455
#
# Static dielectric constant tensor:
#      x y z
#    x 3.825960 0.000000 0.280370 
#    y 0.000000 4.404050 0.000000 
#    z 0.280370 0.000000 3.550140 
# 
# 
# High freq. dielectric constant tensor:
#      x y z
#    x 1.819200 0.000000 0.025960 
#    y 0.000000 1.853950 0.000000 
#    z 0.025960 0.000000 1.807390 
# 
# From -- ./inp_files/139856.got.cif
#   From: 2010.06.25/outbox.cif.g09.slc.cpg/sg15_70_cif.got.tgz:139856.got - 2010.06.28 07:06:18.
