data_PCOD8132457
_publ_section_title
;
Structure prediction by ZEFSAII (Michael W. Deem and Ramdas Pophale) SiO2 
 PCOD8132457
Probable space group: C 2/C
;
_chemical_formula_sum "Si O2"
_cell_formula_units_Z 36
_cell_length_a 8.085726
_cell_length_b 18.408837
_cell_length_c 12.144716
_cell_angle_alpha 90.000000
_cell_angle_beta 63.390205
_cell_angle_gamma 90.000000
_cell_volume 1616.247953
_symmetry_space_group_name_H-M "C 2/C"
_symmetry_group_IT_number 15
_symmetry_cell_setting 'monoclinic'
loop_
_space_group_symop_operation_xyz
x,y,z
-x,y,1/2-z
-x,-y,-z
x,-y,1/2+z
1/2+x,1/2+y,z
1/2-x,1/2+y,1/2-z
1/2-x,1/2-y,-z
1/2+x,1/2-y,1/2+z
loop_
_atom_site_type_symbol
_atom_site_label
_atom_site_fract_x
_atom_site_fract_y
_atom_site_fract_z
Si Si1 0.000000 0.986299 0.750000
Si Si2 0.285095 0.278631 0.823762
Si Si3 0.203976 0.117552 0.352437
Si Si4 0.190301 0.488692 0.505565
Si Si5 0.194072 0.143613 0.964738
O O1 0.863744 0.031152 0.872536
O O2 0.858957 0.938179 0.722745
O O3 0.500000 0.296804 0.750000
O O4 0.193205 0.315192 0.741472
O O5 0.252403 0.191731 0.840747
O O6 0.211959 0.319124 0.955590
O O7 0.337622 0.077444 0.399962
O O8 0.026834 0.147183 0.470599
O O9 0.236672 0.560841 0.563147
O O10 0.000000 0.500000 0.500000
#
# Coordination Sequence:
#
# PCOD8132457 Si02
#       5
#     4   8   8   8   8
#     4  10  18  40  60  92 132 160 212 274 330 378
#     4   9  16  33  61  90 123 166 215 259 323 380
#     4  10  18  37  64  91 125 172 209 273 321 383
#     4  11  23  38  62 101 130 167 218 264 332 396
#     4   9  17  35  60  91 123 167 213 258 318 389
#
# _framework density 22.273810999999998
#
# number of rings (size 3 to 8) (size 9 to 14) (size 15 to 20)
#    0.000    2.222    5.556    2.667    0.000    0.889 
#    8.000    0.000    0.000   20.000   11.556    0.000 
#    0.000    0.000    0.000    0.000    0.000    0.000 
#
# Total GULP energy -223011.874054 kJ/mol
# GULP energy per Si atom -12389.548559 kJ/mol
# Density = 2.222312 g / cm^3
# Si number density = 22.273811 Si / 1000 Ang^3
#
#
#
# Elastic Constant Matrix: (Units=GPa)
#
#
# Indices 1 2 3 4 5 6 
#
# 1 76.7418 35.0782 35.8773 0.0000 20.6597 0.0000
# 2 35.0782 123.1631 77.3845 0.0000 10.2673 0.0000
# 3 35.8773 77.3845 104.7415 0.0000 14.5465 0.0000
# 4 0.0000 0.0000 0.0000 60.2052 0.0000 7.8138
# 5 20.6597 10.2673 14.5465 0.0000 20.1214 0.0000
# 6 0.0000 0.0000 0.0000 7.8138 0.0000 23.6407
#
#
#
# Elastic Compliance Matrix: (Units=1/GPa)
#
#
# Indices 1 2 3 4 5 6 
#
# 1 0.020141 -0.002743 -0.002439 0.000000 -0.017516 0.000000
# 2 -0.002743 0.015530 -0.010922 0.000000 0.002788 0.000000
# 3 -0.002439 -0.010922 0.019264 0.000000 -0.005849 0.000000
# 4 0.000000 0.000000 0.000000 0.017354 0.000000 -0.005736
# 5 -0.017516 0.002788 -0.005849 0.000000 0.070489 0.000000
# 6 0.000000 0.000000 0.000000 -0.005736 0.000000 0.044196
#
#
# Mechanical properties :
#
#
# Convention : Reuss Voigt Hill
#
# Bulk Modulus (GPa) = 44.00107 66.81404 55.40756
# Shear Modulus (GPa) = 22.04986 31.21388 26.63187
#
# Velocity S-wave (km/s) = 3.14975 3.74755 3.46158
# Velocity P-wave (km/s) = 5.74678 6.98479 6.39581
#
# Compressibility (1/GPa) = 0.02272672
#
# Stress axis : x y z
#
# Youngs Moduli (GPa) = 49.65087 64.38997 51.90988
#
# Poissons Ratio (x) = 0.17665 0.12662
# Poissons Ratio (y) = 0.13622 0.56693
# Poissons Ratio (z) = 0.12111 0.70324
#
# Static dielectric constant tensor:
#      x y z
#    x 3.575620 0.000000 0.005110 
#    y 0.000000 4.064530 0.000000 
#    z 0.005110 0.000000 4.329310 
# 
# 
# High freq. dielectric constant tensor:
#      x y z
#    x 1.839570 0.000000 -0.003100 
#    y 0.000000 1.862120 0.000000 
#    z -0.003100 0.000000 1.872340 
# 
# From -- ./inp_files/76567.got.cif
#   From: 2010.06.25/outbox.cif.g09.slc.cpg/sg15_39_cif.got.tgz:76567.got - 2010.06.28 07:06:18.
