data_PCOD8132728
_publ_section_title
;
Structure prediction by ZEFSAII (Michael W. Deem and Ramdas Pophale) SiO2 
 PCOD8132728
Probable space group: C 2/C
;
_chemical_formula_sum "Si O2"
_cell_formula_units_Z 48
_cell_length_a 25.187752
_cell_length_b 22.396701
_cell_length_c 11.288344
_cell_angle_alpha 90.000000
_cell_angle_beta 159.348699
_cell_angle_gamma 90.000000
_cell_volume 2245.867190
_symmetry_space_group_name_H-M "C 2/C"
_symmetry_group_IT_number 15
_symmetry_cell_setting 'monoclinic'
loop_
_space_group_symop_operation_xyz
x,y,z
-x,y,1/2-z
-x,-y,-z
x,-y,1/2+z
1/2+x,1/2+y,z
1/2-x,1/2+y,1/2-z
1/2-x,1/2-y,-z
1/2+x,1/2-y,1/2+z
loop_
_atom_site_type_symbol
_atom_site_label
_atom_site_fract_x
_atom_site_fract_y
_atom_site_fract_z
Si Si1 0.376367 0.111731 0.151287
Si Si2 0.797656 0.425191 0.230423
Si Si3 0.500000 0.856556 0.250000
Si Si4 0.468999 0.785891 0.420627
Si Si5 0.851081 0.832306 0.723135
Si Si6 0.000000 0.119566 0.750000
Si Si7 0.752512 0.936030 0.881509
O O1 0.542364 0.081589 0.503010
O O2 0.398162 0.182622 0.225112
O O3 0.270529 0.080811 0.028834
O O4 0.300780 0.104893 0.866360
O O5 0.766548 0.494434 0.179088
O O6 0.658590 0.395334 0.867572
O O7 0.471113 0.811690 0.294995
O O8 0.638892 0.900219 0.561040
O O9 0.482050 0.713380 0.449595
O O10 0.308516 0.802534 0.142036
O O11 0.880848 0.841081 0.925942
O O12 0.918414 0.080735 0.681435
#
# Coordination Sequence:
#
# PCOD8132728 Si02
#       7
#     8   8   4   8   8   4   8
#     4   9  20  39  65  98 116 158 216 270 309 352
#     4  10  21  39  66  94 121 164 212 262 317 365
#     4  10  18  40  65  97 114 164 218 266 306 360
#     4   9  19  38  65  89 120 157 213 261 306 370
#     4  10  22  40  60  87 125 171 200 251 321 374
#     4  12  26  42  57  93 132 172 200 244 332 376
#     4  11  23  39  65  91 133 162 212 257 311 382
#
# _framework density 21.372589999999999
#
# number of rings (size 3 to 8) (size 9 to 14) (size 15 to 20)
#    0.000    2.000    1.667    1.500    2.333    4.667 
#    3.000    1.667    0.000    0.000    0.000    0.000 
#    0.000    0.000    0.000    0.000    0.000    0.000 
#
# Total GULP energy -297465.817449 kJ/mol
# GULP energy per Si atom -12394.409060 kJ/mol
# Density = 2.132395 g / cm^3
# Si number density = 21.372590 Si / 1000 Ang^3
#
#
#
# Elastic Constant Matrix: (Units=GPa)
#
#
# Indices 1 2 3 4 5 6 
#
# 1 136.4270 60.8875 39.6701 0.0000 -10.1873 0.0000
# 2 60.8875 131.5553 28.0260 0.0000 -9.8405 0.0000
# 3 39.6701 28.0260 61.0307 0.0000 -18.6932 0.0000
# 4 0.0000 0.0000 0.0000 5.4376 0.0000 -4.9679
# 5 -10.1873 -9.8405 -18.6932 0.0000 40.6568 0.0000
# 6 0.0000 0.0000 0.0000 -4.9679 0.0000 8.4356
#
#
#
# Elastic Compliance Matrix: (Units=1/GPa)
#
#
# Indices 1 2 3 4 5 6 
#
# 1 0.010512 -0.003787 -0.005316 0.000000 -0.000727 0.000000
# 2 -0.003787 0.009793 -0.001863 0.000000 0.000565 0.000000
# 3 -0.005316 -0.001863 0.023453 0.000000 0.009000 0.000000
# 4 0.000000 0.000000 0.000000 0.398092 0.000000 0.234444
# 5 -0.000727 0.000565 0.009000 0.000000 0.028689 0.000000
# 6 0.000000 0.000000 0.000000 0.234444 0.000000 0.256615
#
#
# Mechanical properties :
#
#
# Convention : Reuss Voigt Hill
#
# Bulk Modulus (GPa) = 45.81667 65.13112 55.47389
# Shear Modulus (GPa) = 6.61061 24.26797 15.43929
#
# Velocity S-wave (km/s) = 1.76061 3.37333 2.69064
# Velocity P-wave (km/s) = 5.06129 6.76112 5.97199
#
# Compressibility (1/GPa) = 0.02182612
#
# Stress axis : x y z
#
# Youngs Moduli (GPa) = 95.13313 102.11277 42.63883
#
# Poissons Ratio (x) = 0.38669 0.22668
# Poissons Ratio (y) = 0.36026 0.07942
# Poissons Ratio (z) = 0.50575 0.19019
#
# Static dielectric constant tensor:
#      x y z
#    x 3.791400 0.000000 -0.048010 
#    y 0.000000 4.036710 0.000000 
#    z -0.048010 0.000000 3.834080 
# 
# 
# High freq. dielectric constant tensor:
#      x y z
#    x 1.836280 0.000000 -0.011700 
#    y 0.000000 1.840360 0.000000 
#    z -0.011700 0.000000 1.820840 
# 
# From -- ./inp_files/124354.got.cif
#   From: 2010.06.25/outbox.cif.g09.slc.cpg/sg15_63_cif.got.tgz:124354.got - 2010.06.28 07:06:18.
