data_PCOD8132852
_publ_section_title
;
Structure prediction by ZEFSAII (Michael W. Deem and Ramdas Pophale) SiO2 
 PCOD8132852
Probable space group: C 2/C
;
_chemical_formula_sum "Si O2"
_cell_formula_units_Z 64
_cell_length_a 12.469193
_cell_length_b 31.529952
_cell_length_c 18.027732
_cell_angle_alpha 90.000000
_cell_angle_beta 31.921461
_cell_angle_gamma 90.000000
_cell_volume 3747.643738
_symmetry_space_group_name_H-M "C 2/C"
_symmetry_group_IT_number 15
_symmetry_cell_setting 'monoclinic'
loop_
_space_group_symop_operation_xyz
x,y,z
-x,y,1/2-z
-x,-y,-z
x,-y,1/2+z
1/2+x,1/2+y,z
1/2-x,1/2+y,1/2-z
1/2-x,1/2-y,-z
1/2+x,1/2-y,1/2+z
loop_
_atom_site_type_symbol
_atom_site_label
_atom_site_fract_x
_atom_site_fract_y
_atom_site_fract_z
Si Si1 0.428920 0.699833 0.455901
Si Si2 0.524897 0.487454 0.317825
Si Si3 0.074524 0.293664 0.045372
Si Si4 0.316135 0.350201 0.800784
Si Si5 0.633934 0.936681 0.315914
Si Si6 0.148845 0.439215 0.873238
Si Si7 0.931171 0.513900 0.369576
Si Si8 0.332743 0.848599 0.285785
O O1 0.253670 0.706518 0.499326
O O2 0.471881 0.747211 0.461907
O O3 0.622636 0.681369 0.300744
O O4 0.374011 0.665917 0.552407
O O5 0.500000 0.469631 0.250000
O O6 0.642748 0.451851 0.293967
O O7 0.656426 0.530415 0.235370
O O8 0.309847 0.494028 0.484486
O O9 0.876748 0.309908 0.204287
O O10 0.128504 0.327212 0.950170
O O11 0.500000 0.360164 0.750000
O O12 0.237598 0.392702 0.807815
O O13 0.480152 0.938504 0.475517
O O14 0.675442 0.891129 0.256839
O O15 0.539738 0.968279 0.310802
O O16 0.003642 0.454014 0.891629
O O17 0.000000 0.533398 0.250000
O O18 0.500000 0.855237 0.250000
#
# Coordination Sequence:
#
# PCOD8132852 Si02
#       8
#     8   8   8   8   8   8   8   8
#     4   9  18  28  44  70 101 137 171 201 252 299
#     4  11  20  37  58  72 100 140 173 210 256 310
#     4   9  16  30  45  65 101 142 169 200 247 309
#     4  10  19  29  49  74 102 139 174 206 247 304
#     4  11  21  35  55  78 101 139 178 210 252 309
#     4  11  21  35  56  77 102 137 181 208 250 313
#     4  11  24  38  54  78 105 133 169 220 264 296
#     4  10  19  30  47  72 106 134 167 214 245 289
#
# _framework density 17.077397000000001
#
# number of rings (size 3 to 8) (size 9 to 14) (size 15 to 20)
#    0.000    1.750    3.750    2.250    0.000    7.000 
#    0.000    0.000    0.000    0.000    0.000    0.000 
#    0.000   20.000    0.000    0.000    0.000    0.000 
#
# Total GULP energy -396640.509322 kJ/mol
# GULP energy per Si atom -12395.015916 kJ/mol
# Density = 1.703853 g / cm^3
# Si number density = 17.077397 Si / 1000 Ang^3
#
#
#
# Elastic Constant Matrix: (Units=GPa)
#
#
# Indices 1 2 3 4 5 6 
#
# 1 57.9887 41.8892 43.5699 -0.0002 5.8487 0.0004
# 2 41.8892 125.2487 31.9142 0.0002 4.6376 -0.0002
# 3 43.5699 31.9142 93.7228 0.0010 9.3401 0.0004
# 4 -0.0002 0.0002 0.0010 19.6047 0.0001 13.4828
# 5 5.8487 4.6376 9.3401 0.0001 27.9884 -0.0004
# 6 0.0004 -0.0002 0.0004 13.4828 -0.0004 18.3267
#
#
#
# Elastic Compliance Matrix: (Units=1/GPa)
#
#
# Indices 1 2 3 4 5 6 
#
# 1 0.031964 -0.007542 -0.012154 0.000003 -0.001374 -0.000002
# 2 -0.007542 0.010528 -0.000064 -0.000001 -0.000147 0.000001
# 3 -0.012154 -0.000064 0.016641 -0.000002 -0.003003 0.000001
# 4 0.000003 -0.000001 -0.000002 0.103246 -0.000001 -0.075957
# 5 -0.001374 -0.000147 -0.003003 -0.000001 0.037043 0.000002
# 6 -0.000002 0.000001 0.000001 -0.075957 0.000002 0.110446
#
#
# Mechanical properties :
#
#
# Convention : Reuss Voigt Hill
#
# Bulk Modulus (GPa) = 50.98941 56.85634 53.92288
# Shear Modulus (GPa) = 14.04782 23.82309 18.93546
#
# Velocity S-wave (km/s) = 2.87121 3.73903 3.33348
# Velocity P-wave (km/s) = 6.39644 7.21152 6.81618
#
# Compressibility (1/GPa) = 0.01961191
#
# Stress axis : x y z
#
# Youngs Moduli (GPa) = 31.28558 94.98091 60.09227
#
# Poissons Ratio (x) = 0.71638 0.73037
# Poissons Ratio (y) = 0.23597 0.00386
# Poissons Ratio (z) = 0.38025 0.00609
#
# Static dielectric constant tensor:
#      x y z
#    x 2.960030 0.000000 0.139670 
#    y 0.000000 3.292630 0.000000 
#    z 0.139670 0.000000 3.341370 
# 
# 
# High freq. dielectric constant tensor:
#      x y z
#    x 1.614580 0.000000 0.022810 
#    y 0.000000 1.663420 0.000000 
#    z 0.022810 0.000000 1.668870 
# 
# From -- ./inp_files/64204.got.cif
#   From: 2010.06.25/outbox.cif.g09.slc.cpg/sg15_33_cif.got.tgz:64204.got - 2010.06.28 07:06:18.
