data_PCOD8132868
_publ_section_title
;
Structure prediction by ZEFSAII (Michael W. Deem and Ramdas Pophale) SiO2 
 PCOD8132868
Probable space group: C 2/C
;
_chemical_formula_sum "Si O2"
_cell_formula_units_Z 48
_cell_length_a 17.797118
_cell_length_b 18.138017
_cell_length_c 14.307437
_cell_angle_alpha 90.000000
_cell_angle_beta 148.099216
_cell_angle_gamma 90.000000
_cell_volume 2440.648230
_symmetry_space_group_name_H-M "C 2/C"
_symmetry_group_IT_number 15
_symmetry_cell_setting 'monoclinic'
loop_
_space_group_symop_operation_xyz
x,y,z
-x,y,1/2-z
-x,-y,-z
x,-y,1/2+z
1/2+x,1/2+y,z
1/2-x,1/2+y,1/2-z
1/2-x,1/2-y,-z
1/2+x,1/2-y,1/2+z
loop_
_atom_site_type_symbol
_atom_site_label
_atom_site_fract_x
_atom_site_fract_y
_atom_site_fract_z
Si Si1 0.344712 0.001587 0.084927
Si Si2 0.798585 0.587659 0.215225
Si Si3 0.929644 0.797102 0.078157
Si Si4 0.106608 0.368471 0.008901
Si Si5 0.901418 0.886427 0.381888
Si Si6 0.369016 0.457221 0.779217
O O1 0.500000 0.962191 0.250000
O O2 0.293556 0.021861 0.134489
O O3 0.360418 0.075945 0.040501
O O4 0.225521 0.947532 0.914125
O O5 0.734718 0.556561 0.242735
O O6 0.960625 0.612050 0.406591
O O7 0.716012 0.658301 0.088564
O O8 0.000000 0.819495 0.250000
O O9 0.038711 0.816168 0.110146
O O10 0.894557 0.711226 0.039267
O O11 0.233081 0.374036 0.220489
O O12 0.996398 0.900221 0.576442
O O13 0.929801 0.959437 0.348170
#
# Coordination Sequence:
#
# PCOD8132868 Si02
#       6
#     8   8   8   8   8   8
#     4   9  18  30  47  73  99 125 161 200 238 284
#     4  10  20  31  49  71  97 135 164 192 238 283
#     4  11  19  29  46  70 103 136 160 186 232 295
#     4  10  19  30  45  71 103 131 159 189 231 293
#     4   9  19  31  45  64  95 131 161 196 229 266
#     4   9  18  34  48  65  99 131 163 202 235 277
#
# _framework density 19.666906999999998
#
# number of rings (size 3 to 8) (size 9 to 14) (size 15 to 20)
#    0.000    2.333    0.000    4.500    0.000    8.000 
#    0.000    0.000    0.000    0.000    0.000    0.000 
#    0.000  130.667    0.000    0.000    0.000    0.000 
#
# Total GULP energy -297476.511798 kJ/mol
# GULP energy per Si atom -12394.854658 kJ/mol
# Density = 1.962214 g / cm^3
# Si number density = 19.666907 Si / 1000 Ang^3
#
#
#
# Elastic Constant Matrix: (Units=GPa)
#
#
# Indices 1 2 3 4 5 6 
#
# 1 45.3963 4.1105 36.2381 0.0000 6.5242 0.0000
# 2 4.1105 38.1193 29.1978 0.0000 -4.0005 0.0000
# 3 36.2381 29.1978 194.5682 0.0000 10.7510 0.0000
# 4 0.0000 0.0000 0.0000 26.4550 0.0000 1.8383
# 5 6.5242 -4.0005 10.7510 0.0000 25.3838 0.0000
# 6 0.0000 0.0000 0.0000 1.8383 0.0000 14.6547
#
#
#
# Elastic Compliance Matrix: (Units=1/GPa)
#
#
# Indices 1 2 3 4 5 6 
#
# 1 0.026442 0.000247 -0.004698 0.000000 -0.004767 0.000000
# 2 0.000247 0.030803 -0.005051 0.000000 0.006931 0.000000
# 3 -0.004698 -0.005051 0.006912 0.000000 -0.002516 0.000000
# 4 0.000000 0.000000 0.000000 0.038132 0.000000 -0.004783
# 5 -0.004767 0.006931 -0.002516 0.000000 0.042778 0.000000
# 6 0.000000 0.000000 0.000000 -0.004783 0.000000 0.068837
#
#
# Mechanical properties :
#
#
# Convention : Reuss Voigt Hill
#
# Bulk Modulus (GPa) = 22.14779 46.35295 34.25037
# Shear Modulus (GPa) = 20.16450 27.20119 23.68285
#
# Velocity S-wave (km/s) = 3.20551 3.72303 3.47392
# Velocity P-wave (km/s) = 4.99863 6.48856 5.79171
#
# Compressibility (1/GPa) = 0.04515124
#
# Stress axis : x y z
#
# Youngs Moduli (GPa) = 37.81932 32.46404 144.68173
#
# Poissons Ratio (x) = -0.00803 0.67977
# Poissons Ratio (y) = -0.00935 0.73086
# Poissons Ratio (z) = 0.17769 0.16399
#
# Static dielectric constant tensor:
#      x y z
#    x 3.159170 0.000000 0.198130 
#    y 0.000000 3.330710 0.000000 
#    z 0.198130 0.000000 4.451910 
# 
# 
# High freq. dielectric constant tensor:
#      x y z
#    x 1.723080 0.000000 0.024420 
#    y 0.000000 1.729830 0.000000 
#    z 0.024420 0.000000 1.798240 
# 
# From -- ./inp_files/48359.got.cif
#   From: 2010.06.25/outbox.cif.g09.slc.cpg/sg15_25_cif.got.tgz:48359.got - 2010.06.28 07:06:18.
