data_PCOD8132374
_publ_section_title
;
Structure prediction by ZEFSAII (Michael W. Deem and Ramdas Pophale) SiO2 
 PCOD8132374
Probable space group: C 2/C
;
_chemical_formula_sum "Si O2"
_cell_formula_units_Z 48
_cell_length_a 17.854678
_cell_length_b 16.164867
_cell_length_c 9.607734
_cell_angle_alpha 90.000000
_cell_angle_beta 74.121548
_cell_angle_gamma 90.000000
_cell_volume 2667.165054
_symmetry_space_group_name_H-M "C 2/C"
_symmetry_group_IT_number 15
_symmetry_cell_setting 'monoclinic'
loop_
_space_group_symop_operation_xyz
x,y,z
-x,y,1/2-z
-x,-y,-z
x,-y,1/2+z
1/2+x,1/2+y,z
1/2-x,1/2+y,1/2-z
1/2-x,1/2-y,-z
1/2+x,1/2-y,1/2+z
loop_
_atom_site_type_symbol
_atom_site_label
_atom_site_fract_x
_atom_site_fract_y
_atom_site_fract_z
Si Si1 0.777437 0.599646 0.584025
Si Si2 0.198801 0.826099 0.355430
Si Si3 0.593108 0.789166 0.359149
Si Si4 0.781076 0.826366 0.663111
Si Si5 0.715459 0.911248 0.935295
Si Si6 0.917584 0.290957 0.465931
O O1 0.704221 0.603989 0.731042
O O2 0.856172 0.631822 0.617697
O O3 0.758302 0.659521 0.465307
O O4 0.791226 0.507268 0.521922
O O5 0.244432 0.749224 0.267128
O O6 0.242738 0.858832 0.467771
O O7 0.113804 0.793845 0.444629
O O8 0.628648 0.701858 0.399275
O O9 0.507062 0.800435 0.466059
O O10 0.590525 0.784555 0.194717
O O11 0.766859 0.906436 0.767364
O O12 0.629762 0.871481 0.955756
#
# Coordination Sequence:
#
# PCOD8132374 Si02
#       6
#     8   8   8   8   8   8
#     4  11  22  32  56  84 114 132 175 232 275 302
#     4  10  18  37  55  77 102 146 190 211 250 325
#     4  10  19  35  55  83 104 144 181 220 261 319
#     4  10  19  35  55  78 107 142 186 220 252 316
#     4  11  19  35  56  82 108 144 178 217 268 323
#     4  10  19  34  60  76 107 143 187 212 260 326
#
# _framework density 17.996635000000001
#
# number of rings (size 3 to 8) (size 9 to 14) (size 15 to 20)
#    0.000    1.667    5.000    4.000    0.000    0.667 
#    0.000    7.500    0.000    6.000    0.000    0.000 
#    0.000    0.000    0.000    0.000    0.000    0.000 
#
# Total GULP energy -297361.929266 kJ/mol
# GULP energy per Si atom -12390.080386 kJ/mol
# Density = 1.795567 g / cm^3
# Si number density = 17.996635 Si / 1000 Ang^3
#
#
#
# Elastic Constant Matrix: (Units=GPa)
#
#
# Indices 1 2 3 4 5 6 
#
# 1 82.7218 60.7242 32.4520 0.0000 -7.3083 0.0000
# 2 60.7242 83.4018 25.6682 0.0000 -15.2594 0.0000
# 3 32.4520 25.6682 82.5588 0.0000 0.2171 0.0000
# 4 0.0000 0.0000 0.0000 25.8433 0.0000 -0.1981
# 5 -7.3083 -15.2594 0.2171 0.0000 22.6554 0.0000
# 6 0.0000 0.0000 0.0000 -0.1981 0.0000 13.3291
#
#
#
# Elastic Compliance Matrix: (Units=1/GPa)
#
#
# Indices 1 2 3 4 5 6 
#
# 1 0.028135 -0.019736 -0.004912 0.000000 -0.004170 0.000000
# 2 -0.019736 0.029217 -0.001361 0.000000 0.013325 0.000000
# 3 -0.004912 -0.001361 0.014474 0.000000 -0.002640 0.000000
# 4 0.000000 0.000000 0.000000 0.038699 0.000000 0.000575
# 5 -0.004170 0.013325 -0.002640 0.000000 0.051795 0.000000
# 6 0.000000 0.000000 0.000000 0.000575 0.000000 0.075032
#
#
# Mechanical properties :
#
#
# Convention : Reuss Voigt Hill
#
# Bulk Modulus (GPa) = 50.48753 54.04124 52.26438
# Shear Modulus (GPa) = 16.89340 21.02142 18.95741
#
# Velocity S-wave (km/s) = 3.06714 3.42142 3.24911
# Velocity P-wave (km/s) = 6.37636 6.76031 6.57114
#
# Compressibility (1/GPa) = 0.01980687
#
# Stress axis : x y z
#
# Youngs Moduli (GPa) = 35.54242 34.22670 69.09167
#
# Poissons Ratio (x) = 0.67551 0.33939
# Poissons Ratio (y) = 0.70148 0.09403
# Poissons Ratio (z) = 0.17459 0.04658
#
# Static dielectric constant tensor:
#      x y z
#    x 3.451850 0.000000 -0.280680 
#    y 0.000000 3.444540 0.000000 
#    z -0.280680 0.000000 3.683000 
# 
# 
# High freq. dielectric constant tensor:
#      x y z
#    x 1.670290 0.000000 0.001280 
#    y 0.000000 1.684160 0.000000 
#    z 0.001280 0.000000 1.711160 
# 
# From -- ./inp_files/47955.got.cif
#   From: 2010.06.25/outbox.cif.g09.slc.cpg/sg15_24_cif.got.tgz:47955.got - 2010.06.28 07:06:18.
