data_PCOD8132671
_publ_section_title
;
Structure prediction by ZEFSAII (Michael W. Deem and Ramdas Pophale) SiO2 
 PCOD8132671
Probable space group: C 2/C
;
_chemical_formula_sum "Si O2"
_cell_formula_units_Z 44
_cell_length_a 8.467222
_cell_length_b 11.604988
_cell_length_c 28.872188
_cell_angle_alpha 90.000000
_cell_angle_beta 48.259571
_cell_angle_gamma 90.000000
_cell_volume 2116.909573
_symmetry_space_group_name_H-M "C 2/C"
_symmetry_group_IT_number 15
_symmetry_cell_setting 'monoclinic'
loop_
_space_group_symop_operation_xyz
x,y,z
-x,y,1/2-z
-x,-y,-z
x,-y,1/2+z
1/2+x,1/2+y,z
1/2-x,1/2+y,1/2-z
1/2-x,1/2-y,-z
1/2+x,1/2-y,1/2+z
loop_
_atom_site_type_symbol
_atom_site_label
_atom_site_fract_x
_atom_site_fract_y
_atom_site_fract_z
Si Si1 0.434554 0.423319 0.657968
Si Si2 0.063746 0.816924 0.145036
Si Si3 0.888829 0.621695 0.515442
Si Si4 0.500000 0.817609 0.750000
Si Si5 0.300522 0.246692 0.111971
Si Si6 0.032366 0.030826 0.941276
O O1 0.490782 0.550591 0.664174
O O2 0.585859 0.326885 0.651632
O O3 0.447266 0.423084 0.598563
O O4 0.199957 0.397725 0.722004
O O5 0.309386 0.819308 0.079110
O O6 0.062688 0.762500 0.195278
O O7 0.907779 0.741619 0.142096
O O8 0.671550 0.607340 0.530247
O O9 0.000000 0.500000 0.500000
O O10 0.045164 0.702991 0.458112
O O11 0.265864 0.382803 0.105906
O O12 0.000000 0.000000 0.000000
#
# Coordination Sequence:
#
# PCOD8132671 Si02
#       6
#     8   8   8   4   8   8
#     4  10  24  45  60  93 125 167 216 257 308 378
#     4  10  24  42  64  94 124 167 211 253 318 373
#     4  10  18  39  65  94 126 156 205 262 320 382
#     4  12  28  42  64  90 130 170 216 256 302 384
#     4  10  20  41  65  88 127 165 201 267 326 360
#     4  10  22  35  61  99 125 158 205 260 320 372
#
# _framework density 20.785015000000001
#
# number of rings (size 3 to 8) (size 9 to 14) (size 15 to 20)
#    0.000    2.182    3.636    2.182    5.091    7.273 
#    0.000    0.000    0.000    0.000    0.000    0.000 
#    0.000    0.000    0.000    0.000    0.000    0.000 
#
# Total GULP energy -272559.069702 kJ/mol
# GULP energy per Si atom -12389.048623 kJ/mol
# Density = 2.073771 g / cm^3
# Si number density = 20.785015 Si / 1000 Ang^3
#
#
#
# Elastic Constant Matrix: (Units=GPa)
#
#
# Indices 1 2 3 4 5 6 
#
# 1 55.3883 35.2443 27.9330 0.0000 -12.1326 0.0000
# 2 35.2443 77.5486 13.2582 0.0001 -5.1391 0.0000
# 3 27.9330 13.2582 86.4175 0.0002 -5.7470 -0.0002
# 4 0.0000 0.0001 0.0002 31.9421 0.0000 -3.9773
# 5 -12.1326 -5.1391 -5.7470 0.0000 46.5342 0.0000
# 6 0.0000 0.0000 -0.0002 -3.9773 0.0000 36.1411
#
#
#
# Elastic Compliance Matrix: (Units=1/GPa)
#
#
# Indices 1 2 3 4 5 6 
#
# 1 0.031170 -0.012452 -0.007780 0.000000 0.005791 0.000000
# 2 -0.012452 0.018286 0.001147 0.000000 -0.001085 0.000000
# 3 -0.007780 0.001147 0.013898 0.000000 -0.000185 0.000000
# 4 0.000000 0.000000 0.000000 0.031742 0.000000 0.003493
# 5 0.005791 -0.001085 -0.000185 0.000000 0.022857 0.000000
# 6 0.000000 0.000000 0.000000 0.003493 0.000000 0.028054
#
#
# Mechanical properties :
#
#
# Convention : Reuss Voigt Hill
#
# Bulk Modulus (GPa) = 39.70604 41.35836 40.53220
# Shear Modulus (GPa) = 25.96462 32.45141 29.20802
#
# Velocity S-wave (km/s) = 3.53824 3.95560 3.75273
# Velocity P-wave (km/s) = 5.98639 6.38778 6.19034
#
# Compressibility (1/GPa) = 0.02518508
#
# Stress axis : x y z
#
# Youngs Moduli (GPa) = 32.08255 54.68566 71.95282
#
# Poissons Ratio (x) = 0.68096 0.55976
# Poissons Ratio (y) = 0.39950 -0.08255
# Poissons Ratio (z) = 0.24959 -0.06274
#
# Static dielectric constant tensor:
#      x y z
#    x 3.832760 0.000000 -0.057350 
#    y 0.000000 3.483080 0.000020 
#    z -0.057350 0.000020 3.631120 
# 
# 
# High freq. dielectric constant tensor:
#      x y z
#    x 1.796520 0.000000 0.001160 
#    y 0.000000 1.821070 0.000000 
#    z 0.001160 0.000000 1.812700 
# 
# From -- ./inp_files/307029.got.cif
#   From: 2010.06.25/outbox.cif.g09.slc.cpg/sg15_154_cif.got.tgz:307029.got - 2010.06.28 07:06:18.
