data_PCOD8132323
_publ_section_title
;
Structure prediction by ZEFSAII (Michael W. Deem and Ramdas Pophale) SiO2 
 PCOD8132323
Probable space group: C 2/C
;
_chemical_formula_sum "Si O2"
_cell_formula_units_Z 64
_cell_length_a 19.497680
_cell_length_b 9.901091
_cell_length_c 22.635036
_cell_angle_alpha 90.000000
_cell_angle_beta 53.608990
_cell_angle_gamma 90.000000
_cell_volume 3517.515273
_symmetry_space_group_name_H-M "C 2/C"
_symmetry_group_IT_number 15
_symmetry_cell_setting 'monoclinic'
loop_
_space_group_symop_operation_xyz
x,y,z
-x,y,1/2-z
-x,-y,-z
x,-y,1/2+z
1/2+x,1/2+y,z
1/2-x,1/2+y,1/2-z
1/2-x,1/2-y,-z
1/2+x,1/2-y,1/2+z
loop_
_atom_site_type_symbol
_atom_site_label
_atom_site_fract_x
_atom_site_fract_y
_atom_site_fract_z
Si Si1 0.721719 0.385178 0.045355
Si Si2 0.279372 0.133410 0.943005
Si Si3 0.628703 0.535395 0.812775
Si Si4 0.776501 0.773793 0.153177
Si Si5 0.723443 0.038685 0.854274
Si Si6 0.039194 0.966767 0.168768
Si Si7 0.871678 0.731092 0.681122
Si Si8 0.462857 0.778787 0.330816
O O1 0.770476 0.411151 0.081810
O O2 0.620930 0.379890 0.109277
O O3 0.750000 0.250000 0.000000
O O4 0.744888 0.494833 0.985154
O O5 0.234739 0.156420 0.903512
O O6 0.381782 0.129888 0.887420
O O7 0.250000 0.250000 0.000000
O O8 0.648682 0.647976 0.851094
O O9 0.686182 0.556653 0.724836
O O10 0.530408 0.552483 0.846536
O O11 0.643035 0.385584 0.832486
O O12 0.803990 0.617869 0.133226
O O13 0.687589 0.794395 0.232098
O O14 0.650836 0.128301 0.859851
O O15 0.000000 0.912845 0.250000
O O16 0.067049 0.123316 0.161474
O O17 0.968587 0.705852 0.651775
O O18 0.500000 0.831637 0.250000
#
# Coordination Sequence:
#
# PCOD8132323 Si02
#       8
#     8   8   8   8   8   8   8   8
#     4  12  26  41  59  89 126 162 192 247 310 357
#     4  12  22  39  63  87 119 158 198 240 301 357
#     4   9  19  34  64  89 111 151 206 247 282 347
#     4  10  19  36  59  88 117 157 197 242 294 353
#     4  10  19  38  58  87 121 155 190 244 306 345
#     4  10  18  38  65  88 114 156 208 245 285 352
#     4   9  19  34  60  89 119 149 197 253 291 340
#     4  10  18  36  64  92 114 151 211 250 281 347
#
# _framework density 18.194662000000001
#
# number of rings (size 3 to 8) (size 9 to 14) (size 15 to 20)
#    0.000    1.750    5.000    0.000    1.750    0.000 
#    2.250    3.125    0.000    0.000    0.000    0.000 
#    0.000    0.000    0.000    0.000    0.000    0.000 
#
# Total GULP energy -396868.023178 kJ/mol
# GULP energy per Si atom -12402.125724 kJ/mol
# Density = 1.815325 g / cm^3
# Si number density = 18.194662 Si / 1000 Ang^3
#
#
#
# Elastic Constant Matrix: (Units=GPa)
#
#
# Indices 1 2 3 4 5 6 
#
# 1 106.7245 62.2116 57.6557 0.0000 11.4212 -0.0001
# 2 62.2116 125.6578 62.5442 0.0000 14.0040 0.0000
# 3 57.6557 62.5442 102.3858 0.0000 3.6031 0.0000
# 4 0.0000 0.0000 0.0000 31.2768 0.0000 4.3434
# 5 11.4212 14.0040 3.6031 0.0000 37.4310 0.0000
# 6 -0.0001 0.0000 0.0000 4.3434 0.0000 30.8766
#
#
#
# Elastic Compliance Matrix: (Units=1/GPa)
#
#
# Indices 1 2 3 4 5 6 
#
# 1 0.015384 -0.004414 -0.005880 0.000000 -0.002477 0.000000
# 2 -0.004414 0.013211 -0.005477 0.000000 -0.003069 0.000000
# 3 -0.005880 -0.005477 0.016344 0.000000 0.002270 0.000000
# 4 0.000000 0.000000 0.000000 0.032610 0.000000 -0.004587
# 5 -0.002477 -0.003069 0.002270 0.000000 0.028401 0.000000
# 6 0.000000 0.000000 0.000000 -0.004587 0.000000 0.033032
#
#
# Mechanical properties :
#
#
# Convention : Reuss Voigt Hill
#
# Bulk Modulus (GPa) = 74.63585 77.73233 76.18409
# Shear Modulus (GPa) = 28.57309 30.07400 29.32354
#
# Velocity S-wave (km/s) = 3.96714 4.07000 4.01890
# Velocity P-wave (km/s) = 7.87998 8.05617 7.96856
#
# Compressibility (1/GPa) = 0.01339839
#
# Stress axis : x y z
#
# Youngs Moduli (GPa) = 65.00094 75.69193 61.18565
#
# Poissons Ratio (x) = 0.33411 0.35975
# Poissons Ratio (y) = 0.28692 0.33510
# Poissons Ratio (z) = 0.38219 0.41455
#
# Static dielectric constant tensor:
#      x y z
#    x 3.317780 0.000000 0.031930 
#    y 0.000000 2.938650 0.000000 
#    z 0.031930 0.000000 3.309760 
# 
# 
# High freq. dielectric constant tensor:
#      x y z
#    x 1.711740 0.000000 0.005040 
#    y 0.000000 1.693000 0.000000 
#    z 0.005040 0.000000 1.696260 
# 
# From -- ./inp_files/279552.got.cif
#   From: 2010.06.25/outbox.cif.g09.slc.cpg/sg15_140_cif.got.tgz:279552.got - 2010.06.28 07:06:18.
