data_PCOD8132949
_publ_section_title
;
Structure prediction by ZEFSAII (Michael W. Deem and Ramdas Pophale) SiO2 
 PCOD8132949
Probable space group: C 2/C
;
_chemical_formula_sum "Si O2"
_cell_formula_units_Z 64
_cell_length_a 9.064346
_cell_length_b 14.177522
_cell_length_c 28.350600
_cell_angle_alpha 90.000000
_cell_angle_beta 89.999985
_cell_angle_gamma 90.000000
_cell_volume 3643.334609
_symmetry_space_group_name_H-M "C 2/C"
_symmetry_group_IT_number 15
_symmetry_cell_setting 'monoclinic'
loop_
_space_group_symop_operation_xyz
x,y,z
-x,y,1/2-z
-x,-y,-z
x,-y,1/2+z
1/2+x,1/2+y,z
1/2-x,1/2+y,1/2-z
1/2-x,1/2-y,-z
1/2+x,1/2-y,1/2+z
loop_
_atom_site_type_symbol
_atom_site_label
_atom_site_fract_x
_atom_site_fract_y
_atom_site_fract_z
Si Si1 0.827362 0.744625 0.571475
Si Si2 0.673253 0.394129 0.493644
Si Si3 0.672638 0.244625 0.571475
Si Si4 0.173253 0.105871 0.506356
Si Si5 0.672580 0.112787 0.750000
Si Si6 0.325514 0.268825 0.678344
Si Si7 0.323572 0.901973 0.750000
Si Si8 0.674486 0.731175 0.178344
O O1 0.783677 0.835250 0.540241
O O2 0.747982 0.651305 0.552231
O O3 0.773714 0.764306 0.624386
O O4 1.000000 0.724415 0.569810
O O5 0.716323 0.335250 0.540241
O O6 0.747982 0.348695 0.447769
O O7 0.733606 0.500000 0.500000
O O8 0.500000 0.394114 0.484602
O O9 0.726286 0.264306 0.624386
O O10 0.500000 0.098763 0.750000
O O11 0.720510 0.170801 0.796555
O O12 0.720510 0.170801 0.703445
O O13 0.741209 0.008501 0.750000
O O14 0.238865 0.353914 0.702856
O O15 0.500000 0.287398 0.683488
O O16 0.500000 0.896229 0.750000
O O17 0.261135 0.853914 0.702856
#
# Coordination Sequence:
#
# PCOD8132949 Si02
#       8
#     8   8   8   8   8   8   8   8
#     4   9  18  32  50  70  92 124 163 194 227 280
#     4   9  18  32  48  69  99 128 154 194 243 280
#     4   9  18  32  50  70  92 124 163 194 227 280
#     4   9  18  32  48  69  99 128 154 194 243 280
#     4   8  16  31  48  65  90 121 149 186 234 276
#     4   9  18  34  51  67  93 127 158 190 232 281
#     4  10  19  31  48  71  94 117 151 192 234 278
#     4   9  18  34  51  67  93 127 158 190 232 281
#
# _framework density 17.566324000000002
#
# number of rings (size 3 to 8) (size 9 to 14) (size 15 to 20)
#    0.000    3.000    0.000    1.125    0.000    3.500 
#    0.000    5.000    0.000    0.000    0.000    0.000 
#    0.000    0.000    0.000    0.000    0.000    0.000 
#
# Total GULP energy -396776.351334 kJ/mol
# GULP energy per Si atom -12399.260979 kJ/mol
# Density = 1.752634 g / cm^3
# Si number density = 17.566324 Si / 1000 Ang^3
#
#
#
# Elastic Constant Matrix: (Units=GPa)
#
#
# Indices 1 2 3 4 5 6 
#
# 1 33.1207 34.5886 32.2737 0.0000 -4.6267 0.0000
# 2 34.5886 157.4784 63.5476 0.0000 -2.6364 0.0000
# 3 32.2737 63.5476 147.1139 0.0000 -5.7509 0.0000
# 4 0.0000 0.0000 0.0000 11.9574 0.0000 1.2040
# 5 -4.6267 -2.6364 -5.7509 0.0000 25.9370 0.0000
# 6 0.0000 0.0000 0.0000 1.2040 0.0000 25.1825
#
#
#
# Elastic Compliance Matrix: (Units=1/GPa)
#
#
# Indices 1 2 3 4 5 6 
#
# 1 0.044787 -0.007105 -0.006529 0.000000 0.005820 0.000000
# 2 -0.007105 0.008818 -0.002285 0.000000 -0.000878 0.000000
# 3 -0.006529 -0.002285 0.009242 0.000000 0.000652 0.000000
# 4 0.000000 0.000000 0.000000 0.084035 0.000000 -0.004018
# 5 0.005820 -0.000878 0.000652 0.000000 0.039648 0.000000
# 6 0.000000 0.000000 0.000000 -0.004018 0.000000 0.039902
#
#
# Mechanical properties :
#
#
# Convention : Reuss Voigt Hill
#
# Bulk Modulus (GPa) = 32.24725 66.50366 49.37545
# Shear Modulus (GPa) = 18.61459 26.43559 22.52509
#
# Velocity S-wave (km/s) = 3.25880 3.88351 3.58479
# Velocity P-wave (km/s) = 5.70587 7.61904 6.73077
#
# Compressibility (1/GPa) = 0.03101040
#
# Stress axis : x y z
#
# Youngs Moduli (GPa) = 22.32769 113.40625 108.20074
#
# Poissons Ratio (x) = 0.80577 0.70642
# Poissons Ratio (y) = 0.15864 0.24719
# Poissons Ratio (z) = 0.14577 0.25908
#
# Static dielectric constant tensor:
#      x y z
#    x 3.058130 0.000000 -0.027470 
#    y 0.000000 3.463930 0.000000 
#    z -0.027470 0.000000 3.359920 
# 
# 
# High freq. dielectric constant tensor:
#      x y z
#    x 1.661810 0.000000 -0.001830 
#    y 0.000000 1.682390 0.000000 
#    z -0.001830 0.000000 1.681920 
# 
# From -- ./inp_files/307801.got.cif
#   From: 2010.06.25/outbox.cif.g09.slc.cpg/sg15_154_cif.got.tgz:307801.got - 2010.06.28 07:06:18.
