data_PCOD8132432
_publ_section_title
;
Structure prediction by ZEFSAII (Michael W. Deem and Ramdas Pophale) SiO2 
 PCOD8132432
Probable space group: C 2/C
;
_chemical_formula_sum "Si O2"
_cell_formula_units_Z 56
_cell_length_a 11.561978
_cell_length_b 20.227407
_cell_length_c 12.038236
_cell_angle_alpha 90.000000
_cell_angle_beta 85.840015
_cell_angle_gamma 90.000000
_cell_volume 2807.950809
_symmetry_space_group_name_H-M "C 2/C"
_symmetry_group_IT_number 15
_symmetry_cell_setting 'monoclinic'
loop_
_space_group_symop_operation_xyz
x,y,z
-x,y,1/2-z
-x,-y,-z
x,-y,1/2+z
1/2+x,1/2+y,z
1/2-x,1/2+y,1/2-z
1/2-x,1/2-y,-z
1/2+x,1/2-y,1/2+z
loop_
_atom_site_type_symbol
_atom_site_label
_atom_site_fract_x
_atom_site_fract_y
_atom_site_fract_z
Si Si1 0.654862 0.800736 0.964728
Si Si2 0.870250 0.653520 0.800195
Si Si3 0.677820 0.552501 0.771172
Si Si4 0.538984 0.408073 0.080982
Si Si5 0.442173 0.263544 0.372297
Si Si6 0.236650 0.793442 0.767691
Si Si7 0.401570 0.419396 0.667416
O O1 0.528504 0.769327 0.954400
O O2 0.701327 0.828380 0.843388
O O3 0.750000 0.750000 0.000000
O O4 0.637093 0.853491 0.064719
O O5 0.797092 0.592771 0.756203
O O6 0.823510 0.724605 0.762261
O O7 0.000000 0.643872 0.750000
O O8 0.592271 0.590683 0.862925
O O9 0.622196 0.548252 0.652534
O O10 0.696612 0.476167 0.807817
O O11 0.591150 0.334259 0.076421
O O12 0.540729 0.434157 0.955522
O O13 0.500000 0.276169 0.250000
O O14 0.327791 0.219299 0.360911
O O15 0.145227 0.845139 0.821806
O O16 0.500000 0.431036 0.750000
#
# Coordination Sequence:
#
# PCOD8132432 Si02
#       7
#     8   8   8   8   8   8   8
#     4   9  20  35  62  90 127 166 200 264 316 361
#     4  11  23  40  62  92 126 167 217 255 310 384
#     4  11  23  44  64  89 126 174 210 253 325 382
#     4  11  21  40  66  92 123 167 210 258 319 376
#     4  10  18  37  62  90 124 167 210 246 321 386
#     4  10  22  39  58  97 128 163 206 263 321 371
#     4  12  27  37  63 100 127 156 214 276 312 360
#
# _framework density 19.943370000000002
#
# number of rings (size 3 to 8) (size 9 to 14) (size 15 to 20)
#    0.000    1.429    4.286    2.571    8.000    1.714 
#    0.000    2.143    0.000    2.571    0.000    0.000 
#    0.000    0.000    0.000    0.000    0.000    0.000 
#
# Total GULP energy -347098.009177 kJ/mol
# GULP energy per Si atom -12396.357471 kJ/mol
# Density = 1.989798 g / cm^3
# Si number density = 19.943370 Si / 1000 Ang^3
#
#
#
# Elastic Constant Matrix: (Units=GPa)
#
#
# Indices 1 2 3 4 5 6 
#
# 1 110.7987 35.9737 40.7283 0.0000 9.8522 0.0000
# 2 35.9737 92.2585 20.0987 0.0000 4.5410 0.0000
# 3 40.7283 20.0987 112.1781 0.0000 7.9695 0.0000
# 4 0.0000 0.0000 0.0000 10.8256 0.0000 -10.3926
# 5 9.8522 4.5410 7.9695 0.0000 28.2672 0.0000
# 6 0.0000 0.0000 0.0000 -10.3926 0.0000 25.0485
#
#
#
# Elastic Compliance Matrix: (Units=1/GPa)
#
#
# Indices 1 2 3 4 5 6 
#
# 1 0.011702 -0.003697 -0.003407 0.000000 -0.002524 0.000000
# 2 -0.003697 0.012492 -0.000862 0.000000 -0.000475 0.000000
# 3 -0.003407 -0.000862 0.010420 0.000000 -0.001612 0.000000
# 4 0.000000 0.000000 0.000000 0.153523 0.000000 0.063696
# 5 -0.002524 -0.000475 -0.001612 0.000000 0.036787 0.000000
# 6 0.000000 0.000000 0.000000 0.063696 0.000000 0.066350
#
#
# Mechanical properties :
#
#
# Convention : Reuss Voigt Hill
#
# Bulk Modulus (GPa) = 53.52548 56.53740 55.03144
# Shear Modulus (GPa) = 15.95231 27.39056 21.67144
#
# Velocity S-wave (km/s) = 2.83128 3.70998 3.30001
# Velocity P-wave (km/s) = 6.13068 6.83831 6.49414
#
# Compressibility (1/GPa) = 0.01868269
#
# Stress axis : x y z
#
# Youngs Moduli (GPa) = 85.45218 80.05311 95.96541
#
# Poissons Ratio (x) = 0.29592 0.32697
# Poissons Ratio (y) = 0.31588 0.08275
# Poissons Ratio (z) = 0.29115 0.06903
#
# Static dielectric constant tensor:
#      x y z
#    x 3.598620 0.000000 0.102710 
#    y 0.000000 3.418040 0.000000 
#    z 0.102710 0.000000 3.959800 
# 
# 
# High freq. dielectric constant tensor:
#      x y z
#    x 1.760980 0.000000 0.009750 
#    y 0.000000 1.757280 0.000000 
#    z 0.009750 0.000000 1.791790 
# 
# From -- ./inp_files/88991.got.cif
#   From: 2010.06.25/outbox.cif.g09.slc.cpg/sg15_45_cif.got.tgz:88991.got - 2010.06.28 07:06:18.
