data_PCOD8132892
_publ_section_title
;
Structure prediction by ZEFSAII (Michael W. Deem and Ramdas Pophale) SiO2 
 PCOD8132892
Probable space group: C 2/C
;
_chemical_formula_sum "Si O2"
_cell_formula_units_Z 56
_cell_length_a 24.093035
_cell_length_b 15.281245
_cell_length_c 20.997142
_cell_angle_alpha 90.000000
_cell_angle_beta 156.911288
_cell_angle_gamma 90.000000
_cell_volume 3031.581028
_symmetry_space_group_name_H-M "C 2/C"
_symmetry_group_IT_number 15
_symmetry_cell_setting 'monoclinic'
loop_
_space_group_symop_operation_xyz
x,y,z
-x,y,1/2-z
-x,-y,-z
x,-y,1/2+z
1/2+x,1/2+y,z
1/2-x,1/2+y,1/2-z
1/2-x,1/2-y,-z
1/2+x,1/2-y,1/2+z
loop_
_atom_site_type_symbol
_atom_site_label
_atom_site_fract_x
_atom_site_fract_y
_atom_site_fract_z
Si Si1 0.597865 0.312247 0.997947
Si Si2 0.566941 0.397053 0.144127
Si Si3 0.846209 0.934365 0.712084
Si Si4 0.190339 0.404177 0.201973
Si Si5 0.847973 0.311320 0.059915
Si Si6 0.944381 0.721410 0.417649
Si Si7 0.768125 0.083529 0.274101
O O1 0.492104 0.382161 0.854846
O O2 0.625632 0.233864 0.979467
O O3 0.752304 0.355955 0.174072
O O4 0.524708 0.275447 0.985180
O O5 0.621829 0.459947 0.259912
O O6 0.674791 0.410843 0.201033
O O7 0.557245 0.290783 0.143866
O O8 0.416299 0.435432 0.964406
O O9 0.734430 0.903004 0.540372
O O10 0.781086 0.911288 0.711978
O O11 0.156045 0.506955 0.177116
O O12 0.063960 0.351975 0.034941
O O13 0.000000 0.333827 0.250000
O O14 0.750000 0.250000 0.000000
O O15 0.791806 0.675608 0.262944
#
# Coordination Sequence:
#
# PCOD8132892 Si02
#       7
#     8   8   8   8   8   8   8
#     4  11  19  34  53  70 103 146 173 214 264 304
#     4  10  19  32  50  70 102 146 180 200 254 328
#     4  11  19  35  52  70 102 141 180 215 254 307
#     4  10  19  30  48  77 107 142 176 206 253 317
#     4  12  25  37  54  78 102 138 186 224 262 313
#     4  11  20  28  49  79 110 142 176 207 256 312
#     4  11  18  32  49  75 109 144 173 207 256 318
#
# _framework density 18.47221
#
# number of rings (size 3 to 8) (size 9 to 14) (size 15 to 20)
#    0.000    1.143    7.143    3.857    0.000    0.000 
#    0.000    0.000    0.000    0.000    0.000    0.000 
#    0.000   19.429    0.857    1.571    0.000    0.000 
#
# Total GULP energy -346884.661572 kJ/mol
# GULP energy per Si atom -12388.737913 kJ/mol
# Density = 1.843017 g / cm^3
# Si number density = 18.472210 Si / 1000 Ang^3
#
#
#
# Elastic Constant Matrix: (Units=GPa)
#
#
# Indices 1 2 3 4 5 6 
#
# 1 22.8712 18.8073 18.5745 0.0009 -1.0818 0.0008
# 2 18.8073 119.4249 39.1225 -0.0243 2.1705 -0.0146
# 3 18.5745 39.1225 97.2007 -0.0199 0.4715 -0.0127
# 4 0.0009 -0.0243 -0.0199 34.8377 -0.0006 -4.8815
# 5 -1.0818 2.1705 0.4715 -0.0006 19.5630 0.0000
# 6 0.0008 -0.0146 -0.0127 -4.8815 0.0000 20.9162
#
#
#
# Elastic Compliance Matrix: (Units=1/GPa)
#
#
# Indices 1 2 3 4 5 6 
#
# 1 0.055603 -0.006153 -0.008168 -0.000012 0.003954 -0.000014
# 2 -0.006153 0.010345 -0.002981 0.000007 -0.001416 0.000007
# 3 -0.008168 -0.002981 0.013051 0.000007 -0.000436 0.000008
# 4 -0.000012 0.000007 0.000007 0.029675 -0.000001 0.006926
# 5 0.003954 -0.001416 -0.000436 -0.000001 0.051503 -0.000002
# 6 -0.000014 0.000007 0.000008 0.006926 -0.000002 0.049426
#
#
# Mechanical properties :
#
#
# Convention : Reuss Voigt Hill
#
# Bulk Modulus (GPa) = 22.52505 43.61169 33.06837
# Shear Modulus (GPa) = 19.30463 25.92954 22.61709
#
# Velocity S-wave (km/s) = 3.23625 3.75067 3.50292
# Velocity P-wave (km/s) = 5.11712 6.51286 5.85672
#
# Compressibility (1/GPa) = 0.04439502
#
# Stress axis : x y z
#
# Youngs Moduli (GPa) = 17.98457 96.66795 76.62324
#
# Poissons Ratio (x) = 0.59475 0.62588
# Poissons Ratio (y) = 0.11065 0.22842
# Poissons Ratio (z) = 0.14690 0.28817
#
# Static dielectric constant tensor:
#      x y z
#    x 2.946300 0.000000 0.115710 
#    y 0.000000 4.359560 -0.000030 
#    z 0.115710 -0.000030 3.488250 
# 
# 
# High freq. dielectric constant tensor:
#      x y z
#    x 1.645460 0.000000 0.031340 
#    y 0.000000 1.735340 0.000000 
#    z 0.031340 0.000000 1.720430 
# 
# From -- ./inp_files/118329.got.cif
#   From: 2010.06.25/outbox.cif.g09.slc.cpg/sg15_60_cif.got.tgz:118329.got - 2010.06.28 07:06:18.
