data_PCOD8132470
_publ_section_title
;
Structure prediction by ZEFSAII (Michael W. Deem and Ramdas Pophale) SiO2 
 PCOD8132470
Probable space group: C 2/C
;
_chemical_formula_sum "Si O2"
_cell_formula_units_Z 48
_cell_length_a 10.465758
_cell_length_b 14.690889
_cell_length_c 19.120353
_cell_angle_alpha 90.000000
_cell_angle_beta 135.381995
_cell_angle_gamma 90.000000
_cell_volume 2064.832423
_symmetry_space_group_name_H-M "C 2/C"
_symmetry_group_IT_number 15
_symmetry_cell_setting 'monoclinic'
loop_
_space_group_symop_operation_xyz
x,y,z
-x,y,1/2-z
-x,-y,-z
x,-y,1/2+z
1/2+x,1/2+y,z
1/2-x,1/2+y,1/2-z
1/2-x,1/2-y,-z
1/2+x,1/2-y,1/2+z
loop_
_atom_site_type_symbol
_atom_site_label
_atom_site_fract_x
_atom_site_fract_y
_atom_site_fract_z
Si Si1 0.461742 0.487634 0.404311
Si Si2 0.795502 0.344152 0.145157
Si Si3 0.029974 0.305505 0.504783
Si Si4 0.717104 0.670876 0.160949
Si Si5 0.447305 0.851972 0.618639
Si Si6 0.156680 0.466396 0.468064
O O1 0.500000 0.500000 0.500000
O O2 0.328021 0.399489 0.345461
O O3 0.367133 0.579544 0.339432
O O4 0.655034 0.478810 0.438015
O O5 0.788558 0.394320 0.068942
O O6 0.000000 0.332632 0.250000
O O7 0.716458 0.244295 0.098910
O O8 0.071325 0.409974 0.499344
O O9 0.926290 0.253952 0.400751
O O10 0.907538 0.306404 0.527827
O O11 0.776688 0.653281 0.103958
O O12 0.881334 0.696493 0.276691
O O13 0.485058 0.959797 0.618348
#
# Coordination Sequence:
#
# PCOD8132470 Si02
#       6
#     8   8   8   8   8   8
#     4  10  18  37  65  92 119 167 220 263 306 384
#     4  11  22  38  66  98 123 173 226 261 313 400
#     4  12  25  39  65 101 138 161 211 291 335 367
#     4  11  22  43  66  93 127 179 223 267 311 401
#     4  11  24  42  66  94 130 176 222 258 332 399
#     4  11  22  41  66  94 130 173 213 271 331 387
#
# _framework density 23.246438999999999
#
# number of rings (size 3 to 8) (size 9 to 14) (size 15 to 20)
#    0.000    1.000    6.667    2.500    2.333    0.000 
#    0.000    0.000    0.000    0.000    0.000    0.000 
#    0.000    0.000    0.000    0.000    0.000    0.000 
#
# Total GULP energy -297430.253127 kJ/mol
# GULP energy per Si atom -12392.927214 kJ/mol
# Density = 2.319353 g / cm^3
# Si number density = 23.246439 Si / 1000 Ang^3
#
#
#
# Elastic Constant Matrix: (Units=GPa)
#
#
# Indices 1 2 3 4 5 6 
#
# 1 55.8577 8.6315 34.7541 0.0000 5.1632 0.0000
# 2 8.6315 92.5875 37.7744 0.0000 9.0629 0.0000
# 3 34.7541 37.7744 74.0177 0.0000 23.7056 0.0000
# 4 0.0000 0.0000 0.0000 28.1727 0.0000 3.0577
# 5 5.1632 9.0629 23.7056 0.0000 35.2768 0.0000
# 6 0.0000 0.0000 0.0000 3.0577 0.0000 30.8519
#
#
#
# Elastic Compliance Matrix: (Units=1/GPa)
#
#
# Indices 1 2 3 4 5 6 
#
# 1 0.027065 0.003619 -0.016551 0.000000 0.006231 0.000000
# 2 0.003619 0.014187 -0.009688 0.000000 0.002335 0.000000
# 3 -0.016551 -0.009688 0.031413 0.000000 -0.016198 0.000000
# 4 0.000000 0.000000 0.000000 0.035881 0.000000 -0.003556
# 5 0.006231 0.002335 -0.016198 0.000000 0.037720 0.000000
# 6 0.000000 0.000000 0.000000 -0.003556 0.000000 0.032765
#
#
# Mechanical properties :
#
#
# Convention : Reuss Voigt Hill
#
# Bulk Modulus (GPa) = 36.45994 42.75367 39.60680
# Shear Modulus (GPa) = 21.42126 28.28047 24.85087
#
# Velocity S-wave (km/s) = 3.03889 3.49169 3.27313
# Velocity P-wave (km/s) = 5.29446 5.88959 5.59994
#
# Compressibility (1/GPa) = 0.02742737
#
# Stress axis : x y z
#
# Youngs Moduli (GPa) = 36.94783 70.48703 31.83363
#
# Poissons Ratio (x) = -0.25512 0.52687
# Poissons Ratio (y) = -0.13373 0.30839
# Poissons Ratio (z) = 0.61152 0.68286
#
# Static dielectric constant tensor:
#      x y z
#    x 4.424390 0.000000 0.358500 
#    y 0.000000 4.438170 0.000000 
#    z 0.358500 0.000000 3.953330 
# 
# 
# High freq. dielectric constant tensor:
#      x y z
#    x 1.905860 0.000000 0.019300 
#    y 0.000000 1.918870 0.000000 
#    z 0.019300 0.000000 1.896150 
# 
# From -- ./inp_files/239027.got.cif
#   From: 2010.06.25/outbox.cif.g09.slc.cpg/sg15_120_cif.got.tgz:239027.got - 2010.06.28 07:06:18.
