data_PCOD8132983
_publ_section_title
;
Structure prediction by ZEFSAII (Michael W. Deem and Ramdas Pophale) SiO2 
 PCOD8132983
Probable space group: C 2/C
;
_chemical_formula_sum "Si O2"
_cell_formula_units_Z 64
_cell_length_a 20.362278
_cell_length_b 26.593855
_cell_length_c 8.443620
_cell_angle_alpha 90.000000
_cell_angle_beta 127.565231
_cell_angle_gamma 90.000000
_cell_volume 3624.291721
_symmetry_space_group_name_H-M "C 2/C"
_symmetry_group_IT_number 15
_symmetry_cell_setting 'monoclinic'
loop_
_space_group_symop_operation_xyz
x,y,z
-x,y,1/2-z
-x,-y,-z
x,-y,1/2+z
1/2+x,1/2+y,z
1/2-x,1/2+y,1/2-z
1/2-x,1/2-y,-z
1/2+x,1/2-y,1/2+z
loop_
_atom_site_type_symbol
_atom_site_label
_atom_site_fract_x
_atom_site_fract_y
_atom_site_fract_z
Si Si1 0.903185 0.064130 0.097889
Si Si2 0.991791 0.309796 0.422820
Si Si3 0.653251 0.804577 0.071630
Si Si4 0.680683 0.645966 0.732614
Si Si5 0.235830 0.437786 0.941022
Si Si6 0.075880 0.773760 0.253484
Si Si7 0.068511 0.389923 0.738482
Si Si8 0.820149 0.981445 0.770268
O O1 0.870344 0.054295 0.226012
O O2 0.000000 0.074191 0.250000
O O3 0.858677 0.113701 0.966337
O O4 0.885466 0.016423 0.959317
O O5 0.895491 0.303118 0.332713
O O6 0.000000 0.303331 0.250000
O O7 0.046189 0.266674 0.582730
O O8 0.026225 0.364844 0.522346
O O9 0.749231 0.818050 0.241026
O O10 0.646139 0.751193 0.969818
O O11 0.607906 0.845867 0.899701
O O12 0.610217 0.678268 0.712639
O O13 0.720235 0.611274 0.925510
O O14 0.136879 0.430468 0.786324
O O15 0.269992 0.446080 0.815510
O O16 0.253254 0.485694 0.076819
O O17 0.000000 0.792460 0.250000
O O18 0.000000 0.417049 0.750000
#
# Coordination Sequence:
#
# PCOD8132983 Si02
#       8
#     8   8   8   8   8   8   8   8
#     4  10  20  33  50  71  95 124 157 195 239 284
#     4   9  17  30  49  71  97 130 161 190 228 274
#     4   8  16  32  50  68  95 131 161 185 229 286
#     4  10  19  31  51  74  94 122 161 201 232 270
#     4   9  18  33  52  72  94 123 159 196 236 282
#     4   9  18  32  48  68  98 131 158 189 233 281
#     4   8  15  30  51  72  95 126 161 191 225 279
#     4   9  19  35  51  68  95 127 155 191 242 292
#
# _framework density 17.658622000000001
#
# number of rings (size 3 to 8) (size 9 to 14) (size 15 to 20)
#    0.000    3.000    0.000    2.250    0.000    2.500 
#    0.000    5.000    0.000    0.000    0.000    0.000 
#    0.000    0.000    0.000    0.000    0.000    0.000 
#
# Total GULP energy -396760.592182 kJ/mol
# GULP energy per Si atom -12398.768506 kJ/mol
# Density = 1.761843 g / cm^3
# Si number density = 17.658622 Si / 1000 Ang^3
#
#
#
# Elastic Constant Matrix: (Units=GPa)
#
#
# Indices 1 2 3 4 5 6 
#
# 1 148.9949 56.9013 68.5320 0.0000 -4.2515 0.0000
# 2 56.9013 61.6433 28.3959 0.0000 5.0242 0.0000
# 3 68.5320 28.3959 72.4625 0.0000 -3.0667 0.0000
# 4 0.0000 0.0000 0.0000 12.8547 0.0000 -1.1452
# 5 -4.2515 5.0242 -3.0667 0.0000 33.6967 0.0000
# 6 0.0000 0.0000 0.0000 -1.1452 0.0000 33.2191
#
#
#
# Elastic Compliance Matrix: (Units=1/GPa)
#
#
# Indices 1 2 3 4 5 6 
#
# 1 0.015260 -0.009366 -0.010662 0.000000 0.002351 0.000000
# 2 -0.009366 0.026008 -0.001554 0.000000 -0.005201 0.000000
# 3 -0.010662 -0.001554 0.024541 0.000000 0.001120 0.000000
# 4 0.000000 0.000000 0.000000 0.078032 0.000000 0.002690
# 5 0.002351 -0.005201 0.001120 0.000000 0.030851 0.000000
# 6 0.000000 0.000000 0.000000 0.002690 0.000000 0.030196
#
#
# Mechanical properties :
#
#
# Convention : Reuss Voigt Hill
#
# Bulk Modulus (GPa) = 44.16231 65.63992 54.90111
# Shear Modulus (GPa) = 19.56191 24.57220 22.06705
#
# Velocity S-wave (km/s) = 3.33195 3.73435 3.53887
# Velocity P-wave (km/s) = 6.31393 7.47302 6.91780
#
# Compressibility (1/GPa) = 0.02264374
#
# Stress axis : x y z
#
# Youngs Moduli (GPa) = 65.53080 38.45036 40.74892
#
# Poissons Ratio (x) = 0.36013 0.43448
# Poissons Ratio (y) = 0.61377 0.06331
# Poissons Ratio (z) = 0.69872 0.05974
#
# Static dielectric constant tensor:
#      x y z
#    x 3.482120 0.000000 0.095600 
#    y 0.000000 3.148770 0.000000 
#    z 0.095600 0.000000 3.186900 
# 
# 
# High freq. dielectric constant tensor:
#      x y z
#    x 1.693440 0.000000 0.001210 
#    y 0.000000 1.666290 0.000000 
#    z 0.001210 0.000000 1.668150 
# 
# From -- ./inp_files/58652.got.cif
#   From: 2010.06.25/outbox.cif.g09.slc.cpg/sg15_30_cif.got.tgz:58652.got - 2010.06.28 07:06:18.
