data_PCOD8132120
_publ_section_title
;
Structure prediction by ZEFSAII (Michael W. Deem and Ramdas Pophale) SiO2 
 PCOD8132120
Probable space group: C 2/C
;
_chemical_formula_sum "Si O2"
_cell_formula_units_Z 52
_cell_length_a 28.159584
_cell_length_b 9.646004
_cell_length_c 16.026405
_cell_angle_alpha 90.000000
_cell_angle_beta 38.907573
_cell_angle_gamma 90.000000
_cell_volume 2734.103880
_symmetry_space_group_name_H-M "C 2/C"
_symmetry_group_IT_number 15
_symmetry_cell_setting 'monoclinic'
loop_
_space_group_symop_operation_xyz
x,y,z
-x,y,1/2-z
-x,-y,-z
x,-y,1/2+z
1/2+x,1/2+y,z
1/2-x,1/2+y,1/2-z
1/2-x,1/2-y,-z
1/2+x,1/2-y,1/2+z
loop_
_atom_site_type_symbol
_atom_site_label
_atom_site_fract_x
_atom_site_fract_y
_atom_site_fract_z
Si Si1 0.260889 0.580894 0.651892
Si Si2 0.155573 0.816675 0.977082
Si Si3 0.791059 0.478335 0.099816
Si Si4 0.542072 0.340023 0.798456
Si Si5 0.108161 0.274385 0.045921
Si Si6 0.500000 0.411368 0.250000
Si Si7 0.162009 0.177942 0.268280
O O1 0.296130 0.448915 0.554368
O O2 0.216815 0.520727 0.790385
O O3 0.328194 0.684541 0.589320
O O4 0.200601 0.676808 0.684239
O O5 0.197509 0.677040 0.950630
O O6 0.149787 0.822983 0.884486
O O7 0.072444 0.816336 0.131526
O O8 0.716218 0.551323 0.164096
O O9 0.866801 0.566615 0.978539
O O10 0.470160 0.235967 0.898215
O O11 0.601068 0.289764 0.648022
O O12 0.513268 0.493366 0.813699
O O13 0.581124 0.340151 0.835140
#
# Coordination Sequence:
#
# PCOD8132120 Si02
#       7
#     8   8   8   8   8   4   8
#     4   9  16  34  54  75 102 141 173 209 258 309
#     4  10  18  36  55  77 109 140 168 212 272 315
#     4   9  19  32  55  79 103 138 176 212 262 308
#     4  10  19  35  57  78 101 140 183 216 254 306
#     4   9  18  35  56  75 103 142 176 214 259 317
#     4  10  20  34  54  74 110 144 164 214 272 320
#     4   9  20  34  59  80  98 136 186 221 245 308
#
# _framework density 19.019030000000001
#
# number of rings (size 3 to 8) (size 9 to 14) (size 15 to 20)
#    0.000    2.769    3.077    0.923    0.000    4.308 
#    0.000    3.846    3.385    0.000    0.000    0.000 
#    0.000    0.000    0.000    0.000    0.000    0.000 
#
# Total GULP energy -322206.448913 kJ/mol
# GULP energy per Si atom -12392.555727 kJ/mol
# Density = 1.897574 g / cm^3
# Si number density = 19.019030 Si / 1000 Ang^3
#
#
#
# Elastic Constant Matrix: (Units=GPa)
#
#
# Indices 1 2 3 4 5 6 
#
# 1 56.5833 4.3257 -5.7766 -0.0002 -18.6262 -0.0001
# 2 4.3257 112.8939 16.6304 0.0002 -8.7449 0.0000
# 3 -5.7766 16.6304 64.5713 -0.0002 -4.9613 0.0000
# 4 -0.0002 0.0002 -0.0002 36.6125 0.0000 -1.8834
# 5 -18.6262 -8.7449 -4.9613 0.0000 21.5339 0.0000
# 6 -0.0001 0.0000 0.0000 -1.8834 0.0000 7.7007
#
#
#
# Elastic Compliance Matrix: (Units=1/GPa)
#
#
# Indices 1 2 3 4 5 6 
#
# 1 0.025729 0.000223 0.004033 0.000000 0.023275 0.000000
# 2 0.000223 0.009438 -0.002139 0.000000 0.003533 0.000000
# 3 0.004033 -0.002139 0.016899 0.000000 0.006513 0.000000
# 4 0.000000 0.000000 0.000000 0.027661 0.000000 0.006765
# 5 0.023275 0.003533 0.006513 0.000000 0.069506 0.000000
# 6 0.000000 0.000000 0.000000 0.006765 0.000000 0.131513
#
#
# Mechanical properties :
#
#
# Convention : Reuss Voigt Hill
#
# Bulk Modulus (GPa) = 17.76234 29.37862 23.57048
# Shear Modulus (GPa) = 16.93308 27.76068 22.34688
#
# Velocity S-wave (km/s) = 2.98707 3.82465 3.43151
# Velocity P-wave (km/s) = 4.61045 5.91476 5.30286
#
# Compressibility (1/GPa) = 0.05629888
#
# Stress axis : x y z
#
# Youngs Moduli (GPa) = 38.86609 105.95308 59.17533
#
# Poissons Ratio (x) = -0.02363 -0.23863
# Poissons Ratio (y) = -0.00867 0.12660
# Poissons Ratio (z) = -0.15673 0.22668
#
# Static dielectric constant tensor:
#      x y z
#    x 2.942920 0.000000 -0.102320 
#    y 0.000000 3.698460 0.000000 
#    z -0.102320 0.000000 3.598640 
# 
# 
# High freq. dielectric constant tensor:
#      x y z
#    x 1.683140 0.000000 -0.008090 
#    y 0.000000 1.742170 0.000000 
#    z -0.008090 0.000000 1.750860 
# 
# From -- ./inp_files/213496.got.cif
#   From: 2010.06.25/outbox.cif.g09.slc.cpg/sg15_107_cif.got.tgz:213496.got - 2010.06.28 07:06:18.
