data_PCOD8132109
_publ_section_title
;
Structure prediction by ZEFSAII (Michael W. Deem and Ramdas Pophale) SiO2 
 PCOD8132109
Probable space group: C 2/C
;
_chemical_formula_sum "Si O2"
_cell_formula_units_Z 40
_cell_length_a 27.565968
_cell_length_b 18.561756
_cell_length_c 9.996933
_cell_angle_alpha 90.000000
_cell_angle_beta 30.192992
_cell_angle_gamma 90.000000
_cell_volume 2572.485963
_symmetry_space_group_name_H-M "C 2/C"
_symmetry_group_IT_number 15
_symmetry_cell_setting 'monoclinic'
loop_
_space_group_symop_operation_xyz
x,y,z
-x,y,1/2-z
-x,-y,-z
x,-y,1/2+z
1/2+x,1/2+y,z
1/2-x,1/2+y,1/2-z
1/2-x,1/2-y,-z
1/2+x,1/2-y,1/2+z
loop_
_atom_site_type_symbol
_atom_site_label
_atom_site_fract_x
_atom_site_fract_y
_atom_site_fract_z
Si Si1 0.964561 0.812130 0.184944
Si Si2 0.083370 0.790556 0.654192
Si Si3 0.838945 0.066868 0.900514
Si Si4 0.259096 0.713384 0.121134
Si Si5 0.109716 0.953205 0.511381
O O1 0.941274 0.891227 0.177918
O O2 0.865842 0.764918 0.421624
O O3 0.000000 0.819857 0.250000
O O4 0.046165 0.778645 0.894291
O O5 0.175881 0.739407 0.418761
O O6 0.116192 0.871555 0.545985
O O7 0.000000 0.766743 0.750000
O O8 0.753192 0.125707 0.125859
O O9 0.832662 0.001961 0.020177
O O10 0.833995 0.036753 0.762290
O O11 0.250000 0.750000 0.000000
O O12 0.000000 0.978659 0.750000
#
# Coordination Sequence:
#
# PCOD8132109 Si02
#       5
#     8   8   8   8   8
#     4  10  21  33  48  79 111 135 173 217 257 307
#     4  11  18  33  57  76 101 146 179 207 260 314
#     4  10  21  30  49  74 114 134 169 207 256 322
#     4  10  18  36  52  75 106 143 182 208 251 320
#     4  11  18  29  48  78 103 142 163 204 270 321
#
# _framework density 15.549162000000001
#
# number of rings (size 3 to 8) (size 9 to 14) (size 15 to 20)
#    1.200    0.400    8.000    1.200    2.800    0.800 
#    0.000    0.000    0.000    0.000    0.000    7.000 
#    0.000    0.000    0.000    0.000    0.000    0.000 
#
# Total GULP energy -247849.583394 kJ/mol
# GULP energy per Si atom -12392.479170 kJ/mol
# Density = 1.551377 g / cm^3
# Si number density = 15.549162 Si / 1000 Ang^3
#
#
#
# Elastic Constant Matrix: (Units=GPa)
#
#
# Indices 1 2 3 4 5 6 
#
# 1 63.6333 30.3224 41.3279 0.0000 13.9472 0.0000
# 2 30.3224 68.8166 43.2747 0.0000 -1.6578 0.0000
# 3 41.3279 43.2747 117.9739 0.0000 17.0997 0.0000
# 4 0.0000 0.0000 0.0000 20.0606 0.0000 0.2989
# 5 13.9472 -1.6578 17.0997 0.0000 25.5954 0.0000
# 6 0.0000 0.0000 0.0000 0.2989 0.0000 22.3343
#
#
#
# Elastic Compliance Matrix: (Units=1/GPa)
#
#
# Indices 1 2 3 4 5 6 
#
# 1 0.024974 -0.008897 -0.003797 0.000000 -0.011648 0.000000
# 2 -0.008897 0.023081 -0.006941 0.000000 0.010980 0.000000
# 3 -0.003797 -0.006941 0.013417 0.000000 -0.007344 0.000000
# 4 0.000000 0.000000 0.000000 0.049859 0.000000 -0.000667
# 5 -0.011648 0.010980 -0.007344 0.000000 0.051035 0.000000
# 6 0.000000 0.000000 0.000000 -0.000667 0.000000 0.044783
#
#
# Mechanical properties :
#
#
# Convention : Reuss Voigt Hill
#
# Bulk Modulus (GPa) = 45.04145 53.36376 49.20261
# Shear Modulus (GPa) = 19.69907 22.63131 21.16519
#
# Velocity S-wave (km/s) = 3.56320 3.81920 3.69342
# Velocity P-wave (km/s) = 6.77927 7.33773 7.06402
#
# Compressibility (1/GPa) = 0.02220177
#
# Stress axis : x y z
#
# Youngs Moduli (GPa) = 40.04241 43.32541 74.53136
#
# Poissons Ratio (x) = 0.38547 0.28297
# Poissons Ratio (y) = 0.35626 0.51734
# Poissons Ratio (z) = 0.15203 0.30073
#
# Static dielectric constant tensor:
#      x y z
#    x 2.853540 0.000000 0.021700 
#    y 0.000000 2.810550 0.000000 
#    z 0.021700 0.000000 3.075750 
# 
# 
# High freq. dielectric constant tensor:
#      x y z
#    x 1.583280 0.000000 0.023250 
#    y 0.000000 1.573260 0.000000 
#    z 0.023250 0.000000 1.588510 
# 
# From -- ./inp_files/39907.got.cif
#   From: 2010.06.25/outbox.cif.g09.slc.cpg/sg15_20_cif.got.tgz:39907.got - 2010.06.28 07:06:18.
