data_PCOD8132775
_publ_section_title
;
Structure prediction by ZEFSAII (Michael W. Deem and Ramdas Pophale) SiO2 
 PCOD8132775
Probable space group: C 2/C
;
_chemical_formula_sum "Si O2"
_cell_formula_units_Z 48
_cell_length_a 11.230724
_cell_length_b 23.948207
_cell_length_c 8.530276
_cell_angle_alpha 90.000000
_cell_angle_beta 105.546589
_cell_angle_gamma 90.000000
_cell_volume 2210.325676
_symmetry_space_group_name_H-M "C 2/C"
_symmetry_group_IT_number 15
_symmetry_cell_setting 'monoclinic'
loop_
_space_group_symop_operation_xyz
x,y,z
-x,y,1/2-z
-x,-y,-z
x,-y,1/2+z
1/2+x,1/2+y,z
1/2-x,1/2+y,1/2-z
1/2-x,1/2-y,-z
1/2+x,1/2-y,1/2+z
loop_
_atom_site_type_symbol
_atom_site_label
_atom_site_fract_x
_atom_site_fract_y
_atom_site_fract_z
Si Si1 0.832650 0.131267 0.431514
Si Si2 0.500000 0.344831 0.250000
Si Si3 0.641329 0.730752 0.259753
Si Si4 0.500000 0.434343 0.750000
Si Si5 0.233658 0.950185 0.010492
Si Si6 0.643828 0.048735 0.266879
Si Si7 0.299262 0.325740 0.403968
O O1 0.891369 0.120102 0.624328
O O2 0.826780 0.197490 0.389646
O O3 0.920725 0.105754 0.330851
O O4 0.697209 0.103037 0.376587
O O5 0.430671 0.311148 0.365005
O O6 0.500000 0.737226 0.250000
O O7 0.706768 0.696325 0.421834
O O8 0.695622 0.793455 0.265862
O O9 0.400586 0.469044 0.610607
O O10 0.222403 0.892115 0.100229
O O11 0.276126 0.995782 0.149946
O O12 0.337445 0.945061 0.912459
O O13 0.500000 0.041508 0.250000
#
# Coordination Sequence:
#
# PCOD8132775 Si02
#       7
#     8   4   8   4   8   8   8
#     4  11  21  41  68  93 135 168 215 275 321 380
#     4  12  22  41  66 102 136 158 227 274 318 388
#     4  11  20  46  67  92 132 178 211 267 331 389
#     4  10  18  41  66  94 124 166 215 266 328 378
#     4  11  23  44  67  97 128 174 216 272 329 386
#     4  11  26  44  65  94 136 174 217 269 324 397
#     4  11  24  40  70  98 129 174 217 267 328 390
#
# _framework density 21.716256000000001
#
# number of rings (size 3 to 8) (size 9 to 14) (size 15 to 20)
#    0.000    1.000    7.500    0.500    2.333    4.667 
#    4.500    0.000    0.000    0.000    0.000    0.000 
#    0.000    0.000    0.000    0.000    0.000    0.000 
#
# Total GULP energy -297468.280745 kJ/mol
# GULP energy per Si atom -12394.511698 kJ/mol
# Density = 2.166683 g / cm^3
# Si number density = 21.716256 Si / 1000 Ang^3
#
#
#
# Elastic Constant Matrix: (Units=GPa)
#
#
# Indices 1 2 3 4 5 6 
#
# 1 94.6096 53.6595 18.8621 0.0000 17.1192 0.0000
# 2 53.6595 111.0686 42.3491 0.0000 18.6118 0.0000
# 3 18.8621 42.3491 89.0785 0.0000 10.5203 0.0000
# 4 0.0000 0.0000 0.0000 23.6601 0.0000 8.2320
# 5 17.1192 18.6118 10.5203 0.0000 35.5921 0.0000
# 6 0.0000 0.0000 0.0000 8.2320 0.0000 23.1842
#
#
#
# Elastic Compliance Matrix: (Units=1/GPa)
#
#
# Indices 1 2 3 4 5 6 
#
# 1 0.015022 -0.006812 0.000508 0.000000 -0.003813 0.000000
# 2 -0.006812 0.014779 -0.005241 0.000000 -0.002903 0.000000
# 3 0.000508 -0.005241 0.013797 0.000000 -0.001582 0.000000
# 4 0.000000 0.000000 0.000000 0.048223 0.000000 -0.017122
# 5 -0.003813 -0.002903 -0.001582 0.000000 0.031916 0.000000
# 6 0.000000 0.000000 0.000000 -0.017122 0.000000 0.049212
#
#
# Mechanical properties :
#
#
# Convention : Reuss Voigt Hill
#
# Bulk Modulus (GPa) = 48.76125 58.27756 53.51941
# Shear Modulus (GPa) = 24.64567 28.47968 26.56267
#
# Velocity S-wave (km/s) = 3.37247 3.62532 3.50118
# Velocity P-wave (km/s) = 6.13737 6.66469 6.40646
#
# Compressibility (1/GPa) = 0.02050809
#
# Stress axis : x y z
#
# Youngs Moduli (GPa) = 66.56848 67.66219 72.47993
#
# Poissons Ratio (x) = 0.46093 -0.03683
# Poissons Ratio (y) = 0.45348 0.37987
# Poissons Ratio (z) = -0.03382 0.35462
#
# Static dielectric constant tensor:
#      x y z
#    x 3.979150 0.000000 0.159120 
#    y 0.000000 3.875870 0.000000 
#    z 0.159120 0.000000 4.253030 
# 
# 
# High freq. dielectric constant tensor:
#      x y z
#    x 1.848220 0.000000 0.000020 
#    y 0.000000 1.829720 0.000000 
#    z 0.000020 0.000000 1.861330 
# 
# From -- ./inp_files/32673.got.cif
#   From: 2010.06.25/outbox.cif.g09.slc.cpg/sg15_17_cif.got.tgz:32673.got - 2010.06.28 07:06:18.
