data_PCOD8132767
_publ_section_title
;
Structure prediction by ZEFSAII (Michael W. Deem and Ramdas Pophale) SiO2 
 PCOD8132767
Probable space group: C 2/C
;
_chemical_formula_sum "Si O2"
_cell_formula_units_Z 44
_cell_length_a 11.628402
_cell_length_b 8.654174
_cell_length_c 31.020004
_cell_angle_alpha 90.000000
_cell_angle_beta 48.416075
_cell_angle_gamma 90.000000
_cell_volume 2334.963043
_symmetry_space_group_name_H-M "C 2/C"
_symmetry_group_IT_number 15
_symmetry_cell_setting 'monoclinic'
loop_
_space_group_symop_operation_xyz
x,y,z
-x,y,1/2-z
-x,-y,-z
x,-y,1/2+z
1/2+x,1/2+y,z
1/2-x,1/2+y,1/2-z
1/2-x,1/2-y,-z
1/2+x,1/2-y,1/2+z
loop_
_atom_site_type_symbol
_atom_site_label
_atom_site_fract_x
_atom_site_fract_y
_atom_site_fract_z
Si Si1 0.500000 0.205417 0.750000
Si Si2 0.699647 0.199173 0.874584
Si Si3 0.209583 0.000974 0.327504
Si Si4 0.344553 0.478389 0.564401
Si Si5 0.142049 0.702466 0.565781
Si Si6 0.929651 0.064967 0.343881
O O1 0.644927 0.096865 0.723307
O O2 0.524716 0.308525 0.702241
O O3 0.754529 0.315953 0.822288
O O4 0.694982 0.296084 0.920684
O O5 0.525508 0.148478 0.907903
O O6 0.810309 0.053149 0.851653
O O7 0.141345 0.945499 0.391072
O O8 0.082511 0.976130 0.321849
O O9 0.500000 0.500000 0.500000
O O10 0.204415 0.552789 0.574147
O O11 0.250000 0.750000 0.500000
O O12 0.143099 0.850763 0.596771
#
# Coordination Sequence:
#
# PCOD8132767 Si02
#       6
#     4   8   8   8   8   8
#     4  12  24  40  64  86 126 164 202 262 308 382
#     4   9  22  37  61  89 123 159 206 254 297 374
#     4   9  23  41  61  88 125 161 204 251 314 365
#     4  10  18  41  64  86 126 162 196 249 316 359
#     4  11  20  40  64  89 130 159 200 259 305 368
#     4  11  23  41  60  94 118 160 214 250 311 364
#
# _framework density 18.843983000000001
#
# number of rings (size 3 to 8) (size 9 to 14) (size 15 to 20)
#    1.091    0.727    3.636    0.000    0.000    7.273 
#    0.000    1.818    0.000    0.000    0.000    0.000 
#    0.000    0.000    0.000    0.000    0.000    0.000 
#
# Total GULP energy -272630.322096 kJ/mol
# GULP energy per Si atom -12392.287368 kJ/mol
# Density = 1.880109 g / cm^3
# Si number density = 18.843983 Si / 1000 Ang^3
#
#
#
# Elastic Constant Matrix: (Units=GPa)
#
#
# Indices 1 2 3 4 5 6 
#
# 1 169.3003 81.7841 48.0452 0.0000 -21.0789 0.0000
# 2 81.7841 96.9134 52.6274 0.0000 -19.3496 0.0000
# 3 48.0452 52.6274 90.8540 0.0000 -14.5786 0.0000
# 4 0.0000 0.0000 0.0000 27.2490 0.0000 -0.2215
# 5 -21.0789 -19.3496 -14.5786 0.0000 28.3691 0.0000
# 6 0.0000 0.0000 0.0000 -0.2215 0.0000 42.8679
#
#
#
# Elastic Compliance Matrix: (Units=1/GPa)
#
#
# Indices 1 2 3 4 5 6 
#
# 1 0.010077 -0.007877 -0.000465 0.000000 0.001876 0.000000
# 2 -0.007877 0.022322 -0.007913 0.000000 0.005306 0.000000
# 3 -0.000465 -0.007913 0.016255 0.000000 0.002610 0.000000
# 4 0.000000 0.000000 0.000000 0.036700 0.000000 0.000190
# 5 0.001876 0.005306 0.002610 0.000000 0.041604 0.000000
# 6 0.000000 0.000000 0.000000 0.000190 0.000000 0.023328
#
#
# Mechanical properties :
#
#
# Convention : Reuss Voigt Hill
#
# Bulk Modulus (GPa) = 61.94307 80.22013 71.08160
# Shear Modulus (GPa) = 26.57019 31.33792 28.95405
#
# Velocity S-wave (km/s) = 3.75908 4.08244 3.92409
# Velocity P-wave (km/s) = 7.19610 8.05511 7.63769
#
# Compressibility (1/GPa) = 0.01614386
#
# Stress axis : x y z
#
# Youngs Moduli (GPa) = 99.23158 44.79795 61.51777
#
# Poissons Ratio (x) = 0.35287 0.02863
# Poissons Ratio (y) = 0.78165 0.48682
# Poissons Ratio (z) = 0.04618 0.35451
#
# Static dielectric constant tensor:
#      x y z
#    x 3.563000 0.000000 0.000830 
#    y 0.000000 3.366200 0.000000 
#    z 0.000830 0.000000 3.487890 
# 
# 
# High freq. dielectric constant tensor:
#      x y z
#    x 1.739890 0.000000 0.000100 
#    y 0.000000 1.718600 0.000000 
#    z 0.000100 0.000000 1.730790 
# 
# From -- ./inp_files/309863.got.cif
#   From: 2010.06.25/outbox.cif.g09.slc.cpg/sg15_155_cif.got.tgz:309863.got - 2010.06.28 07:06:18.
