data_PCOD8132343
_publ_section_title
;
Structure prediction by ZEFSAII (Michael W. Deem and Ramdas Pophale) SiO2 
 PCOD8132343
Probable space group: C 2/C
;
_chemical_formula_sum "Si O2"
_cell_formula_units_Z 44
_cell_length_a 15.305146
_cell_length_b 11.648715
_cell_length_c 26.010217
_cell_angle_alpha 90.000000
_cell_angle_beta 152.709428
_cell_angle_gamma 90.000000
_cell_volume 2126.189471
_symmetry_space_group_name_H-M "C 2/C"
_symmetry_group_IT_number 15
_symmetry_cell_setting 'monoclinic'
loop_
_space_group_symop_operation_xyz
x,y,z
-x,y,1/2-z
-x,-y,-z
x,-y,1/2+z
1/2+x,1/2+y,z
1/2-x,1/2+y,1/2-z
1/2-x,1/2-y,-z
1/2+x,1/2-y,1/2+z
loop_
_atom_site_type_symbol
_atom_site_label
_atom_site_fract_x
_atom_site_fract_y
_atom_site_fract_z
Si Si1 0.425327 0.234193 0.629574
Si Si2 0.794637 0.383683 0.914451
Si Si3 0.902174 0.846598 0.090803
Si Si4 0.339539 0.194496 0.330849
Si Si5 0.073674 0.490187 0.416798
Si Si6 0.500000 0.424219 0.250000
O O1 0.250000 0.250000 0.500000
O O2 0.355980 0.284172 0.647732
O O3 0.610768 0.305779 0.708388
O O4 0.474077 0.097529 0.654968
O O5 0.909686 0.331670 0.925983
O O6 0.685003 0.497009 0.837993
O O7 0.938321 0.419517 0.035387
O O8 0.976161 0.842602 0.188045
O O9 0.079179 0.818617 0.145276
O O10 0.750000 0.750000 0.000000
O O11 0.794104 0.967541 0.024594
O O12 0.421713 0.093743 0.336962
#
# Coordination Sequence:
#
# PCOD8132343 Si02
#       6
#     8   8   8   8   8   4
#     4  10  21  35  54  87 125 150 194 245 301 355
#     4  10  19  36  59  89 113 153 203 248 292 359
#     4   9  21  39  59  91 122 152 200 254 299 357
#     4  11  20  36  61  87 115 152 205 244 297 356
#     4   9  21  37  60  86 119 155 197 253 304 349
#     4  10  18  36  66  80 122 158 198 244 302 348
#
# _framework density 20.694298
#
# number of rings (size 3 to 8) (size 9 to 14) (size 15 to 20)
#    0.000    2.182    1.818    0.545    2.545    0.000 
#    6.545    0.909   16.000    0.000    0.000    0.000 
#    0.000    0.000    0.000    0.000    0.000    0.000 
#
# Total GULP energy -272603.437524 kJ/mol
# GULP energy per Si atom -12391.065342 kJ/mol
# Density = 2.064720 g / cm^3
# Si number density = 20.694298 Si / 1000 Ang^3
#
#
#
# Elastic Constant Matrix: (Units=GPa)
#
#
# Indices 1 2 3 4 5 6 
#
# 1 104.5415 53.8437 17.1494 -0.0001 6.1929 0.0000
# 2 53.8437 98.8922 21.8100 0.0002 -2.7685 0.0000
# 3 17.1494 21.8100 48.1739 0.0009 1.5342 -0.0001
# 4 -0.0001 0.0002 0.0009 32.8948 -0.0002 -2.3742
# 5 6.1929 -2.7685 1.5342 -0.0002 31.9305 -0.0001
# 6 0.0000 0.0000 -0.0001 -2.3742 -0.0001 37.4313
#
#
#
# Elastic Compliance Matrix: (Units=1/GPa)
#
#
# Indices 1 2 3 4 5 6 
#
# 1 0.013729 -0.007232 -0.001511 0.000000 -0.003217 0.000000
# 2 -0.007232 0.015091 -0.004351 0.000000 0.002920 0.000000
# 3 -0.001511 -0.004351 0.023304 -0.000001 -0.001204 0.000000
# 4 0.000000 0.000000 -0.000001 0.030540 0.000000 0.001937
# 5 -0.003217 0.002920 -0.001204 0.000000 0.032253 0.000000
# 6 0.000000 0.000000 0.000000 0.001937 0.000000 0.026838
#
#
# Mechanical properties :
#
#
# Convention : Reuss Voigt Hill
#
# Bulk Modulus (GPa) = 38.55484 48.57933 43.56708
# Shear Modulus (GPa) = 28.31474 31.03830 29.67652
#
# Velocity S-wave (km/s) = 3.70298 3.87699 3.79098
# Velocity P-wave (km/s) = 6.07897 6.60054 6.34512
#
# Compressibility (1/GPa) = 0.02593708
#
# Stress axis : x y z
#
# Youngs Moduli (GPa) = 72.84046 66.26595 42.91108
#
# Poissons Ratio (x) = 0.47921 0.06483
# Poissons Ratio (y) = 0.52676 0.18669
# Poissons Ratio (z) = 0.11004 0.28830
#
# Static dielectric constant tensor:
#      x y z
#    x 4.240830 0.000000 0.240900 
#    y 0.000000 4.480450 0.000000 
#    z 0.240900 0.000000 3.783500 
# 
# 
# High freq. dielectric constant tensor:
#      x y z
#    x 1.792220 0.000000 0.013540 
#    y 0.000000 1.804910 0.000000 
#    z 0.013540 0.000000 1.803370 
# 
# From -- ./inp_files/151754.got.cif
#   From: 2010.06.25/outbox.cif.g09.slc.cpg/sg15_76_cif.got.tgz:151754.got - 2010.06.28 07:06:18.
