data_PCOD8132846
_publ_section_title
;
Structure prediction by ZEFSAII (Michael W. Deem and Ramdas Pophale) SiO2 
 PCOD8132846
Probable space group: C 2/C
;
_chemical_formula_sum "Si O2"
_cell_formula_units_Z 44
_cell_length_a 11.647028
_cell_length_b 44.038815
_cell_length_c 5.231413
_cell_angle_alpha 90.000000
_cell_angle_beta 63.310266
_cell_angle_gamma 90.000000
_cell_volume 2397.402306
_symmetry_space_group_name_H-M "C 2/C"
_symmetry_group_IT_number 15
_symmetry_cell_setting 'monoclinic'
loop_
_space_group_symop_operation_xyz
x,y,z
-x,y,1/2-z
-x,-y,-z
x,-y,1/2+z
1/2+x,1/2+y,z
1/2-x,1/2+y,1/2-z
1/2-x,1/2-y,-z
1/2+x,1/2-y,1/2+z
loop_
_atom_site_type_symbol
_atom_site_label
_atom_site_fract_x
_atom_site_fract_y
_atom_site_fract_z
Si Si1 0.846695 0.778041 0.903301
Si Si2 0.356547 0.585964 0.393452
Si Si3 0.500000 0.019732 0.750000
Si Si4 0.650219 0.315311 0.099785
Si Si5 0.721765 0.479506 0.528234
Si Si6 0.654246 0.616736 0.595755
O O1 0.807877 0.797325 0.694167
O O2 0.000000 0.769079 0.750000
O O3 0.750000 0.750000 0.000000
O O4 0.807878 0.797327 0.190064
O O5 0.500000 0.599230 0.250000
O O6 0.370010 0.549408 0.379987
O O7 0.288308 0.599092 0.715418
O O8 0.288308 0.599092 0.207963
O O9 0.636409 0.036996 0.613590
O O10 0.500000 0.000000 0.500000
O O11 0.500000 0.319779 0.250000
O O12 0.710417 0.349031 0.039584
O O13 0.697361 0.500000 0.802636
O O14 0.500000 0.615616 0.750000
#
# Coordination Sequence:
#
# PCOD8132846 Si02
#       6
#     8   8   4   8   8   8
#     4  10  19  31  49  77 102 128 162 197 241 283
#     4  10  19  29  44  68  94 119 148 183 231 281
#     4   8  16  30  46  62  78 104 146 186 220 262
#     4   9  17  30  49  71  97 125 162 202 232 269
#     4  10  19  31  46  65  88 115 148 186 232 277
#     4   9  17  30  46  67  92 120 156 193 222 258
#
# _framework density 18.353197000000002
#
# number of rings (size 3 to 8) (size 9 to 14) (size 15 to 20)
#    0.000    2.545    0.000    2.727    0.000    5.091 
#    0.000    0.000    0.000    0.000   14.182    0.000 
#    0.000    0.000    0.000    0.000    0.000    0.000 
#
# Total GULP energy -272539.350887 kJ/mol
# GULP energy per Si atom -12388.152313 kJ/mol
# Density = 1.831142 g / cm^3
# Si number density = 18.353197 Si / 1000 Ang^3
#
#
#
# Elastic Constant Matrix: (Units=GPa)
#
#
# Indices 1 2 3 4 5 6 
#
# 1 36.0757 32.9098 43.5373 0.0000 14.9645 0.0000
# 2 32.9098 154.7190 76.5220 0.0000 29.0499 0.0000
# 3 43.5373 76.5220 142.2029 0.0000 55.7330 0.0000
# 4 0.0000 0.0000 0.0000 42.3025 0.0000 12.4247
# 5 14.9645 29.0499 55.7330 0.0000 34.6595 0.0000
# 6 0.0000 0.0000 0.0000 12.4247 0.0000 23.6629
#
#
#
# Elastic Compliance Matrix: (Units=1/GPa)
#
#
# Indices 1 2 3 4 5 6 
#
# 1 0.046220 -0.003799 -0.014964 0.000000 0.007290 0.000000
# 2 -0.003799 0.009125 -0.003766 0.000000 0.000048 0.000000
# 3 -0.014964 -0.003766 0.026694 0.000000 -0.033307 0.000000
# 4 0.000000 0.000000 0.000000 0.027950 0.000000 -0.014676
# 5 0.007290 0.000048 -0.033307 0.000000 0.079223 0.000000
# 6 0.000000 0.000000 0.000000 -0.014676 0.000000 0.049966
#
#
# Mechanical properties :
#
#
# Convention : Reuss Voigt Hill
#
# Bulk Modulus (GPa) = 27.04071 70.99286 49.01679
# Shear Modulus (GPa) = 16.85987 32.12688 24.49338
#
# Velocity S-wave (km/s) = 3.03419 4.18841 3.65712
# Velocity P-wave (km/s) = 5.20005 7.88390 6.67819
#
# Compressibility (1/GPa) = 0.03698127
#
# Stress axis : x y z
#
# Youngs Moduli (GPa) = 21.63571 109.58846 37.46164
#
# Poissons Ratio (x) = 0.41636 0.56056
# Poissons Ratio (y) = 0.08220 0.14108
# Poissons Ratio (z) = 0.32375 0.41270
#
# Static dielectric constant tensor:
#      x y z
#    x 3.318160 0.000000 0.202920 
#    y 0.000000 3.309870 0.000000 
#    z 0.202920 0.000000 3.622780 
# 
# 
# High freq. dielectric constant tensor:
#      x y z
#    x 1.672860 0.000000 0.035190 
#    y 0.000000 1.704410 0.000000 
#    z 0.035190 0.000000 1.725680 
# 
# From -- ./inp_files/8606.got.cif
#   From: 2010.06.25/outbox.cif.g09.slc.cpg/sg15_5_cif.got.tgz:8606.got - 2010.06.28 07:06:18.
