data_PCOD8132571
_publ_section_title
;
Structure prediction by ZEFSAII (Michael W. Deem and Ramdas Pophale) SiO2 
 PCOD8132571
Probable space group: C 2/C
;
_chemical_formula_sum "Si O2"
_cell_formula_units_Z 64
_cell_length_a 25.661646
_cell_length_b 9.344266
_cell_length_c 14.223757
_cell_angle_alpha 90.000000
_cell_angle_beta 126.982247
_cell_angle_gamma 90.000000
_cell_volume 2724.545172
_symmetry_space_group_name_H-M "C 2/C"
_symmetry_group_IT_number 15
_symmetry_cell_setting 'monoclinic'
loop_
_space_group_symop_operation_xyz
x,y,z
-x,y,1/2-z
-x,-y,-z
x,-y,1/2+z
1/2+x,1/2+y,z
1/2-x,1/2+y,1/2-z
1/2-x,1/2-y,-z
1/2+x,1/2-y,1/2+z
loop_
_atom_site_type_symbol
_atom_site_label
_atom_site_fract_x
_atom_site_fract_y
_atom_site_fract_z
Si Si1 0.195068 0.539108 0.099740
Si Si2 0.552000 0.902793 0.484594
Si Si3 0.339200 0.141009 0.630926
Si Si4 0.546598 0.327144 0.125815
Si Si5 0.286339 0.764569 0.271276
Si Si6 0.434435 0.347281 0.635170
Si Si7 0.451999 0.071451 0.278981
Si Si8 0.594990 0.559939 0.056857
O O1 0.117975 0.514196 0.027388
O O2 0.222545 0.665129 0.196557
O O3 0.228203 0.389105 0.167752
O O4 0.208851 0.590670 0.006702
O O5 0.570151 0.816123 0.597367
O O6 0.534603 0.781060 0.389691
O O7 0.490258 0.012258 0.415373
O O8 0.299289 0.169996 0.682192
O O9 0.381302 0.283911 0.650798
O O10 0.382978 0.002777 0.697212
O O11 0.554578 0.248521 0.235825
O O12 0.592261 0.461611 0.149696
O O13 0.472012 0.354446 0.018964
O O14 0.346493 0.669300 0.372232
O O15 0.500000 0.422999 0.750000
O O16 0.397879 0.460953 0.527887
O O17 0.500000 0.017988 0.250000
#
# Coordination Sequence:
#
# PCOD8132571 Si02
#       8
#     8   8   8   8   8   8   8   8
#     4  11  26  46  71  99 134 183 241 287 346 404
#     4  10  18  38  63  91 132 171 225 275 335 416
#     4  11  23  45  72 101 136 181 232 284 355 419
#     4  10  22  35  62  96 131 173 216 273 354 404
#     4  12  27  48  74  97 136 188 235 294 344 410
#     4  10  19  37  64  97 136 178 219 272 349 411
#     4  12  19  35  65  99 136 168 213 283 341 413
#     4  10  24  41  62  97 141 177 227 284 343 421
#
# _framework density 23.490158000000001
#
# number of rings (size 3 to 8) (size 9 to 14) (size 15 to 20)
#    0.000    1.250    3.750    3.000    8.750    0.500 
#    0.000    0.625    0.000    0.000    0.000    0.000 
#    0.000    0.000    0.000    0.000    0.000    0.000 
#
# Total GULP energy -396441.414910 kJ/mol
# GULP energy per Si atom -12388.794216 kJ/mol
# Density = 2.343669 g / cm^3
# Si number density = 23.490158 Si / 1000 Ang^3
#
#
#
# Elastic Constant Matrix: (Units=GPa)
#
#
# Indices 1 2 3 4 5 6 
#
# 1 34.2591 16.3889 8.4850 0.0000 -0.4646 0.0000
# 2 16.3889 126.4785 49.1391 0.0000 1.1414 0.0000
# 3 8.4850 49.1391 99.8392 0.0000 2.9124 0.0000
# 4 0.0000 0.0000 0.0000 45.3952 0.0000 0.6233
# 5 -0.4646 1.1414 2.9124 0.0000 26.7226 0.0000
# 6 0.0000 0.0000 0.0000 0.6233 0.0000 27.6143
#
#
#
# Elastic Compliance Matrix: (Units=1/GPa)
#
#
# Indices 1 2 3 4 5 6 
#
# 1 0.031189 -0.003721 -0.000842 0.000000 0.000793 0.000000
# 2 -0.003721 0.010220 -0.004714 0.000000 0.000013 0.000000
# 3 -0.000842 -0.004714 0.012442 0.000000 -0.001169 0.000000
# 4 0.000000 0.000000 0.000000 0.022036 0.000000 -0.000497
# 5 0.000793 0.000013 -0.001169 0.000000 0.037562 0.000000
# 6 0.000000 0.000000 0.000000 -0.000497 0.000000 0.036224
#
#
# Mechanical properties :
#
#
# Convention : Reuss Voigt Hill
#
# Bulk Modulus (GPa) = 28.33225 45.40030 36.86628
# Shear Modulus (GPa) = 27.77869 32.38401 30.08135
#
# Velocity S-wave (km/s) = 3.44258 3.71701 3.58242
# Velocity P-wave (km/s) = 5.28103 6.14743 5.73063
#
# Compressibility (1/GPa) = 0.03529547
#
# Stress axis : x y z
#
# Youngs Moduli (GPa) = 32.06271 97.84581 80.37242
#
# Poissons Ratio (x) = 0.36412 0.06769
# Poissons Ratio (y) = 0.11932 0.37890
# Poissons Ratio (z) = 0.02700 0.46127
#
# Static dielectric constant tensor:
#      x y z
#    x 4.146000 0.000000 -0.431480 
#    y 0.000000 4.416280 0.000000 
#    z -0.431480 0.000000 4.499030 
# 
# 
# High freq. dielectric constant tensor:
#      x y z
#    x 1.907020 0.000000 -0.015670 
#    y 0.000000 1.943950 0.000000 
#    z -0.015670 0.000000 1.929870 
# 
# From -- ./inp_files/181173.got.cif
#   From: 2010.06.25/outbox.cif.g09.slc.cpg/sg15_91_cif.got.tgz:181173.got - 2010.06.28 07:06:18.
