data_PCOD8132520
_publ_section_title
;
Structure prediction by ZEFSAII (Michael W. Deem and Ramdas Pophale) SiO2 
 PCOD8132520
Probable space group: C 2/C
;
_chemical_formula_sum "Si O2"
_cell_formula_units_Z 44
_cell_length_a 8.622260
_cell_length_b 25.618128
_cell_length_c 15.372258
_cell_angle_alpha 90.000000
_cell_angle_beta 140.214976
_cell_angle_gamma 90.000000
_cell_volume 2172.822732
_symmetry_space_group_name_H-M "C 2/C"
_symmetry_group_IT_number 15
_symmetry_cell_setting 'monoclinic'
loop_
_space_group_symop_operation_xyz
x,y,z
-x,y,1/2-z
-x,-y,-z
x,-y,1/2+z
1/2+x,1/2+y,z
1/2-x,1/2+y,1/2-z
1/2-x,1/2-y,-z
1/2+x,1/2-y,1/2+z
loop_
_atom_site_type_symbol
_atom_site_label
_atom_site_fract_x
_atom_site_fract_y
_atom_site_fract_z
Si Si1 0.925015 0.256351 0.993612
Si Si2 0.750247 0.658616 0.096328
Si Si3 0.500000 0.312283 0.750000
Si Si4 0.882601 0.556184 0.452472
Si Si5 0.067246 0.094194 0.161504
Si Si6 0.767772 0.646950 0.899482
O O1 0.741381 0.277343 0.839628
O O2 0.750000 0.250000 0.000000
O O3 0.048478 0.203350 0.016866
O O4 0.130830 0.299765 0.098468
O O5 0.657200 0.604505 0.101962
O O6 0.000000 0.676524 0.250000
O O7 0.788532 0.647418 0.012372
O O8 0.522393 0.348781 0.844178
O O9 0.783615 0.571991 0.314382
O O10 0.663621 0.555663 0.429308
O O11 0.000000 0.500000 0.500000
O O12 0.079618 0.597875 0.569241
O O13 0.500000 0.638496 0.750000
#
# Coordination Sequence:
#
# PCOD8132520 Si02
#       6
#     8   8   4   8   8   8
#     4  12  23  38  62  92 130 182 221 257 323 387
#     4  12  23  42  65  92 135 175 214 266 322 392
#     4  10  18  38  60  88 124 168 226 252 302 388
#     4  10  21  42  71  93 120 167 214 269 330 393
#     4  10  20  43  69  91 124 176 220 255 326 402
#     4  12  26  40  59  99 134 160 219 280 324 372
#
# _framework density 20.250157999999999
#
# number of rings (size 3 to 8) (size 9 to 14) (size 15 to 20)
#    0.000    1.091    7.273    1.091    5.091    0.000 
#    0.000    0.909    4.000    0.000    0.000    0.000 
#    0.000    0.000    0.000    0.000    0.000    0.000 
#
# Total GULP energy -272708.745496 kJ/mol
# GULP energy per Si atom -12395.852068 kJ/mol
# Density = 2.020407 g / cm^3
# Si number density = 20.250158 Si / 1000 Ang^3
#
#
#
# Elastic Constant Matrix: (Units=GPa)
#
#
# Indices 1 2 3 4 5 6 
#
# 1 98.4345 34.2978 29.4141 0.0000 6.1075 0.0000
# 2 34.2978 99.6381 30.0176 0.0000 14.2066 0.0000
# 3 29.4141 30.0176 106.0028 0.0000 26.4754 0.0000
# 4 0.0000 0.0000 0.0000 31.4458 0.0000 14.8296
# 5 6.1075 14.2066 26.4754 0.0000 41.5495 0.0000
# 6 0.0000 0.0000 0.0000 14.8296 0.0000 32.5374
#
#
#
# Elastic Compliance Matrix: (Units=1/GPa)
#
#
# Indices 1 2 3 4 5 6 
#
# 1 0.012109 -0.003532 -0.002637 0.000000 0.001108 0.000000
# 2 -0.003532 0.012160 -0.001849 0.000000 -0.002460 0.000000
# 3 -0.002637 -0.001849 0.012409 0.000000 -0.006887 0.000000
# 4 0.000000 0.000000 0.000000 0.040507 0.000000 -0.018462
# 5 0.001108 -0.002460 -0.006887 0.000000 0.029135 0.000000
# 6 0.000000 0.000000 0.000000 -0.018462 0.000000 0.039148
#
#
# Mechanical properties :
#
#
# Convention : Reuss Voigt Hill
#
# Bulk Modulus (GPa) = 48.44173 54.61495 51.52834
# Shear Modulus (GPa) = 29.69413 35.12960 32.41186
#
# Velocity S-wave (km/s) = 3.83347 4.16959 4.00506
# Velocity P-wave (km/s) = 6.60057 7.08585 6.84751
#
# Compressibility (1/GPa) = 0.02064336
#
# Stress axis : x y z
#
# Youngs Moduli (GPa) = 82.58496 82.23782 80.58623
#
# Poissons Ratio (x) = 0.29044 0.21247
# Poissons Ratio (y) = 0.29167 0.14899
# Poissons Ratio (z) = 0.21774 0.15205
#
# Static dielectric constant tensor:
#      x y z
#    x 4.092830 0.000000 0.324380 
#    y 0.000000 3.635870 0.000000 
#    z 0.324380 0.000000 3.906510 
# 
# 
# High freq. dielectric constant tensor:
#      x y z
#    x 1.800310 0.000000 0.026860 
#    y 0.000000 1.775210 0.000000 
#    z 0.026860 0.000000 1.782320 
# 
# From -- ./inp_files/138824.got.cif
#   From: 2010.06.25/outbox.cif.g09.slc.cpg/sg15_70_cif.got.tgz:138824.got - 2010.06.28 07:06:18.
