data_PCOD8132792
_publ_section_title
;
Structure prediction by ZEFSAII (Michael W. Deem and Ramdas Pophale) SiO2 
 PCOD8132792
Probable space group: C 2/C
;
_chemical_formula_sum "Si O2"
_cell_formula_units_Z 44
_cell_length_a 18.107620
_cell_length_b 10.568903
_cell_length_c 12.226532
_cell_angle_alpha 90.000000
_cell_angle_beta 122.487693
_cell_angle_gamma 90.000000
_cell_volume 1973.709266
_symmetry_space_group_name_H-M "C 2/C"
_symmetry_group_IT_number 15
_symmetry_cell_setting 'monoclinic'
loop_
_space_group_symop_operation_xyz
x,y,z
-x,y,1/2-z
-x,-y,-z
x,-y,1/2+z
1/2+x,1/2+y,z
1/2-x,1/2+y,1/2-z
1/2-x,1/2-y,-z
1/2+x,1/2-y,1/2+z
loop_
_atom_site_type_symbol
_atom_site_label
_atom_site_fract_x
_atom_site_fract_y
_atom_site_fract_z
Si Si1 0.933145 0.425734 0.869836
Si Si2 0.500000 0.303958 0.750000
Si Si3 0.842689 0.632086 0.646048
Si Si4 0.733097 0.145859 0.136018
Si Si5 0.001772 0.835770 0.375358
Si Si6 0.599491 0.555373 0.136965
O O1 0.887993 0.517024 0.745493
O O2 0.858467 0.352522 0.875796
O O3 0.988940 0.314971 0.857804
O O4 0.000000 0.500000 0.000000
O O5 0.418328 0.216448 0.649578
O O6 0.467588 0.382409 0.828766
O O7 0.780411 0.716320 0.675121
O O8 0.781222 0.587930 0.496991
O O9 0.799348 0.052592 0.250135
O O10 0.000000 0.888430 0.250000
O O11 0.090898 0.872764 0.512336
O O12 0.927425 0.907798 0.388251
#
# Coordination Sequence:
#
# PCOD8132792 Si02
#       6
#     8   4   8   8   8   8
#     4  12  26  42  68  99 138 179 220 288 343 410
#     4  10  18  42  68  94 122 182 228 260 330 406
#     4  10  22  40  67  94 130 176 221 277 327 413
#     4  10  23  42  65  95 127 175 228 267 336 399
#     4  11  25  43  68 100 133 175 227 283 343 405
#     4  10  22  44  70  95 132 178 226 280 334 413
#
# _framework density 22.293051999999999
#
# number of rings (size 3 to 8) (size 9 to 14) (size 15 to 20)
#    0.000    1.455    0.909    4.364    6.364    1.455 
#    0.000    1.818    0.000    0.000    0.000    0.000 
#    0.000    0.000    0.000    0.000    0.000    0.000 
#
# Total GULP energy -272626.548943 kJ/mol
# GULP energy per Si atom -12392.115861 kJ/mol
# Density = 2.224231 g / cm^3
# Si number density = 22.293052 Si / 1000 Ang^3
#
#
#
# Elastic Constant Matrix: (Units=GPa)
#
#
# Indices 1 2 3 4 5 6 
#
# 1 76.6693 8.7962 19.8424 0.0000 12.2464 0.0000
# 2 8.7962 108.8363 52.8021 0.0000 7.9361 0.0000
# 3 19.8424 52.8021 178.9300 0.0000 15.6258 0.0000
# 4 0.0000 0.0000 0.0000 33.2157 0.0000 1.8363
# 5 12.2464 7.9361 15.6258 0.0000 36.5181 0.0000
# 6 0.0000 0.0000 0.0000 1.8363 0.0000 18.3237
#
#
#
# Elastic Compliance Matrix: (Units=1/GPa)
#
#
# Indices 1 2 3 4 5 6 
#
# 1 0.014028 -0.000294 -0.001105 0.000000 -0.004168 0.000000
# 2 -0.000294 0.010766 -0.003063 0.000000 -0.000930 0.000000
# 3 -0.001105 -0.003063 0.006778 0.000000 -0.001864 0.000000
# 4 0.000000 0.000000 0.000000 0.030274 0.000000 -0.003034
# 5 -0.004168 -0.000930 -0.001864 0.000000 0.029781 0.000000
# 6 0.000000 0.000000 0.000000 -0.003034 0.000000 0.054878
#
#
# Mechanical properties :
#
#
# Convention : Reuss Voigt Hill
#
# Bulk Modulus (GPa) = 44.15326 58.59077 51.37202
# Shear Modulus (GPa) = 30.67879 36.47782 33.57831
#
# Velocity S-wave (km/s) = 3.71369 4.04949 3.88522
# Velocity P-wave (km/s) = 6.18364 6.94288 6.57423
#
# Compressibility (1/GPa) = 0.02264838
#
# Stress axis : x y z
#
# Youngs Moduli (GPa) = 71.28378 92.88681 147.53545
#
# Poissons Ratio (x) = 0.02729 0.16303
# Poissons Ratio (y) = 0.02094 0.45192
# Poissons Ratio (z) = 0.07877 0.28453
#
# Static dielectric constant tensor:
#      x y z
#    x 3.849110 0.000000 0.199010 
#    y 0.000000 3.961970 0.000000 
#    z 0.199010 0.000000 4.228690 
# 
# 
# High freq. dielectric constant tensor:
#      x y z
#    x 1.857760 0.000000 0.009880 
#    y 0.000000 1.872400 0.000000 
#    z 0.009880 0.000000 1.897640 
# 
# From -- ./inp_files/104362.got.cif
#   From: 2010.06.25/outbox.cif.g09.slc.cpg/sg15_53_cif.got.tgz:104362.got - 2010.06.28 07:06:18.
