data_PCOD8132505
_publ_section_title
;
Structure prediction by ZEFSAII (Michael W. Deem and Ramdas Pophale) SiO2 
 PCOD8132505
Probable space group: C 2/C
;
_chemical_formula_sum "Si O2"
_cell_formula_units_Z 60
_cell_length_a 15.713696
_cell_length_b 12.099639
_cell_length_c 19.968533
_cell_angle_alpha 90.000000
_cell_angle_beta 52.896264
_cell_angle_gamma 90.000000
_cell_volume 3027.972289
_symmetry_space_group_name_H-M "C 2/C"
_symmetry_group_IT_number 15
_symmetry_cell_setting 'monoclinic'
loop_
_space_group_symop_operation_xyz
x,y,z
-x,y,1/2-z
-x,-y,-z
x,-y,1/2+z
1/2+x,1/2+y,z
1/2-x,1/2+y,1/2-z
1/2-x,1/2-y,-z
1/2+x,1/2-y,1/2+z
loop_
_atom_site_type_symbol
_atom_site_label
_atom_site_fract_x
_atom_site_fract_y
_atom_site_fract_z
Si Si1 0.317667 0.597914 0.604377
Si Si2 0.412864 0.918678 0.568153
Si Si3 0.684615 0.368320 0.830332
Si Si4 0.034940 0.774235 0.551013
Si Si5 0.893334 0.254330 0.686902
Si Si6 0.178226 0.956705 0.687772
Si Si7 0.670293 0.246975 0.600175
Si Si8 0.000000 0.131661 0.750000
O O1 0.300131 0.468438 0.624877
O O2 0.406004 0.613594 0.503276
O O3 0.354905 0.658413 0.654879
O O4 0.203069 0.647065 0.634075
O O5 0.403692 0.819105 0.520518
O O6 0.441294 0.861340 0.625739
O O7 0.303588 0.988217 0.627033
O O8 0.500000 0.000000 0.500000
O O9 0.590924 0.287185 0.901294
O O10 0.790828 0.294917 0.777756
O O11 0.646984 0.418682 0.777176
O O12 0.053797 0.740712 0.620108
O O13 0.986456 0.208839 0.691037
O O14 0.163218 0.858068 0.644521
O O15 0.106891 0.057964 0.695434
O O16 0.750000 0.250000 0.500000
#
# Coordination Sequence:
#
# PCOD8132505 Si02
#       8
#     8   8   8   8   8   8   8   4
#     4  10  19  39  59  86 127 159 202 265 308 375
#     4  10  22  43  64  85 126 166 206 251 323 381
#     4  11  21  37  65  88 122 168 207 252 327 375
#     4  10  21  36  62  94 120 156 209 262 308 379
#     4  10  23  42  58  89 123 160 213 259 301 374
#     4  11  21  39  65  90 116 171 207 252 318 373
#     4  10  18  38  59  90 124 146 200 266 301 361
#     4  12  24  40  66  88 130 162 216 264 302 378
#
# _framework density 19.815241
#
# number of rings (size 3 to 8) (size 9 to 14) (size 15 to 20)
#    0.000    1.600    6.667    1.200    1.867    0.000 
#    4.800    0.667    0.000    0.000    0.000    0.000 
#    0.000    0.000    0.000    0.000    0.000    0.000 
#
# Total GULP energy -371753.286344 kJ/mol
# GULP energy per Si atom -12391.776211 kJ/mol
# Density = 1.977014 g / cm^3
# Si number density = 19.815241 Si / 1000 Ang^3
#
#
#
# Elastic Constant Matrix: (Units=GPa)
#
#
# Indices 1 2 3 4 5 6 
#
# 1 121.6363 51.8393 32.4354 0.0000 8.8901 0.0000
# 2 51.8393 71.6729 32.1623 0.0000 -7.3118 0.0000
# 3 32.4354 32.1623 76.7897 0.0000 -8.2309 0.0000
# 4 0.0000 0.0000 0.0000 37.4441 0.0000 -2.7131
# 5 8.8901 -7.3118 -8.2309 0.0000 28.2363 0.0000
# 6 0.0000 0.0000 0.0000 -2.7131 0.0000 39.4680
#
#
#
# Elastic Compliance Matrix: (Units=1/GPa)
#
#
# Indices 1 2 3 4 5 6 
#
# 1 0.013406 -0.009301 -0.002558 0.000000 -0.007375 0.000000
# 2 -0.009301 0.023797 -0.005227 0.000000 0.007567 0.000000
# 3 -0.002558 -0.005227 0.016757 0.000000 0.004336 0.000000
# 4 0.000000 0.000000 0.000000 0.026840 0.000000 0.001845
# 5 -0.007375 0.007567 0.004336 0.000000 0.040961 0.000000
# 6 0.000000 0.000000 0.000000 0.001845 0.000000 0.025464
#
#
# Mechanical properties :
#
#
# Convention : Reuss Voigt Hill
#
# Bulk Modulus (GPa) = 50.53437 55.88588 53.21012
# Shear Modulus (GPa) = 26.59668 31.27380 28.93524
#
# Velocity S-wave (km/s) = 3.66763 3.97705 3.82547
# Velocity P-wave (km/s) = 6.59496 7.02524 6.81350
#
# Compressibility (1/GPa) = 0.01978851
#
# Stress axis : x y z
#
# Youngs Moduli (GPa) = 74.59236 42.02176 59.67635
#
# Poissons Ratio (x) = 0.39085 0.15262
# Poissons Ratio (y) = 0.69379 0.31195
# Poissons Ratio (z) = 0.19077 0.21966
#
# Static dielectric constant tensor:
#      x y z
#    x 3.920330 0.000000 0.194020 
#    y 0.000000 2.813170 0.000000 
#    z 0.194020 0.000000 2.997630 
# 
# 
# High freq. dielectric constant tensor:
#      x y z
#    x 1.768520 0.000000 0.006240 
#    y 0.000000 1.759820 0.000000 
#    z 0.006240 0.000000 1.769910 
# 
# From -- ./inp_files/273836.got.cif
#   From: 2010.06.25/outbox.cif.g09.slc.cpg/sg15_137_cif.got.tgz:273836.got - 2010.06.28 07:06:18.
