data_PCOD8132303
_publ_section_title
;
Structure prediction by ZEFSAII (Michael W. Deem and Ramdas Pophale) SiO2 
 PCOD8132303
Probable space group: C 2/C
;
_chemical_formula_sum "Si O2"
_cell_formula_units_Z 52
_cell_length_a 8.993878
_cell_length_b 27.672332
_cell_length_c 11.580812
_cell_angle_alpha 90.000000
_cell_angle_beta 59.209555
_cell_angle_gamma 90.000000
_cell_volume 2475.983905
_symmetry_space_group_name_H-M "C 2/C"
_symmetry_group_IT_number 15
_symmetry_cell_setting 'monoclinic'
loop_
_space_group_symop_operation_xyz
x,y,z
-x,y,1/2-z
-x,-y,-z
x,-y,1/2+z
1/2+x,1/2+y,z
1/2-x,1/2+y,1/2-z
1/2-x,1/2-y,-z
1/2+x,1/2-y,1/2+z
loop_
_atom_site_type_symbol
_atom_site_label
_atom_site_fract_x
_atom_site_fract_y
_atom_site_fract_z
Si Si1 0.000000 0.823659 0.750000
Si Si2 0.952938 0.837504 0.397486
Si Si3 0.075312 0.765807 0.510758
Si Si4 0.802461 0.603850 0.168420
Si Si5 0.563814 0.183103 0.096299
Si Si6 0.629001 0.432409 0.960451
Si Si7 0.360746 0.521820 0.401450
O O1 0.957598 0.788687 0.659170
O O2 0.164952 0.858423 0.670211
O O3 0.769512 0.815625 0.510120
O O4 0.948901 0.894357 0.418875
O O5 0.000000 0.825241 0.250000
O O6 0.101458 0.810355 0.411828
O O7 0.250000 0.750000 0.500000
O O8 0.994297 0.720695 0.477624
O O9 0.766412 0.591071 0.317353
O O10 0.791159 0.554802 0.095511
O O11 0.989829 0.629671 0.090324
O O12 0.500000 0.198034 0.250000
O O13 0.460326 0.448401 0.958544
O O14 0.718135 0.474909 0.001875
O O15 0.500000 0.505511 0.250000
#
# Coordination Sequence:
#
# PCOD8132303 Si02
#       7
#     4   8   8   8   8   8   8
#     4  12  20  42  64  98 130 176 228 282 324 412
#     4  12  26  43  63  95 137 175 218 281 347 398
#     4  12  26  40  68  97 130 174 232 278 332 411
#     4  11  19  39  66  94 133 178 228 273 337 411
#     4  12  25  45  67  95 135 183 226 277 344 405
#     4  10  18  36  63  94 132 170 220 271 330 401
#     4   9  18  32  63 101 127 168 227 276 326 403
#
# _framework density 21.001753000000001
#
# number of rings (size 3 to 8) (size 9 to 14) (size 15 to 20)
#    0.000    0.923    6.923    1.385    2.154    0.000 
#    0.000    0.769    0.000    0.000    0.000    0.000 
#    0.000    0.000    0.000    0.000    0.000    0.000 
#
# Total GULP energy -322245.843337 kJ/mol
# GULP energy per Si atom -12394.070898 kJ/mol
# Density = 2.095395 g / cm^3
# Si number density = 21.001753 Si / 1000 Ang^3
#
#
#
# Elastic Constant Matrix: (Units=GPa)
#
#
# Indices 1 2 3 4 5 6 
#
# 1 81.5382 38.6703 36.1487 0.0000 17.4147 0.0000
# 2 38.6703 126.9768 50.9723 0.0000 20.5217 0.0000
# 3 36.1487 50.9723 111.9892 0.0000 27.3576 0.0000
# 4 0.0000 0.0000 0.0000 34.6685 0.0000 22.1860
# 5 17.4147 20.5217 27.3576 0.0000 35.3347 0.0000
# 6 0.0000 0.0000 0.0000 22.1860 0.0000 31.0388
#
#
#
# Elastic Compliance Matrix: (Units=1/GPa)
#
#
# Indices 1 2 3 4 5 6 
#
# 1 0.015764 -0.003075 -0.002747 0.000000 -0.003857 0.000000
# 2 -0.003075 0.010452 -0.003271 0.000000 -0.002022 0.000000
# 3 -0.002747 -0.003271 0.012961 0.000000 -0.006782 0.000000
# 4 0.000000 0.000000 0.000000 0.053162 0.000000 -0.038000
# 5 -0.003857 -0.002022 -0.006782 0.000000 0.036627 0.000000
# 6 0.000000 0.000000 0.000000 -0.038000 0.000000 0.059379
#
#
# Mechanical properties :
#
#
# Convention : Reuss Voigt Hill
#
# Bulk Modulus (GPa) = 47.63537 63.56520 55.60029
# Shear Modulus (GPa) = 23.41620 33.18926 28.30273
#
# Velocity S-wave (km/s) = 3.34273 3.97962 3.67500
# Velocity P-wave (km/s) = 6.13427 7.17279 6.67376
#
# Compressibility (1/GPa) = 0.02099280
#
# Stress axis : x y z
#
# Youngs Moduli (GPa) = 63.43604 95.67857 77.15223
#
# Poissons Ratio (x) = 0.29420 0.21191
# Poissons Ratio (y) = 0.19506 0.25233
# Poissons Ratio (z) = 0.17424 0.31292
#
# Static dielectric constant tensor:
#      x y z
#    x 4.054080 0.000000 0.745290 
#    y 0.000000 4.290560 0.000000 
#    z 0.745290 0.000000 4.460570 
# 
# 
# High freq. dielectric constant tensor:
#      x y z
#    x 1.817570 0.000000 0.035760 
#    y 0.000000 1.839420 0.000000 
#    z 0.035760 0.000000 1.803560 
# 
# From -- ./inp_files/82087.got.cif
#   From: 2010.06.25/outbox.cif.g09.slc.cpg/sg15_42_cif.got.tgz:82087.got - 2010.06.28 07:06:18.
