data_PCOD8132922
_publ_section_title
;
Structure prediction by ZEFSAII (Michael W. Deem and Ramdas Pophale) SiO2 
 PCOD8132922
Probable space group: C 2/C
;
_chemical_formula_sum "Si O2"
_cell_formula_units_Z 60
_cell_length_a 23.283411
_cell_length_b 17.695963
_cell_length_c 15.085098
_cell_angle_alpha 90.000000
_cell_angle_beta 149.932072
_cell_angle_gamma 90.000000
_cell_volume 3114.078345
_symmetry_space_group_name_H-M "C 2/C"
_symmetry_group_IT_number 15
_symmetry_cell_setting 'monoclinic'
loop_
_space_group_symop_operation_xyz
x,y,z
-x,y,1/2-z
-x,-y,-z
x,-y,1/2+z
1/2+x,1/2+y,z
1/2-x,1/2+y,1/2-z
1/2-x,1/2-y,-z
1/2+x,1/2-y,1/2+z
loop_
_atom_site_type_symbol
_atom_site_label
_atom_site_fract_x
_atom_site_fract_y
_atom_site_fract_z
Si Si1 0.708092 0.102239 0.046015
Si Si2 0.626593 0.007214 0.779880
Si Si3 0.644749 0.268055 0.797367
Si Si4 0.844437 0.343914 0.666878
Si Si5 0.865804 0.490107 0.409267
Si Si6 0.087755 0.319900 0.052344
Si Si7 0.000000 0.289108 0.250000
Si Si8 0.375545 0.722013 0.560585
O O1 0.829058 0.148955 0.210161
O O2 0.714268 0.035078 0.127628
O O3 0.603593 0.159273 0.924492
O O4 0.690779 0.069910 0.923415
O O5 0.643125 0.928485 0.853358
O O6 0.491934 0.026264 0.591293
O O7 0.678608 0.997232 0.750491
O O8 0.633826 0.201012 0.710673
O O9 0.533382 0.265523 0.711974
O O10 0.750000 0.250000 0.000000
O O11 0.724954 0.338467 0.560759
O O12 0.849031 0.293008 0.586940
O O13 0.949378 0.323965 0.872716
O O14 0.863592 0.399385 0.419953
O O15 0.127633 0.251591 0.043385
O O16 0.500000 0.686238 0.750000
#
# Coordination Sequence:
#
# PCOD8132922 Si02
#       8
#     8   8   8   8   8   8   4   8
#     4  11  20  35  56  83 113 154 193 243 302 350
#     4  10  19  31  52  81 113 143 190 236 301 339
#     4  10  23  35  54  81 117 160 201 232 293 349
#     4   9  19  32  56  84 111 148 183 237 300 342
#     4  10  19  30  54  80 114 144 185 247 298 338
#     4  10  20  34  53  84 118 144 196 240 292 344
#     4  10  20  36  52  74 116 148 198 246 284 342
#     4   9  18  34  54  83 112 143 184 230 292 355
#
# _framework density 19.267337999999999
#
# number of rings (size 3 to 8) (size 9 to 14) (size 15 to 20)
#    0.000    2.133    1.333    2.400    5.600    3.200 
#    0.000    0.000    1.467    0.000    0.000    8.400 
#    0.000    0.000    0.000    0.000    0.000    0.000 
#
# Total GULP energy -371810.206520 kJ/mol
# GULP energy per Si atom -12393.673551 kJ/mol
# Density = 1.922348 g / cm^3
# Si number density = 19.267338 Si / 1000 Ang^3
#
#
#
# Elastic Constant Matrix: (Units=GPa)
#
#
# Indices 1 2 3 4 5 6 
#
# 1 111.1852 49.4484 40.8622 0.0000 -1.9691 0.0000
# 2 49.4484 80.9863 34.3153 0.0000 0.6082 0.0000
# 3 40.8622 34.3153 59.9799 0.0000 -3.3238 0.0000
# 4 0.0000 0.0000 0.0000 26.9281 0.0000 -0.7818
# 5 -1.9691 0.6082 -3.3238 0.0000 30.6384 0.0000
# 6 0.0000 0.0000 0.0000 -0.7818 0.0000 31.9996
#
#
#
# Elastic Compliance Matrix: (Units=1/GPa)
#
#
# Indices 1 2 3 4 5 6 
#
# 1 0.013841 -0.005896 -0.006037 0.000000 0.000352 0.000000
# 2 -0.005896 0.018865 -0.006860 0.000000 -0.001498 0.000000
# 3 -0.006037 -0.006860 0.024845 0.000000 0.002443 0.000000
# 4 0.000000 0.000000 0.000000 0.037162 0.000000 0.000908
# 5 0.000352 -0.001498 0.002443 0.000000 0.032956 0.000000
# 6 0.000000 0.000000 0.000000 0.000908 0.000000 0.031273
#
#
# Mechanical properties :
#
#
# Convention : Reuss Voigt Hill
#
# Bulk Modulus (GPa) = 50.08305 55.71149 52.89727
# Shear Modulus (GPa) = 24.60849 26.41490 25.51169
#
# Velocity S-wave (km/s) = 3.57769 3.70668 3.64275
# Velocity P-wave (km/s) = 6.56633 6.87728 6.72360
#
# Compressibility (1/GPa) = 0.01996684
#
# Stress axis : x y z
#
# Youngs Moduli (GPa) = 72.24969 53.00732 40.24987
#
# Poissons Ratio (x) = 0.31251 0.24298
# Poissons Ratio (y) = 0.42596 0.27610
# Poissons Ratio (z) = 0.43616 0.36361
#
# Static dielectric constant tensor:
#      x y z
#    x 3.852100 0.000000 0.086520 
#    y 0.000000 3.747420 0.000000 
#    z 0.086520 0.000000 3.407040 
# 
# 
# High freq. dielectric constant tensor:
#      x y z
#    x 1.748860 0.000000 -0.021380 
#    y 0.000000 1.743190 0.000000 
#    z -0.021380 0.000000 1.718200 
# 
# From -- ./inp_files/174111.got.cif
#   From: 2010.06.25/outbox.cif.g09.slc.cpg/sg15_88_cif.got.tgz:174111.got - 2010.06.28 07:06:18.
