data_PCOD8132298
_publ_section_title
;
Structure prediction by ZEFSAII (Michael W. Deem and Ramdas Pophale) SiO2 
 PCOD8132298
Probable space group: C 2/C
;
_chemical_formula_sum "Si O2"
_cell_formula_units_Z 56
_cell_length_a 15.690278
_cell_length_b 8.998583
_cell_length_c 20.440848
_cell_angle_alpha 90.000000
_cell_angle_beta 66.391248
_cell_angle_gamma 90.000000
_cell_volume 2644.491055
_symmetry_space_group_name_H-M "C 2/C"
_symmetry_group_IT_number 15
_symmetry_cell_setting 'monoclinic'
loop_
_space_group_symop_operation_xyz
x,y,z
-x,y,1/2-z
-x,-y,-z
x,-y,1/2+z
1/2+x,1/2+y,z
1/2-x,1/2+y,1/2-z
1/2-x,1/2-y,-z
1/2+x,1/2-y,1/2+z
loop_
_atom_site_type_symbol
_atom_site_label
_atom_site_fract_x
_atom_site_fract_y
_atom_site_fract_z
Si Si1 0.053193 0.509024 0.836672
Si Si2 0.131150 0.441239 0.175399
Si Si3 0.980142 0.807059 0.578228
Si Si4 0.699425 0.395808 0.935016
Si Si5 0.234744 0.068845 0.572227
Si Si6 0.424499 0.396551 0.825988
Si Si7 0.083778 0.392038 0.957056
O O1 0.119951 0.504735 0.753399
O O2 0.085502 0.378776 0.877006
O O3 0.946177 0.482963 0.847716
O O4 0.065027 0.664554 0.871538
O O5 0.233179 0.483879 0.119531
O O6 0.115370 0.265463 0.178296
O O7 0.029265 0.907459 0.617086
O O8 0.059478 0.763048 0.500125
O O9 0.098455 0.094687 0.432943
O O10 0.738338 0.231084 0.911624
O O11 0.689595 0.429405 0.014431
O O12 0.160768 0.010986 0.648172
O O13 0.321556 0.956952 0.542826
O O14 0.500000 0.447616 0.750000
O O15 0.000000 0.500000 0.000000
#
# Coordination Sequence:
#
# PCOD8132298 Si02
#       7
#     8   8   8   8   8   8   8
#     4   9  17  36  59  90 112 172 206 250 300 379
#     4  10  20  38  68  86 123 166 218 250 309 376
#     4  10  20  38  65  87 125 165 204 258 311 367
#     4  11  23  39  61  96 124 157 208 265 309 373
#     4  11  24  39  64  93 124 164 209 258 318 369
#     4  11  23  45  64  88 127 170 208 257 314 380
#     4  10  18  36  63  89 121 164 206 243 307 380
#
# _framework density 21.176096999999999
#
# number of rings (size 3 to 8) (size 9 to 14) (size 15 to 20)
#    0.000    1.714    5.714    2.571    2.000    4.000 
#    2.571    0.000    0.000    0.000    0.000    0.000 
#    0.000    0.000    0.000    0.000    0.000    0.000 
#
# Total GULP energy -347186.046410 kJ/mol
# GULP energy per Si atom -12399.501658 kJ/mol
# Density = 2.112790 g / cm^3
# Si number density = 21.176097 Si / 1000 Ang^3
#
#
#
# Elastic Constant Matrix: (Units=GPa)
#
#
# Indices 1 2 3 4 5 6 
#
# 1 109.1040 30.9413 45.7288 0.0000 -0.0036 0.0000
# 2 30.9413 34.4933 35.7167 0.0000 -10.1863 0.0001
# 3 45.7288 35.7167 105.4276 0.0000 -0.6772 0.0000
# 4 0.0000 0.0000 0.0000 23.5115 0.0000 -12.9076
# 5 -0.0036 -10.1863 -0.6772 0.0000 47.7907 0.0000
# 6 0.0000 0.0001 0.0000 -12.9076 0.0000 23.8703
#
#
#
# Elastic Compliance Matrix: (Units=1/GPa)
#
#
# Indices 1 2 3 4 5 6 
#
# 1 0.012915 -0.009858 -0.002276 0.000000 -0.002133 0.000000
# 2 -0.009858 0.056741 -0.014870 0.000000 0.011883 0.000000
# 3 -0.002276 -0.014870 0.015491 0.000000 -0.002950 0.000000
# 4 0.000000 0.000000 0.000000 0.060489 0.000000 0.032709
# 5 -0.002133 0.011883 -0.002950 0.000000 0.023415 0.000000
# 6 0.000000 0.000000 0.000000 0.032709 0.000000 0.059580
#
#
# Mechanical properties :
#
#
# Convention : Reuss Voigt Hill
#
# Bulk Modulus (GPa) = 32.11470 52.64428 42.37949
# Shear Modulus (GPa) = 17.06361 28.14370 22.60365
#
# Velocity S-wave (km/s) = 2.84173 3.64954 3.27067
# Velocity P-wave (km/s) = 5.09566 6.53246 5.85828
#
# Compressibility (1/GPa) = 0.03113839
#
# Stress axis : x y z
#
# Youngs Moduli (GPa) = 77.42853 17.62379 64.55304
#
# Poissons Ratio (x) = 0.17374 0.14691
# Poissons Ratio (y) = 0.76333 0.95993
# Poissons Ratio (z) = 0.17621 0.26207
#
# Static dielectric constant tensor:
#      x y z
#    x 3.928340 0.000000 0.278980 
#    y 0.000000 3.605120 0.000000 
#    z 0.278980 0.000000 4.212850 
# 
# 
# High freq. dielectric constant tensor:
#      x y z
#    x 1.832760 0.000000 0.008560 
#    y 0.000000 1.796580 0.000000 
#    z 0.008560 0.000000 1.837620 
# 
# From -- ./inp_files/247344.got.cif
#   From: 2010.06.25/outbox.cif.g09.slc.cpg/sg15_124_cif.got.tgz:247344.got - 2010.06.28 07:06:18.
