data_PCOD8132219
_publ_section_title
;
Structure prediction by ZEFSAII (Michael W. Deem and Ramdas Pophale) SiO2 
 PCOD8132219
Probable space group: C 2/C
;
_chemical_formula_sum "Si O2"
_cell_formula_units_Z 56
_cell_length_a 19.883528
_cell_length_b 10.041321
_cell_length_c 19.849540
_cell_angle_alpha 90.000000
_cell_angle_beta 46.282252
_cell_angle_gamma 90.000000
_cell_volume 2864.340921
_symmetry_space_group_name_H-M "C 2/C"
_symmetry_group_IT_number 15
_symmetry_cell_setting 'monoclinic'
loop_
_space_group_symop_operation_xyz
x,y,z
-x,y,1/2-z
-x,-y,-z
x,-y,1/2+z
1/2+x,1/2+y,z
1/2-x,1/2+y,1/2-z
1/2-x,1/2-y,-z
1/2+x,1/2-y,1/2+z
loop_
_atom_site_type_symbol
_atom_site_label
_atom_site_fract_x
_atom_site_fract_y
_atom_site_fract_z
Si Si1 0.848406 0.183020 0.772802
Si Si2 0.655850 0.909807 0.432502
Si Si3 0.675336 0.830991 0.845229
Si Si4 0.000000 0.315298 0.750000
Si Si5 0.944438 0.536238 0.888416
Si Si6 0.616542 0.380381 0.781272
Si Si7 0.500000 0.245423 0.750000
Si Si8 0.995045 0.718363 0.542291
O O1 0.745119 0.183938 0.875219
O O2 0.851942 0.292431 0.711546
O O3 0.914038 0.221139 0.789851
O O4 0.872799 0.038809 0.725743
O O5 0.563685 0.821057 0.483621
O O6 0.663843 0.011054 0.363934
O O7 0.649561 0.991431 0.507484
O O8 0.784834 0.800194 0.783172
O O9 0.602836 0.754706 0.946182
O O10 0.983639 0.404083 0.827074
O O11 0.930716 0.652127 0.842430
O O12 0.012343 0.595916 0.899115
O O13 0.566774 0.337915 0.747089
O O14 0.551511 0.346987 0.890631
#
# Coordination Sequence:
#
# PCOD8132219 Si02
#       8
#     8   8   8   4   8   8   4   8
#     4  11  22  35  54  81 117 147 181 225 281 332
#     4  10  19  35  58  83 107 143 189 233 272 322
#     4  10  20  36  57  83 108 144 189 231 273 323
#     4  11  21  36  54  80 115 147 180 228 280 331
#     4   9  19  35  58  82 102 143 193 226 272 319
#     4  10  21  37  55  84 112 150 185 222 281 332
#     4   9  19  38  58  78 115 147 182 230 276 327
#     4  10  18  36  60  80 110 143 186 237 270 321
#
# _framework density 19.550746
#
# number of rings (size 3 to 8) (size 9 to 14) (size 15 to 20)
#    0.000    2.000    1.429    3.857    0.000    1.143 
#    0.000   12.857    0.000    0.000    0.000    0.000 
#    0.000    0.000    0.000    0.000    0.000    0.000 
#
# Total GULP energy -346955.723723 kJ/mol
# GULP energy per Si atom -12391.275847 kJ/mol
# Density = 1.950625 g / cm^3
# Si number density = 19.550746 Si / 1000 Ang^3
#
#
#
# Elastic Constant Matrix: (Units=GPa)
#
#
# Indices 1 2 3 4 5 6 
#
# 1 106.3896 22.9657 31.0399 0.0000 -5.2117 0.0000
# 2 22.9657 53.4240 17.6564 0.0000 -2.1583 0.0000
# 3 31.0399 17.6564 81.9151 0.0000 -5.1587 0.0000
# 4 0.0000 0.0000 0.0000 23.4079 0.0000 -0.9619
# 5 -5.2117 -2.1583 -5.1587 0.0000 29.9774 0.0000
# 6 0.0000 0.0000 0.0000 -0.9619 0.0000 21.8462
#
#
#
# Elastic Compliance Matrix: (Units=1/GPa)
#
#
# Indices 1 2 3 4 5 6 
#
# 1 0.011236 -0.003662 -0.003399 0.000000 0.001105 0.000000
# 2 -0.003662 0.021362 -0.003195 0.000000 0.000352 0.000000
# 3 -0.003399 -0.003195 0.014287 0.000000 0.001638 0.000000
# 4 0.000000 0.000000 0.000000 0.042798 0.000000 0.001885
# 5 0.001105 0.000352 0.001638 0.000000 0.033858 0.000000
# 6 0.000000 0.000000 0.000000 0.001885 0.000000 0.045858
#
#
# Mechanical properties :
#
#
# Convention : Reuss Voigt Hill
#
# Bulk Modulus (GPa) = 37.91528 42.78363 40.34945
# Shear Modulus (GPa) = 25.16342 26.38407 25.77375
#
# Velocity S-wave (km/s) = 3.59149 3.67756 3.63478
# Velocity P-wave (km/s) = 6.05258 6.32167 6.18859
#
# Compressibility (1/GPa) = 0.02637459
#
# Stress axis : x y z
#
# Youngs Moduli (GPa) = 89.00279 46.81109 69.99209
#
# Poissons Ratio (x) = 0.17143 0.23787
# Poissons Ratio (y) = 0.32593 0.22361
# Poissons Ratio (z) = 0.30248 0.14955
#
# Static dielectric constant tensor:
#      x y z
#    x 3.492310 0.000000 -0.065680 
#    y 0.000000 3.397440 0.000000 
#    z -0.065680 0.000000 3.710840 
# 
# 
# High freq. dielectric constant tensor:
#      x y z
#    x 1.752840 0.000000 0.000210 
#    y 0.000000 1.746880 0.000000 
#    z 0.000210 0.000000 1.763690 
# 
# From -- ./inp_files/167230.got.cif
#   From: 2010.06.25/outbox.cif.g09.slc.cpg/sg15_84_cif.got.tgz:167230.got - 2010.06.28 07:06:18.
