data_PCOD8132448
_publ_section_title
;
Structure prediction by ZEFSAII (Michael W. Deem and Ramdas Pophale) SiO2 
 PCOD8132448
Probable space group: C 2/C
;
_chemical_formula_sum "Si O2"
_cell_formula_units_Z 32
_cell_length_a 7.411183
_cell_length_b 22.522352
_cell_length_c 9.750212
_cell_angle_alpha 90.000000
_cell_angle_beta 129.381121
_cell_angle_gamma 90.000000
_cell_volume 1257.947811
_symmetry_space_group_name_H-M "C 2/C"
_symmetry_group_IT_number 15
_symmetry_cell_setting 'monoclinic'
loop_
_space_group_symop_operation_xyz
x,y,z
-x,y,1/2-z
-x,-y,-z
x,-y,1/2+z
1/2+x,1/2+y,z
1/2-x,1/2+y,1/2-z
1/2-x,1/2-y,-z
1/2+x,1/2-y,1/2+z
loop_
_atom_site_type_symbol
_atom_site_label
_atom_site_fract_x
_atom_site_fract_y
_atom_site_fract_z
Si Si1 0.042021 0.096560 0.095895
Si Si2 0.783797 0.818281 0.047386
Si Si3 0.939825 0.383601 0.066802
Si Si4 0.705904 0.478095 0.247839
O O1 0.840436 0.122503 0.102448
O O2 0.861939 0.053225 0.927399
O O3 0.229772 0.050141 0.250834
O O4 0.174554 0.146757 0.074883
O O5 0.550092 0.839568 0.008608
O O6 0.000000 0.830860 0.250000
O O7 0.750000 0.750000 0.000000
O O8 0.044393 0.450101 0.090169
O O9 0.000000 0.360469 0.250000
O O10 0.500000 0.458379 0.250000
#
# Coordination Sequence:
#
# PCOD8132448 Si02
#       4
#     8   8   8   8
#     4  10  21  39  63  94 126 172 210 264 331 386
#     4  12  24  47  65  90 131 174 225 271 314 388
#     4  10  19  41  66  88 127 170 206 263 335 376
#     4  10  18  37  63  93 131 160 208 262 324 400
#
# _framework density 25.438255999999999
#
# number of rings (size 3 to 8) (size 9 to 14) (size 15 to 20)
#    0.000    1.500    7.500    0.000    0.000    2.000 
#   13.500    0.000    0.000    0.000    0.000    0.000 
#    0.000    0.000    0.000    0.000    0.000    0.000 
#
# Total GULP energy -198374.313568 kJ/mol
# GULP energy per Si atom -12398.394598 kJ/mol
# Density = 2.538036 g / cm^3
# Si number density = 25.438256 Si / 1000 Ang^3
#
#
#
# Elastic Constant Matrix: (Units=GPa)
#
#
# Indices 1 2 3 4 5 6 
#
# 1 225.2608 100.5861 35.4324 0.0000 4.0568 0.0000
# 2 100.5861 189.5758 33.4231 0.0000 -5.7937 0.0000
# 3 35.4324 33.4231 76.0380 0.0000 25.5083 0.0000
# 4 0.0000 0.0000 0.0000 33.1225 0.0000 -12.6125
# 5 4.0568 -5.7937 25.5083 0.0000 24.9198 0.0000
# 6 0.0000 0.0000 0.0000 -12.6125 0.0000 34.8880
#
#
#
# Elastic Compliance Matrix: (Units=1/GPa)
#
#
# Indices 1 2 3 4 5 6 
#
# 1 0.005973 -0.002921 -0.001440 0.000000 -0.000177 0.000000
# 2 -0.002921 0.007789 -0.004310 0.000000 0.006698 0.000000
# 3 -0.001440 -0.004310 0.024328 0.000000 -0.025670 0.000000
# 4 0.000000 0.000000 0.000000 0.035010 0.000000 0.012657
# 5 -0.000177 0.006698 -0.025670 0.000000 0.067992 0.000000
# 6 0.000000 0.000000 0.000000 0.012657 0.000000 0.033239
#
#
# Mechanical properties :
#
#
# Convention : Reuss Voigt Hill
#
# Bulk Modulus (GPa) = 48.19351 92.19533 70.19442
# Shear Modulus (GPa) = 25.17761 40.01492 32.59627
#
# Velocity S-wave (km/s) = 3.14945 3.97044 3.58353
# Velocity P-wave (km/s) = 5.67554 7.57236 6.69150
#
# Compressibility (1/GPa) = 0.02074968
#
# Stress axis : x y z
#
# Youngs Moduli (GPa) = 167.41265 128.38264 41.10437
#
# Poissons Ratio (x) = 0.37499 0.05919
# Poissons Ratio (y) = 0.48899 0.17715
# Poissons Ratio (z) = 0.24108 0.55329
#
# Static dielectric constant tensor:
#      x y z
#    x 5.006870 0.000000 -0.065470 
#    y 0.000000 4.387040 0.000000 
#    z -0.065470 0.000000 4.896540 
# 
# 
# High freq. dielectric constant tensor:
#      x y z
#    x 2.040020 0.000000 -0.005760 
#    y 0.000000 1.985000 0.000000 
#    z -0.005760 0.000000 2.034660 
# 
# From -- ./inp_files/133641.got.cif
#   From: 2010.06.25/outbox.cif.g09.slc.cpg/sg15_67_cif.got.tgz:133641.got - 2010.06.28 07:06:18.
