data_PCOD8132780
_publ_section_title
;
Structure prediction by ZEFSAII (Michael W. Deem and Ramdas Pophale) SiO2 
 PCOD8132780
Probable space group: C 2/C
;
_chemical_formula_sum "Si O2"
_cell_formula_units_Z 56
_cell_length_a 29.962235
_cell_length_b 12.635640
_cell_length_c 14.359540
_cell_angle_alpha 90.000000
_cell_angle_beta 29.432137
_cell_angle_gamma 90.000000
_cell_volume 2671.408832
_symmetry_space_group_name_H-M "C 2/C"
_symmetry_group_IT_number 15
_symmetry_cell_setting 'monoclinic'
loop_
_space_group_symop_operation_xyz
x,y,z
-x,y,1/2-z
-x,-y,-z
x,-y,1/2+z
1/2+x,1/2+y,z
1/2-x,1/2+y,1/2-z
1/2-x,1/2-y,-z
1/2+x,1/2-y,1/2+z
loop_
_atom_site_type_symbol
_atom_site_label
_atom_site_fract_x
_atom_site_fract_y
_atom_site_fract_z
Si Si1 0.819970 0.333222 0.417803
Si Si2 0.452883 0.327144 0.426525
Si Si3 0.774593 0.966242 0.045515
Si Si4 0.710681 0.197092 0.164522
Si Si5 0.013662 0.960969 0.872422
Si Si6 0.512620 0.755078 0.011630
Si Si7 0.744285 0.232932 0.721850
O O1 0.750000 0.250000 0.500000
O O2 0.780451 0.445024 0.451899
O O3 0.923773 0.323729 0.195845
O O4 0.814763 0.310698 0.538066
O O5 0.500000 0.276536 0.250000
O O6 0.459393 0.456309 0.405602
O O7 0.509144 0.290595 0.413785
O O8 0.351552 0.288618 0.619286
O O9 0.740292 0.886186 0.188406
O O10 0.758312 0.086941 0.103142
O O11 0.880733 0.950598 0.841404
O O12 0.603073 0.174554 0.352192
O O13 0.730158 0.274517 0.216202
O O14 0.750000 0.250000 0.000000
O O15 0.975288 0.841316 0.935869
O O16 0.000000 0.000000 0.000000
#
# Coordination Sequence:
#
# PCOD8132780 Si02
#       7
#     8   8   8   8   8   8   8
#     4  10  18  41  70  94 123 173 227 270 321 406
#     4  11  21  37  64  96 127 175 227 272 335 404
#     4  11  22  44  71  96 135 181 218 271 350 399
#     4  12  28  43  61 103 145 169 217 292 339 387
#     4  10  19  35  65  97 123 164 223 277 332 383
#     4  11  21  40  65  92 131 169 220 280 328 393
#     4  11  23  44  69  94 135 180 227 273 337 418
#
# _framework density 20.962723
#
# number of rings (size 3 to 8) (size 9 to 14) (size 15 to 20)
#    0.000    1.143    5.714    4.286    0.000    4.571 
#    0.000    0.000    0.000    0.000    0.000    0.000 
#    0.000    0.000    0.000    0.000    0.000    0.000 
#
# Total GULP energy -347036.925409 kJ/mol
# GULP energy per Si atom -12394.175907 kJ/mol
# Density = 2.091501 g / cm^3
# Si number density = 20.962723 Si / 1000 Ang^3
#
#
#
# Elastic Constant Matrix: (Units=GPa)
#
#
# Indices 1 2 3 4 5 6 
#
# 1 92.7905 25.0927 36.5779 0.0000 19.7078 0.0000
# 2 25.0927 81.7272 39.6298 0.0000 7.1216 0.0000
# 3 36.5779 39.6298 124.4573 0.0000 6.4739 0.0000
# 4 0.0000 0.0000 0.0000 34.4342 0.0000 -6.6811
# 5 19.7078 7.1216 6.4739 0.0000 35.5740 0.0000
# 6 0.0000 0.0000 0.0000 -6.6811 0.0000 22.8402
#
#
#
# Elastic Compliance Matrix: (Units=1/GPa)
#
#
# Indices 1 2 3 4 5 6 
#
# 1 0.014023 -0.002233 -0.003059 0.000000 -0.006765 0.000000
# 2 -0.002233 0.014979 -0.004060 0.000000 -0.001023 0.000000
# 3 -0.003059 -0.004060 0.010193 0.000000 0.000652 0.000000
# 4 0.000000 0.000000 0.000000 0.030788 0.000000 0.009006
# 5 -0.006765 -0.001023 0.000652 0.000000 0.031944 0.000000
# 6 0.000000 0.000000 0.000000 0.009006 0.000000 0.046417
#
#
# Mechanical properties :
#
#
# Convention : Reuss Voigt Hill
#
# Bulk Modulus (GPa) = 48.79980 55.73065 52.26523
# Shear Modulus (GPa) = 28.75561 31.74799 30.25180
#
# Velocity S-wave (km/s) = 3.70773 3.89588 3.80297
# Velocity P-wave (km/s) = 6.45442 6.84693 6.65357
#
# Compressibility (1/GPa) = 0.02049189
#
# Stress axis : x y z
#
# Youngs Moduli (GPa) = 71.30970 66.75846 98.10931
#
# Poissons Ratio (x) = 0.14907 0.30007
# Poissons Ratio (y) = 0.15923 0.39835
# Poissons Ratio (z) = 0.21810 0.27106
#
# Static dielectric constant tensor:
#      x y z
#    x 4.089050 0.000000 0.305380 
#    y 0.000000 3.873900 0.000000 
#    z 0.305380 0.000000 3.961540 
# 
# 
# High freq. dielectric constant tensor:
#      x y z
#    x 1.814300 0.000000 0.007400 
#    y 0.000000 1.798200 0.000000 
#    z 0.007400 0.000000 1.837770 
# 
# From -- ./inp_files/181932.got.cif
#   From: 2010.06.25/outbox.cif.g09.slc.cpg/sg15_91_cif.got.tgz:181932.got - 2010.06.28 07:06:18.
