data_PCOD8132959
_publ_section_title
;
Structure prediction by ZEFSAII (Michael W. Deem and Ramdas Pophale) SiO2 
 PCOD8132959
Probable space group: C 2/C
;
_chemical_formula_sum "Si O2"
_cell_formula_units_Z 56
_cell_length_a 5.119944
_cell_length_b 22.729399
_cell_length_c 26.800525
_cell_angle_alpha 90.000000
_cell_angle_beta 77.286785
_cell_angle_gamma 90.000000
_cell_volume 3042.401534
_symmetry_space_group_name_H-M "C 2/C"
_symmetry_group_IT_number 15
_symmetry_cell_setting 'monoclinic'
loop_
_space_group_symop_operation_xyz
x,y,z
-x,y,1/2-z
-x,-y,-z
x,-y,1/2+z
1/2+x,1/2+y,z
1/2-x,1/2+y,1/2-z
1/2-x,1/2-y,-z
1/2+x,1/2-y,1/2+z
loop_
_atom_site_type_symbol
_atom_site_label
_atom_site_fract_x
_atom_site_fract_y
_atom_site_fract_z
Si Si1 0.631971 0.064645 0.879903
Si Si2 0.565199 0.572203 0.445158
Si Si3 0.115864 0.170614 0.189373
Si Si4 0.221865 0.358324 0.283709
Si Si5 0.938466 0.932861 0.058806
Si Si6 0.113621 0.731979 0.191889
Si Si7 0.360255 0.925730 0.616228
O O1 0.620006 0.092347 0.825635
O O2 0.366065 0.085886 0.919360
O O3 0.878949 0.088339 0.902579
O O4 0.651072 0.994773 0.871836
O O5 0.550783 0.502368 0.446614
O O6 0.542673 0.596173 0.502824
O O7 0.312476 0.594325 0.424254
O O8 0.837593 0.594481 0.407936
O O9 0.353552 0.218772 0.168682
O O10 0.235305 0.107170 0.169409
O O11 0.000000 0.167968 0.250000
O O12 0.865523 0.191040 0.165640
O O13 0.500000 0.382314 0.250000
O O14 0.286602 0.299077 0.311744
O O15 0.000000 0.346666 0.250000
O O16 0.000000 0.712515 0.250000
#
# Coordination Sequence:
#
# PCOD8132959 Si02
#       7
#     8   8   8   8   8   8   8
#     4  10  20  32  49  76 104 130 161 196 246 304
#     4   9  17  30  49  71  99 131 164 204 240 280
#     4  10  19  32  50  72  99 129 162 201 240 284
#     4  11  21  35  53  73 100 131 165 204 241 284
#     4   9  17  31  49  71  99 130 166 204 239 281
#     4   9  18  33  51  69  89 124 173 211 232 265
#     4  10  19  31  48  76 105 129 160 195 246 305
#
# _framework density 18.406510000000001
#
# number of rings (size 3 to 8) (size 9 to 14) (size 15 to 20)
#    0.000    2.286    0.000    4.714    0.000    4.000 
#    0.000    2.143    0.000    0.000    0.000   20.000 
#    0.000    0.000    0.000    0.000    0.000    0.000 
#
# Total GULP energy -346984.096823 kJ/mol
# GULP energy per Si atom -12392.289172 kJ/mol
# Density = 1.836462 g / cm^3
# Si number density = 18.406510 Si / 1000 Ang^3
#
#
#
# Elastic Constant Matrix: (Units=GPa)
#
#
# Indices 1 2 3 4 5 6 
#
# 1 127.7138 31.8684 33.6216 0.0000 -10.0944 0.0000
# 2 31.8684 56.5780 40.3147 0.0000 -6.4338 0.0000
# 3 33.6216 40.3147 73.2570 0.0000 -8.5798 0.0000
# 4 0.0000 0.0000 0.0000 5.8294 0.0000 -2.5837
# 5 -10.0944 -6.4338 -8.5798 0.0000 25.9318 0.0000
# 6 0.0000 0.0000 0.0000 -2.5837 0.0000 19.7468
#
#
#
# Elastic Compliance Matrix: (Units=1/GPa)
#
#
# Indices 1 2 3 4 5 6 
#
# 1 0.009445 -0.003567 -0.002128 0.000000 0.002088 0.000000
# 2 -0.003567 0.030523 -0.015018 0.000000 0.001216 0.000000
# 3 -0.002128 -0.015018 0.023260 0.000000 0.003141 0.000000
# 4 0.000000 0.000000 0.000000 0.182105 0.000000 0.023827
# 5 0.002088 0.001216 0.003141 0.000000 0.040716 0.000000
# 6 0.000000 0.000000 0.000000 0.023827 0.000000 0.053759
#
#
# Mechanical properties :
#
#
# Convention : Reuss Voigt Hill
#
# Bulk Modulus (GPa) = 45.86478 52.12869 48.99674
# Shear Modulus (GPa) = 12.86999 20.41786 16.64393
#
# Velocity S-wave (km/s) = 2.64712 3.33419 3.01032
# Velocity P-wave (km/s) = 5.85788 6.57303 6.22573
#
# Compressibility (1/GPa) = 0.02180322
#
# Stress axis : x y z
#
# Youngs Moduli (GPa) = 105.87484 32.76206 42.99284
#
# Poissons Ratio (x) = 0.11685 0.09147
# Poissons Ratio (y) = 0.37762 0.64567
# Poissons Ratio (z) = 0.22525 0.49202
#
# Static dielectric constant tensor:
#      x y z
#    x 3.924960 0.000000 -0.113040 
#    y 0.000000 3.012850 0.000000 
#    z -0.113040 0.000000 3.279610 
# 
# 
# High freq. dielectric constant tensor:
#      x y z
#    x 1.742720 0.000000 -0.013330 
#    y 0.000000 1.669870 0.000000 
#    z -0.013330 0.000000 1.693350 
# 
# From -- ./inp_files/261645.got.cif
#   From: 2010.06.25/outbox.cif.g09.slc.cpg/sg15_131_cif.got.tgz:261645.got - 2010.06.28 07:06:18.
