data_PCOD8132344
_publ_section_title
;
Structure prediction by ZEFSAII (Michael W. Deem and Ramdas Pophale) SiO2 
 PCOD8132344
Probable space group: C 2/C
;
_chemical_formula_sum "Si O2"
_cell_formula_units_Z 52
_cell_length_a 12.536572
_cell_length_b 13.575758
_cell_length_c 20.410072
_cell_angle_alpha 90.000000
_cell_angle_beta 131.981603
_cell_angle_gamma 90.000000
_cell_volume 2582.179327
_symmetry_space_group_name_H-M "C 2/C"
_symmetry_group_IT_number 15
_symmetry_cell_setting 'monoclinic'
loop_
_space_group_symop_operation_xyz
x,y,z
-x,y,1/2-z
-x,-y,-z
x,-y,1/2+z
1/2+x,1/2+y,z
1/2-x,1/2+y,1/2-z
1/2-x,1/2-y,-z
1/2+x,1/2-y,1/2+z
loop_
_atom_site_type_symbol
_atom_site_label
_atom_site_fract_x
_atom_site_fract_y
_atom_site_fract_z
Si Si1 0.905618 0.086822 0.853603
Si Si2 0.167036 0.811225 0.042568
Si Si3 0.608985 0.115270 0.955773
Si Si4 0.909783 0.866598 0.849843
Si Si5 0.292292 0.166220 0.837375
Si Si6 0.696783 0.451874 0.412834
Si Si7 0.500000 0.590800 0.250000
O O1 0.864292 0.154032 0.897400
O O2 0.838892 0.133179 0.761306
O O3 0.845152 0.975286 0.836157
O O4 0.078572 0.084449 0.916835
O O5 0.326740 0.842832 0.086212
O O6 0.147133 0.693071 0.029864
O O7 0.064076 0.864911 0.948094
O O8 0.437993 0.110124 0.875614
O O9 0.670896 0.007510 0.997613
O O10 0.806544 0.784359 0.837844
O O11 0.932771 0.844657 0.781468
O O12 0.259590 0.141928 0.899750
O O13 0.625315 0.523643 0.330610
#
# Coordination Sequence:
#
# PCOD8132344 Si02
#       7
#     8   8   8   8   8   8   4
#     4  11  22  38  67  85 116 163 203 238 296 361
#     4  10  21  38  62  95 116 151 201 251 302 345
#     4  10  22  37  62  90 125 149 197 258 295 349
#     4  10  21  37  61  89 118 151 198 253 284 357
#     4  11  23  37  59  93 123 151 201 251 297 343
#     4  11  20  41  61  86 116 164 201 236 291 370
#     4  10  18  36  66  82 106 156 210 232 282 346
#
# _framework density 20.138027999999998
#
# number of rings (size 3 to 8) (size 9 to 14) (size 15 to 20)
#    0.000    1.538    6.154    0.923    2.154    0.615 
#    0.000    3.077   10.154    0.000    0.000    0.000 
#    0.000    0.000    0.000    0.000    0.000    0.000 
#
# Total GULP energy -322355.946950 kJ/mol
# GULP energy per Si atom -12398.305652 kJ/mol
# Density = 2.009219 g / cm^3
# Si number density = 20.138028 Si / 1000 Ang^3
#
#
#
# Elastic Constant Matrix: (Units=GPa)
#
#
# Indices 1 2 3 4 5 6 
#
# 1 106.0343 48.6950 13.1471 0.0000 -12.6528 0.0000
# 2 48.6950 92.3234 -2.6335 0.0000 -8.4894 0.0000
# 3 13.1471 -2.6335 30.0988 0.0000 -3.0511 0.0000
# 4 0.0000 0.0000 0.0000 23.5134 0.0000 -3.2708
# 5 -12.6528 -8.4894 -3.0511 0.0000 33.2878 0.0000
# 6 0.0000 0.0000 0.0000 -3.2708 0.0000 38.3813
#
#
#
# Elastic Compliance Matrix: (Units=1/GPa)
#
#
# Indices 1 2 3 4 5 6 
#
# 1 0.013895 -0.007250 -0.006416 0.000000 0.002845 0.000000
# 2 -0.007250 0.014923 0.004622 0.000000 0.001474 0.000000
# 3 -0.006416 0.004622 0.036643 0.000000 0.002099 0.000000
# 4 0.000000 0.000000 0.000000 0.043039 0.000000 0.003668
# 5 0.002845 0.001474 0.002099 0.000000 0.031690 0.000000
# 6 0.000000 0.000000 0.000000 0.003668 0.000000 0.026367
#
#
# Mechanical properties :
#
#
# Convention : Reuss Voigt Hill
#
# Bulk Modulus (GPa) = 21.10864 38.54152 29.82508
# Shear Modulus (GPa) = 24.94542 30.31969 27.63255
#
# Velocity S-wave (km/s) = 3.52337 3.88441 3.70828
# Velocity P-wave (km/s) = 5.20162 6.26884 5.76000
#
# Compressibility (1/GPa) = 0.04737396
#
# Stress axis : x y z
#
# Youngs Moduli (GPa) = 71.96582 67.01067 27.29007
#
# Poissons Ratio (x) = 0.48586 0.17508
# Poissons Ratio (y) = 0.52178 -0.12614
# Poissons Ratio (z) = 0.46170 -0.30973
#
# Static dielectric constant tensor:
#      x y z
#    x 3.679790 0.000000 0.006070 
#    y 0.000000 3.665240 0.000000 
#    z 0.006070 0.000000 3.518690 
# 
# 
# High freq. dielectric constant tensor:
#      x y z
#    x 1.782340 0.000000 -0.000180 
#    y 0.000000 1.777580 0.000000 
#    z -0.000180 0.000000 1.770810 
# 
# From -- ./inp_files/197350.got.cif
#   From: 2010.06.25/outbox.cif.g09.slc.cpg/sg15_99_cif.got.tgz:197350.got - 2010.06.28 07:06:18.
