data_PCOD8132181
_publ_section_title
;
Structure prediction by ZEFSAII (Michael W. Deem and Ramdas Pophale) SiO2 
 PCOD8132181
Probable space group: C 2/C
;
_chemical_formula_sum "Si O2"
_cell_formula_units_Z 60
_cell_length_a 8.875905
_cell_length_b 20.699744
_cell_length_c 18.754961
_cell_angle_alpha 90.000000
_cell_angle_beta 61.743126
_cell_angle_gamma 90.000000
_cell_volume 3035.203598
_symmetry_space_group_name_H-M "C 2/C"
_symmetry_group_IT_number 15
_symmetry_cell_setting 'monoclinic'
loop_
_space_group_symop_operation_xyz
x,y,z
-x,y,1/2-z
-x,-y,-z
x,-y,1/2+z
1/2+x,1/2+y,z
1/2-x,1/2+y,1/2-z
1/2-x,1/2-y,-z
1/2+x,1/2-y,1/2+z
loop_
_atom_site_type_symbol
_atom_site_label
_atom_site_fract_x
_atom_site_fract_y
_atom_site_fract_z
Si Si1 0.305076 0.551817 0.606125
Si Si2 0.712728 0.463695 0.772711
Si Si3 0.863513 0.313748 0.913601
Si Si4 0.792005 0.352138 0.479535
Si Si5 0.813629 0.954054 0.883418
Si Si6 0.314110 0.560787 0.995276
Si Si7 0.485162 0.255811 0.519452
Si Si8 0.000000 0.628764 0.250000
O O1 0.253119 0.535168 0.699710
O O2 0.174450 0.599211 0.594431
O O3 0.491657 0.585077 0.559747
O O4 0.308626 0.481634 0.567938
O O5 0.516709 0.445228 0.831124
O O6 0.764839 0.463168 0.677875
O O7 0.828616 0.413036 0.788353
O O8 0.697195 0.282037 0.912862
O O9 0.997512 0.328237 0.821399
O O10 0.809885 0.377689 0.970549
O O11 0.960876 0.262818 0.941878
O O12 0.760471 0.390724 0.560675
O O13 0.627429 0.309727 0.497840
O O14 0.959861 0.308093 0.449037
O O15 0.758893 0.017471 0.939830
#
# Coordination Sequence:
#
# PCOD8132181 Si02
#       8
#     8   8   8   8   8   8   8   4
#     4   9  16  31  59  83 113 143 181 227 293 334
#     4  10  19  33  52  91 116 148 175 229 300 339
#     4  11  21  38  56  87 110 148 191 240 273 336
#     4  10  18  36  58  86 107 151 194 238 269 336
#     4   9  19  34  60  87 113 144 191 232 287 340
#     4   9  16  32  57  84 108 145 182 232 281 336
#     4  10  22  35  59  81 113 150 202 225 272 328
#     4  12  22  34  58  82 122 138 180 246 290 326
#
# _framework density 19.768032000000002
#
# number of rings (size 3 to 8) (size 9 to 14) (size 15 to 20)
#    0.000    2.133    2.667    2.400    0.000    0.000 
#    2.400    2.000    5.867    0.000    0.000    0.000 
#    0.000    0.000    0.000    0.000    0.000    0.000 
#
# Total GULP energy -371858.153007 kJ/mol
# GULP energy per Si atom -12395.271767 kJ/mol
# Density = 1.972304 g / cm^3
# Si number density = 19.768032 Si / 1000 Ang^3
#
#
#
# Elastic Constant Matrix: (Units=GPa)
#
#
# Indices 1 2 3 4 5 6 
#
# 1 56.6880 26.1404 21.9792 0.0000 13.3376 0.0000
# 2 26.1404 90.1217 45.3073 0.0000 4.2919 0.0000
# 3 21.9792 45.3073 88.3955 0.0000 11.4917 0.0000
# 4 0.0000 0.0000 0.0000 26.1784 0.0000 12.9919
# 5 13.3376 4.2919 11.4917 0.0000 23.2657 0.0000
# 6 0.0000 0.0000 0.0000 12.9919 0.0000 26.3882
#
#
#
# Elastic Compliance Matrix: (Units=1/GPa)
#
#
# Indices 1 2 3 4 5 6 
#
# 1 0.023522 -0.005510 -0.001500 0.000000 -0.011727 0.000000
# 2 -0.005510 0.016265 -0.007467 0.000000 0.003846 0.000000
# 3 -0.001500 -0.007467 0.016266 0.000000 -0.005797 0.000000
# 4 0.000000 0.000000 0.000000 0.050551 0.000000 -0.024888
# 5 -0.011727 0.003846 -0.005797 0.000000 0.051859 0.000000
# 6 0.000000 0.000000 0.000000 -0.024888 0.000000 0.050149
#
#
# Mechanical properties :
#
#
# Convention : Reuss Voigt Hill
#
# Bulk Modulus (GPa) = 36.90017 46.89546 41.89781
# Shear Modulus (GPa) = 20.27585 24.61835 22.44710
#
# Velocity S-wave (km/s) = 3.20611 3.53280 3.37341
# Velocity P-wave (km/s) = 5.69321 6.35730 6.03440
#
# Compressibility (1/GPa) = 0.02710015
#
# Stress axis : x y z
#
# Youngs Moduli (GPa) = 42.51325 61.48205 61.47652
#
# Poissons Ratio (x) = 0.33878 0.09220
# Poissons Ratio (y) = 0.23426 0.45902
# Poissons Ratio (z) = 0.06376 0.45906
#
# Static dielectric constant tensor:
#      x y z
#    x 3.621120 0.000000 0.241540 
#    y 0.000000 3.625680 0.000000 
#    z 0.241540 0.000000 3.529730 
# 
# 
# High freq. dielectric constant tensor:
#      x y z
#    x 1.773390 0.000000 0.017460 
#    y 0.000000 1.763390 0.000000 
#    z 0.017460 0.000000 1.749430 
# 
# From -- ./inp_files/192088.got.cif
#   From: 2010.06.25/outbox.cif.g09.slc.cpg/sg15_97_cif.got.tgz:192088.got - 2010.06.28 07:06:18.
