data_PCOD8132161
_publ_section_title
;
Structure prediction by ZEFSAII (Michael W. Deem and Ramdas Pophale) SiO2 
 PCOD8132161
Probable space group: C 2/C
;
_chemical_formula_sum "Si O2"
_cell_formula_units_Z 52
_cell_length_a 10.114379
_cell_length_b 17.391824
_cell_length_c 16.902248
_cell_angle_alpha 90.000000
_cell_angle_beta 109.681223
_cell_angle_gamma 90.000000
_cell_volume 2799.538832
_symmetry_space_group_name_H-M "C 2/C"
_symmetry_group_IT_number 15
_symmetry_cell_setting 'monoclinic'
loop_
_space_group_symop_operation_xyz
x,y,z
-x,y,1/2-z
-x,-y,-z
x,-y,1/2+z
1/2+x,1/2+y,z
1/2-x,1/2+y,1/2-z
1/2-x,1/2-y,-z
1/2+x,1/2-y,1/2+z
loop_
_atom_site_type_symbol
_atom_site_label
_atom_site_fract_x
_atom_site_fract_y
_atom_site_fract_z
Si Si1 0.430393 0.438830 0.042859
Si Si2 0.257097 0.732915 0.267314
Si Si3 0.209486 0.018539 0.342913
Si Si4 0.730547 0.817907 0.935419
Si Si5 0.500000 0.356881 0.750000
Si Si6 0.455281 0.111286 0.330059
Si Si7 0.881239 0.116359 0.783833
O O1 0.312398 0.474847 0.078180
O O2 0.555101 0.398548 0.116943
O O3 0.500000 0.500000 0.000000
O O4 0.357745 0.377094 0.971270
O O5 0.225740 0.726320 0.352568
O O6 0.412731 0.699990 0.288203
O O7 0.143942 0.685353 0.194658
O O8 0.244987 0.821784 0.237129
O O9 0.369922 0.044561 0.359661
O O10 0.103696 0.090791 0.323023
O O11 0.171263 0.964430 0.261228
O O12 0.586443 0.866809 0.912232
O O13 0.750000 0.750000 0.000000
O O14 0.500000 0.083925 0.250000
O O15 0.000000 0.152036 0.750000
#
# Coordination Sequence:
#
# PCOD8132161 Si02
#       7
#     8   8   8   8   4   8   8
#     4  11  22  34  57  88 117 147 190 241 295 343
#     4  10  20  36  58  81 109 146 198 233 281 343
#     4  10  19  37  59  78 112 156 194 229 286 352
#     4  11  21  35  57  81 113 146 188 239 291 338
#     4  10  18  36  58  80 106 150 192 232 280 334
#     4   9  20  35  58  79 105 147 195 237 278 344
#     4  10  19  36  59  80 110 152 198 234 274 347
#
# _framework density 18.574487999999999
#
# number of rings (size 3 to 8) (size 9 to 14) (size 15 to 20)
#    0.000    1.846    2.308    5.077    4.308    0.615 
#    1.385    1.538    0.000    5.538    0.000    0.000 
#    0.000    0.000    0.000    0.000    0.000    0.000 
#
# Total GULP energy -322327.743753 kJ/mol
# GULP energy per Si atom -12397.220914 kJ/mol
# Density = 1.853221 g / cm^3
# Si number density = 18.574488 Si / 1000 Ang^3
#
#
#
# Elastic Constant Matrix: (Units=GPa)
#
#
# Indices 1 2 3 4 5 6 
#
# 1 79.4342 49.9994 23.7034 0.0000 10.2087 0.0000
# 2 49.9994 110.0721 43.3150 0.0000 11.4430 0.0000
# 3 23.7034 43.3150 89.6437 0.0000 16.0755 0.0000
# 4 0.0000 0.0000 0.0000 26.7976 0.0000 4.0428
# 5 10.2087 11.4430 16.0755 0.0000 22.2909 0.0000
# 6 0.0000 0.0000 0.0000 4.0428 0.0000 34.0898
#
#
#
# Elastic Compliance Matrix: (Units=1/GPa)
#
#
# Indices 1 2 3 4 5 6 
#
# 1 0.018016 -0.007622 -0.000348 0.000000 -0.004087 0.000000
# 2 -0.007622 0.014531 -0.004932 0.000000 -0.000412 0.000000
# 3 -0.000348 -0.004932 0.015101 0.000000 -0.008199 0.000000
# 4 0.000000 0.000000 0.000000 0.037997 0.000000 -0.004506
# 5 -0.004087 -0.000412 -0.008199 0.000000 0.052858 0.000000
# 6 0.000000 0.000000 0.000000 -0.004506 0.000000 0.029869
#
#
# Mechanical properties :
#
#
# Convention : Reuss Voigt Hill
#
# Bulk Modulus (GPa) = 45.77959 57.02063 51.40011
# Shear Modulus (GPa) = 24.81960 27.44447 26.13204
#
# Velocity S-wave (km/s) = 3.65940 3.84804 3.75491
# Velocity P-wave (km/s) = 6.52341 7.10692 6.82141
#
# Compressibility (1/GPa) = 0.02184380
#
# Stress axis : x y z
#
# Youngs Moduli (GPa) = 55.50772 68.82032 66.22252
#
# Poissons Ratio (x) = 0.52452 0.02305
# Poissons Ratio (y) = 0.42306 0.32660
# Poissons Ratio (z) = 0.01932 0.33941
#
# Static dielectric constant tensor:
#      x y z
#    x 3.521510 0.000000 0.120150 
#    y 0.000000 3.313430 0.000000 
#    z 0.120150 0.000000 3.217710 
# 
# 
# High freq. dielectric constant tensor:
#      x y z
#    x 1.708780 0.000000 0.007070 
#    y 0.000000 1.725970 0.000000 
#    z 0.007070 0.000000 1.711440 
# 
# From -- ./inp_files/198014.got.cif
#   From: 2010.06.25/outbox.cif.g09.slc.cpg/sg15_100_cif.got.tgz:198014.got - 2010.06.28 07:06:18.
