data_PCOD8132443
_publ_section_title
;
Structure prediction by ZEFSAII (Michael W. Deem and Ramdas Pophale) SiO2 
 PCOD8132443
Probable space group: C 2/C
;
_chemical_formula_sum "Si O2"
_cell_formula_units_Z 64
_cell_length_a 9.526248
_cell_length_b 27.226948
_cell_length_c 15.934531
_cell_angle_alpha 90.000000
_cell_angle_beta 127.535840
_cell_angle_gamma 90.000000
_cell_volume 3277.315081
_symmetry_space_group_name_H-M "C 2/C"
_symmetry_group_IT_number 15
_symmetry_cell_setting 'monoclinic'
loop_
_space_group_symop_operation_xyz
x,y,z
-x,y,1/2-z
-x,-y,-z
x,-y,1/2+z
1/2+x,1/2+y,z
1/2-x,1/2+y,1/2-z
1/2-x,1/2-y,-z
1/2+x,1/2-y,1/2+z
loop_
_atom_site_type_symbol
_atom_site_label
_atom_site_fract_x
_atom_site_fract_y
_atom_site_fract_z
Si Si1 0.751266 0.577648 0.333643
Si Si2 0.177527 0.965352 0.271044
Si Si3 0.910794 0.777048 0.515160
Si Si4 0.925008 0.810892 0.343887
Si Si5 0.142255 0.592288 0.529363
Si Si6 0.005713 0.117644 0.386367
Si Si7 0.490404 0.583342 0.567585
Si Si8 0.220956 0.299204 0.106355
O O1 0.697114 0.522608 0.292495
O O2 0.664160 0.595595 0.388675
O O3 0.680222 0.611134 0.230646
O O4 0.959897 0.579577 0.417716
O O5 0.338918 0.934730 0.372618
O O6 0.000000 0.945024 0.250000
O O7 0.141858 0.954264 0.158519
O O8 0.750000 0.750000 0.500000
O O9 0.838835 0.792161 0.398132
O O10 0.968774 0.824326 0.589976
O O11 0.077733 0.743306 0.556439
O O12 0.771342 0.807829 0.220681
O O13 0.978836 0.866862 0.371245
O O14 0.104828 0.781794 0.382231
O O15 0.289031 0.569413 0.519442
O O16 0.142140 0.651028 0.538872
O O17 0.006998 0.087620 0.473743
#
# Coordination Sequence:
#
# PCOD8132443 Si02
#       8
#     8   8   8   8   8   8   8   8
#     4  11  22  39  57  84 125 161 196 238 302 362
#     4  10  18  37  63  87 111 158 193 240 306 357
#     4  11  23  37  57  87 119 162 201 238 303 359
#     4   9  19  37  58  85 114 145 198 253 286 350
#     4  10  20  35  63  89 115 146 203 251 295 352
#     4  10  23  41  56  82 126 164 194 243 297 361
#     4   9  19  38  64  84 114 152 200 248 295 347
#     4  10  19  36  60  85 110 153 198 250 300 339
#
# _framework density 19.528182000000001
#
# number of rings (size 3 to 8) (size 9 to 14) (size 15 to 20)
#    0.000    2.000    2.500    1.500    0.000    4.500 
#    0.000    3.125    2.750    0.000    0.000    0.000 
#    0.000    0.000    0.000    0.000    0.000    0.000 
#
# Total GULP energy -396653.549539 kJ/mol
# GULP energy per Si atom -12395.423423 kJ/mol
# Density = 1.948373 g / cm^3
# Si number density = 19.528182 Si / 1000 Ang^3
#
#
#
# Elastic Constant Matrix: (Units=GPa)
#
#
# Indices 1 2 3 4 5 6 
#
# 1 55.0900 52.1878 36.7295 0.0000 -8.8789 0.0000
# 2 52.1878 80.9617 46.0892 0.0000 -13.1659 0.0000
# 3 36.7295 46.0892 121.4803 0.0000 -8.6991 0.0000
# 4 0.0000 0.0000 0.0000 15.7711 0.0000 -3.3957
# 5 -8.8789 -13.1659 -8.6991 0.0000 29.0249 0.0000
# 6 0.0000 0.0000 0.0000 -3.3957 0.0000 23.9910
#
#
#
# Elastic Compliance Matrix: (Units=1/GPa)
#
#
# Indices 1 2 3 4 5 6 
#
# 1 0.047781 -0.028711 -0.003515 0.000000 0.000540 0.000000
# 2 -0.028711 0.033905 -0.003792 0.000000 0.005460 0.000000
# 3 -0.003515 -0.003792 0.010764 0.000000 0.000431 0.000000
# 4 0.000000 0.000000 0.000000 0.065400 0.000000 0.009257
# 5 0.000540 0.005460 0.000431 0.000000 0.037224 0.000000
# 6 0.000000 0.000000 0.000000 0.009257 0.000000 0.042993
#
#
# Mechanical properties :
#
#
# Convention : Reuss Voigt Hill
#
# Bulk Modulus (GPa) = 48.98444 58.61610 53.80027
# Shear Modulus (GPa) = 15.77753 21.92577 18.85165
#
# Velocity S-wave (km/s) = 2.84551 3.35442 3.11039
# Velocity P-wave (km/s) = 5.99452 6.71447 6.36469
#
# Compressibility (1/GPa) = 0.02041465
#
# Stress axis : x y z
#
# Youngs Moduli (GPa) = 20.92889 29.49436 92.90220
#
# Poissons Ratio (x) = 0.84680 0.32657
# Poissons Ratio (y) = 0.60088 0.35226
# Poissons Ratio (z) = 0.07357 0.11183
#
# Static dielectric constant tensor:
#      x y z
#    x 3.492210 0.000000 -0.015690 
#    y 0.000000 3.552040 0.000000 
#    z -0.015690 0.000000 3.949850 
# 
# 
# High freq. dielectric constant tensor:
#      x y z
#    x 1.741720 0.000000 -0.005400 
#    y 0.000000 1.761850 0.000000 
#    z -0.005400 0.000000 1.772830 
# 
# From -- ./inp_files/139871.got.cif
#   From: 2010.06.25/outbox.cif.g09.slc.cpg/sg15_70_cif.got.tgz:139871.got - 2010.06.28 07:06:18.
