data_PCOD8132414
_publ_section_title
;
Structure prediction by ZEFSAII (Michael W. Deem and Ramdas Pophale) SiO2 
 PCOD8132414
Probable space group: C 2/C
;
_chemical_formula_sum "Si O2"
_cell_formula_units_Z 64
_cell_length_a 22.528823
_cell_length_b 10.057176
_cell_length_c 17.879073
_cell_angle_alpha 90.000000
_cell_angle_beta 132.429028
_cell_angle_gamma 90.000000
_cell_volume 2990.079743
_symmetry_space_group_name_H-M "C 2/C"
_symmetry_group_IT_number 15
_symmetry_cell_setting 'monoclinic'
loop_
_space_group_symop_operation_xyz
x,y,z
-x,y,1/2-z
-x,-y,-z
x,-y,1/2+z
1/2+x,1/2+y,z
1/2-x,1/2+y,1/2-z
1/2-x,1/2-y,-z
1/2+x,1/2-y,1/2+z
loop_
_atom_site_type_symbol
_atom_site_label
_atom_site_fract_x
_atom_site_fract_y
_atom_site_fract_z
Si Si1 0.539896 0.006105 0.922546
Si Si2 0.411948 0.183154 0.665071
Si Si3 0.826547 0.870857 0.483998
Si Si4 0.556635 0.729769 0.527484
Si Si5 0.181808 0.341200 0.267356
Si Si6 0.737682 0.656694 0.059718
Si Si7 0.868702 0.382772 0.784118
Si Si8 0.108231 0.260186 0.058959
O O1 0.582854 0.048348 0.881004
O O2 0.457940 0.927906 0.835332
O O3 0.524064 0.139896 0.955933
O O4 0.595563 0.912239 0.021184
O O5 0.500000 0.249063 0.750000
O O6 0.348376 0.285736 0.575438
O O7 0.386362 0.148277 0.726829
O O8 0.906793 0.879650 0.499223
O O9 0.764126 0.793527 0.376411
O O10 0.781430 0.002380 0.476123
O O11 0.624986 0.772830 0.645170
O O12 0.475946 0.679256 0.500840
O O13 0.185961 0.491048 0.237031
O O14 0.158249 0.246242 0.178909
O O15 0.820473 0.681907 0.174297
O O16 0.657771 0.690381 0.036859
O O17 0.750000 0.750000 0.000000
#
# Coordination Sequence:
#
# PCOD8132414 Si02
#       8
#     8   8   8   8   8   8   8   8
#     4  10  19  35  67 100 122 156 203 274 325 385
#     4  11  21  37  63  97 129 166 212 270 326 389
#     4  10  24  40  60  87 131 172 211 271 320 389
#     4  10  18  39  65  99 123 149 212 269 333 384
#     4  11  19  36  60  96 129 161 205 256 333 385
#     4  11  27  44  57  84 132 178 223 265 317 396
#     4  10  18  37  60  93 129 154 205 261 322 389
#     4  11  21  38  65  92 126 167 211 267 328 393
#
# _framework density 21.404112000000001
#
# number of rings (size 3 to 8) (size 9 to 14) (size 15 to 20)
#    0.000    1.500    3.750    2.625    3.500    0.500 
#    0.000    3.750    0.000    0.000    0.000    0.000 
#    0.000    0.000    0.000    0.000    0.000    0.000 
#
# Total GULP energy -396521.202973 kJ/mol
# GULP energy per Si atom -12391.287593 kJ/mol
# Density = 2.135540 g / cm^3
# Si number density = 21.404112 Si / 1000 Ang^3
#
#
#
# Elastic Constant Matrix: (Units=GPa)
#
#
# Indices 1 2 3 4 5 6 
#
# 1 79.6051 12.3514 16.4602 0.0000 -6.7747 0.0000
# 2 12.3514 43.7528 25.7519 0.0000 -2.4699 0.0000
# 3 16.4602 25.7519 133.0003 0.0000 1.8323 0.0000
# 4 0.0000 0.0000 0.0000 29.2037 0.0000 -4.5900
# 5 -6.7747 -2.4699 1.8323 0.0000 34.5512 0.0000
# 6 0.0000 0.0000 0.0000 -4.5900 0.0000 27.3548
#
#
#
# Elastic Compliance Matrix: (Units=1/GPa)
#
#
# Indices 1 2 3 4 5 6 
#
# 1 0.013471 -0.003003 -0.001120 0.000000 0.002486 0.000000
# 2 -0.003003 0.026620 -0.004804 0.000000 0.001569 0.000000
# 3 -0.001120 -0.004804 0.008602 0.000000 -0.001019 0.000000
# 4 0.000000 0.000000 0.000000 0.035170 0.000000 0.005901
# 5 0.002486 0.001569 -0.001019 0.000000 0.029596 0.000000
# 6 0.000000 0.000000 0.000000 0.005901 0.000000 0.037547
#
#
# Mechanical properties :
#
#
# Convention : Reuss Voigt Hill
#
# Bulk Modulus (GPa) = 32.42793 40.60948 36.51870
# Shear Modulus (GPa) = 27.91122 31.67490 29.79306
#
# Velocity S-wave (km/s) = 3.61503 3.85106 3.73491
# Velocity P-wave (km/s) = 5.71032 6.22801 5.97478
#
# Compressibility (1/GPa) = 0.03083762
#
# Stress axis : x y z
#
# Youngs Moduli (GPa) = 74.23269 37.56617 116.25736
#
# Poissons Ratio (x) = 0.11283 0.13020
# Poissons Ratio (y) = 0.22295 0.55851
# Poissons Ratio (z) = 0.08313 0.18047
#
# Static dielectric constant tensor:
#      x y z
#    x 3.898760 0.000000 0.000700 
#    y 0.000000 3.566210 0.000000 
#    z 0.000700 0.000000 4.146770 
# 
# 
# High freq. dielectric constant tensor:
#      x y z
#    x 1.841310 0.000000 0.003710 
#    y 0.000000 1.793330 0.000000 
#    z 0.003710 0.000000 1.860400 
# 
# From -- ./inp_files/215086.got.cif
#   From: 2010.06.25/outbox.cif.g09.slc.cpg/sg15_108_cif.got.tgz:215086.got - 2010.06.28 07:06:18.
