data_PCOD8132367
_publ_section_title
;
Structure prediction by ZEFSAII (Michael W. Deem and Ramdas Pophale) SiO2 
 PCOD8132367
Probable space group: C 2/C
;
_chemical_formula_sum "Si O2"
_cell_formula_units_Z 40
_cell_length_a 12.721743
_cell_length_b 18.941499
_cell_length_c 9.780204
_cell_angle_alpha 90.000000
_cell_angle_beta 66.525908
_cell_angle_gamma 90.000000
_cell_volume 2161.682956
_symmetry_space_group_name_H-M "C 2/C"
_symmetry_group_IT_number 15
_symmetry_cell_setting 'monoclinic'
loop_
_space_group_symop_operation_xyz
x,y,z
-x,y,1/2-z
-x,-y,-z
x,-y,1/2+z
1/2+x,1/2+y,z
1/2-x,1/2+y,1/2-z
1/2-x,1/2-y,-z
1/2+x,1/2-y,1/2+z
loop_
_atom_site_type_symbol
_atom_site_label
_atom_site_fract_x
_atom_site_fract_y
_atom_site_fract_z
Si Si1 0.000000 0.180851 0.750000
Si Si2 0.755683 0.142242 0.939216
Si Si3 0.961010 0.558693 0.416738
Si Si4 0.500000 0.744739 0.250000
Si Si5 0.558473 0.792375 0.934710
Si Si6 0.704458 0.280652 0.813275
O O1 0.883550 0.133042 0.805630
O O2 0.014694 0.231188 0.607757
O O3 0.684552 0.204168 0.897620
O O4 0.675535 0.072503 0.983243
O O5 0.772370 0.159169 0.089381
O O6 0.000000 0.528377 0.250000
O O7 0.000000 0.500000 0.500000
O O8 0.029256 0.631402 0.393299
O O9 0.452633 0.793521 0.395988
O O10 0.401448 0.697540 0.229890
O O11 0.688705 0.773116 0.840317
#
# Coordination Sequence:
#
# PCOD8132367 Si02
#       6
#     4   8   8   4   8   8
#     4  10  18  36  69  87 112 158 190 240 310 362
#     4  10  18  37  59  85 115 156 196 232 303 357
#     4  12  24  39  60  82 118 161 203 240 280 349
#     4  12  20  30  51  95 122 144 182 244 306 346
#     4  11  20  35  54  88 122 153 191 244 297 349
#     4  10  19  32  58  85 122 153 184 247 301 354
#
# _framework density 18.504100999999999
#
# number of rings (size 3 to 8) (size 9 to 14) (size 15 to 20)
#    0.000    1.200    7.000    1.800    1.400    0.000 
#    0.000    0.000    0.000    2.400    0.000    0.000 
#    0.000    0.000    0.000    0.000    0.000    0.000 
#
# Total GULP energy -247825.342478 kJ/mol
# GULP energy per Si atom -12391.267124 kJ/mol
# Density = 1.846198 g / cm^3
# Si number density = 18.504101 Si / 1000 Ang^3
#
#
#
# Elastic Constant Matrix: (Units=GPa)
#
#
# Indices 1 2 3 4 5 6 
#
# 1 134.0166 42.9504 40.4308 0.0000 3.1205 0.0000
# 2 42.9504 55.9514 30.2580 0.0000 -4.9549 0.0000
# 3 40.4308 30.2580 131.3583 0.0000 6.5566 0.0000
# 4 0.0000 0.0000 0.0000 17.2321 0.0000 8.2863
# 5 3.1205 -4.9549 6.5566 0.0000 38.1732 0.0000
# 6 0.0000 0.0000 0.0000 8.2863 0.0000 27.1049
#
#
#
# Elastic Compliance Matrix: (Units=1/GPa)
#
#
# Indices 1 2 3 4 5 6 
#
# 1 0.010241 -0.007236 -0.001409 0.000000 -0.001534 0.000000
# 2 -0.007236 0.025999 -0.003994 0.000000 0.004652 0.000000
# 3 -0.001409 -0.003994 0.009064 0.000000 -0.001960 0.000000
# 4 0.000000 0.000000 0.000000 0.068032 0.000000 -0.020798
# 5 -0.001534 0.004652 -0.001960 0.000000 0.027262 0.000000
# 6 0.000000 0.000000 0.000000 -0.020798 0.000000 0.043252
#
#
# Mechanical properties :
#
#
# Convention : Reuss Voigt Hill
#
# Bulk Modulus (GPa) = 49.93110 60.95607 55.44359
# Shear Modulus (GPa) = 23.16913 30.34784 26.75848
#
# Velocity S-wave (km/s) = 3.54235 4.05416 3.80687
# Velocity P-wave (km/s) = 6.61615 7.41137 7.02502
#
# Compressibility (1/GPa) = 0.02002760
#
# Stress axis : x y z
#
# Youngs Moduli (GPa) = 97.64212 38.46313 110.32368
#
# Poissons Ratio (x) = 0.27831 0.15544
# Poissons Ratio (y) = 0.70651 0.44062
# Poissons Ratio (z) = 0.13757 0.15362
#
# Static dielectric constant tensor:
#      x y z
#    x 3.714410 0.000000 -0.132420 
#    y 0.000000 2.816420 0.000000 
#    z -0.132420 0.000000 3.610470 
# 
# 
# High freq. dielectric constant tensor:
#      x y z
#    x 1.739450 0.000000 -0.015130 
#    y 0.000000 1.641770 0.000000 
#    z -0.015130 0.000000 1.740300 
# 
# From -- ./inp_files/29145.got.cif
#   From: 2010.06.25/outbox.cif.g09.slc.cpg/sg15_15_cif.got.tgz:29145.got - 2010.06.28 07:06:18.
