data_PCOD8132336
_publ_section_title
;
Structure prediction by ZEFSAII (Michael W. Deem and Ramdas Pophale) SiO2 
 PCOD8132336
Probable space group: C 2/C
;
_chemical_formula_sum "Si O2"
_cell_formula_units_Z 52
_cell_length_a 12.150220
_cell_length_b 13.447686
_cell_length_c 19.581237
_cell_angle_alpha 90.000000
_cell_angle_beta 127.042387
_cell_angle_gamma 90.000000
_cell_volume 2553.748636
_symmetry_space_group_name_H-M "C 2/C"
_symmetry_group_IT_number 15
_symmetry_cell_setting 'monoclinic'
loop_
_space_group_symop_operation_xyz
x,y,z
-x,y,1/2-z
-x,-y,-z
x,-y,1/2+z
1/2+x,1/2+y,z
1/2-x,1/2+y,1/2-z
1/2-x,1/2-y,-z
1/2+x,1/2-y,1/2+z
loop_
_atom_site_type_symbol
_atom_site_label
_atom_site_fract_x
_atom_site_fract_y
_atom_site_fract_z
Si Si1 0.137667 0.568898 0.622382
Si Si2 0.825621 0.778758 0.616770
Si Si3 0.427732 0.711062 0.388948
Si Si4 0.151914 0.096542 0.554341
Si Si5 0.000000 0.923539 0.750000
Si Si6 0.662893 0.517093 0.194247
Si Si7 0.178987 0.546510 0.004405
O O1 0.146913 0.688061 0.613835
O O2 0.208912 0.533757 0.719439
O O3 0.212907 0.519266 0.584552
O O4 0.981162 0.531192 0.572023
O O5 0.766069 0.676215 0.621665
O O6 0.709992 0.834897 0.527016
O O7 0.968567 0.757119 0.632115
O O8 0.862386 0.855421 0.691137
O O9 0.513637 0.652717 0.479315
O O10 0.312890 0.633586 0.316714
O O11 0.114712 0.036410 0.607567
O O12 0.220569 0.022534 0.522544
O O13 0.027977 0.989835 0.693331
#
# Coordination Sequence:
#
# PCOD8132336 Si02
#       7
#     8   8   8   8   4   8   8
#     4  11  21  38  62  91 126 162 194 252 307 368
#     4  10  18  36  65  90 116 152 204 260 299 347
#     4  10  21  41  59  93 123 156 207 252 302 359
#     4  11  21  39  65  97 116 158 201 266 298 359
#     4  10  22  40  56  90 124 158 200 258 298 358
#     4  11  25  36  64  87 125 159 210 247 305 356
#     4  10  20  37  62  93 126 149 199 250 318 358
#
# _framework density 20.362221999999999
#
# number of rings (size 3 to 8) (size 9 to 14) (size 15 to 20)
#    0.000    1.538    4.615    1.385    4.308    0.615 
#    0.000    0.769    0.000    0.000    0.000    0.000 
#    0.000    0.000    0.000    0.000    0.000    0.000 
#
# Total GULP energy -322162.711775 kJ/mol
# GULP energy per Si atom -12390.873530 kJ/mol
# Density = 2.031588 g / cm^3
# Si number density = 20.362222 Si / 1000 Ang^3
#
#
#
# Elastic Constant Matrix: (Units=GPa)
#
#
# Indices 1 2 3 4 5 6 
#
# 1 67.1842 49.7971 29.9481 0.0000 -20.4718 0.0000
# 2 49.7971 117.0831 41.7290 0.0000 -10.5775 0.0000
# 3 29.9481 41.7290 91.6240 0.0000 -10.7757 0.0000
# 4 0.0000 0.0000 0.0000 32.9072 0.0000 5.8263
# 5 -20.4718 -10.5775 -10.7757 0.0000 37.8764 0.0000
# 6 0.0000 0.0000 0.0000 5.8263 0.0000 29.8245
#
#
#
# Elastic Compliance Matrix: (Units=1/GPa)
#
#
# Indices 1 2 3 4 5 6 
#
# 1 0.026330 -0.009083 -0.003201 0.000000 0.010784 0.000000
# 2 -0.009083 0.013422 -0.003394 0.000000 -0.002127 0.000000
# 3 -0.003201 -0.003394 0.013648 0.000000 0.001205 0.000000
# 4 0.000000 0.000000 0.000000 0.031477 0.000000 -0.006149
# 5 0.010784 -0.002127 0.001205 0.000000 0.031979 0.000000
# 6 0.000000 0.000000 0.000000 -0.006149 0.000000 0.034731
#
#
# Mechanical properties :
#
#
# Convention : Reuss Voigt Hill
#
# Bulk Modulus (GPa) = 45.36616 57.64885 51.50751
# Shear Modulus (GPa) = 26.27562 30.41609 28.34586
#
# Velocity S-wave (km/s) = 3.59613 3.86910 3.73511
# Velocity P-wave (km/s) = 6.29053 6.95220 6.62962
#
# Compressibility (1/GPa) = 0.02204286
#
# Stress axis : x y z
#
# Youngs Moduli (GPa) = 37.97973 74.50634 73.27161
#
# Poissons Ratio (x) = 0.67677 0.23454
# Poissons Ratio (y) = 0.34498 0.24867
# Poissons Ratio (z) = 0.12157 0.25287
#
# Static dielectric constant tensor:
#      x y z
#    x 3.500550 0.000000 -0.081250 
#    y 0.000000 3.759720 0.000000 
#    z -0.081250 0.000000 3.898460 
# 
# 
# High freq. dielectric constant tensor:
#      x y z
#    x 1.764090 0.000000 -0.002860 
#    y 0.000000 1.785170 0.000000 
#    z -0.002860 0.000000 1.812970 
# 
# From -- ./inp_files/243800.got.cif
#   From: 2010.06.25/outbox.cif.g09.slc.cpg/sg15_122_cif.got.tgz:243800.got - 2010.06.28 07:06:18.
