data_PCOD8132795
_publ_section_title
;
Structure prediction by ZEFSAII (Michael W. Deem and Ramdas Pophale) SiO2 
 PCOD8132795
Probable space group: C 2/C
;
_chemical_formula_sum "Si O2"
_cell_formula_units_Z 44
_cell_length_a 18.499042
_cell_length_b 12.088771
_cell_length_c 14.854226
_cell_angle_alpha 90.000000
_cell_angle_beta 138.877473
_cell_angle_gamma 90.000000
_cell_volume 2184.693021
_symmetry_space_group_name_H-M "C 2/C"
_symmetry_group_IT_number 15
_symmetry_cell_setting 'monoclinic'
loop_
_space_group_symop_operation_xyz
x,y,z
-x,y,1/2-z
-x,-y,-z
x,-y,1/2+z
1/2+x,1/2+y,z
1/2-x,1/2+y,1/2-z
1/2-x,1/2-y,-z
1/2+x,1/2-y,1/2+z
loop_
_atom_site_type_symbol
_atom_site_label
_atom_site_fract_x
_atom_site_fract_y
_atom_site_fract_z
Si Si1 0.469541 0.875502 0.956121
Si Si2 0.810540 0.633405 0.151646
Si Si3 0.405417 0.795373 0.085423
Si Si4 0.794529 0.072778 0.032497
Si Si5 0.000000 0.062973 0.750000
Si Si6 0.399819 0.760178 0.568694
O O1 0.356663 0.867755 0.795410
O O2 0.566091 0.825957 0.986949
O O3 0.462760 0.810521 0.043436
O O4 0.500000 0.000000 0.000000
O O5 0.904858 0.665408 0.166034
O O6 0.757244 0.513403 0.085946
O O7 0.726384 0.733840 0.068288
O O8 0.500000 0.809938 0.250000
O O9 0.351005 0.674574 0.034214
O O10 0.306364 0.884901 0.000565
O O11 0.893990 0.011123 0.179940
O O12 0.968991 0.145453 0.639068
#
# Coordination Sequence:
#
# PCOD8132795 Si02
#       6
#     8   8   8   8   4   8
#     4  12  24  39  63  96 129 168 210 263 317 382
#     4  10  21  40  64  97 123 167 208 269 319 376
#     4  11  24  43  64  91 133 173 213 263 318 387
#     4  10  22  41  66  91 124 176 212 260 322 381
#     4  10  18  42  70  90 124 168 216 262 320 376
#     4  10  21  40  68  92 129 162 215 265 319 380
#
# _framework density 20.140129999999999
#
# number of rings (size 3 to 8) (size 9 to 14) (size 15 to 20)
#    0.000    1.455    2.727    2.182    0.000    4.364 
#    3.273    1.818    0.000    0.000    0.000    0.000 
#    0.000    0.000    0.000    0.000    0.000    0.000 
#
# Total GULP energy -272674.439588 kJ/mol
# GULP energy per Si atom -12394.292709 kJ/mol
# Density = 2.009429 g / cm^3
# Si number density = 20.140130 Si / 1000 Ang^3
#
#
#
# Elastic Constant Matrix: (Units=GPa)
#
#
# Indices 1 2 3 4 5 6 
#
# 1 127.4018 58.0376 54.5175 0.0000 -11.1840 0.0000
# 2 58.0376 117.6521 41.5323 0.0000 0.8597 0.0000
# 3 54.5175 41.5323 122.7202 0.0000 -4.9469 0.0000
# 4 0.0000 0.0000 0.0000 37.4312 0.0000 8.9138
# 5 -11.1840 0.8597 -4.9469 0.0000 40.2157 0.0000
# 6 0.0000 0.0000 0.0000 8.9138 0.0000 35.0784
#
#
#
# Elastic Compliance Matrix: (Units=1/GPa)
#
#
# Indices 1 2 3 4 5 6 
#
# 1 0.011686 -0.004537 -0.003539 0.000000 0.002911 0.000000
# 2 -0.004537 0.011429 -0.001923 0.000000 -0.001742 0.000000
# 3 -0.003539 -0.001923 0.010385 0.000000 0.000334 0.000000
# 4 0.000000 0.000000 0.000000 0.028437 0.000000 -0.007226
# 5 0.002911 -0.001742 0.000334 0.000000 0.025754 0.000000
# 6 0.000000 0.000000 0.000000 -0.007226 0.000000 0.030344
#
#
# Mechanical properties :
#
#
# Convention : Reuss Voigt Hill
#
# Bulk Modulus (GPa) = 74.05494 75.10543 74.58018
# Shear Modulus (GPa) = 35.08009 36.79083 35.93546
#
# Velocity S-wave (km/s) = 4.17802 4.27868 4.22865
# Velocity P-wave (km/s) = 7.75397 7.86014 7.80724
#
# Compressibility (1/GPa) = 0.01350349
#
# Stress axis : x y z
#
# Youngs Moduli (GPa) = 85.57515 87.49626 96.29448
#
# Poissons Ratio (x) = 0.39694 0.34074
# Poissons Ratio (y) = 0.38822 0.18516
# Poissons Ratio (z) = 0.30281 0.16824
#
# Static dielectric constant tensor:
#      x y z
#    x 3.469870 0.000000 0.534490 
#    y 0.000000 3.548440 0.000000 
#    z 0.534490 0.000000 3.676470 
# 
# 
# High freq. dielectric constant tensor:
#      x y z
#    x 1.772890 0.000000 0.032090 
#    y 0.000000 1.803440 0.000000 
#    z 0.032090 0.000000 1.790380 
# 
# From -- ./inp_files/161125.got.cif
#   From: 2010.06.25/outbox.cif.g09.slc.cpg/sg15_81_cif.got.tgz:161125.got - 2010.06.28 07:06:18.
