data_PCOD8132256
_publ_section_title
;
Structure prediction by ZEFSAII (Michael W. Deem and Ramdas Pophale) SiO2 
 PCOD8132256
Probable space group: C 2/C
;
_chemical_formula_sum "Si O2"
_cell_formula_units_Z 64
_cell_length_a 14.801599
_cell_length_b 13.889113
_cell_length_c 27.834387
_cell_angle_alpha 90.000000
_cell_angle_beta 145.435106
_cell_angle_gamma 90.000000
_cell_volume 3246.442146
_symmetry_space_group_name_H-M "C 2/C"
_symmetry_group_IT_number 15
_symmetry_cell_setting 'monoclinic'
loop_
_space_group_symop_operation_xyz
x,y,z
-x,y,1/2-z
-x,-y,-z
x,-y,1/2+z
1/2+x,1/2+y,z
1/2-x,1/2+y,1/2-z
1/2-x,1/2-y,-z
1/2+x,1/2-y,1/2+z
loop_
_atom_site_type_symbol
_atom_site_label
_atom_site_fract_x
_atom_site_fract_y
_atom_site_fract_z
Si Si1 0.505326 0.032014 0.556897
Si Si2 0.069412 0.140586 0.120643
Si Si3 0.283083 0.327506 0.554885
Si Si4 0.751816 0.662603 0.789467
Si Si5 0.925510 0.830926 0.112790
Si Si6 0.162635 0.069657 0.657705
Si Si7 0.072007 0.331545 0.958567
Si Si8 0.628350 0.702596 0.557945
O O1 0.350335 0.090413 0.505267
O O2 0.662842 0.095593 0.634108
O O3 0.500000 0.000000 0.500000
O O4 0.515079 0.932535 0.590942
O O5 0.184451 0.229558 0.180733
O O6 0.955973 0.127682 0.118332
O O7 0.177836 0.045586 0.161773
O O8 0.968211 0.155414 0.028068
O O9 0.250000 0.250000 0.500000
O O10 0.272512 0.269870 0.600983
O O11 0.559500 0.665195 0.713866
O O12 0.783023 0.616663 0.749803
O O13 0.923189 0.723232 0.089789
O O14 0.980535 0.903677 0.093992
O O15 0.751305 0.856133 0.056090
O O16 0.199584 0.117435 0.622090
O O17 0.987329 0.272428 0.963303
#
# Coordination Sequence:
#
# PCOD8132256 Si02
#       8
#     8   8   8   8   8   8   8   8
#     4  12  21  36  62  90 120 165 206 253 313 383
#     4  11  20  39  62  84 123 165 203 255 314 378
#     4  10  20  37  61  89 122 162 207 253 306 375
#     4  10  22  37  57  92 123 161 200 271 314 363
#     4   8  20  36  57  87 117 155 203 260 306 371
#     4   9  21  36  62  84 119 156 209 247 316 367
#     4  10  18  36  61  85 118 161 210 248 313 382
#     4  10  19  37  60  90 114 160 210 257 297 376
#
# _framework density 19.713889999999999
#
# number of rings (size 3 to 8) (size 9 to 14) (size 15 to 20)
#    0.750    1.250    3.750    1.125    1.750    0.000 
#    0.000    3.125    0.000    1.500    0.000    0.000 
#    0.000    0.000    0.000    0.000    0.000    0.000 
#
# Total GULP energy -396476.914053 kJ/mol
# GULP energy per Si atom -12389.903564 kJ/mol
# Density = 1.966902 g / cm^3
# Si number density = 19.713890 Si / 1000 Ang^3
#
#
#
# Elastic Constant Matrix: (Units=GPa)
#
#
# Indices 1 2 3 4 5 6 
#
# 1 72.8376 25.8861 20.7516 0.0000 -4.5602 0.0000
# 2 25.8861 150.7895 43.9547 0.0000 -7.9626 0.0000
# 3 20.7516 43.9547 90.2770 0.0001 0.2786 0.0000
# 4 0.0000 0.0000 0.0001 24.8024 0.0000 -5.1245
# 5 -4.5602 -7.9626 0.2786 0.0000 26.7926 0.0000
# 6 0.0000 0.0000 0.0000 -5.1245 0.0000 29.4847
#
#
#
# Elastic Compliance Matrix: (Units=1/GPa)
#
#
# Indices 1 2 3 4 5 6 
#
# 1 0.015235 -0.001726 -0.002668 0.000000 0.002108 0.000000
# 2 -0.001726 0.008073 -0.003541 0.000000 0.002142 0.000000
# 3 -0.002668 -0.003541 0.013419 0.000000 -0.001646 0.000000
# 4 0.000000 0.000000 0.000000 0.041820 0.000000 0.007268
# 5 0.002108 0.002142 -0.001646 0.000000 0.038336 0.000000
# 6 0.000000 0.000000 0.000000 0.007268 0.000000 0.035179
#
#
# Mechanical properties :
#
#
# Convention : Reuss Voigt Hill
#
# Bulk Modulus (GPa) = 47.94417 55.00988 51.47702
# Shear Modulus (GPa) = 28.59013 31.10337 29.84675
#
# Velocity S-wave (km/s) = 3.81235 3.97639 3.89523
# Velocity P-wave (km/s) = 6.61449 7.00335 6.81169
#
# Compressibility (1/GPa) = 0.02085759
#
# Stress axis : x y z
#
# Youngs Moduli (GPa) = 65.63935 123.86472 74.51993
#
# Poissons Ratio (x) = 0.21384 0.19881
# Poissons Ratio (y) = 0.11332 0.26384
# Poissons Ratio (z) = 0.17512 0.43855
#
# Static dielectric constant tensor:
#      x y z
#    x 3.710450 0.000000 0.045440 
#    y 0.000000 3.893590 0.000000 
#    z 0.045440 0.000000 3.363080 
# 
# 
# High freq. dielectric constant tensor:
#      x y z
#    x 1.753120 0.000000 -0.002670 
#    y 0.000000 1.785400 0.000000 
#    z -0.002670 0.000000 1.739270 
# 
# From -- ./inp_files/296415.got.cif
#   From: 2010.06.25/outbox.cif.g09.slc.cpg/sg15_149_cif.got.tgz:296415.got - 2010.06.28 07:06:18.
