data_PCOD8132100
_publ_section_title
;
Structure prediction by ZEFSAII (Michael W. Deem and Ramdas Pophale) SiO2 
 PCOD8132100
Probable space group: C 2/C
;
_chemical_formula_sum "Si O2"
_cell_formula_units_Z 44
_cell_length_a 10.655333
_cell_length_b 23.842105
_cell_length_c 8.047069
_cell_angle_alpha 90.000000
_cell_angle_beta 108.866593
_cell_angle_gamma 90.000000
_cell_volume 1934.489088
_symmetry_space_group_name_H-M "C 2/C"
_symmetry_group_IT_number 15
_symmetry_cell_setting 'monoclinic'
loop_
_space_group_symop_operation_xyz
x,y,z
-x,y,1/2-z
-x,-y,-z
x,-y,1/2+z
1/2+x,1/2+y,z
1/2-x,1/2+y,1/2-z
1/2-x,1/2-y,-z
1/2+x,1/2-y,1/2+z
loop_
_atom_site_type_symbol
_atom_site_label
_atom_site_fract_x
_atom_site_fract_y
_atom_site_fract_z
Si Si1 0.204475 0.137668 0.745013
Si Si2 0.866167 0.731585 0.930225
Si Si3 0.061064 0.851624 0.536767
Si Si4 0.500000 0.840774 0.750000
Si Si5 0.726757 0.923421 0.739855
Si Si6 0.654834 0.038335 0.843174
O O1 0.303946 0.190883 0.762000
O O2 0.291725 0.081447 0.771994
O O3 0.094385 0.135928 0.553185
O O4 0.137181 0.141677 0.895182
O O5 0.927729 0.788726 0.882313
O O6 0.750000 0.750000 0.000000
O O7 0.979210 0.698428 0.080586
O O8 0.125798 0.896017 0.693052
O O9 0.629005 0.878326 0.779418
O O10 0.682222 0.937325 0.535848
O O11 0.728825 0.979311 0.852336
O O12 0.500000 0.028240 0.750000
#
# Coordination Sequence:
#
# PCOD8132100 Si02
#       6
#     8   8   8   4   8   8
#     4  10  21  41  64  92 135 167 215 261 313 384
#     4  10  18  35  66  95 127 166 217 257 313 381
#     4  10  22  40  68  98 126 176 214 259 319 381
#     4  12  20  36  66  96 126 164 216 266 316 380
#     4  12  25  40  67  94 127 168 216 268 323 377
#     4  12  26  43  65  95 130 168 216 270 325 377
#
# _framework density 22.745024999999998
#
# number of rings (size 3 to 8) (size 9 to 14) (size 15 to 20)
#    0.000    1.091    4.545    4.909    0.000    1.455 
#    0.000    0.909    4.000    0.000    0.000    0.000 
#    0.000    0.000    0.000    0.000    0.000    0.000 
#
# Total GULP energy -272808.376572 kJ/mol
# GULP energy per Si atom -12400.380753 kJ/mol
# Density = 2.269326 g / cm^3
# Si number density = 22.745025 Si / 1000 Ang^3
#
#
#
# Elastic Constant Matrix: (Units=GPa)
#
#
# Indices 1 2 3 4 5 6 
#
# 1 36.2889 34.1940 19.3009 0.0000 19.7656 0.0000
# 2 34.1940 180.0133 46.7020 0.0000 24.9020 0.0000
# 3 19.3009 46.7020 118.0193 0.0000 29.0081 0.0000
# 4 0.0000 0.0000 0.0000 39.9844 0.0000 13.4258
# 5 19.7656 24.9020 29.0081 0.0000 40.2184 0.0000
# 6 0.0000 0.0000 0.0000 13.4258 0.0000 16.4175
#
#
#
# Elastic Compliance Matrix: (Units=1/GPa)
#
#
# Indices 1 2 3 4 5 6 
#
# 1 0.042319 -0.005548 -0.000556 0.000000 -0.016961 0.000000
# 2 -0.005548 0.007134 -0.001823 0.000000 -0.000375 0.000000
# 3 -0.000556 -0.001823 0.010868 0.000000 -0.006436 0.000000
# 4 0.000000 0.000000 0.000000 0.034477 0.000000 -0.028194
# 5 -0.016961 -0.000375 -0.006436 0.000000 0.038075 0.000000
# 6 0.000000 0.000000 0.000000 -0.028194 0.000000 0.083967
#
#
# Mechanical properties :
#
#
# Convention : Reuss Voigt Hill
#
# Bulk Modulus (GPa) = 22.48968 59.41281 40.95125
# Shear Modulus (GPa) = 20.20075 34.93236 27.56655
#
# Velocity S-wave (km/s) = 2.98340 3.92321 3.48513
# Velocity P-wave (km/s) = 4.66656 6.83374 5.85136
#
# Compressibility (1/GPa) = 0.04446483
#
# Stress axis : x y z
#
# Youngs Moduli (GPa) = 23.63023 140.17428 92.01609
#
# Poissons Ratio (x) = 0.77767 0.05120
# Poissons Ratio (y) = 0.13110 0.16779
# Poissons Ratio (z) = 0.01315 0.25560
#
# Static dielectric constant tensor:
#      x y z
#    x 4.005720 0.000000 0.378710 
#    y 0.000000 4.793900 0.000000 
#    z 0.378710 0.000000 4.315660 
# 
# 
# High freq. dielectric constant tensor:
#      x y z
#    x 1.878060 0.000000 0.025680 
#    y 0.000000 1.917140 0.000000 
#    z 0.025680 0.000000 1.893620 
# 
# From -- ./inp_files/32710.got.cif
#   From: 2010.06.25/outbox.cif.g09.slc.cpg/sg15_17_cif.got.tgz:32710.got - 2010.06.28 07:06:18.
