data_PCOD8132783
_publ_section_title
;
Structure prediction by ZEFSAII (Michael W. Deem and Ramdas Pophale) SiO2 
 PCOD8132783
Probable space group: C 2/C
;
_chemical_formula_sum "Si O2"
_cell_formula_units_Z 44
_cell_length_a 9.233196
_cell_length_b 8.807179
_cell_length_c 21.330387
_cell_angle_alpha 90.000000
_cell_angle_beta 62.725785
_cell_angle_gamma 90.000000
_cell_volume 1541.711692
_symmetry_space_group_name_H-M "C 2/C"
_symmetry_group_IT_number 15
_symmetry_cell_setting 'monoclinic'
loop_
_space_group_symop_operation_xyz
x,y,z
-x,y,1/2-z
-x,-y,-z
x,-y,1/2+z
1/2+x,1/2+y,z
1/2-x,1/2+y,1/2-z
1/2-x,1/2-y,-z
1/2+x,1/2-y,1/2+z
loop_
_atom_site_type_symbol
_atom_site_label
_atom_site_fract_x
_atom_site_fract_y
_atom_site_fract_z
Si Si1 0.294619 0.095040 0.705397
Si Si2 0.281621 0.766031 0.080110
Si Si3 0.262365 0.496977 0.005919
Si Si4 0.647064 0.265833 0.605632
Si Si5 0.595852 0.791105 0.842628
Si Si6 0.500000 0.623276 0.250000
O O1 0.345863 0.207337 0.637634
O O2 0.226933 0.186093 0.778471
O O3 0.425922 0.957563 0.687621
O O4 0.151654 0.983397 0.707603
O O5 0.083048 0.778540 0.119632
O O6 0.343287 0.894354 0.019174
O O7 0.349222 0.604788 0.040741
O O8 0.385771 0.397805 0.939146
O O9 0.138550 0.390258 0.068884
O O10 0.823814 0.291501 0.603551
O O11 0.499484 0.265055 0.687992
#
# Coordination Sequence:
#
# PCOD8132783 Si02
#       6
#     8   8   8   8   8   4
#     4  11  22  41  63  97 129 171 221 270 332 390
#     4  11  22  42  64  89 132 174 207 279 328 384
#     4  10  22  42  63  90 134 168 215 265 337 389
#     4  10  22  40  65  96 123 172 217 266 323 398
#     4  11  23  39  66  95 128 171 222 268 329 396
#     4  10  18  42  64  86 136 164 208 278 328 368
#
# _framework density 28.539708000000001
#
# number of rings (size 3 to 8) (size 9 to 14) (size 15 to 20)
#    0.000    1.455    5.455    0.000    2.545    4.364 
#    0.000    0.000    0.000    0.000    0.000    0.000 
#    0.000    0.000    0.000    0.000    0.000    0.000 
#
# Total GULP energy -272598.441145 kJ/mol
# GULP energy per Si atom -12390.838234 kJ/mol
# Density = 2.847475 g / cm^3
# Si number density = 28.539708 Si / 1000 Ang^3
#
#
#
# Elastic Constant Matrix: (Units=GPa)
#
#
# Indices 1 2 3 4 5 6 
#
# 1 67.3289 10.4553 36.1878 0.0000 12.4711 0.0000
# 2 10.4553 204.2078 98.8641 0.0000 18.8423 0.0000
# 3 36.1878 98.8641 192.6646 0.0000 13.1113 0.0000
# 4 0.0000 0.0000 0.0000 62.7246 0.0000 12.7350
# 5 12.4711 18.8423 13.1113 0.0000 45.8800 0.0000
# 6 0.0000 0.0000 0.0000 12.7350 0.0000 14.5802
#
#
#
# Elastic Compliance Matrix: (Units=1/GPa)
#
#
# Indices 1 2 3 4 5 6 
#
# 1 0.017383 0.001251 -0.003621 0.000000 -0.004204 0.000000
# 2 0.001251 0.006747 -0.003555 0.000000 -0.002095 0.000000
# 3 -0.003621 -0.003555 0.007677 0.000000 0.000250 0.000000
# 4 0.000000 0.000000 0.000000 0.019379 0.000000 -0.016927
# 5 -0.004204 -0.002095 0.000250 0.000000 0.023728 0.000000
# 6 0.000000 0.000000 0.000000 -0.016927 0.000000 0.083371
#
#
# Mechanical properties :
#
#
# Convention : Reuss Voigt Hill
#
# Bulk Modulus (GPa) = 50.10387 83.91286 67.00836
# Shear Modulus (GPa) = 28.28252 45.88324 37.08288
#
# Velocity S-wave (km/s) = 3.15141 4.01396 3.60855
# Velocity P-wave (km/s) = 5.55300 7.13782 6.39470
#
# Compressibility (1/GPa) = 0.01995854
#
# Stress axis : x y z
#
# Youngs Moduli (GPa) = 57.52746 148.21061 130.25160
#
# Poissons Ratio (x) = -0.18539 0.47161
# Poissons Ratio (y) = -0.07196 0.46299
# Poissons Ratio (z) = 0.20829 0.52683
#
# Static dielectric constant tensor:
#      x y z
#    x 4.851510 0.000000 0.115010 
#    y 0.000000 5.848400 0.000000 
#    z 0.115010 0.000000 5.787310 
# 
# 
# High freq. dielectric constant tensor:
#      x y z
#    x 2.146600 0.000000 -0.003620 
#    y 0.000000 2.180490 0.000000 
#    z -0.003620 0.000000 2.181600 
# 
# From -- ./inp_files/267972.got.cif
#   From: 2010.06.25/outbox.cif.g09.slc.cpg/sg15_134_cif.got.tgz:267972.got - 2010.06.28 07:06:18.
