data_PCOD8132645
_publ_section_title
;
Structure prediction by ZEFSAII (Michael W. Deem and Ramdas Pophale) SiO2 
 PCOD8132645
Probable space group: C 2/C
;
_chemical_formula_sum "Si O2"
_cell_formula_units_Z 56
_cell_length_a 15.045608
_cell_length_b 11.405947
_cell_length_c 25.019359
_cell_angle_alpha 90.000000
_cell_angle_beta 141.974902
_cell_angle_gamma 90.000000
_cell_volume 2644.859673
_symmetry_space_group_name_H-M "C 2/C"
_symmetry_group_IT_number 15
_symmetry_cell_setting 'monoclinic'
loop_
_space_group_symop_operation_xyz
x,y,z
-x,y,1/2-z
-x,-y,-z
x,-y,1/2+z
1/2+x,1/2+y,z
1/2-x,1/2+y,1/2-z
1/2-x,1/2-y,-z
1/2+x,1/2-y,1/2+z
loop_
_atom_site_type_symbol
_atom_site_label
_atom_site_fract_x
_atom_site_fract_y
_atom_site_fract_z
Si Si1 0.961891 0.362820 0.922696
Si Si2 0.567230 0.757601 0.706524
Si Si3 0.843820 0.611456 0.831798
Si Si4 0.465317 0.015015 0.791000
Si Si5 0.245826 0.066924 0.511366
Si Si6 0.716916 0.346313 0.441501
Si Si7 0.609747 0.767739 0.500439
O O1 0.939686 0.283173 0.860199
O O2 0.887522 0.490321 0.881923
O O3 0.884577 0.296598 0.934458
O O4 0.133698 0.377459 0.018920
O O5 0.688739 0.660409 0.775819
O O6 0.593840 0.882941 0.747723
O O7 0.415912 0.702452 0.657387
O O8 0.849352 0.591069 0.769748
O O9 0.953556 0.713744 0.900408
O O10 0.500000 0.074112 0.750000
O O11 0.607254 0.010588 0.895584
O O12 0.273515 0.154424 0.475357
O O13 0.153878 0.131297 0.513843
O O14 0.155829 0.959990 0.443944
O O15 0.750000 0.250000 0.500000
#
# Coordination Sequence:
#
# PCOD8132645 Si02
#       7
#     8   8   8   8   8   8   8
#     4  10  20  39  63  85 119 166 203 249 312 367
#     4  10  22  38  60  89 123 155 202 257 305 362
#     4  10  21  39  60  89 123 160 200 265 308 365
#     4  10  21  39  58  85 124 160 199 254 314 360
#     4  10  20  38  60  88 118 156 204 255 297 359
#     4  10  18  39  61  80 120 160 198 245 304 359
#     4  10  21  37  63  88 116 158 207 248 303 365
#
# _framework density 21.173145000000002
#
# number of rings (size 3 to 8) (size 9 to 14) (size 15 to 20)
#    0.000    2.000    5.714    0.429    2.000    3.429 
#    0.000    2.857    0.000    0.000    0.000    0.000 
#    0.000    0.000    0.000    0.000    0.000    0.000 
#
# Total GULP energy -347029.777782 kJ/mol
# GULP energy per Si atom -12393.920635 kJ/mol
# Density = 2.112495 g / cm^3
# Si number density = 21.173145 Si / 1000 Ang^3
#
#
#
# Elastic Constant Matrix: (Units=GPa)
#
#
# Indices 1 2 3 4 5 6 
#
# 1 98.6248 24.2100 5.9638 0.0000 -2.4144 0.0000
# 2 24.2100 96.6697 14.0377 0.0000 20.3954 0.0000
# 3 5.9638 14.0377 37.3406 0.0000 27.0391 0.0000
# 4 0.0000 0.0000 0.0000 26.2761 0.0000 6.6857
# 5 -2.4144 20.3954 27.0391 0.0000 34.2677 0.0000
# 6 0.0000 0.0000 0.0000 6.6857 0.0000 29.6023
#
#
#
# Elastic Compliance Matrix: (Units=1/GPa)
#
#
# Indices 1 2 3 4 5 6 
#
# 1 0.011607 -0.003672 -0.006178 0.000000 0.007878 0.000000
# 2 -0.003672 0.013029 0.003478 0.000000 -0.010758 0.000000
# 3 -0.006178 0.003478 0.065963 0.000000 -0.054554 0.000000
# 4 0.000000 0.000000 0.000000 0.040378 0.000000 -0.009119
# 5 0.007878 -0.010758 -0.054554 0.000000 0.079186 0.000000
# 6 0.000000 0.000000 0.000000 -0.009119 0.000000 0.035841
#
#
# Mechanical properties :
#
#
# Convention : Reuss Voigt Hill
#
# Bulk Modulus (GPa) = 12.84421 35.67310 24.25865
# Shear Modulus (GPa) = 17.56237 30.59079 24.07658
#
# Velocity S-wave (km/s) = 2.88317 3.80517 3.37579
# Velocity P-wave (km/s) = 4.14282 6.01586 5.16496
#
# Compressibility (1/GPa) = 0.07785611
#
# Stress axis : x y z
#
# Youngs Moduli (GPa) = 86.15296 76.75383 15.15990
#
# Poissons Ratio (x) = 0.28183 0.09366
# Poissons Ratio (y) = 0.31635 -0.05273
# Poissons Ratio (z) = 0.53227 -0.26698
#
# Static dielectric constant tensor:
#      x y z
#    x 3.973910 0.000000 0.190550 
#    y 0.000000 1.043460 0.000000 
#    z 0.190550 0.000000 3.698700 
# 
# 
# High freq. dielectric constant tensor:
#      x y z
#    x 1.830920 0.000000 -0.005090 
#    y 0.000000 1.828860 0.000000 
#    z -0.005090 0.000000 1.801280 
# 
# From -- ./inp_files/204094.got.cif
#   From: 2010.06.25/outbox.cif.g09.slc.cpg/sg15_103_cif.got.tgz:204094.got - 2010.06.28 07:06:18.
