data_PCOD8132136
_publ_section_title
;
Structure prediction by ZEFSAII (Michael W. Deem and Ramdas Pophale) SiO2 
 PCOD8132136
Probable space group: C 2/C
;
_chemical_formula_sum "Si O2"
_cell_formula_units_Z 64
_cell_length_a 15.230566
_cell_length_b 20.294859
_cell_length_c 11.463094
_cell_angle_alpha 90.000000
_cell_angle_beta 107.351159
_cell_angle_gamma 90.000000
_cell_volume 3382.030696
_symmetry_space_group_name_H-M "C 2/C"
_symmetry_group_IT_number 15
_symmetry_cell_setting 'monoclinic'
loop_
_space_group_symop_operation_xyz
x,y,z
-x,y,1/2-z
-x,-y,-z
x,-y,1/2+z
1/2+x,1/2+y,z
1/2-x,1/2+y,1/2-z
1/2-x,1/2-y,-z
1/2+x,1/2-y,1/2+z
loop_
_atom_site_type_symbol
_atom_site_label
_atom_site_fract_x
_atom_site_fract_y
_atom_site_fract_z
Si Si1 0.215630 0.842488 0.036574
Si Si2 0.832611 0.706961 0.170955
Si Si3 0.749732 0.651452 0.807290
Si Si4 0.852908 0.856937 0.902727
Si Si5 0.100701 0.082263 0.314698
Si Si6 0.370990 0.201410 0.445075
Si Si7 0.921717 0.713490 0.966437
Si Si8 0.908356 0.927959 0.147137
O O1 0.247685 0.870450 0.172407
O O2 0.171542 0.771913 0.042437
O O3 0.137364 0.886898 0.948352
O O4 0.304961 0.847669 0.988970
O O5 0.793402 0.778816 0.178290
O O6 0.750841 0.658758 0.092999
O O7 0.872799 0.681940 0.309330
O O8 0.910450 0.712946 0.102820
O O9 0.856433 0.656447 0.887361
O O10 0.689121 0.596642 0.845119
O O11 0.840924 0.895363 0.775269
O O12 0.902258 0.786195 0.906553
O O13 0.911322 0.903551 0.013733
O O14 0.000000 0.110883 0.250000
O O15 0.095799 0.005348 0.338000
O O16 0.475200 0.195419 0.530407
O O17 0.000000 0.900075 0.250000
#
# Coordination Sequence:
#
# PCOD8132136 Si02
#       8
#     8   8   8   8   8   8   8   8
#     4  10  22  39  53  81 119 153 187 229 286 342
#     4  10  18  36  56  87 113 145 187 233 290 333
#     4  10  21  36  55  82 119 148 188 233 282 341
#     4  11  21  39  58  82 119 148 186 237 282 336
#     4  11  25  39  57  82 114 157 194 229 276 342
#     4  10  21  34  58  86 116 149 185 233 288 347
#     4  11  20  34  60  89 115 148 186 236 291 339
#     4  11  25  37  58  86 113 151 195 234 277 335
#
# _framework density 18.923542000000001
#
# number of rings (size 3 to 8) (size 9 to 14) (size 15 to 20)
#    0.000    1.500    3.750    1.875    8.750    1.500 
#    0.000    0.000    0.000    0.750    0.000    0.000 
#    0.000    0.000    0.000    0.000    0.000    0.000 
#
# Total GULP energy -396623.592756 kJ/mol
# GULP energy per Si atom -12394.487274 kJ/mol
# Density = 1.888047 g / cm^3
# Si number density = 18.923542 Si / 1000 Ang^3
#
#
#
# Elastic Constant Matrix: (Units=GPa)
#
#
# Indices 1 2 3 4 5 6 
#
# 1 98.8839 16.8669 32.2769 0.0000 16.1711 0.0000
# 2 16.8669 47.6787 28.5280 0.0000 3.9321 0.0000
# 3 32.2769 28.5280 124.5565 0.0000 4.5191 0.0000
# 4 0.0000 0.0000 0.0000 18.1580 0.0000 7.5670
# 5 16.1711 3.9321 4.5191 0.0000 28.7318 0.0000
# 6 0.0000 0.0000 0.0000 7.5670 0.0000 20.2489
#
#
#
# Elastic Compliance Matrix: (Units=1/GPa)
#
#
# Indices 1 2 3 4 5 6 
#
# 1 0.012331 -0.002401 -0.002419 0.000000 -0.006231 0.000000
# 2 -0.002401 0.024947 -0.005046 0.000000 -0.001269 0.000000
# 3 -0.002419 -0.005046 0.009792 0.000000 0.000512 0.000000
# 4 0.000000 0.000000 0.000000 0.065231 0.000000 -0.024377
# 5 -0.006231 -0.001269 0.000512 0.000000 0.038405 0.000000
# 6 0.000000 0.000000 0.000000 -0.024377 0.000000 0.058495
#
#
# Mechanical properties :
#
#
# Convention : Reuss Voigt Hill
#
# Bulk Modulus (GPa) = 36.57806 47.38473 41.98140
# Shear Modulus (GPa) = 21.00442 26.32422 23.66432
#
# Velocity S-wave (km/s) = 3.33522 3.73377 3.54011
# Velocity P-wave (km/s) = 5.84833 6.60927 6.24041
#
# Compressibility (1/GPa) = 0.02733879
#
# Stress axis : x y z
#
# Youngs Moduli (GPa) = 81.09544 40.08562 102.11903
#
# Poissons Ratio (x) = 0.09623 0.24708
# Poissons Ratio (y) = 0.19469 0.51524
# Poissons Ratio (z) = 0.19621 0.20225
#
# Static dielectric constant tensor:
#      x y z
#    x 3.613890 0.000000 0.048230 
#    y 0.000000 3.156630 0.000000 
#    z 0.048230 0.000000 3.835010 
# 
# 
# High freq. dielectric constant tensor:
#      x y z
#    x 1.734630 0.000000 -0.001490 
#    y 0.000000 1.690860 0.000000 
#    z -0.001490 0.000000 1.753910 
# 
# From -- ./inp_files/99796.got.cif
#   From: 2010.06.25/outbox.cif.g09.slc.cpg/sg15_50_cif.got.tgz:99796.got - 2010.06.28 07:06:18.
