data_PCOD8132377
_publ_section_title
;
Structure prediction by ZEFSAII (Michael W. Deem and Ramdas Pophale) SiO2 
 PCOD8132377
Probable space group: C 2/C
;
_chemical_formula_sum "Si O2"
_cell_formula_units_Z 48
_cell_length_a 19.245160
_cell_length_b 9.547044
_cell_length_c 16.323154
_cell_angle_alpha 90.000000
_cell_angle_beta 57.770468
_cell_angle_gamma 90.000000
_cell_volume 2537.014773
_symmetry_space_group_name_H-M "C 2/C"
_symmetry_group_IT_number 15
_symmetry_cell_setting 'monoclinic'
loop_
_space_group_symop_operation_xyz
x,y,z
-x,y,1/2-z
-x,-y,-z
x,-y,1/2+z
1/2+x,1/2+y,z
1/2-x,1/2+y,1/2-z
1/2-x,1/2-y,-z
1/2+x,1/2-y,1/2+z
loop_
_atom_site_type_symbol
_atom_site_label
_atom_site_fract_x
_atom_site_fract_y
_atom_site_fract_z
Si Si1 0.743817 0.315822 0.681949
Si Si2 0.090485 0.203670 0.175831
Si Si3 0.588032 0.966437 0.667564
Si Si4 0.307308 0.032318 0.538111
Si Si5 0.807218 0.083461 0.524297
Si Si6 0.251625 0.179004 0.367440
O O1 0.653852 0.357351 0.703385
O O2 0.806581 0.446163 0.623702
O O3 0.777969 0.177347 0.617988
O O4 0.738015 0.288895 0.781249
O O5 0.091346 0.370097 0.185681
O O6 0.000000 0.143467 0.250000
O O7 0.112930 0.148723 0.070021
O O8 0.500000 0.904131 0.750000
O O9 0.602957 0.942168 0.559631
O O10 0.658149 0.884112 0.673860
O O11 0.258281 0.176883 0.576892
O O12 0.263909 0.926813 0.499847
O O13 0.818894 0.928250 0.555668
#
# Coordination Sequence:
#
# PCOD8132377 Si02
#       6
#     8   8   8   8   8   8
#     4  11  19  36  56  82 110 142 185 221 265 324
#     4  10  19  35  60  81 103 145 191 221 261 326
#     4  10  19  36  57  82 107 142 187 223 267 323
#     4  10  19  35  56  82 105 150 184 214 267 331
#     4  10  18  37  56  78 106 148 188 212 261 336
#     4  11  22  33  56  86 113 139 179 231 272 313
#
# _framework density 18.919874
#
# number of rings (size 3 to 8) (size 9 to 14) (size 15 to 20)
#    0.000    1.667    5.000    4.000    0.000    0.000 
#    0.000   10.833    0.000    0.000    0.000    0.000 
#    0.000    0.000    0.000    0.000    0.000    0.000 
#
# Total GULP energy -297384.811437 kJ/mol
# GULP energy per Si atom -12391.033810 kJ/mol
# Density = 1.887681 g / cm^3
# Si number density = 18.919874 Si / 1000 Ang^3
#
#
#
# Elastic Constant Matrix: (Units=GPa)
#
#
# Indices 1 2 3 4 5 6 
#
# 1 52.7558 11.5264 44.9111 0.0000 -12.2500 0.0000
# 2 11.5264 77.0108 15.9557 0.0001 -11.0785 -0.0001
# 3 44.9111 15.9557 106.8846 0.0000 -23.5294 0.0000
# 4 0.0000 0.0001 0.0000 32.2239 0.0000 2.4240
# 5 -12.2500 -11.0785 -23.5294 0.0000 28.8538 0.0000
# 6 0.0000 -0.0001 0.0000 2.4240 0.0000 16.1946
#
#
#
# Elastic Compliance Matrix: (Units=1/GPa)
#
#
# Indices 1 2 3 4 5 6 
#
# 1 0.029922 -0.001685 -0.011782 0.000000 0.002449 0.000000
# 2 -0.001685 0.013943 -0.000429 0.000000 0.004288 0.000000
# 3 -0.011782 -0.000429 0.016129 0.000000 0.007985 0.000000
# 4 0.000000 0.000000 0.000000 0.031386 0.000000 -0.004698
# 5 0.002449 0.004288 0.007985 0.000000 0.043855 0.000000
# 6 0.000000 0.000000 0.000000 -0.004698 0.000000 0.062452
#
#
# Mechanical properties :
#
#
# Convention : Reuss Voigt Hill
#
# Bulk Modulus (GPa) = 31.05554 42.38195 36.71875
# Shear Modulus (GPa) = 21.16722 26.40501 23.78611
#
# Velocity S-wave (km/s) = 3.34845 3.73986 3.54955
# Velocity P-wave (km/s) = 5.60351 6.41078 6.02069
#
# Compressibility (1/GPa) = 0.03220037
#
# Stress axis : x y z
#
# Youngs Moduli (GPa) = 33.41998 71.71940 62.00195
#
# Poissons Ratio (x) = 0.12086 0.73052
# Poissons Ratio (y) = 0.05632 0.02663
# Poissons Ratio (z) = 0.39376 0.03080
#
# Static dielectric constant tensor:
#      x y z
#    x 3.090900 0.000000 -0.170340 
#    y 0.000000 3.519860 0.000000 
#    z -0.170340 0.000000 4.036880 
# 
# 
# High freq. dielectric constant tensor:
#      x y z
#    x 1.675130 0.000000 0.002350 
#    y 0.000000 1.744900 0.000000 
#    z 0.002350 0.000000 1.755500 
# 
# From -- ./inp_files/214079.got.cif
#   From: 2010.06.25/outbox.cif.g09.slc.cpg/sg15_108_cif.got.tgz:214079.got - 2010.06.28 07:06:18.
