data_PCOD8132605
_publ_section_title
;
Structure prediction by ZEFSAII (Michael W. Deem and Ramdas Pophale) SiO2 
 PCOD8132605
Probable space group: C 2/C
;
_chemical_formula_sum "Si O2"
_cell_formula_units_Z 44
_cell_length_a 9.666656
_cell_length_b 16.702195
_cell_length_c 14.165461
_cell_angle_alpha 90.000000
_cell_angle_beta 71.555113
_cell_angle_gamma 90.000000
_cell_volume 2169.584972
_symmetry_space_group_name_H-M "C 2/C"
_symmetry_group_IT_number 15
_symmetry_cell_setting 'monoclinic'
loop_
_space_group_symop_operation_xyz
x,y,z
-x,y,1/2-z
-x,-y,-z
x,-y,1/2+z
1/2+x,1/2+y,z
1/2-x,1/2+y,1/2-z
1/2-x,1/2-y,-z
1/2+x,1/2-y,1/2+z
loop_
_atom_site_type_symbol
_atom_site_label
_atom_site_fract_x
_atom_site_fract_y
_atom_site_fract_z
Si Si1 0.641144 0.897949 0.161336
Si Si2 0.597772 0.209421 0.507886
Si Si3 0.500000 0.385015 0.750000
Si Si4 0.379025 0.466078 0.593888
Si Si5 0.262437 0.230914 0.202071
Si Si6 0.803197 0.205591 0.080697
O O1 0.500000 0.925308 0.250000
O O2 0.717163 0.822189 0.193892
O O3 0.752661 0.970571 0.138908
O O4 0.592475 0.875544 0.064067
O O5 0.750000 0.250000 0.500000
O O6 0.597017 0.204514 0.392785
O O7 0.464876 0.263959 0.572958
O O8 0.458319 0.442870 0.673392
O O9 0.364733 0.328493 0.804526
O O10 0.500000 0.500000 0.500000
O O11 0.306761 0.388751 0.559639
O O12 0.298600 0.222003 0.305581
O O13 0.750000 0.250000 0.000000
#
# Coordination Sequence:
#
# PCOD8132605 Si02
#       6
#     8   8   4   8   8   8
#     4  11  19  37  64  95 127 161 212 267 321 371
#     4  10  19  37  67  88 116 170 212 251 310 391
#     4  10  20  40  62  92 122 166 218 252 306 398
#     4  11  23  40  63  93 129 165 213 263 320 380
#     4  10  18  38  66  88 117 166 218 253 307 390
#     4  11  24  42  60  91 129 162 216 265 311 384
#
# _framework density 20.280376
#
# number of rings (size 3 to 8) (size 9 to 14) (size 15 to 20)
#    0.000    1.455    2.727    6.545    0.000    2.182 
#    6.545    0.909    0.000    0.000    0.000    0.000 
#    0.000    0.000    0.000    0.000    0.000    0.000 
#
# Total GULP energy -272717.338571 kJ/mol
# GULP energy per Si atom -12396.242662 kJ/mol
# Density = 2.023422 g / cm^3
# Si number density = 20.280376 Si / 1000 Ang^3
#
#
#
# Elastic Constant Matrix: (Units=GPa)
#
#
# Indices 1 2 3 4 5 6 
#
# 1 53.8325 52.9812 39.9443 0.0000 7.1850 0.0000
# 2 52.9812 164.5987 70.4502 0.0000 4.7997 0.0000
# 3 39.9443 70.4502 166.0829 0.0000 3.1209 0.0000
# 4 0.0000 0.0000 0.0000 31.7912 0.0000 2.2947
# 5 7.1850 4.7997 3.1209 0.0000 35.7215 0.0000
# 6 0.0000 0.0000 0.0000 2.2947 0.0000 35.0673
#
#
#
# Elastic Compliance Matrix: (Units=1/GPa)
#
#
# Indices 1 2 3 4 5 6 
#
# 1 0.029644 -0.007812 -0.003730 0.000000 -0.004587 0.000000
# 2 -0.007812 0.009500 -0.002160 0.000000 0.000483 0.000000
# 3 -0.003730 -0.002160 0.007828 0.000000 0.000357 0.000000
# 4 0.000000 0.000000 0.000000 0.031605 0.000000 -0.002068
# 5 -0.004587 0.000483 0.000357 0.000000 0.028821 0.000000
# 6 0.000000 0.000000 0.000000 -0.002068 0.000000 0.028652
#
#
# Mechanical properties :
#
#
# Convention : Reuss Voigt Hill
#
# Bulk Modulus (GPa) = 51.10200 79.02950 65.06575
# Shear Modulus (GPa) = 29.41591 35.25855 32.33723
#
# Velocity S-wave (km/s) = 3.81262 4.17412 3.99746
# Velocity P-wave (km/s) = 6.68086 7.89203 7.31157
#
# Compressibility (1/GPa) = 0.01956871
#
# Stress axis : x y z
#
# Youngs Moduli (GPa) = 33.73351 105.25963 127.75006
#
# Poissons Ratio (x) = 0.82226 0.47649
# Poissons Ratio (y) = 0.26352 0.27597
# Poissons Ratio (z) = 0.12582 0.22738
#
# Static dielectric constant tensor:
#      x y z
#    x 3.408650 0.000000 -0.092640 
#    y 0.000000 4.000130 0.000000 
#    z -0.092640 0.000000 4.509420 
# 
# 
# High freq. dielectric constant tensor:
#      x y z
#    x 1.768350 0.000000 -0.008680 
#    y 0.000000 1.783160 0.000000 
#    z -0.008680 0.000000 1.822340 
# 
# From -- ./inp_files/134311.got.cif
#   From: 2010.06.25/outbox.cif.g09.slc.cpg/sg15_68_cif.got.tgz:134311.got - 2010.06.28 07:06:18.
