data_PCOD8132080
_publ_section_title
;
Structure prediction by ZEFSAII (Michael W. Deem and Ramdas Pophale) SiO2 
 PCOD8132080
Probable space group: C 2/C
;
_chemical_formula_sum "Si O2"
_cell_formula_units_Z 56
_cell_length_a 17.634138
_cell_length_b 9.194152
_cell_length_c 26.097104
_cell_angle_alpha 90.000000
_cell_angle_beta 139.830465
_cell_angle_gamma 90.000000
_cell_volume 2729.308347
_symmetry_space_group_name_H-M "C 2/C"
_symmetry_group_IT_number 15
_symmetry_cell_setting 'monoclinic'
loop_
_space_group_symop_operation_xyz
x,y,z
-x,y,1/2-z
-x,-y,-z
x,-y,1/2+z
1/2+x,1/2+y,z
1/2-x,1/2+y,1/2-z
1/2-x,1/2-y,-z
1/2+x,1/2-y,1/2+z
loop_
_atom_site_type_symbol
_atom_site_label
_atom_site_fract_x
_atom_site_fract_y
_atom_site_fract_z
Si Si1 0.890237 0.638432 0.583861
Si Si2 0.049131 0.801250 0.437831
Si Si3 0.662378 0.800950 0.608973
Si Si4 0.317210 0.044950 0.954185
Si Si5 0.547738 0.589317 0.829144
Si Si6 0.067953 0.201967 0.231982
Si Si7 0.339774 0.394658 0.488118
O O1 0.893165 0.529326 0.538181
O O2 0.801033 0.574782 0.581479
O O3 0.857462 0.802001 0.549022
O O4 0.020353 0.661894 0.674038
O O5 0.147467 0.712918 0.521292
O O6 0.054325 0.789499 0.378060
O O7 0.921924 0.739475 0.387674
O O8 0.076110 0.966147 0.467587
O O9 0.794098 0.773616 0.694830
O O10 0.627061 0.693861 0.544976
O O11 0.646221 0.968198 0.580726
O O12 0.178010 0.023408 0.888292
O O13 0.500000 0.654997 0.750000
O O14 0.461471 0.460379 0.804384
O O15 0.000000 0.208163 0.250000
#
# Coordination Sequence:
#
# PCOD8132080 Si02
#       7
#     8   8   8   8   8   8   8
#     4  10  18  35  63  94 115 165 226 262 294 378
#     4  12  24  40  61  99 134 165 208 274 345 386
#     4  11  23  40  64  94 129 170 213 273 332 391
#     4  11  22  41  66  92 126 172 221 264 321 405
#     4  11  21  40  69  89 121 175 222 263 324 400
#     4  11  18  38  67  88 119 169 227 263 308 388
#     4  10  19  36  63  90 123 160 218 264 311 380
#
# _framework density 20.518017
#
# number of rings (size 3 to 8) (size 9 to 14) (size 15 to 20)
#    0.000    1.143    7.143    2.143    0.000    0.000 
#    2.571    3.571    0.000    0.000    0.000    0.000 
#    0.000    0.000    0.000    0.000    0.000    0.000 
#
# Total GULP energy -346933.020137 kJ/mol
# GULP energy per Si atom -12390.465005 kJ/mol
# Density = 2.047132 g / cm^3
# Si number density = 20.518017 Si / 1000 Ang^3
#
#
#
# Elastic Constant Matrix: (Units=GPa)
#
#
# Indices 1 2 3 4 5 6 
#
# 1 90.7427 33.3613 36.6182 0.0000 9.8504 0.0000
# 2 33.3613 70.3300 34.3370 0.0000 4.3014 0.0000
# 3 36.6182 34.3370 115.5945 0.0000 5.5328 0.0000
# 4 0.0000 0.0000 0.0000 27.2023 0.0000 -3.0966
# 5 9.8504 4.3014 5.5328 0.0000 30.7686 0.0000
# 6 0.0000 0.0000 0.0000 -3.0966 0.0000 34.1511
#
#
#
# Elastic Compliance Matrix: (Units=1/GPa)
#
#
# Indices 1 2 3 4 5 6 
#
# 1 0.014477 -0.005264 -0.002861 0.000000 -0.003385 0.000000
# 2 -0.005264 0.018609 -0.003849 0.000000 -0.000224 0.000000
# 3 -0.002861 -0.003849 0.010723 0.000000 -0.000474 0.000000
# 4 0.000000 0.000000 0.000000 0.037145 0.000000 0.003368
# 5 -0.003385 -0.000224 -0.000474 0.000000 0.033701 0.000000
# 6 0.000000 0.000000 0.000000 0.003368 0.000000 0.029587
#
#
# Mechanical properties :
#
#
# Convention : Reuss Voigt Hill
#
# Bulk Modulus (GPa) = 50.34828 53.92224 52.13526
# Shear Modulus (GPa) = 28.60254 29.91446 29.25850
#
# Velocity S-wave (km/s) = 3.73771 3.82247 3.78033
# Velocity P-wave (km/s) = 6.57413 6.76899 6.67227
#
# Compressibility (1/GPa) = 0.01986165
#
# Stress axis : x y z
#
# Youngs Moduli (GPa) = 69.07474 53.73840 93.25513
#
# Poissons Ratio (x) = 0.28286 0.26676
# Poissons Ratio (y) = 0.36359 0.35898
# Poissons Ratio (z) = 0.19759 0.20686
#
# Static dielectric constant tensor:
#      x y z
#    x 3.525950 0.000000 -0.070790 
#    y 0.000000 3.712360 0.000000 
#    z -0.070790 0.000000 3.923800 
# 
# 
# High freq. dielectric constant tensor:
#      x y z
#    x 1.781180 0.000000 -0.000300 
#    y 0.000000 1.785330 0.000000 
#    z -0.000300 0.000000 1.806280 
# 
# From -- ./inp_files/315541.got.cif
#   From: 2010.06.25/outbox.cif.g09.slc.cpg/sg15_158_cif.got.tgz:315541.got - 2010.06.28 07:06:18.
