data_PCOD8132310
_publ_section_title
;
Structure prediction by ZEFSAII (Michael W. Deem and Ramdas Pophale) SiO2 
 PCOD8132310
Probable space group: C 2/C
;
_chemical_formula_sum "Si O2"
_cell_formula_units_Z 44
_cell_length_a 20.448079
_cell_length_b 7.367900
_cell_length_c 17.413493
_cell_angle_alpha 90.000000
_cell_angle_beta 49.983703
_cell_angle_gamma 90.000000
_cell_volume 2009.242779
_symmetry_space_group_name_H-M "C 2/C"
_symmetry_group_IT_number 15
_symmetry_cell_setting 'monoclinic'
loop_
_space_group_symop_operation_xyz
x,y,z
-x,y,1/2-z
-x,-y,-z
x,-y,1/2+z
1/2+x,1/2+y,z
1/2-x,1/2+y,1/2-z
1/2-x,1/2-y,-z
1/2+x,1/2-y,1/2+z
loop_
_atom_site_type_symbol
_atom_site_label
_atom_site_fract_x
_atom_site_fract_y
_atom_site_fract_z
Si Si1 0.400754 0.465854 0.084077
Si Si2 0.848812 0.036461 0.457984
Si Si3 0.365282 0.252480 0.738650
Si Si4 0.785742 0.400897 0.550663
Si Si5 0.500000 0.615754 0.250000
Si Si6 0.098066 0.542177 0.408639
O O1 0.362897 0.580397 0.181506
O O2 0.384749 0.255322 0.114775
O O3 0.500000 0.500000 0.000000
O O4 0.353695 0.533983 0.041436
O O5 0.845868 0.258354 0.460139
O O6 0.765394 0.970712 0.471844
O O7 0.934600 0.985193 0.346075
O O8 0.279679 0.271719 0.852302
O O9 0.449265 0.259336 0.728029
O O10 0.368602 0.061110 0.691779
O O11 0.844511 0.524066 0.561811
O O12 0.000000 0.500000 0.500000
#
# Coordination Sequence:
#
# PCOD8132310 Si02
#       6
#     8   8   8   8   4   8
#     4  11  20  38  64  91 121 160 207 249 305 366
#     4   9  18  36  58  90 120 159 204 248 301 365
#     4  11  22  38  62  88 123 162 205 253 305 363
#     4   9  21  36  59  88 123 160 205 250 305 361
#     4  10  18  36  64  84 118 168 196 248 312 358
#     4  11  22  38  61  88 121 162 205 251 301 363
#
# _framework density 21.898799
#
# number of rings (size 3 to 8) (size 9 to 14) (size 15 to 20)
#    0.000    1.818    3.636    1.091    5.091    0.000 
#    0.000    1.818    0.000    0.000    0.000    0.000 
#    0.000    0.000    0.000    0.000    0.000    0.000 
#
# Total GULP energy -272663.277400 kJ/mol
# GULP energy per Si atom -12393.785336 kJ/mol
# Density = 2.184896 g / cm^3
# Si number density = 21.898799 Si / 1000 Ang^3
#
#
#
# Elastic Constant Matrix: (Units=GPa)
#
#
# Indices 1 2 3 4 5 6 
#
# 1 209.0288 24.2062 33.6147 0.0021 22.9602 -0.0014
# 2 24.2062 74.9956 19.4851 0.0022 17.1507 -0.0035
# 3 33.6147 19.4851 73.8446 -0.0001 13.3273 -0.0007
# 4 0.0021 0.0022 -0.0001 29.8871 -0.0004 4.0080
# 5 22.9602 17.1507 13.3273 -0.0004 40.7030 0.0007
# 6 -0.0014 -0.0035 -0.0007 4.0080 0.0007 20.0535
#
#
#
# Elastic Compliance Matrix: (Units=1/GPa)
#
#
# Indices 1 2 3 4 5 6 
#
# 1 0.005407 -0.000775 -0.001876 0.000000 -0.002109 0.000000
# 2 -0.000775 0.015496 -0.002802 -0.000002 -0.005174 0.000003
# 3 -0.001876 -0.002802 0.015656 0.000000 -0.002887 0.000000
# 4 0.000000 -0.000002 0.000000 0.034381 0.000001 -0.006872
# 5 -0.002109 -0.005174 -0.002887 0.000001 0.028884 -0.000002
# 6 0.000000 0.000003 0.000000 -0.006872 -0.000002 0.051240
#
#
# Mechanical properties :
#
#
# Convention : Reuss Voigt Hill
#
# Bulk Modulus (GPa) = 38.98290 56.94233 47.96261
# Shear Modulus (GPa) = 29.32181 36.83294 33.07737
#
# Velocity S-wave (km/s) = 3.66316 4.10562 3.89069
# Velocity P-wave (km/s) = 5.97760 6.96662 6.49097
#
# Compressibility (1/GPa) = 0.02565228
#
# Stress axis : x y z
#
# Youngs Moduli (GPa) = 184.93827 64.53388 63.87152
#
# Poissons Ratio (x) = 0.05005 0.11983
# Poissons Ratio (y) = 0.14342 0.17896
# Poissons Ratio (z) = 0.34697 0.18082
#
# Static dielectric constant tensor:
#      x y z
#    x 4.816740 0.000020 0.318490 
#    y 0.000020 3.575190 0.000020 
#    z 0.318490 0.000020 4.151880 
# 
# 
# High freq. dielectric constant tensor:
#      x y z
#    x 1.897740 0.000000 0.004550 
#    y 0.000000 1.799990 0.000000 
#    z 0.004550 0.000000 1.866880 
# 
# From -- ./inp_files/213251.got.cif
#   From: 2010.06.25/outbox.cif.g09.slc.cpg/sg15_107_cif.got.tgz:213251.got - 2010.06.28 07:06:18.
