data_PCOD8132187
_publ_section_title
;
Structure prediction by ZEFSAII (Michael W. Deem and Ramdas Pophale) SiO2 
 PCOD8132187
Probable space group: C 2/C
;
_chemical_formula_sum "Si O2"
_cell_formula_units_Z 56
_cell_length_a 27.906665
_cell_length_b 5.043512
_cell_length_c 19.597190
_cell_angle_alpha 90.000000
_cell_angle_beta 77.343404
_cell_angle_gamma 90.000000
_cell_volume 2691.234025
_symmetry_space_group_name_H-M "C 2/C"
_symmetry_group_IT_number 15
_symmetry_cell_setting 'monoclinic'
loop_
_space_group_symop_operation_xyz
x,y,z
-x,y,1/2-z
-x,-y,-z
x,-y,1/2+z
1/2+x,1/2+y,z
1/2-x,1/2+y,1/2-z
1/2-x,1/2-y,-z
1/2+x,1/2-y,1/2+z
loop_
_atom_site_type_symbol
_atom_site_label
_atom_site_fract_x
_atom_site_fract_y
_atom_site_fract_z
Si Si1 0.542313 0.518403 0.327528
Si Si2 0.716361 0.000654 0.500429
Si Si3 0.375159 0.066776 0.873461
Si Si4 0.419263 0.540993 0.539627
Si Si5 0.064177 0.068175 0.613491
Si Si6 0.103863 0.475883 0.780203
Si Si7 0.140889 0.463826 0.414144
O O1 0.544252 0.467412 0.408060
O O2 0.484708 0.488909 0.326125
O O3 0.576954 0.306529 0.278610
O O4 0.560520 0.810432 0.303138
O O5 0.750000 0.750000 0.500000
O O6 0.694544 0.003482 0.430319
O O7 0.750000 0.250000 0.500000
O O8 0.673093 0.998090 0.569296
O O9 0.392254 0.368053 0.879820
O O10 0.419052 0.868874 0.880131
O O11 0.363557 0.032503 0.796619
O O12 0.448668 0.468762 0.462302
O O13 0.374653 0.336697 0.565920
O O14 0.396832 0.834745 0.537473
O O15 0.141100 0.477064 0.832905
#
# Coordination Sequence:
#
# PCOD8132187 Si02
#       7
#     8   8   8   8   8   8   8
#     4  10  22  35  59  89 122 170 201 238 268 347
#     4  12  24  42  66  92 111 143 199 251 307 360
#     4  12  25  40  61  88 122 158 192 251 299 348
#     4  10  18  36  58  87 122 156 204 236 289 336
#     4  12  21  36  60  89 127 157 207 241 285 332
#     4  10  23  41  58  86 127 163 197 227 294 351
#     4  10  20  40  63  84 118 158 188 243 299 351
#
# _framework density 20.808298000000001
#
# number of rings (size 3 to 8) (size 9 to 14) (size 15 to 20)
#    0.000    1.143    2.857    3.857    0.000    3.429 
#    0.000    7.143    0.000    0.000    0.000    0.000 
#    0.000    0.000    0.000    0.000    0.000    0.000 
#
# Total GULP energy -347305.718478 kJ/mol
# GULP energy per Si atom -12403.775660 kJ/mol
# Density = 2.076094 g / cm^3
# Si number density = 20.808298 Si / 1000 Ang^3
#
#
#
# Elastic Constant Matrix: (Units=GPa)
#
#
# Indices 1 2 3 4 5 6 
#
# 1 105.0106 27.2969 22.7377 0.0000 -3.8968 0.0000
# 2 27.2969 100.2418 1.7123 0.0000 2.4368 0.0000
# 3 22.7377 1.7123 81.0326 0.0000 -5.8220 0.0000
# 4 0.0000 0.0000 0.0000 21.8001 0.0000 4.7096
# 5 -3.8968 2.4368 -5.8220 0.0000 13.8246 0.0000
# 6 0.0000 0.0000 0.0000 4.7096 0.0000 33.3137
#
#
#
# Elastic Compliance Matrix: (Units=1/GPa)
#
#
# Indices 1 2 3 4 5 6 
#
# 1 0.011013 -0.003009 -0.002852 0.000000 0.002434 0.000000
# 2 -0.003009 0.010851 0.000430 0.000000 -0.002580 0.000000
# 3 -0.002852 0.000430 0.013476 0.000000 0.004796 0.000000
# 4 0.000000 0.000000 0.000000 0.047316 0.000000 -0.006689
# 5 0.002434 -0.002580 0.004796 0.000000 0.075496 0.000000
# 6 0.000000 0.000000 0.000000 -0.006689 0.000000 0.030963
#
#
# Mechanical properties :
#
#
# Convention : Reuss Voigt Hill
#
# Bulk Modulus (GPa) = 40.85412 43.30876 42.08144
# Shear Modulus (GPa) = 24.02260 29.42354 26.72307
#
# Velocity S-wave (km/s) = 3.40144 3.76444 3.58753
# Velocity P-wave (km/s) = 5.92474 6.30500 6.11783
#
# Compressibility (1/GPa) = 0.02447734
#
# Stress axis : x y z
#
# Youngs Moduli (GPa) = 90.80239 92.15964 74.20372
#
# Poissons Ratio (x) = 0.27734 0.21161
# Poissons Ratio (y) = 0.27326 -0.03189
# Poissons Ratio (z) = 0.25895 -0.03961
#
# Static dielectric constant tensor:
#      x y z
#    x 3.555670 0.000000 0.251290 
#    y 0.000000 3.888960 0.000000 
#    z 0.251290 0.000000 3.996230 
# 
# 
# High freq. dielectric constant tensor:
#      x y z
#    x 1.783300 0.000000 0.020560 
#    y 0.000000 1.834120 0.000000 
#    z 0.020560 0.000000 1.824180 
# 
# From -- ./inp_files/254021.got.cif
#   From: 2010.06.25/outbox.cif.g09.slc.cpg/sg15_128_cif.got.tgz:254021.got - 2010.06.28 07:06:18.
