data_PCOD8132325
_publ_section_title
;
Structure prediction by ZEFSAII (Michael W. Deem and Ramdas Pophale) SiO2 
 PCOD8132325
Probable space group: C 2/C
;
_chemical_formula_sum "Si O2"
_cell_formula_units_Z 56
_cell_length_a 19.265718
_cell_length_b 15.506731
_cell_length_c 8.991191
_cell_angle_alpha 90.000000
_cell_angle_beta 97.557549
_cell_angle_gamma 90.000000
_cell_volume 2662.769601
_symmetry_space_group_name_H-M "C 2/C"
_symmetry_group_IT_number 15
_symmetry_cell_setting 'monoclinic'
loop_
_space_group_symop_operation_xyz
x,y,z
-x,y,1/2-z
-x,-y,-z
x,-y,1/2+z
1/2+x,1/2+y,z
1/2-x,1/2+y,1/2-z
1/2-x,1/2-y,-z
1/2+x,1/2-y,1/2+z
loop_
_atom_site_type_symbol
_atom_site_label
_atom_site_fract_x
_atom_site_fract_y
_atom_site_fract_z
Si Si1 0.923291 0.387183 0.198955
Si Si2 0.332849 0.271073 0.660778
Si Si3 0.117060 0.914182 0.645320
Si Si4 0.635032 0.010003 0.549235
Si Si5 0.229095 0.467928 0.818580
Si Si6 0.078652 0.087377 0.795746
Si Si7 0.291327 0.656335 0.841493
O O1 0.873870 0.313440 0.119664
O O2 0.900798 0.420678 0.354898
O O3 0.000000 0.351197 0.250000
O O4 0.921255 0.461755 0.072147
O O5 0.389777 0.320040 0.782462
O O6 0.317866 0.333279 0.517589
O O7 0.258909 0.238031 0.714513
O O8 0.086743 0.918849 0.473715
O O9 0.200710 0.915688 0.671302
O O10 0.083010 0.991013 0.730360
O O11 0.679474 0.943781 0.665133
O O12 0.690539 0.058981 0.459259
O O13 0.244273 0.570683 0.819216
O O14 0.139238 0.148595 0.743523
O O15 0.000000 0.124558 0.750000
#
# Coordination Sequence:
#
# PCOD8132325 Si02
#       7
#     8   8   8   8   8   8   8
#     4  11  24  40  60  88 124 163 208 256 314 381
#     4  11  23  40  64  95 128 162 212 263 332 371
#     4  11  23  37  68  94 127 164 209 269 312 374
#     4  10  19  37  61  84 116 158 204 253 301 370
#     4  10  18  36  64  94 115 153 207 256 302 366
#     4  11  24  43  64  94 130 175 220 253 315 394
#     4  10  21  41  64  93 126 164 208 265 315 378
#
# _framework density 21.030733999999999
#
# number of rings (size 3 to 8) (size 9 to 14) (size 15 to 20)
#    0.000    1.429    2.857    5.143    2.000    2.286 
#    0.000    0.000    0.000    1.714    0.000    0.000 
#    0.000    0.000    0.000    0.000    0.000    0.000 
#
# Total GULP energy -346981.577030 kJ/mol
# GULP energy per Si atom -12392.199180 kJ/mol
# Density = 2.098287 g / cm^3
# Si number density = 21.030734 Si / 1000 Ang^3
#
#
#
# Elastic Constant Matrix: (Units=GPa)
#
#
# Indices 1 2 3 4 5 6 
#
# 1 102.4703 9.7507 28.6847 0.0000 4.2790 0.0000
# 2 9.7507 49.9650 18.8309 0.0000 -8.2451 0.0000
# 3 28.6847 18.8309 124.2464 0.0000 -3.1067 0.0000
# 4 0.0000 0.0000 0.0000 54.4145 0.0000 -0.2768
# 5 4.2790 -8.2451 -3.1067 0.0000 12.7744 0.0000
# 6 0.0000 0.0000 0.0000 -0.2768 0.0000 18.7241
#
#
#
# Elastic Compliance Matrix: (Units=1/GPa)
#
#
# Indices 1 2 3 4 5 6 
#
# 1 0.010847 -0.002167 -0.002316 0.000000 -0.005596 0.000000
# 2 -0.002167 0.024045 -0.002754 0.000000 0.015576 0.000000
# 3 -0.002316 -0.002754 0.009030 0.000000 0.001194 0.000000
# 4 0.000000 0.000000 0.000000 0.018379 0.000000 0.000272
# 5 -0.005596 0.015576 0.001194 0.000000 0.090499 0.000000
# 6 0.000000 0.000000 0.000000 0.000272 0.000000 0.053411
#
#
# Mechanical properties :
#
#
# Convention : Reuss Voigt Hill
#
# Bulk Modulus (GPa) = 33.95840 43.46825 38.71332
# Shear Modulus (GPa) = 21.69165 31.81030 26.75097
#
# Velocity S-wave (km/s) = 3.21507 3.89339 3.57037
# Velocity P-wave (km/s) = 5.47397 6.39727 5.95354
#
# Compressibility (1/GPa) = 0.02944779
#
# Stress axis : x y z
#
# Youngs Moduli (GPa) = 92.19089 41.58789 110.73628
#
# Poissons Ratio (x) = 0.09014 0.25643
# Poissons Ratio (y) = 0.19982 0.30502
# Poissons Ratio (z) = 0.21348 0.11455
#
# Static dielectric constant tensor:
#      x y z
#    x 3.963650 0.000000 0.076490 
#    y 0.000000 3.573440 0.000000 
#    z 0.076490 0.000000 4.003610 
# 
# 
# High freq. dielectric constant tensor:
#      x y z
#    x 1.829410 0.000000 0.008390 
#    y 0.000000 1.799250 0.000000 
#    z 0.008390 0.000000 1.831380 
# 
# From -- ./inp_files/55637.got.cif
#   From: 2010.06.25/outbox.cif.g09.slc.cpg/sg15_28_cif.got.tgz:55637.got - 2010.06.28 07:06:18.
