data_PCOD8132867
_publ_section_title
;
Structure prediction by ZEFSAII (Michael W. Deem and Ramdas Pophale) SiO2 
 PCOD8132867
Probable space group: C 2/C
;
_chemical_formula_sum "Si O2"
_cell_formula_units_Z 48
_cell_length_a 23.895943
_cell_length_b 13.564873
_cell_length_c 25.596909
_cell_angle_alpha 90.000000
_cell_angle_beta 21.004289
_cell_angle_gamma 90.000000
_cell_volume 2974.002123
_symmetry_space_group_name_H-M "C 2/C"
_symmetry_group_IT_number 15
_symmetry_cell_setting 'monoclinic'
loop_
_space_group_symop_operation_xyz
x,y,z
-x,y,1/2-z
-x,-y,-z
x,-y,1/2+z
1/2+x,1/2+y,z
1/2-x,1/2+y,1/2-z
1/2-x,1/2-y,-z
1/2+x,1/2-y,1/2+z
loop_
_atom_site_type_symbol
_atom_site_label
_atom_site_fract_x
_atom_site_fract_y
_atom_site_fract_z
Si Si1 0.268651 0.651016 0.919196
Si Si2 0.496075 0.546129 0.581845
Si Si3 0.659736 0.953866 0.418184
Si Si4 0.098390 0.651711 0.420224
Si Si5 0.392979 0.349009 0.419169
Si Si6 0.938847 0.848288 0.579757
O O1 0.188292 0.565168 0.954864
O O2 0.437505 0.676876 0.750009
O O3 0.281105 0.615891 0.968893
O O4 0.169495 0.750020 0.999997
O O5 0.313893 0.570413 0.750015
O O6 0.597947 0.565122 0.545217
O O7 0.517306 0.432142 0.547580
O O8 0.558679 0.618031 0.482447
O O9 0.523535 0.881989 0.517577
O O10 0.612498 0.067868 0.452405
O O11 0.261666 0.673070 0.249992
O O12 0.039684 0.750003 0.499990
#
# Coordination Sequence:
#
# PCOD8132867 Si02
#       6
#     8   8   8   8   8   8
#     4   9  17  29  45  65  88 113 141 174 213 256
#     4   9  18  31  46  65  88 115 146 178 214 256
#     4   9  18  31  46  65  88 115 146 178 214 256
#     4  10  19  30  45  65  89 116 145 178 216 257
#     4   9  17  29  45  65  88 113 141 174 213 256
#     4  10  19  30  45  65  89 116 145 178 216 257
#
# _framework density 16.139866999999999
#
# number of rings (size 3 to 8) (size 9 to 14) (size 15 to 20)
#    0.000    2.667    0.000    2.000    0.000    5.333 
#    0.000    0.000    0.000    1.000    0.000    0.000 
#    0.000    0.000    0.000    0.000    0.000    1.000 
#
# Total GULP energy -297572.775719 kJ/mol
# GULP energy per Si atom -12398.865655 kJ/mol
# Density = 1.610313 g / cm^3
# Si number density = 16.139867 Si / 1000 Ang^3
#
#
#
# Elastic Constant Matrix: (Units=GPa)
#
#
# Indices 1 2 3 4 5 6 
#
# 1 120.4851 68.2016 41.9898 0.0065 -2.9289 -0.0020
# 2 68.2016 112.5913 50.4706 0.0107 -1.3170 -0.0070
# 3 41.9898 50.4706 65.8139 0.0090 -1.1540 -0.0027
# 4 0.0065 0.0107 0.0090 28.8988 -0.0051 0.3960
# 5 -2.9289 -1.3170 -1.1540 -0.0051 19.7715 0.0010
# 6 -0.0020 -0.0070 -0.0027 0.3960 0.0010 23.7528
#
#
#
# Elastic Compliance Matrix: (Units=1/GPa)
#
#
# Indices 1 2 3 4 5 6 
#
# 1 0.013166 -0.006407 -0.003463 0.000001 0.001321 -0.000001
# 2 -0.006407 0.016654 -0.008690 -0.000002 -0.000347 0.000003
# 3 -0.003463 -0.008690 0.024073 -0.000003 0.000313 0.000000
# 4 0.000001 -0.000002 -0.000003 0.034611 0.000009 -0.000577
# 5 0.001321 -0.000347 0.000313 0.000009 0.050769 -0.000002
# 6 -0.000001 0.000003 0.000000 -0.000577 -0.000002 0.042110
#
#
# Mechanical properties :
#
#
# Convention : Reuss Voigt Hill
#
# Bulk Modulus (GPa) = 59.62021 68.91269 64.26645
# Shear Modulus (GPa) = 22.31206 23.69984 23.00595
#
# Velocity S-wave (km/s) = 3.72212 3.83613 3.77956
# Velocity P-wave (km/s) = 7.44931 7.90007 7.67800
#
# Compressibility (1/GPa) = 0.01677283
#
# Stress axis : x y z
#
# Youngs Moduli (GPa) = 75.95511 60.04564 41.53990
#
# Poissons Ratio (x) = 0.38472 0.14386
# Poissons Ratio (y) = 0.48666 0.36097
# Poissons Ratio (z) = 0.26305 0.52178
#
# Static dielectric constant tensor:
#      x y z
#    x 3.173670 0.000010 -0.002590 
#    y 0.000010 3.041550 0.000020 
#    z -0.002590 0.000020 3.138220 
# 
# 
# High freq. dielectric constant tensor:
#      x y z
#    x 1.611400 0.000000 0.001260 
#    y 0.000000 1.606870 0.000000 
#    z 0.001260 0.000000 1.628170 
# 
# From -- ./inp_files/60607.got.cif
#   From: 2010.06.25/outbox.cif.g09.slc.cpg/sg15_31_cif.got.tgz:60607.got - 2010.06.28 07:06:18.
