data_PCOD8132033
_publ_section_title
;
Structure prediction by ZEFSAII (Michael W. Deem and Ramdas Pophale) SiO2 
 PCOD8132033
Probable space group: C 2/C
;
_chemical_formula_sum "Si O2"
_cell_formula_units_Z 56
_cell_length_a 27.424763
_cell_length_b 12.013791
_cell_length_c 14.622885
_cell_angle_alpha 90.000000
_cell_angle_beta 35.897030
_cell_angle_gamma 90.000000
_cell_volume 2824.869615
_symmetry_space_group_name_H-M "C 2/C"
_symmetry_group_IT_number 15
_symmetry_cell_setting 'monoclinic'
loop_
_space_group_symop_operation_xyz
x,y,z
-x,y,1/2-z
-x,-y,-z
x,-y,1/2+z
1/2+x,1/2+y,z
1/2-x,1/2+y,1/2-z
1/2-x,1/2-y,-z
1/2+x,1/2-y,1/2+z
loop_
_atom_site_type_symbol
_atom_site_label
_atom_site_fract_x
_atom_site_fract_y
_atom_site_fract_z
Si Si1 0.849128 0.978832 0.592656
Si Si2 0.801536 0.506189 0.411308
Si Si3 0.311664 0.868653 0.717838
Si Si4 0.823094 0.135196 0.795731
Si Si5 0.972369 0.034023 0.641671
Si Si6 0.649309 0.374736 0.578591
Si Si7 0.901716 0.633692 0.892326
O O1 0.830228 0.024367 0.722346
O O2 0.838572 0.083978 0.542771
O O3 0.784672 0.881997 0.664630
O O4 0.942250 0.927903 0.438065
O O5 0.836606 0.542271 0.258673
O O6 0.759716 0.618618 0.517605
O O7 0.731324 0.409626 0.511224
O O8 0.876501 0.466255 0.362217
O O9 0.322854 0.744517 0.736266
O O10 0.369338 0.891265 0.543269
O O11 0.904340 0.133688 0.739382
O O12 0.933455 0.927362 0.751533
O O13 0.000000 0.000000 0.500000
O O14 0.638756 0.242865 0.591142
O O15 0.000000 0.644464 0.750000
#
# Coordination Sequence:
#
# PCOD8132033 Si02
#       7
#     8   8   8   8   8   8   8
#     4  10  18  35  60  89 117 149 196 252 296 348
#     4  10  23  42  59  89 124 157 199 248 299 356
#     4  11  23  39  63  87 118 162 202 243 300 358
#     4  10  19  38  60  85 122 155 194 243 303 352
#     4   9  19  32  57  89 121 143 185 254 305 342
#     4  10  20  37  63  90 117 150 199 252 301 348
#     4  12  24  39  62  86 121 162 205 246 291 359
#
# _framework density 19.823924000000002
#
# number of rings (size 3 to 8) (size 9 to 14) (size 15 to 20)
#    0.000    1.714    2.857    2.143    2.000    0.571 
#    0.000    1.429    0.000    0.000    0.000    0.000 
#    0.000    0.000    0.000    0.000    0.000    0.000 
#
# Total GULP energy -347124.743932 kJ/mol
# GULP energy per Si atom -12397.312283 kJ/mol
# Density = 1.977880 g / cm^3
# Si number density = 19.823924 Si / 1000 Ang^3
#
#
#
# Elastic Constant Matrix: (Units=GPa)
#
#
# Indices 1 2 3 4 5 6 
#
# 1 92.1360 43.6840 29.9358 0.0000 -1.9988 0.0000
# 2 43.6840 77.4786 29.9451 0.0000 -5.1199 0.0000
# 3 29.9358 29.9451 93.2054 0.0000 14.2318 0.0000
# 4 0.0000 0.0000 0.0000 19.5608 0.0000 7.3744
# 5 -1.9988 -5.1199 14.2318 0.0000 34.6948 0.0000
# 6 0.0000 0.0000 0.0000 7.3744 0.0000 31.1722
#
#
#
# Elastic Compliance Matrix: (Units=1/GPa)
#
#
# Indices 1 2 3 4 5 6 
#
# 1 0.015308 -0.007565 -0.002614 0.000000 0.000838 0.000000
# 2 -0.007565 0.019131 -0.004354 0.000000 0.004173 0.000000
# 3 -0.002614 -0.004354 0.013963 0.000000 -0.006521 0.000000
# 4 0.000000 0.000000 0.000000 0.056129 0.000000 -0.013278
# 5 0.000838 0.004173 -0.006521 0.000000 0.032162 0.000000
# 6 0.000000 0.000000 0.000000 -0.013278 0.000000 0.035221
#
#
# Mechanical properties :
#
#
# Convention : Reuss Voigt Hill
#
# Bulk Modulus (GPa) = 51.71781 52.21665 51.96723
# Shear Modulus (GPa) = 24.10522 27.70257 25.90389
#
# Velocity S-wave (km/s) = 3.49085 3.74228 3.61875
# Velocity P-wave (km/s) = 6.51101 6.71344 6.61300
#
# Compressibility (1/GPa) = 0.01933570
#
# Stress axis : x y z
#
# Youngs Moduli (GPa) = 65.32587 52.27197 71.61795
#
# Poissons Ratio (x) = 0.39545 0.18721
# Poissons Ratio (y) = 0.49421 0.31181
# Poissons Ratio (z) = 0.17076 0.22758
#
# Static dielectric constant tensor:
#      x y z
#    x 3.987980 0.000000 -0.037600 
#    y 0.000000 3.206310 0.000000 
#    z -0.037600 0.000000 3.778720 
# 
# 
# High freq. dielectric constant tensor:
#      x y z
#    x 1.786520 0.000000 0.010770 
#    y 0.000000 1.737350 0.000000 
#    z 0.010770 0.000000 1.779590 
# 
# From -- ./inp_files/177556.got.cif
#   From: 2010.06.25/outbox.cif.g09.slc.cpg/sg15_89_cif.got.tgz:177556.got - 2010.06.28 07:06:18.
