data_PCOD8132857
_publ_section_title
;
Structure prediction by ZEFSAII (Michael W. Deem and Ramdas Pophale) SiO2 
 PCOD8132857
Probable space group: C 2/C
;
_chemical_formula_sum "Si O2"
_cell_formula_units_Z 52
_cell_length_a 20.024212
_cell_length_b 30.238544
_cell_length_c 8.949587
_cell_angle_alpha 90.000000
_cell_angle_beta 149.151628
_cell_angle_gamma 90.000000
_cell_volume 2778.690015
_symmetry_space_group_name_H-M "C 2/C"
_symmetry_group_IT_number 15
_symmetry_cell_setting 'monoclinic'
loop_
_space_group_symop_operation_xyz
x,y,z
-x,y,1/2-z
-x,-y,-z
x,-y,1/2+z
1/2+x,1/2+y,z
1/2-x,1/2+y,1/2-z
1/2-x,1/2-y,-z
1/2+x,1/2-y,1/2+z
loop_
_atom_site_type_symbol
_atom_site_label
_atom_site_fract_x
_atom_site_fract_y
_atom_site_fract_z
Si Si1 0.899733 0.260636 0.262742
Si Si2 0.349438 0.025460 0.468119
Si Si3 0.000000 0.187100 0.250000
Si Si4 0.126902 0.406077 0.707995
Si Si5 0.854387 0.440951 0.293329
Si Si6 0.000000 0.665324 0.750000
Si Si7 0.000000 0.298685 0.750000
Si Si8 0.739514 0.864445 0.200778
O O1 0.904884 0.303349 0.164085
O O2 0.968381 0.217570 0.329581
O O3 0.981411 0.268334 0.569991
O O4 0.750000 0.250000 0.000000
O O5 0.289750 0.059237 0.231788
O O6 0.295665 0.036071 0.530754
O O7 0.331389 0.974636 0.387051
O O8 0.500000 0.039367 0.750000
O O9 0.119801 0.156402 0.521952
O O10 0.006717 0.429924 0.563855
O O11 0.081703 0.364774 0.520484
O O12 0.230060 0.391148 0.029088
O O13 0.779005 0.396110 0.190100
O O14 0.871563 0.327801 0.516177
#
# Coordination Sequence:
#
# PCOD8132857 Si02
#       8
#     8   8   4   8   8   4   4   8
#     4  11  24  41  61  88 124 155 201 254 306 366
#     4  10  19  29  53  92 128 154 196 250 300 348
#     4  11  28  42  62  90 119 163 204 254 306 361
#     4  11  19  33  57  89 120 158 196 248 302 356
#     4  11  19  33  55  89 125 159 196 250 298 354
#     4  11  20  36  57  92 118 158 196 253 304 359
#     4  12  22  38  69  86 115 165 198 249 310 358
#     4  12  22  39  61  88 120 158 207 245 300 360
#
# _framework density 18.713854999999999
#
# number of rings (size 3 to 8) (size 9 to 14) (size 15 to 20)
#    0.000    0.923    6.923    3.692    0.000    1.846 
#    0.000    0.000    0.000    3.692    0.000    0.000 
#    0.000    0.000    0.000    0.000    0.000    0.000 
#
# Total GULP energy -322356.620256 kJ/mol
# GULP energy per Si atom -12398.331548 kJ/mol
# Density = 1.867126 g / cm^3
# Si number density = 18.713855 Si / 1000 Ang^3
#
#
#
# Elastic Constant Matrix: (Units=GPa)
#
#
# Indices 1 2 3 4 5 6 
#
# 1 102.1531 63.3090 64.3740 0.0000 -17.1063 0.0000
# 2 63.3090 123.1279 64.4343 0.0000 -8.5494 0.0000
# 3 64.3740 64.4343 101.6514 0.0000 -4.8400 0.0000
# 4 0.0000 0.0000 0.0000 29.4676 0.0000 -9.8422
# 5 -17.1063 -8.5494 -4.8400 0.0000 32.7404 0.0000
# 6 0.0000 0.0000 0.0000 -9.8422 0.0000 37.1881
#
#
#
# Elastic Compliance Matrix: (Units=1/GPa)
#
#
# Indices 1 2 3 4 5 6 
#
# 1 0.019866 -0.004917 -0.009095 0.000000 0.007751 0.000000
# 2 -0.004917 0.013508 -0.005441 0.000000 0.000154 0.000000
# 3 -0.009095 -0.005441 0.018885 0.000000 -0.003381 0.000000
# 4 0.000000 0.000000 0.000000 0.037226 0.000000 0.009852
# 5 0.007751 0.000154 -0.003381 0.000000 0.034133 0.000000
# 6 0.000000 0.000000 0.000000 0.009852 0.000000 0.029498
#
#
# Mechanical properties :
#
#
# Convention : Reuss Voigt Hill
#
# Bulk Modulus (GPa) = 74.88970 79.01856 76.95413
# Shear Modulus (GPa) = 25.44874 28.86690 27.15782
#
# Velocity S-wave (km/s) = 3.69167 3.93178 3.81361
# Velocity P-wave (km/s) = 7.63390 7.93273 7.78475
#
# Compressibility (1/GPa) = 0.01335297
#
# Stress axis : x y z
#
# Youngs Moduli (GPa) = 50.33811 74.03098 52.95115
#
# Poissons Ratio (x) = 0.36399 0.48159
# Poissons Ratio (y) = 0.24750 0.28812
# Poissons Ratio (z) = 0.45782 0.40283
#
# Static dielectric constant tensor:
#      x y z
#    x 3.611070 0.000000 -0.501960 
#    y 0.000000 3.739300 0.000000 
#    z -0.501960 0.000000 3.527910 
# 
# 
# High freq. dielectric constant tensor:
#      x y z
#    x 1.724470 0.000000 -0.042800 
#    y 0.000000 1.749150 0.000000 
#    z -0.042800 0.000000 1.686500 
# 
# From -- ./inp_files/34825.got.cif
#   From: 2010.06.25/outbox.cif.g09.slc.cpg/sg15_18_cif.got.tgz:34825.got - 2010.06.28 07:06:18.
