data_PCOD8132398
_publ_section_title
;
Structure prediction by ZEFSAII (Michael W. Deem and Ramdas Pophale) SiO2 
 PCOD8132398
Probable space group: C 2/C
;
_chemical_formula_sum "Si O2"
_cell_formula_units_Z 56
_cell_length_a 16.508969
_cell_length_b 17.100582
_cell_length_c 26.203873
_cell_angle_alpha 90.000000
_cell_angle_beta 156.878529
_cell_angle_gamma 90.000000
_cell_volume 2904.939441
_symmetry_space_group_name_H-M "C 2/C"
_symmetry_group_IT_number 15
_symmetry_cell_setting 'monoclinic'
loop_
_space_group_symop_operation_xyz
x,y,z
-x,y,1/2-z
-x,-y,-z
x,-y,1/2+z
1/2+x,1/2+y,z
1/2-x,1/2+y,1/2-z
1/2-x,1/2-y,-z
1/2+x,1/2-y,1/2+z
loop_
_atom_site_type_symbol
_atom_site_label
_atom_site_fract_x
_atom_site_fract_y
_atom_site_fract_z
Si Si1 0.572157 0.505154 0.621088
Si Si2 0.698264 0.206522 0.039991
Si Si3 0.737632 0.850115 0.228822
Si Si4 0.785097 0.427384 0.651961
Si Si5 0.484692 0.350058 0.624376
Si Si6 0.353531 0.231032 0.375614
Si Si7 0.197293 0.244236 0.831849
O O1 0.685393 0.560557 0.727858
O O2 0.742044 0.475451 0.678761
O O3 0.394831 0.555817 0.492095
O O4 0.460839 0.435953 0.587597
O O5 0.506868 0.148187 0.920792
O O6 0.643463 0.290840 0.984951
O O7 0.890696 0.161219 0.126515
O O8 0.746375 0.225777 0.126332
O O9 0.805253 0.815632 0.323182
O O10 0.838323 0.798111 0.242568
O O11 0.783114 0.336481 0.666178
O O12 0.000000 0.451932 0.750000
O O13 0.730404 0.331342 0.769011
O O14 0.597993 0.213554 0.520072
O O15 0.000000 0.221372 0.750000
#
# Coordination Sequence:
#
# PCOD8132398 Si02
#       7
#     8   8   8   8   8   8   8
#     4  11  22  38  57  91 124 152 195 260 304 354
#     4   9  20  37  58  84 116 160 203 243 288 374
#     4  10  21  36  60  87 118 155 198 248 303 355
#     4  10  22  39  61  85 120 157 197 252 307 346
#     4  10  21  36  58  88 119 157 204 243 302 356
#     4  10  18  37  59  82 112 156 198 245 290 353
#     4  10  21  41  60  86 117 158 208 244 290 367
#
# _framework density 19.277509999999999
#
# number of rings (size 3 to 8) (size 9 to 14) (size 15 to 20)
#    0.000    2.000    1.429    3.000    4.000    0.571 
#    2.571    4.286    0.000    0.000    0.000    0.000 
#    0.000    0.000    0.000    0.000    0.000    0.000 
#
# Total GULP energy -347112.277395 kJ/mol
# GULP energy per Si atom -12396.867050 kJ/mol
# Density = 1.923363 g / cm^3
# Si number density = 19.277510 Si / 1000 Ang^3
#
#
#
# Elastic Constant Matrix: (Units=GPa)
#
#
# Indices 1 2 3 4 5 6 
#
# 1 103.8540 52.3307 47.2993 -0.0094 10.3812 0.0016
# 2 52.3307 113.8020 38.1227 -0.0091 2.5771 0.0035
# 3 47.2993 38.1227 76.1525 -0.0533 6.0258 0.0101
# 4 -0.0094 -0.0091 -0.0533 22.6353 -0.0052 -3.5092
# 5 10.3812 2.5771 6.0258 -0.0052 32.7575 0.0014
# 6 0.0016 0.0035 0.0101 -3.5092 0.0014 27.3457
#
#
#
# Elastic Compliance Matrix: (Units=1/GPa)
#
#
# Indices 1 2 3 4 5 6 
#
# 1 0.015531 -0.004713 -0.007029 -0.000013 -0.003258 0.000001
# 2 -0.004713 0.011989 -0.003164 -0.000004 0.001132 -0.000001
# 3 -0.007029 -0.003164 0.019164 0.000041 -0.001049 -0.000001
# 4 -0.000013 -0.000004 0.000041 0.045076 0.000004 0.005784
# 5 -0.003258 0.001132 -0.001049 0.000004 0.031664 -0.000001
# 6 0.000001 -0.000001 -0.000001 0.005784 -0.000001 0.037311
#
#
# Mechanical properties :
#
#
# Convention : Reuss Voigt Hill
#
# Bulk Modulus (GPa) = 59.27162 63.25709 61.26436
# Shear Modulus (GPa) = 25.48802 26.95142 26.21972
#
# Velocity S-wave (km/s) = 3.64010 3.74314 3.69198
# Velocity P-wave (km/s) = 6.96279 7.18099 7.07273
#
# Compressibility (1/GPa) = 0.01687148
#
# Stress axis : x y z
#
# Youngs Moduli (GPa) = 64.38798 83.41163 52.18044
#
# Poissons Ratio (x) = 0.39314 0.36678
# Poissons Ratio (y) = 0.30348 0.16509
# Poissons Ratio (z) = 0.45259 0.26390
#
# Static dielectric constant tensor:
#      x y z
#    x 3.615150 -0.000010 0.061540 
#    y -0.000010 3.316260 -0.000030 
#    z 0.061540 -0.000030 3.528400 
# 
# 
# High freq. dielectric constant tensor:
#      x y z
#    x 1.751710 0.000000 0.000980 
#    y 0.000000 1.730000 0.000000 
#    z 0.000980 0.000000 1.756320 
# 
# From -- ./inp_files/299350.got.cif
#   From: 2010.06.25/outbox.cif.g09.slc.cpg/sg15_150_cif.got.tgz:299350.got - 2010.06.28 07:06:18.
