data_PCOD8132252
_publ_section_title
;
Structure prediction by ZEFSAII (Michael W. Deem and Ramdas Pophale) SiO2 
 PCOD8132252
Probable space group: C 2/C
;
_chemical_formula_sum "Si O2"
_cell_formula_units_Z 40
_cell_length_a 9.332015
_cell_length_b 18.047573
_cell_length_c 21.016500
_cell_angle_alpha 90.000000
_cell_angle_beta 143.453912
_cell_angle_gamma 90.000000
_cell_volume 2107.724944
_symmetry_space_group_name_H-M "C 2/C"
_symmetry_group_IT_number 15
_symmetry_cell_setting 'monoclinic'
loop_
_space_group_symop_operation_xyz
x,y,z
-x,y,1/2-z
-x,-y,-z
x,-y,1/2+z
1/2+x,1/2+y,z
1/2-x,1/2+y,1/2-z
1/2-x,1/2-y,-z
1/2+x,1/2-y,1/2+z
loop_
_atom_site_type_symbol
_atom_site_label
_atom_site_fract_x
_atom_site_fract_y
_atom_site_fract_z
Si Si1 0.047126 0.056000 0.156534
Si Si2 0.731284 0.687920 0.650574
Si Si3 0.500000 0.329448 0.750000
Si Si4 0.142567 0.894077 0.239633
Si Si5 0.500000 0.974530 0.750000
Si Si6 0.814524 0.415130 0.080748
O O1 0.989883 0.121652 0.184079
O O2 0.304709 0.075460 0.216880
O O3 0.833178 0.050853 0.029888
O O4 0.060191 0.977773 0.197023
O O5 0.575905 0.657919 0.654852
O O6 0.654171 0.653191 0.554539
O O7 0.000000 0.651030 0.750000
O O8 0.759013 0.777282 0.662228
O O9 0.427448 0.888947 0.355059
O O10 0.000000 0.863413 0.250000
O O11 0.655294 0.022365 0.854945
#
# Coordination Sequence:
#
# PCOD8132252 Si02
#       6
#     8   8   4   8   4   8
#     4  11  21  34  61  86 113 145 191 237 278 324
#     4   8  17  37  55  72 114 154 177 218 281 342
#     4  10  21  40  52  85 124 144 178 242 289 318
#     4  10  19  36  57  87 111 146 191 237 268 329
#     4  10  19  36  54  89 114 138 190 244 267 328
#     4  10  18  36  61  81 109 159 185 216 292 343
#
# _framework density 18.977808
#
# number of rings (size 3 to 8) (size 9 to 14) (size 15 to 20)
#    0.600    1.600    6.000    0.600    0.000    1.600 
#    1.800    0.000    0.000    2.400    0.000    0.000 
#    0.000    0.000    0.000    0.000    0.000    0.000 
#
# Total GULP energy -247787.287545 kJ/mol
# GULP energy per Si atom -12389.364377 kJ/mol
# Density = 1.893461 g / cm^3
# Si number density = 18.977808 Si / 1000 Ang^3
#
#
#
# Elastic Constant Matrix: (Units=GPa)
#
#
# Indices 1 2 3 4 5 6 
#
# 1 149.4679 50.6896 33.8876 0.0009 -13.5457 -0.0004
# 2 50.6896 106.7644 28.5352 0.0006 -12.4075 -0.0002
# 3 33.8876 28.5352 80.9138 0.0032 -14.4208 -0.0020
# 4 0.0009 0.0006 0.0032 4.3102 0.0017 -3.1774
# 5 -13.5457 -12.4075 -14.4208 0.0017 18.9554 -0.0010
# 6 -0.0004 -0.0002 -0.0020 -3.1774 -0.0010 27.5548
#
#
#
# Elastic Compliance Matrix: (Units=1/GPa)
#
#
# Indices 1 2 3 4 5 6 
#
# 1 0.008443 -0.003198 -0.001974 -0.000001 0.002439 0.000000
# 2 -0.003198 0.011914 -0.002175 -0.000001 0.003859 0.000000
# 3 -0.001974 -0.002175 0.015557 -0.000015 0.009001 0.000000
# 4 -0.000001 -0.000001 -0.000015 0.253564 -0.000034 0.029239
# 5 0.002439 0.003859 0.009001 -0.000034 0.063872 -0.000001
# 6 0.000000 0.000000 0.000000 0.029239 -0.000001 0.039663
#
#
# Mechanical properties :
#
#
# Convention : Reuss Voigt Hill
#
# Bulk Modulus (GPa) = 47.12111 62.59676 54.85893
# Shear Modulus (GPa) = 12.05458 25.09964 18.57711
#
# Velocity S-wave (km/s) = 2.52304 3.64067 3.13211
# Velocity P-wave (km/s) = 5.77677 7.12239 6.48458
#
# Compressibility (1/GPa) = 0.02122191
#
# Stress axis : x y z
#
# Youngs Moduli (GPa) = 118.43551 83.93221 64.28131
#
# Poissons Ratio (x) = 0.26840 0.12688
# Poissons Ratio (y) = 0.37873 0.13979
# Poissons Ratio (z) = 0.23376 0.18253
#
# Static dielectric constant tensor:
#      x y z
#    x 3.619080 0.000000 -0.111860 
#    y 0.000000 3.228510 0.000000 
#    z -0.111860 0.000000 3.156710 
# 
# 
# High freq. dielectric constant tensor:
#      x y z
#    x 1.744650 0.000000 -0.018850 
#    y 0.000000 1.718630 0.000000 
#    z -0.018850 0.000000 1.705110 
# 
# From -- ./inp_files/77837.got.cif
#   From: 2010.06.25/outbox.cif.g09.slc.cpg/sg15_39_cif.got.tgz:77837.got - 2010.06.28 07:06:18.
