data_PCOD8132487
_publ_section_title
;
Structure prediction by ZEFSAII (Michael W. Deem and Ramdas Pophale) SiO2 
 PCOD8132487
Probable space group: C 2/C
;
_chemical_formula_sum "Si O2"
_cell_formula_units_Z 36
_cell_length_a 11.488414
_cell_length_b 15.600939
_cell_length_c 22.221109
_cell_angle_alpha 90.000000
_cell_angle_beta 151.253190
_cell_angle_gamma 90.000000
_cell_volume 1915.434938
_symmetry_space_group_name_H-M "C 2/C"
_symmetry_group_IT_number 15
_symmetry_cell_setting 'monoclinic'
loop_
_space_group_symop_operation_xyz
x,y,z
-x,y,1/2-z
-x,-y,-z
x,-y,1/2+z
1/2+x,1/2+y,z
1/2-x,1/2+y,1/2-z
1/2-x,1/2-y,-z
1/2+x,1/2-y,1/2+z
loop_
_atom_site_type_symbol
_atom_site_label
_atom_site_fract_x
_atom_site_fract_y
_atom_site_fract_z
Si Si1 0.291119 0.859876 0.195161
Si Si2 0.000000 0.523492 0.250000
Si Si3 0.971099 0.332509 0.828434
Si Si4 0.977317 0.725696 0.892425
Si Si5 0.098655 0.273707 0.008521
O O1 0.500000 0.813101 0.250000
O O2 0.370376 0.848087 0.300683
O O3 0.037348 0.816289 0.066078
O O4 0.278512 0.960639 0.170094
O O5 0.059681 0.582209 0.334597
O O6 0.688372 0.311767 0.687964
O O7 0.019838 0.343158 0.922193
O O8 0.119086 0.250163 0.870032
O O9 0.250000 0.750000 0.000000
O O10 0.964562 0.689268 0.954668
#
# Coordination Sequence:
#
# PCOD8132487 Si02
#       5
#     8   4   8   8   8
#     4   9  20  32  53  81 112 137 176 225 270 314
#     4  10  18  38  50  86 112 142 176 226 276 324
#     4  10  21  33  56  80 109 143 187 220 267 325
#     4  11  18  34  55  82 107 144 181 227 263 323
#     4  10  19  36  55  82 105 146 186 225 258 327
#
# _framework density 18.794687
#
# number of rings (size 3 to 8) (size 9 to 14) (size 15 to 20)
#    0.667    1.333    4.444    0.000    0.000    0.889 
#    4.000    1.111    0.000    0.000   17.333    0.000 
#    0.000    0.000    0.000    0.000    0.000    0.000 
#
# Total GULP energy -223025.432465 kJ/mol
# GULP energy per Si atom -12390.301804 kJ/mol
# Density = 1.875191 g / cm^3
# Si number density = 18.794687 Si / 1000 Ang^3
#
#
#
# Elastic Constant Matrix: (Units=GPa)
#
#
# Indices 1 2 3 4 5 6 
#
# 1 135.0771 33.0477 54.7284 -0.0012 -32.5125 0.0001
# 2 33.0477 84.4286 30.6229 -0.0013 -17.7321 0.0000
# 3 54.7284 30.6229 92.5822 -0.0066 -10.0793 0.0001
# 4 -0.0012 -0.0013 -0.0066 14.3797 -0.0003 -4.7755
# 5 -32.5125 -17.7321 -10.0793 -0.0003 49.0754 0.0002
# 6 0.0001 0.0000 0.0001 -4.7755 0.0002 38.6748
#
#
#
# Elastic Compliance Matrix: (Units=1/GPa)
#
#
# Indices 1 2 3 4 5 6 
#
# 1 0.011450 -0.001142 -0.005738 -0.000002 0.005995 0.000000
# 2 -0.001142 0.014404 -0.003688 0.000000 0.003691 0.000000
# 3 -0.005738 -0.003688 0.015194 0.000006 -0.002014 0.000001
# 4 -0.000002 0.000000 0.000006 0.072516 0.000000 0.008954
# 5 0.005995 0.003691 -0.002014 0.000000 0.025268 0.000000
# 6 0.000000 0.000000 0.000001 0.008954 0.000000 0.026962
#
#
# Mechanical properties :
#
#
# Convention : Reuss Voigt Hill
#
# Bulk Modulus (GPa) = 50.21889 60.98733 55.60311
# Shear Modulus (GPa) = 25.83070 33.33858 29.58464
#
# Velocity S-wave (km/s) = 3.71126 4.21626 3.97179
# Velocity P-wave (km/s) = 6.71881 7.49814 7.11914
#
# Compressibility (1/GPa) = 0.01991282
#
# Stress axis : x y z
#
# Youngs Moduli (GPa) = 87.33291 69.42577 65.81566
#
# Poissons Ratio (x) = 0.07925 0.37768
# Poissons Ratio (y) = 0.09970 0.24271
# Poissons Ratio (z) = 0.50116 0.25602
#
# Static dielectric constant tensor:
#      x y z
#    x 3.777620 0.000000 -0.138260 
#    y 0.000000 2.933880 0.000000 
#    z -0.138260 0.000000 3.465210 
# 
# 
# High freq. dielectric constant tensor:
#      x y z
#    x 1.750360 0.000000 -0.006310 
#    y 0.000000 1.666270 0.000000 
#    z -0.006310 0.000000 1.737240 
# 
# From -- ./inp_files/86396.got.cif
#   From: 2010.06.25/outbox.cif.g09.slc.cpg/sg15_44_cif.got.tgz:86396.got - 2010.06.28 07:06:18.
