data_PCOD8132012
_publ_section_title
;
Structure prediction by ZEFSAII (Michael W. Deem and Ramdas Pophale) SiO2 
 PCOD8132012
Probable space group: C 2/C
;
_chemical_formula_sum "Si O2"
_cell_formula_units_Z 44
_cell_length_a 11.860106
_cell_length_b 17.830645
_cell_length_c 11.044639
_cell_angle_alpha 90.000000
_cell_angle_beta 109.633076
_cell_angle_gamma 90.000000
_cell_volume 2199.860709
_symmetry_space_group_name_H-M "C 2/C"
_symmetry_group_IT_number 15
_symmetry_cell_setting 'monoclinic'
loop_
_space_group_symop_operation_xyz
x,y,z
-x,y,1/2-z
-x,-y,-z
x,-y,1/2+z
1/2+x,1/2+y,z
1/2-x,1/2+y,1/2-z
1/2-x,1/2-y,-z
1/2+x,1/2-y,1/2+z
loop_
_atom_site_type_symbol
_atom_site_label
_atom_site_fract_x
_atom_site_fract_y
_atom_site_fract_z
Si Si1 0.370667 0.253261 0.264135
Si Si2 0.166761 0.518619 0.210573
Si Si3 0.500000 0.895266 0.250000
Si Si4 0.302538 0.866119 0.566667
Si Si5 0.950973 0.642902 0.480636
Si Si6 0.139331 0.912853 0.302134
O O1 0.500000 0.250530 0.250000
O O2 0.281433 0.209692 0.138317
O O3 0.376419 0.211268 0.394654
O O4 0.330714 0.339327 0.269751
O O5 0.091268 0.444498 0.205879
O O6 0.163981 0.567634 0.329748
O O7 0.111961 0.564484 0.078560
O O8 0.298229 0.488338 0.223003
O O9 0.560066 0.845161 0.377816
O O10 0.411288 0.857055 0.512232
O O11 0.182054 0.889336 0.452838
O O12 0.000000 0.931742 0.250000
#
# Coordination Sequence:
#
# PCOD8132012 Si02
#       6
#     8   8   4   8   8   8
#     4   8  18  35  56  81 109 142 186 233 266 318
#     4  11  20  33  57  87 112 137 181 235 279 322
#     4  12  18  30  56  90 112 132 172 238 292 314
#     4  10  18  35  59  82 109 140 188 237 273 309
#     4  10  19  34  58  89 108 135 186 239 281 309
#     4  11  22  35  52  83 115 151 183 214 272 339
#
# _framework density 20.001266000000001
#
# number of rings (size 3 to 8) (size 9 to 14) (size 15 to 20)
#    0.000    1.818    3.636    3.273    0.000    0.727 
#    0.000    0.909    0.000    0.000   11.818    0.000 
#    0.000    0.000    0.000    0.000    0.000    0.000 
#
# Total GULP energy -272714.728790 kJ/mol
# GULP energy per Si atom -12396.124036 kJ/mol
# Density = 1.995574 g / cm^3
# Si number density = 20.001266 Si / 1000 Ang^3
#
#
#
# Elastic Constant Matrix: (Units=GPa)
#
#
# Indices 1 2 3 4 5 6 
#
# 1 52.3963 12.0085 21.3634 0.0000 13.3238 0.0000
# 2 12.0085 53.3336 16.3484 0.0000 -9.6115 0.0000
# 3 21.3634 16.3484 141.2490 0.0000 -4.4855 0.0000
# 4 0.0000 0.0000 0.0000 11.8474 0.0000 1.2864
# 5 13.3238 -9.6115 -4.4855 0.0000 28.5040 0.0000
# 6 0.0000 0.0000 0.0000 1.2864 0.0000 18.6841
#
#
#
# Elastic Compliance Matrix: (Units=1/GPa)
#
#
# Indices 1 2 3 4 5 6 
#
# 1 0.026179 -0.007566 -0.003571 0.000000 -0.015350 0.000000
# 2 -0.007566 0.022794 -0.001143 0.000000 0.011043 0.000000
# 3 -0.003571 -0.001143 0.007832 0.000000 0.002516 0.000000
# 4 0.000000 0.000000 0.000000 0.085043 0.000000 -0.005855
# 5 -0.015350 0.011043 0.002516 0.000000 0.046378 0.000000
# 6 0.000000 0.000000 0.000000 -0.005855 0.000000 0.053925
#
#
# Mechanical properties :
#
#
# Convention : Reuss Voigt Hill
#
# Bulk Modulus (GPa) = 31.01356 38.49106 34.75231
# Shear Modulus (GPa) = 18.02071 24.95766 21.48918
#
# Velocity S-wave (km/s) = 3.00489 3.53626 3.28135
# Velocity P-wave (km/s) = 5.25153 5.99663 5.63641
#
# Compressibility (1/GPa) = 0.03224397
#
# Stress axis : x y z
#
# Youngs Moduli (GPa) = 38.19882 43.87126 127.68044
#
# Poissons Ratio (x) = 0.33193 0.45597
# Poissons Ratio (y) = 0.28901 0.14596
# Poissons Ratio (z) = 0.13642 0.05015
#
# Static dielectric constant tensor:
#      x y z
#    x 3.220070 0.000000 0.193860 
#    y 0.000000 3.814150 0.000000 
#    z 0.193860 0.000000 3.793580 
# 
# 
# High freq. dielectric constant tensor:
#      x y z
#    x 1.737090 0.000000 0.015770 
#    y 0.000000 1.777680 0.000000 
#    z 0.015770 0.000000 1.791840 
# 
# From -- ./inp_files/87149.got.cif
#   From: 2010.06.25/outbox.cif.g09.slc.cpg/sg15_44_cif.got.tgz:87149.got - 2010.06.28 07:06:18.
