data_PCOD8132773
_publ_section_title
;
Structure prediction by ZEFSAII (Michael W. Deem and Ramdas Pophale) SiO2 
 PCOD8132773
Probable space group: C 2/C
;
_chemical_formula_sum "Si O2"
_cell_formula_units_Z 64
_cell_length_a 10.799941
_cell_length_b 21.142741
_cell_length_c 19.176318
_cell_angle_alpha 90.000000
_cell_angle_beta 133.878350
_cell_angle_gamma 90.000000
_cell_volume 3156.243851
_symmetry_space_group_name_H-M "C 2/C"
_symmetry_group_IT_number 15
_symmetry_cell_setting 'monoclinic'
loop_
_space_group_symop_operation_xyz
x,y,z
-x,y,1/2-z
-x,-y,-z
x,-y,1/2+z
1/2+x,1/2+y,z
1/2-x,1/2+y,1/2-z
1/2-x,1/2-y,-z
1/2+x,1/2-y,1/2+z
loop_
_atom_site_type_symbol
_atom_site_label
_atom_site_fract_x
_atom_site_fract_y
_atom_site_fract_z
Si Si1 0.012336 0.420988 0.933169
Si Si2 0.651367 0.142982 0.258763
Si Si3 0.491325 0.581431 0.438915
Si Si4 0.847229 0.209628 0.760772
Si Si5 0.595804 0.123837 0.715688
Si Si6 0.354383 0.942645 0.017995
Si Si7 0.070542 0.057151 0.621381
Si Si8 0.340551 0.361285 0.112564
O O1 0.881852 0.390703 0.827404
O O2 0.107940 0.484802 0.942367
O O3 0.891730 0.438566 0.950813
O O4 0.150365 0.365724 0.005854
O O5 0.500000 0.117514 0.250000
O O6 0.639682 0.218368 0.253470
O O7 0.845820 0.130730 0.358655
O O8 0.662301 0.581428 0.458410
O O9 0.530746 0.597077 0.535152
O O10 0.406880 0.513693 0.395180
O O11 0.678502 0.194401 0.740504
O O12 0.829653 0.159688 0.688868
O O13 0.025453 0.189519 0.870204
O O14 0.500000 0.121465 0.750000
O O15 0.474231 0.106955 0.604398
O O16 0.746964 0.073012 0.774609
O O17 0.927246 0.070160 0.626086
#
# Coordination Sequence:
#
# PCOD8132773 Si02
#       8
#     8   8   8   8   8   8   8   8
#     4  11  24  41  68  95 133 170 216 274 333 390
#     4  12  26  45  64  95 132 176 220 270 322 388
#     4  11  23  40  60  97 137 163 212 267 330 402
#     4  10  23  43  64  93 127 169 227 270 310 389
#     4  11  21  40  66  93 126 168 217 267 325 392
#     4  11  23  42  63 100 131 170 218 265 336 405
#     4  10  21  36  66  96 125 167 206 272 334 381
#     4  10  18  41  65  93 122 163 217 274 313 375
#
# _framework density 20.277267999999999
#
# number of rings (size 3 to 8) (size 9 to 14) (size 15 to 20)
#    0.000    1.250    5.000    1.500    1.750    2.000 
#    6.750    0.625    0.000    0.000    0.000    0.000 
#    0.000    0.000    0.000    0.000    0.000    0.000 
#
# Total GULP energy -396433.335768 kJ/mol
# GULP energy per Si atom -12388.541743 kJ/mol
# Density = 2.023112 g / cm^3
# Si number density = 20.277268 Si / 1000 Ang^3
#
#
#
# Elastic Constant Matrix: (Units=GPa)
#
#
# Indices 1 2 3 4 5 6 
#
# 1 80.3843 22.1632 27.1912 0.0000 13.5062 0.0000
# 2 22.1632 74.5528 28.2760 0.0000 2.0172 0.0000
# 3 27.1912 28.2760 88.9514 0.0000 18.4212 0.0000
# 4 0.0000 0.0000 0.0000 24.3654 0.0000 1.3754
# 5 13.5062 2.0172 18.4212 0.0000 39.2837 0.0000
# 6 0.0000 0.0000 0.0000 1.3754 0.0000 21.6620
#
#
#
# Elastic Compliance Matrix: (Units=1/GPa)
#
#
# Indices 1 2 3 4 5 6 
#
# 1 0.014891 -0.003285 -0.002749 0.000000 -0.003662 0.000000
# 2 -0.003285 0.016074 -0.004617 0.000000 0.002469 0.000000
# 3 -0.002749 -0.004617 0.014736 0.000000 -0.005728 0.000000
# 4 0.000000 0.000000 0.000000 0.041189 0.000000 -0.002615
# 5 -0.003662 0.002469 -0.005728 0.000000 0.029274 0.000000
# 6 0.000000 0.000000 0.000000 -0.002615 0.000000 0.046330
#
#
# Mechanical properties :
#
#
# Convention : Reuss Voigt Hill
#
# Bulk Modulus (GPa) = 40.98497 44.34994 42.66746
# Shear Modulus (GPa) = 26.05107 28.14609 27.09858
#
# Velocity S-wave (km/s) = 3.58822 3.72971 3.65965
# Velocity P-wave (km/s) = 6.11745 6.36136 6.24060
#
# Compressibility (1/GPa) = 0.02439919
#
# Stress axis : x y z
#
# Youngs Moduli (GPa) = 67.15336 62.21183 67.85935
#
# Poissons Ratio (x) = 0.20437 0.18658
# Poissons Ratio (y) = 0.22060 0.31329
# Poissons Ratio (z) = 0.18464 0.28722
#
# Static dielectric constant tensor:
#      x y z
#    x 3.909840 0.000000 0.094640 
#    y 0.000000 3.489090 0.000000 
#    z 0.094640 0.000000 3.696350 
# 
# 
# High freq. dielectric constant tensor:
#      x y z
#    x 1.804020 0.000000 0.010620 
#    y 0.000000 1.766710 0.000000 
#    z 0.010620 0.000000 1.793330 
# 
# From -- ./inp_files/240441.got.cif
#   From: 2010.06.25/outbox.cif.g09.slc.cpg/sg15_121_cif.got.tgz:240441.got - 2010.06.28 07:06:18.
