data_PCOD8132438
_publ_section_title
;
Structure prediction by ZEFSAII (Michael W. Deem and Ramdas Pophale) SiO2 
 PCOD8132438
Probable space group: C 2/C
;
_chemical_formula_sum "Si O2"
_cell_formula_units_Z 64
_cell_length_a 16.622925
_cell_length_b 11.361427
_cell_length_c 30.239038
_cell_angle_alpha 90.000000
_cell_angle_beta 36.828895
_cell_angle_gamma 90.000000
_cell_volume 3423.299108
_symmetry_space_group_name_H-M "C 2/C"
_symmetry_group_IT_number 15
_symmetry_cell_setting 'monoclinic'
loop_
_space_group_symop_operation_xyz
x,y,z
-x,y,1/2-z
-x,-y,-z
x,-y,1/2+z
1/2+x,1/2+y,z
1/2-x,1/2+y,1/2-z
1/2-x,1/2-y,-z
1/2+x,1/2-y,1/2+z
loop_
_atom_site_type_symbol
_atom_site_label
_atom_site_fract_x
_atom_site_fract_y
_atom_site_fract_z
Si Si1 0.423016 0.881294 0.687289
Si Si2 0.112249 0.166356 0.233958
Si Si3 0.874711 0.337104 0.057545
Si Si4 0.852391 0.195595 0.150063
Si Si5 0.657489 0.126452 0.776532
Si Si6 0.559637 0.509459 0.835064
Si Si7 0.382676 0.916814 0.600954
Si Si8 0.157096 0.204022 0.580368
O O1 0.301803 0.818484 0.766291
O O2 0.388397 0.897038 0.650910
O O3 0.559082 0.811037 0.637359
O O4 0.434540 0.016538 0.698718
O O5 0.167367 0.282548 0.232694
O O6 0.234842 0.119302 0.150327
O O7 0.000000 0.206799 0.250000
O O8 0.056239 0.066588 0.291708
O O9 0.864400 0.220775 0.092598
O O10 0.895243 0.448539 0.080481
O O11 0.743471 0.338625 0.084316
O O12 0.005831 0.331384 0.969131
O O13 0.909876 0.308225 0.151682
O O14 0.937738 0.078786 0.123955
O O15 0.807815 0.088334 0.723423
O O16 0.429388 0.591680 0.897100
O O17 0.250000 0.250000 0.500000
#
# Coordination Sequence:
#
# PCOD8132438 Si02
#       8
#     8   8   8   8   8   8   8   8
#     4  11  20  39  64  85 123 168 200 249 311 374
#     4  11  21  37  63  93 118 152 209 262 296 356
#     4  11  24  37  62  96 124 157 209 259 309 371
#     4  10  19  38  63  90 116 161 211 251 300 372
#     4  10  18  37  63  85 114 160 201 245 307 362
#     4  10  20  37  63  85 115 165 209 242 305 373
#     4  11  20  39  65  89 123 163 205 253 311 371
#     4  12  24  39  60  93 130 161 202 260 317 361
#
# _framework density 18.695416000000002
#
# number of rings (size 3 to 8) (size 9 to 14) (size 15 to 20)
#    0.000    1.250    7.500    0.750    0.000    0.500 
#    4.500    1.875    0.000    4.500    0.000    0.000 
#    0.000    0.000    0.000    0.000    0.000    0.000 
#
# Total GULP energy -396625.533416 kJ/mol
# GULP energy per Si atom -12394.547919 kJ/mol
# Density = 1.865286 g / cm^3
# Si number density = 18.695416 Si / 1000 Ang^3
#
#
#
# Elastic Constant Matrix: (Units=GPa)
#
#
# Indices 1 2 3 4 5 6 
#
# 1 82.4597 31.8292 28.4054 0.0000 -1.1241 0.0001
# 2 31.8292 112.8684 44.6835 0.0000 -2.8493 0.0002
# 3 28.4054 44.6835 96.2173 -0.0001 -5.2268 0.0000
# 4 0.0000 0.0000 -0.0001 21.3333 0.0000 -6.0798
# 5 -1.1241 -2.8493 -5.2268 0.0000 23.5643 0.0000
# 6 0.0001 0.0002 0.0000 -6.0798 0.0000 25.0110
#
#
#
# Elastic Compliance Matrix: (Units=1/GPa)
#
#
# Indices 1 2 3 4 5 6 
#
# 1 0.014226 -0.002880 -0.002879 0.000000 -0.000308 0.000000
# 2 -0.002880 0.011440 -0.004448 0.000000 0.000259 0.000000
# 3 -0.002879 -0.004448 0.013434 0.000000 0.002305 0.000000
# 4 0.000000 0.000000 0.000000 0.050364 0.000000 0.012243
# 5 -0.000308 0.000259 0.002305 0.000000 0.042965 0.000000
# 6 0.000000 0.000000 0.000000 0.012243 0.000000 0.042958
#
#
# Mechanical properties :
#
#
# Convention : Reuss Voigt Hill
#
# Bulk Modulus (GPa) = 53.51787 55.70907 54.61347
# Shear Modulus (GPa) = 24.74869 26.42354 25.58612
#
# Velocity S-wave (km/s) = 3.64233 3.76356 3.70344
# Velocity P-wave (km/s) = 6.81007 6.98203 6.89659
#
# Compressibility (1/GPa) = 0.01868535
#
# Stress axis : x y z
#
# Youngs Moduli (GPa) = 70.29200 87.41594 74.43708
#
# Poissons Ratio (x) = 0.25174 0.21433
# Poissons Ratio (y) = 0.20243 0.33112
# Poissons Ratio (z) = 0.20239 0.38885
#
# Static dielectric constant tensor:
#      x y z
#    x 3.318730 0.000000 -0.008100 
#    y 0.000000 3.697250 0.000000 
#    z -0.008100 0.000000 3.518400 
# 
# 
# High freq. dielectric constant tensor:
#      x y z
#    x 1.711910 0.000000 0.000490 
#    y 0.000000 1.739140 0.000000 
#    z 0.000490 0.000000 1.714530 
# 
# From -- ./inp_files/296105.got.cif
#   From: 2010.06.25/outbox.cif.g09.slc.cpg/sg15_149_cif.got.tgz:296105.got - 2010.06.28 07:06:18.
