data_PCOD8132207
_publ_section_title
;
Structure prediction by ZEFSAII (Michael W. Deem and Ramdas Pophale) SiO2 
 PCOD8132207
Probable space group: C 2/C
;
_chemical_formula_sum "Si O2"
_cell_formula_units_Z 48
_cell_length_a 20.031404
_cell_length_b 18.250244
_cell_length_c 14.134919
_cell_angle_alpha 90.000000
_cell_angle_beta 150.205741
_cell_angle_gamma 90.000000
_cell_volume 2567.621666
_symmetry_space_group_name_H-M "C 2/C"
_symmetry_group_IT_number 15
_symmetry_cell_setting 'monoclinic'
loop_
_space_group_symop_operation_xyz
x,y,z
-x,y,1/2-z
-x,-y,-z
x,-y,1/2+z
1/2+x,1/2+y,z
1/2-x,1/2+y,1/2-z
1/2-x,1/2-y,-z
1/2+x,1/2-y,1/2+z
loop_
_atom_site_type_symbol
_atom_site_label
_atom_site_fract_x
_atom_site_fract_y
_atom_site_fract_z
Si Si1 0.163354 0.652219 0.886673
Si Si2 0.245253 0.321463 0.700453
Si Si3 0.215826 0.470317 0.756861
Si Si4 0.011179 0.230655 0.093725
Si Si5 0.603351 0.406233 0.951811
Si Si6 0.519336 0.004592 0.671230
O O1 0.091177 0.729899 0.778249
O O2 0.054371 0.589888 0.729819
O O3 0.210419 0.649996 0.052380
O O4 0.286127 0.642323 0.965977
O O5 0.272799 0.390975 0.800959
O O6 0.383686 0.273989 0.865384
O O7 0.124245 0.274800 0.598518
O O8 0.139048 0.464093 0.762910
O O9 0.117257 0.501668 0.555403
O O10 0.337354 0.527531 0.913927
O O11 0.976856 0.147737 0.078190
O O12 0.500000 0.441630 0.750000
O O13 0.500000 0.966415 0.750000
#
# Coordination Sequence:
#
# PCOD8132207 Si02
#       6
#     8   8   8   8   8   8
#     4  11  19  33  57  85 124 154 186 234 302 363
#     4  12  22  35  56  89 123 155 193 240 298 370
#     4  10  23  35  56  88 124 157 203 241 293 361
#     4  12  22  34  58  86 125 162 187 238 319 366
#     4  11  22  37  54  88 125 160 195 238 294 368
#     4  10  18  36  59  84 120 158 200 243 286 357
#
# _framework density 18.694341999999999
#
# number of rings (size 3 to 8) (size 9 to 14) (size 15 to 20)
#    0.000    1.000    6.667    2.000    0.000    0.667 
#    0.000    0.000    0.000    0.000    0.000   10.500 
#    0.000    0.000    0.000    0.000    0.000    0.000 
#
# Total GULP energy -297590.337790 kJ/mol
# GULP energy per Si atom -12399.597408 kJ/mol
# Density = 1.865179 g / cm^3
# Si number density = 18.694342 Si / 1000 Ang^3
#
#
#
# Elastic Constant Matrix: (Units=GPa)
#
#
# Indices 1 2 3 4 5 6 
#
# 1 111.9526 48.3029 38.0795 0.0000 11.5009 0.0000
# 2 48.3029 111.2114 51.4431 0.0000 7.1395 0.0000
# 3 38.0795 51.4431 84.8398 0.0000 15.3810 0.0000
# 4 0.0000 0.0000 0.0000 34.4818 0.0000 4.1652
# 5 11.5009 7.1395 15.3810 0.0000 33.3025 0.0000
# 6 0.0000 0.0000 0.0000 4.1652 0.0000 26.5550
#
#
#
# Elastic Compliance Matrix: (Units=1/GPa)
#
#
# Indices 1 2 3 4 5 6 
#
# 1 0.011628 -0.003719 -0.002598 0.000000 -0.002018 0.000000
# 2 -0.003719 0.013711 -0.006924 0.000000 0.001543 0.000000
# 3 -0.002598 -0.006924 0.018248 0.000000 -0.006046 0.000000
# 4 0.000000 0.000000 0.000000 0.029561 0.000000 -0.004637
# 5 -0.002018 0.001543 -0.006046 0.000000 0.033187 0.000000
# 6 0.000000 0.000000 0.000000 -0.004637 0.000000 0.038385
#
#
# Mechanical properties :
#
#
# Convention : Reuss Voigt Hill
#
# Bulk Modulus (GPa) = 58.46585 64.85054 61.65820
# Shear Modulus (GPa) = 28.26397 30.21308 29.23853
#
# Velocity S-wave (km/s) = 3.89253 4.02451 3.95907
# Velocity P-wave (km/s) = 7.17948 7.50739 7.34526
#
# Compressibility (1/GPa) = 0.01710400
#
# Stress axis : x y z
#
# Youngs Moduli (GPa) = 85.99894 72.93351 54.80113
#
# Poissons Ratio (x) = 0.27124 0.14238
# Poissons Ratio (y) = 0.31983 0.37946
# Poissons Ratio (z) = 0.22344 0.50501
#
# Static dielectric constant tensor:
#      x y z
#    x 3.768420 0.000000 0.340880 
#    y 0.000000 3.312310 0.000000 
#    z 0.340880 0.000000 3.391950 
# 
# 
# High freq. dielectric constant tensor:
#      x y z
#    x 1.730150 0.000000 0.035710 
#    y 0.000000 1.708380 0.000000 
#    z 0.035710 0.000000 1.702210 
# 
# From -- ./inp_files/173935.got.cif
#   From: 2010.06.25/outbox.cif.g09.slc.cpg/sg15_87_cif.got.tgz:173935.got - 2010.06.28 07:06:18.
