data_PCOD8132849
_publ_section_title
;
Structure prediction by ZEFSAII (Michael W. Deem and Ramdas Pophale) SiO2 
 PCOD8132849
Probable space group: C 2/C
;
_chemical_formula_sum "Si O2"
_cell_formula_units_Z 48
_cell_length_a 19.037175
_cell_length_b 14.262031
_cell_length_c 18.902166
_cell_angle_alpha 90.000000
_cell_angle_beta 26.483966
_cell_angle_gamma 90.000000
_cell_volume 2288.648201
_symmetry_space_group_name_H-M "C 2/C"
_symmetry_group_IT_number 15
_symmetry_cell_setting 'monoclinic'
loop_
_space_group_symop_operation_xyz
x,y,z
-x,y,1/2-z
-x,-y,-z
x,-y,1/2+z
1/2+x,1/2+y,z
1/2-x,1/2+y,1/2-z
1/2-x,1/2-y,-z
1/2+x,1/2-y,1/2+z
loop_
_atom_site_type_symbol
_atom_site_label
_atom_site_fract_x
_atom_site_fract_y
_atom_site_fract_z
Si Si1 0.503180 0.868471 0.164050
Si Si2 0.089670 0.119123 0.486516
Si Si3 0.397258 0.205063 0.163353
Si Si4 0.075526 0.051433 0.341344
Si Si5 0.593638 0.968881 0.482739
Si Si6 0.761943 0.222255 0.346936
O O1 0.500000 0.880785 0.250000
O O2 0.336706 0.825334 0.286407
O O3 0.534553 0.969804 0.102387
O O4 0.638990 0.794519 0.020644
O O5 0.263692 0.163721 0.336569
O O6 0.049893 0.093985 0.441808
O O7 0.957751 0.192968 0.632134
O O8 0.069862 0.019690 0.547236
O O9 0.552400 0.140157 0.030928
O O10 0.328810 0.206929 0.145355
O O11 0.099831 0.142367 0.269698
O O12 0.224732 0.982439 0.199075
O O13 0.500000 0.000000 0.500000
#
# Coordination Sequence:
#
# PCOD8132849 Si02
#       6
#     8   8   8   8   8   8
#     4  11  23  37  55  80 116 156 183 218 275 340
#     4  10  19  29  46  77 113 138 173 222 291 326
#     4  11  20  31  52  80 109 144 180 236 282 312
#     4   9  19  30  48  74 110 142 178 225 276 323
#     4  11  20  36  53  79 111 145 189 234 275 323
#     4  10  20  33  53  78 111 146 186 222 272 330
#
# _framework density 20.973078999999998
#
# number of rings (size 3 to 8) (size 9 to 14) (size 15 to 20)
#    0.000    1.667    5.000    3.500    2.333    1.333 
#    0.000    0.000    0.000    0.000    0.000   11.667 
#    0.000    0.000    0.000    0.000    0.000    0.000 
#
# Total GULP energy -297319.162192 kJ/mol
# GULP energy per Si atom -12388.298425 kJ/mol
# Density = 2.092534 g / cm^3
# Si number density = 20.973079 Si / 1000 Ang^3
#
#
#
# Elastic Constant Matrix: (Units=GPa)
#
#
# Indices 1 2 3 4 5 6 
#
# 1 32.8726 5.2513 10.9670 -0.0002 6.8145 -0.0003
# 2 5.2513 93.1755 12.2401 0.0041 -9.7099 -0.0010
# 3 10.9670 12.2401 58.9234 0.0092 3.1701 -0.0022
# 4 -0.0002 0.0041 0.0092 47.2205 -0.0018 -12.3171
# 5 6.8145 -9.7099 3.1701 -0.0018 16.8564 0.0001
# 6 -0.0003 -0.0010 -0.0022 -12.3171 0.0001 13.7723
#
#
#
# Elastic Compliance Matrix: (Units=1/GPa)
#
#
# Indices 1 2 3 4 5 6 
#
# 1 0.035774 -0.002907 -0.005239 0.000001 -0.015151 0.000001
# 2 -0.002907 0.012114 -0.002439 0.000000 0.008612 0.000000
# 3 -0.005239 -0.002439 0.018603 -0.000004 -0.002785 -0.000001
# 4 0.000001 0.000000 -0.000004 0.027621 0.000003 0.024702
# 5 -0.015151 0.008612 -0.002785 0.000003 0.070935 0.000002
# 6 0.000001 0.000000 -0.000001 0.024702 0.000002 0.094701
#
#
# Mechanical properties :
#
#
# Convention : Reuss Voigt Hill
#
# Bulk Modulus (GPa) = 22.06495 26.87647 24.47071
# Shear Modulus (GPa) = 16.89053 26.00406 21.44730
#
# Velocity S-wave (km/s) = 2.84094 3.52501 3.20130
# Velocity P-wave (km/s) = 4.61570 5.42311 5.03561
#
# Compressibility (1/GPa) = 0.04532075
#
# Stress axis : x y z
#
# Youngs Moduli (GPa) = 27.95351 82.54851 53.75540
#
# Poissons Ratio (x) = 0.23996 0.28164
# Poissons Ratio (y) = 0.08126 0.13110
# Poissons Ratio (z) = 0.14646 0.20131
#
# Static dielectric constant tensor:
#      x y z
#    x 3.142880 0.000010 -0.230560 
#    y 0.000010 5.806210 0.000050 
#    z -0.230560 0.000050 4.261980 
# 
# 
# High freq. dielectric constant tensor:
#      x y z
#    x 1.723740 0.000000 -0.009550 
#    y 0.000000 1.844240 0.000000 
#    z -0.009550 0.000000 1.845200 
# 
# From -- ./inp_files/211309.got.cif
#   From: 2010.06.25/outbox.cif.g09.slc.cpg/sg15_106_cif.got.tgz:211309.got - 2010.06.28 07:06:18.
