data_PCOD8132746
_publ_section_title
;
Structure prediction by ZEFSAII (Michael W. Deem and Ramdas Pophale) SiO2 
 PCOD8132746
Probable space group: C 2/C
;
_chemical_formula_sum "Si O2"
_cell_formula_units_Z 56
_cell_length_a 12.011434
_cell_length_b 7.547331
_cell_length_c 29.883291
_cell_angle_alpha 90.000000
_cell_angle_beta 56.766452
_cell_angle_gamma 90.000000
_cell_volume 2265.965648
_symmetry_space_group_name_H-M "C 2/C"
_symmetry_group_IT_number 15
_symmetry_cell_setting 'monoclinic'
loop_
_space_group_symop_operation_xyz
x,y,z
-x,y,1/2-z
-x,-y,-z
x,-y,1/2+z
1/2+x,1/2+y,z
1/2-x,1/2+y,1/2-z
1/2-x,1/2-y,-z
1/2+x,1/2-y,1/2+z
loop_
_atom_site_type_symbol
_atom_site_label
_atom_site_fract_x
_atom_site_fract_y
_atom_site_fract_z
Si Si1 0.620229 0.108284 0.447760
Si Si2 0.970156 0.152578 0.041797
Si Si3 0.018931 0.616105 0.377221
Si Si4 0.251790 0.181033 0.790420
Si Si5 0.107775 0.003517 0.593863
Si Si6 0.774889 0.455989 0.382616
Si Si7 0.445724 0.441374 0.715545
O O1 0.503783 0.155846 0.510355
O O2 0.554267 0.028879 0.417258
O O3 0.732240 0.974994 0.442230
O O4 0.703865 0.288725 0.420925
O O5 0.815206 0.133109 0.089898
O O6 0.062118 0.131864 0.065306
O O7 0.000000 0.000000 0.000000
O O8 0.919908 0.489699 0.371871
O O9 0.156446 0.648762 0.320610
O O10 0.956844 0.807973 0.401851
O O11 0.389357 0.245286 0.738039
O O12 0.289012 0.073250 0.826763
O O13 0.178167 0.056774 0.772101
O O14 0.061272 0.929271 0.652827
O O15 0.500000 0.524291 0.750000
#
# Coordination Sequence:
#
# PCOD8132746 Si02
#       7
#     8   8   8   8   8   8   8
#     4  10  21  39  63  95 128 165 206 254 312 371
#     4  10  18  40  68  89 130 174 200 255 324 372
#     4  10  21  41  62  91 132 163 205 260 311 375
#     4  10  23  42  60  91 125 162 212 261 319 371
#     4  11  21  42  64  91 131 165 210 264 313 378
#     4  10  20  41  65  88 129 170 204 258 314 375
#     4  11  23  40  64  89 125 165 210 264 316 369
#
# _framework density 24.713528
#
# number of rings (size 3 to 8) (size 9 to 14) (size 15 to 20)
#    0.000    1.714    5.714    2.143    0.000    5.143 
#    2.571    0.714    0.000    0.000    0.000    0.000 
#    0.000    0.000    0.000    0.000    0.000    0.000 
#
# Total GULP energy -347227.003669 kJ/mol
# GULP energy per Si atom -12400.964417 kJ/mol
# Density = 2.465728 g / cm^3
# Si number density = 24.713528 Si / 1000 Ang^3
#
#
#
# Elastic Constant Matrix: (Units=GPa)
#
#
# Indices 1 2 3 4 5 6 
#
# 1 162.0752 11.5793 42.9163 0.0000 27.6004 0.0000
# 2 11.5793 26.3047 13.5318 0.0000 4.3821 0.0000
# 3 42.9163 13.5318 112.7226 0.0000 17.3397 0.0000
# 4 0.0000 0.0000 0.0000 41.5232 0.0000 -2.3942
# 5 27.6004 4.3821 17.3397 0.0000 51.6289 0.0000
# 6 0.0000 0.0000 0.0000 -2.3942 0.0000 36.7852
#
#
#
# Elastic Compliance Matrix: (Units=1/GPa)
#
#
# Indices 1 2 3 4 5 6 
#
# 1 0.007379 -0.001634 -0.002138 0.000000 -0.003088 0.000000
# 2 -0.001634 0.041058 -0.004118 0.000000 -0.001228 0.000000
# 3 -0.002138 -0.004118 0.010492 0.000000 -0.002031 0.000000
# 4 0.000000 0.000000 0.000000 0.024174 0.000000 0.001573
# 5 -0.003088 -0.001228 -0.002031 0.000000 0.021806 0.000000
# 6 0.000000 0.000000 0.000000 0.001573 0.000000 0.027287
#
#
# Mechanical properties :
#
#
# Convention : Reuss Voigt Hill
#
# Bulk Modulus (GPa) = 23.17524 48.57304 35.87414
# Shear Modulus (GPa) = 30.79597 41.52579 36.16088
#
# Velocity S-wave (km/s) = 3.53387 4.10358 3.82933
# Velocity P-wave (km/s) = 5.10381 6.49227 5.83945
#
# Compressibility (1/GPa) = 0.04314950
#
# Stress axis : x y z
#
# Youngs Moduli (GPa) = 135.52520 24.35568 95.30919
#
# Poissons Ratio (x) = 0.03979 0.20378
# Poissons Ratio (y) = 0.22142 0.39247
# Poissons Ratio (z) = 0.28977 0.10029
#
# Static dielectric constant tensor:
#      x y z
#    x 4.710440 0.000000 -0.198550 
#    y 0.000000 4.366580 0.000000 
#    z -0.198550 0.000000 4.662620 
# 
# 
# High freq. dielectric constant tensor:
#      x y z
#    x 2.001650 0.000000 0.000390 
#    y 0.000000 1.976670 0.000000 
#    z 0.000390 0.000000 1.989340 
# 
# From -- ./inp_files/309920.got.cif
#   From: 2010.06.25/outbox.cif.g09.slc.cpg/sg15_155_cif.got.tgz:309920.got - 2010.06.28 07:06:18.
