data_PCOD8132088
_publ_section_title
;
Structure prediction by ZEFSAII (Michael W. Deem and Ramdas Pophale) SiO2 
 PCOD8132088
Probable space group: C 2/C
;
_chemical_formula_sum "Si O2"
_cell_formula_units_Z 52
_cell_length_a 21.297730
_cell_length_b 9.721722
_cell_length_c 28.647885
_cell_angle_alpha 90.000000
_cell_angle_beta 152.538483
_cell_angle_gamma 90.000000
_cell_volume 2735.356125
_symmetry_space_group_name_H-M "C 2/C"
_symmetry_group_IT_number 15
_symmetry_cell_setting 'monoclinic'
loop_
_space_group_symop_operation_xyz
x,y,z
-x,y,1/2-z
-x,-y,-z
x,-y,1/2+z
1/2+x,1/2+y,z
1/2-x,1/2+y,1/2-z
1/2-x,1/2-y,-z
1/2+x,1/2-y,1/2+z
loop_
_atom_site_type_symbol
_atom_site_label
_atom_site_fract_x
_atom_site_fract_y
_atom_site_fract_z
Si Si1 0.221847 0.107834 0.958030
Si Si2 0.681314 0.934930 0.165544
Si Si3 0.872491 0.812527 0.802113
Si Si4 0.807056 0.853656 0.499354
Si Si5 0.389773 0.976008 0.481354
Si Si6 0.788329 0.786786 0.647749
Si Si7 0.000000 0.996009 0.250000
O O1 0.336704 0.081292 0.995260
O O2 0.073680 0.101228 0.836197
O O3 0.250000 0.250000 0.000000
O O4 0.224711 0.003429 0.002865
O O5 0.679113 0.789625 0.191207
O O6 0.677779 0.896921 0.107740
O O7 0.808881 0.033116 0.263873
O O8 0.552200 0.033507 0.090679
O O9 0.820954 0.734720 0.721043
O O10 0.034814 0.828391 0.907593
O O11 0.750000 0.750000 0.500000
O O12 0.715419 0.837228 0.391911
O O13 0.357849 0.138637 0.453510
O O14 0.894624 0.907017 0.706505
#
# Coordination Sequence:
#
# PCOD8132088 Si02
#       7
#     8   8   8   8   8   8   4
#     4  11  23  39  62  95 130 160 198 262 329 379
#     4  10  21  39  60  84 119 162 211 245 304 373
#     4  11  22  38  61  93 121 166 208 261 315 367
#     4  12  20  38  68  94 120 160 219 264 306 375
#     4   9  19  39  62  78 117 169 200 245 302 372
#     4  10  18  35  64  89 115 156 218 251 304 367
#     4  10  18  38  64  88 118 168 200 250 322 380
#
# _framework density 19.010321000000001
#
# number of rings (size 3 to 8) (size 9 to 14) (size 15 to 20)
#    0.000    1.538    6.154    0.000    0.000    1.231 
#    2.769    3.077    0.000    0.000    0.000    0.000 
#    0.000    0.000    0.000    0.000    0.000    0.000 
#
# Total GULP energy -322193.859651 kJ/mol
# GULP energy per Si atom -12392.071525 kJ/mol
# Density = 1.896705 g / cm^3
# Si number density = 19.010321 Si / 1000 Ang^3
#
#
#
# Elastic Constant Matrix: (Units=GPa)
#
#
# Indices 1 2 3 4 5 6 
#
# 1 99.0901 41.4703 37.1560 -0.0002 -11.7918 0.0000
# 2 41.4703 101.3185 40.0204 0.0017 -12.7273 0.0001
# 3 37.1560 40.0204 79.9879 0.0016 -1.6772 0.0001
# 4 -0.0002 0.0017 0.0016 30.1460 -0.0004 -11.1972
# 5 -11.7918 -12.7273 -1.6772 -0.0004 42.0296 -0.0003
# 6 0.0000 0.0001 0.0001 -11.1972 -0.0003 27.8432
#
#
#
# Elastic Compliance Matrix: (Units=1/GPa)
#
#
# Indices 1 2 3 4 5 6 
#
# 1 0.013526 -0.003430 -0.004513 0.000001 0.002576 0.000000
# 2 -0.003430 0.013702 -0.005200 -0.000001 0.002979 0.000000
# 3 -0.004513 -0.005200 0.017155 -0.000001 -0.002156 0.000000
# 4 0.000001 -0.000001 -0.000001 0.038997 0.000000 0.015683
# 5 0.002576 0.002979 -0.002156 0.000000 0.025332 0.000000
# 6 0.000000 0.000000 0.000000 0.015683 0.000000 0.042222
#
#
# Mechanical properties :
#
#
# Convention : Reuss Voigt Hill
#
# Bulk Modulus (GPa) = 55.25723 57.52111 56.38917
# Shear Modulus (GPa) = 27.28491 30.78707 29.03599
#
# Velocity S-wave (km/s) = 3.79260 4.02866 3.91241
# Velocity P-wave (km/s) = 6.95043 7.20858 7.08068
#
# Compressibility (1/GPa) = 0.01809718
#
# Stress axis : x y z
#
# Youngs Moduli (GPa) = 73.93076 72.98231 58.29339
#
# Poissons Ratio (x) = 0.25034 0.26308
# Poissons Ratio (y) = 0.25359 0.30311
# Poissons Ratio (z) = 0.33365 0.37948
#
# Static dielectric constant tensor:
#      x y z
#    x 3.788320 0.000000 0.290370 
#    y 0.000000 3.153470 -0.000010 
#    z 0.290370 -0.000010 4.122160 
# 
# 
# High freq. dielectric constant tensor:
#      x y z
#    x 1.756050 0.000000 0.000420 
#    y 0.000000 1.699610 0.000000 
#    z 0.000420 0.000000 1.747840 
# 
# From -- ./inp_files/318414.got.cif
#   From: 2010.06.25/outbox.cif.g09.slc.cpg/sg15_160_cif.got.tgz:318414.got - 2010.06.28 07:06:18.
