data_PCOD8132363
_publ_section_title
;
Structure prediction by ZEFSAII (Michael W. Deem and Ramdas Pophale) SiO2 
 PCOD8132363
Probable space group: C 2/C
;
_chemical_formula_sum "Si O2"
_cell_formula_units_Z 52
_cell_length_a 20.859313
_cell_length_b 18.409396
_cell_length_c 12.233416
_cell_angle_alpha 90.000000
_cell_angle_beta 34.881725
_cell_angle_gamma 90.000000
_cell_volume 2686.553049
_symmetry_space_group_name_H-M "C 2/C"
_symmetry_group_IT_number 15
_symmetry_cell_setting 'monoclinic'
loop_
_space_group_symop_operation_xyz
x,y,z
-x,y,1/2-z
-x,-y,-z
x,-y,1/2+z
1/2+x,1/2+y,z
1/2-x,1/2+y,1/2-z
1/2-x,1/2-y,-z
1/2+x,1/2-y,1/2+z
loop_
_atom_site_type_symbol
_atom_site_label
_atom_site_fract_x
_atom_site_fract_y
_atom_site_fract_z
Si Si1 0.679784 0.630620 0.366240
Si Si2 0.760758 0.596417 0.021537
Si Si3 0.500000 0.124079 0.750000
Si Si4 0.737741 0.340712 0.330494
Si Si5 0.372801 0.478736 0.956874
Si Si6 0.103508 0.708636 0.419175
Si Si7 0.450015 0.775009 0.933743
O O1 0.633629 0.557193 0.481762
O O2 0.802466 0.648733 0.241810
O O3 0.596780 0.694350 0.516780
O O4 0.685965 0.624990 0.226292
O O5 0.760511 0.660628 0.930016
O O6 0.887255 0.576769 0.885761
O O7 0.702306 0.525084 0.049679
O O8 0.512071 0.173935 0.626584
O O9 0.676865 0.418103 0.388683
O O10 0.657124 0.275841 0.408657
O O11 0.855621 0.332939 0.102319
O O12 0.500000 0.458723 0.750000
O O13 0.048704 0.732420 0.383256
O O14 0.500000 0.803550 0.750000
#
# Coordination Sequence:
#
# PCOD8132363 Si02
#       7
#     8   8   4   8   8   8   8
#     4  10  23  39  61  96 125 169 209 261 315 386
#     4   9  21  39  61  94 127 161 220 258 323 366
#     4  10  18  36  68  90 124 162 210 280 304 370
#     4   9  22  39  60  96 122 161 220 258 316 382
#     4  10  22  42  61  93 130 165 207 258 321 382
#     4  10  21  36  65  89 127 162 212 266 316 365
#     4  11  23  42  62  92 129 171 210 262 320 378
#
# _framework density 19.355657000000001
#
# number of rings (size 3 to 8) (size 9 to 14) (size 15 to 20)
#    0.923    1.231    1.538    0.462    5.385    4.923 
#    5.538    6.923    1.692    0.000    0.000    0.000 
#    0.000    0.000    0.000    0.000    0.000    0.000 
#
# Total GULP energy -322211.816905 kJ/mol
# GULP energy per Si atom -12392.762189 kJ/mol
# Density = 1.931160 g / cm^3
# Si number density = 19.355657 Si / 1000 Ang^3
#
#
#
# Elastic Constant Matrix: (Units=GPa)
#
#
# Indices 1 2 3 4 5 6 
#
# 1 113.4686 23.3290 50.0892 0.0000 -7.8886 0.0000
# 2 23.3290 82.7833 44.4638 0.0000 -4.7839 0.0000
# 3 50.0892 44.4638 118.8416 0.0000 1.1116 0.0000
# 4 0.0000 0.0000 0.0000 23.5561 0.0000 2.8002
# 5 -7.8886 -4.7839 1.1116 0.0000 24.1712 0.0000
# 6 0.0000 0.0000 0.0000 2.8002 0.0000 21.5109
#
#
#
# Elastic Compliance Matrix: (Units=1/GPa)
#
#
# Indices 1 2 3 4 5 6 
#
# 1 0.011192 -0.000480 -0.004573 0.000000 0.003768 0.000000
# 2 -0.000480 0.015398 -0.005588 0.000000 0.003148 0.000000
# 3 -0.004573 -0.005588 0.012462 0.000000 -0.003172 0.000000
# 4 0.000000 0.000000 0.000000 0.043119 0.000000 -0.005613
# 5 0.003768 0.003148 -0.003172 0.000000 0.043370 0.000000
# 6 0.000000 0.000000 0.000000 -0.005613 0.000000 0.047219
#
#
# Mechanical properties :
#
#
# Convention : Reuss Voigt Hill
#
# Bulk Modulus (GPa) = 56.27312 61.20639 58.73975
# Shear Modulus (GPa) = 25.00403 26.99506 25.99954
#
# Velocity S-wave (km/s) = 3.59809 3.73860 3.66902
# Velocity P-wave (km/s) = 6.81161 7.09414 6.95431
#
# Compressibility (1/GPa) = 0.01777047
#
# Stress axis : x y z
#
# Youngs Moduli (GPa) = 89.34663 64.94142 80.24110
#
# Poissons Ratio (x) = 0.03118 0.36694
# Poissons Ratio (y) = 0.04290 0.44841
# Poissons Ratio (z) = 0.40858 0.36291
#
# Static dielectric constant tensor:
#      x y z
#    x 3.518030 0.000000 -0.119420 
#    y 0.000000 3.216780 0.000000 
#    z -0.119420 0.000000 3.588650 
# 
# 
# High freq. dielectric constant tensor:
#      x y z
#    x 1.755620 0.000000 -0.009780 
#    y 0.000000 1.725660 0.000000 
#    z -0.009780 0.000000 1.761060 
# 
# From -- ./inp_files/113609.got.cif
#   From: 2010.06.25/outbox.cif.g09.slc.cpg/sg15_57_cif.got.tgz:113609.got - 2010.06.28 07:06:18.
