data_PCOD8132713
_publ_section_title
;
Structure prediction by ZEFSAII (Michael W. Deem and Ramdas Pophale) SiO2 
 PCOD8132713
Probable space group: C 2/C
;
_chemical_formula_sum "Si O2"
_cell_formula_units_Z 36
_cell_length_a 19.068217
_cell_length_b 14.002825
_cell_length_c 8.067589
_cell_angle_alpha 90.000000
_cell_angle_beta 136.310612
_cell_angle_gamma 90.000000
_cell_volume 1487.953844
_symmetry_space_group_name_H-M "C 2/C"
_symmetry_group_IT_number 15
_symmetry_cell_setting 'monoclinic'
loop_
_space_group_symop_operation_xyz
x,y,z
-x,y,1/2-z
-x,-y,-z
x,-y,1/2+z
1/2+x,1/2+y,z
1/2-x,1/2+y,1/2-z
1/2-x,1/2-y,-z
1/2+x,1/2-y,1/2+z
loop_
_atom_site_type_symbol
_atom_site_label
_atom_site_fract_x
_atom_site_fract_y
_atom_site_fract_z
Si Si1 0.347072 0.604518 0.028887
Si Si2 0.272383 0.747649 0.346866
Si Si3 0.000000 0.556361 0.750000
Si Si4 0.905183 0.084399 0.476658
Si Si5 0.624344 0.904436 0.159791
O O1 0.329225 0.710686 0.919471
O O2 0.387608 0.529274 0.962928
O O3 0.238193 0.567587 0.913153
O O4 0.426121 0.606479 0.317716
O O5 0.250000 0.750000 0.500000
O O6 0.301870 0.640030 0.350510
O O7 0.368390 0.813352 0.452659
O O8 0.918380 0.492267 0.516350
O O9 0.942978 0.619967 0.792011
O O10 0.000000 0.118871 0.750000
#
# Coordination Sequence:
#
# PCOD8132713 Si02
#       5
#     8   8   4   8   8
#     4  10  23  43  67  99 141 193 234 295 374 432
#     4  10  24  42  66 101 136 189 241 297 361 441
#     4  10  18  40  64 102 132 186 238 310 350 444
#     4  12  24  43  70 101 142 187 248 300 352 440
#     4   9  22  37  67  96 141 182 239 291 376 416
#
# _framework density 24.194300999999999
#
# number of rings (size 3 to 8) (size 9 to 14) (size 15 to 20)
#    1.333    0.444    0.000    4.000    4.667    0.000 
#    0.000    0.000    7.333    0.000    0.000    0.000 
#    0.000    0.000    0.000    0.000    0.000    0.000 
#
# Total GULP energy -222986.222234 kJ/mol
# GULP energy per Si atom -12388.123457 kJ/mol
# Density = 2.413923 g / cm^3
# Si number density = 24.194301 Si / 1000 Ang^3
#
#
#
# Elastic Constant Matrix: (Units=GPa)
#
#
# Indices 1 2 3 4 5 6 
#
# 1 128.9203 27.3786 28.2370 0.0000 -28.5261 0.0000
# 2 27.3786 83.3826 35.4858 0.0000 -8.1232 0.0000
# 3 28.2370 35.4858 149.7722 0.0000 -21.5946 0.0000
# 4 0.0000 0.0000 0.0000 28.0524 0.0000 -8.1392
# 5 -28.5261 -8.1232 -21.5946 0.0000 42.8068 0.0000
# 6 0.0000 0.0000 0.0000 -8.1392 0.0000 43.3709
#
#
#
# Elastic Compliance Matrix: (Units=1/GPa)
#
#
# Indices 1 2 3 4 5 6 
#
# 1 0.009635 -0.002428 -0.000412 0.000000 0.005752 0.000000
# 2 -0.002428 0.013990 -0.002920 0.000000 -0.000436 0.000000
# 3 -0.000412 -0.002920 0.007902 0.000000 0.003157 0.000000
# 4 0.000000 0.000000 0.000000 0.037700 0.000000 0.007075
# 5 0.005752 -0.000436 0.003157 0.000000 0.028704 0.000000
# 6 0.000000 0.000000 0.000000 0.007075 0.000000 0.024385
#
#
# Mechanical properties :
#
#
# Convention : Reuss Voigt Hill
#
# Bulk Modulus (GPa) = 49.98112 60.47532 55.22822
# Shear Modulus (GPa) = 35.58583 40.91094 38.24839
#
# Velocity S-wave (km/s) = 3.83931 4.11656 3.98035
# Velocity P-wave (km/s) = 6.35270 6.90251 6.63330
#
# Compressibility (1/GPa) = 0.02000756
#
# Stress axis : x y z
#
# Youngs Moduli (GPa) = 103.78371 71.47806 126.55773
#
# Poissons Ratio (x) = 0.17355 0.05213
# Poissons Ratio (y) = 0.25200 0.36953
# Poissons Ratio (z) = 0.04275 0.20871
#
# Static dielectric constant tensor:
#      x y z
#    x 4.315630 0.000000 -0.101120 
#    y 0.000000 4.176670 0.000000 
#    z -0.101120 0.000000 4.486730 
# 
# 
# High freq. dielectric constant tensor:
#      x y z
#    x 1.960920 0.000000 -0.010300 
#    y 0.000000 1.938770 0.000000 
#    z -0.010300 0.000000 1.958270 
# 
# From -- ./inp_files/56308.got.cif
#   From: 2010.06.25/outbox.cif.g09.slc.cpg/sg15_29_cif.got.tgz:56308.got - 2010.06.28 07:06:18.
