data_PCOD8132415
_publ_section_title
;
Structure prediction by ZEFSAII (Michael W. Deem and Ramdas Pophale) SiO2 
 PCOD8132415
Probable space group: C 2/C
;
_chemical_formula_sum "Si O2"
_cell_formula_units_Z 64
_cell_length_a 14.833099
_cell_length_b 8.507473
_cell_length_c 27.195719
_cell_angle_alpha 90.000000
_cell_angle_beta 65.810903
_cell_angle_gamma 90.000000
_cell_volume 3130.561110
_symmetry_space_group_name_H-M "C 2/C"
_symmetry_group_IT_number 15
_symmetry_cell_setting 'monoclinic'
loop_
_space_group_symop_operation_xyz
x,y,z
-x,y,1/2-z
-x,-y,-z
x,-y,1/2+z
1/2+x,1/2+y,z
1/2-x,1/2+y,1/2-z
1/2-x,1/2-y,-z
1/2+x,1/2-y,1/2+z
loop_
_atom_site_type_symbol
_atom_site_label
_atom_site_fract_x
_atom_site_fract_y
_atom_site_fract_z
Si Si1 0.429232 0.599098 0.629859
Si Si2 0.397199 0.083340 0.180673
Si Si3 0.742371 0.808450 0.556385
Si Si4 0.547266 0.302514 0.581648
Si Si5 0.167812 0.344023 0.377603
Si Si6 0.895807 0.468361 0.364478
Si Si7 0.234019 0.432766 0.694984
Si Si8 0.897073 0.082706 0.529049
O O1 0.449135 0.750040 0.658760
O O2 0.524319 0.480293 0.607188
O O3 0.337564 0.519213 0.677914
O O4 0.399547 0.664197 0.582025
O O5 0.488844 0.974470 0.175693
O O6 0.318731 0.084043 0.241415
O O7 0.341865 0.016312 0.144199
O O8 0.750000 0.750000 0.500000
O O9 0.779291 0.659389 0.580749
O O10 0.634755 0.880255 0.594421
O O11 0.810753 0.957064 0.551676
O O12 0.441154 0.228920 0.592833
O O13 0.612774 0.304864 0.516509
O O14 0.613340 0.198734 0.604471
O O15 0.242083 0.242799 0.327552
O O16 0.832477 0.469158 0.328840
O O17 0.000000 0.000000 0.500000
#
# Coordination Sequence:
#
# PCOD8132415 Si02
#       8
#     8   8   8   8   8   8   8   8
#     4  10  20  37  60  87 113 151 202 237 280 353
#     4  11  22  34  64  85 108 158 194 240 291 347
#     4  11  22  37  58  86 121 154 182 243 299 340
#     4   9  19  36  62  81 114 157 190 231 286 353
#     4   9  19  39  55  83 116 145 197 235 277 356
#     4  10  22  38  55  88 118 151 190 242 297 351
#     4  10  19  41  58  80 117 150 193 245 296 330
#     4  10  18  37  61  79 113 157 185 230 288 345
#
# _framework density 20.443619000000002
#
# number of rings (size 3 to 8) (size 9 to 14) (size 15 to 20)
#    0.000    2.000    5.000    1.125    3.500    1.500 
#    2.250    2.500    0.000    4.500    0.000    0.000 
#    0.000    0.000    0.000    0.000    0.000    0.000 
#
# Total GULP energy -396451.368398 kJ/mol
# GULP energy per Si atom -12389.105262 kJ/mol
# Density = 2.039709 g / cm^3
# Si number density = 20.443619 Si / 1000 Ang^3
#
#
#
# Elastic Constant Matrix: (Units=GPa)
#
#
# Indices 1 2 3 4 5 6 
#
# 1 51.2097 11.5788 12.4178 0.0000 2.4732 0.0000
# 2 11.5788 70.9243 25.1491 0.0000 16.2736 -0.0001
# 3 12.4178 25.1491 109.1685 0.0000 -1.4810 0.0000
# 4 0.0000 0.0000 0.0000 28.7243 0.0000 6.4017
# 5 2.4732 16.2736 -1.4810 0.0000 30.9280 0.0000
# 6 0.0000 -0.0001 0.0000 6.4017 0.0000 29.4372
#
#
#
# Elastic Compliance Matrix: (Units=1/GPa)
#
#
# Indices 1 2 3 4 5 6 
#
# 1 0.020566 -0.002671 -0.001728 0.000000 -0.000322 0.000000
# 2 -0.002671 0.018141 -0.004004 0.000000 -0.009523 0.000000
# 3 -0.001728 -0.004004 0.010316 0.000000 0.002739 0.000000
# 4 0.000000 0.000000 0.000000 0.036587 0.000000 -0.007956
# 5 -0.000322 -0.009523 0.002739 0.000000 0.037501 0.000000
# 6 0.000000 0.000000 0.000000 -0.007956 0.000000 0.035701
#
#
# Mechanical properties :
#
#
# Convention : Reuss Voigt Hill
#
# Bulk Modulus (GPa) = 31.04062 36.62153 33.83108
# Shear Modulus (GPa) = 26.83007 29.96169 28.39588
#
# Velocity S-wave (km/s) = 3.62663 3.83244 3.73095
# Velocity P-wave (km/s) = 5.72303 6.12664 5.92827
#
# Compressibility (1/GPa) = 0.03221585
#
# Stress axis : x y z
#
# Youngs Moduli (GPa) = 48.62364 55.12485 96.93281
#
# Poissons Ratio (x) = 0.14722 0.16755
# Poissons Ratio (y) = 0.12986 0.38816
# Poissons Ratio (z) = 0.08405 0.22074
#
# Static dielectric constant tensor:
#      x y z
#    x 4.030600 0.000000 -0.116550 
#    y 0.000000 3.969270 0.000000 
#    z -0.116550 0.000000 4.105350 
# 
# 
# High freq. dielectric constant tensor:
#      x y z
#    x 1.788730 0.000000 -0.014530 
#    y 0.000000 1.776320 0.000000 
#    z -0.014530 0.000000 1.808270 
# 
# From -- ./inp_files/295097.got.cif
#   From: 2010.06.25/outbox.cif.g09.slc.cpg/sg15_148_cif.got.tgz:295097.got - 2010.06.28 07:06:18.
