data_PCOD8132302
_publ_section_title
;
Structure prediction by ZEFSAII (Michael W. Deem and Ramdas Pophale) SiO2 
 PCOD8132302
Probable space group: C 2/C
;
_chemical_formula_sum "Si O2"
_cell_formula_units_Z 52
_cell_length_a 8.097063
_cell_length_b 31.483511
_cell_length_c 14.444591
_cell_angle_alpha 90.000000
_cell_angle_beta 138.492476
_cell_angle_gamma 90.000000
_cell_volume 2440.309727
_symmetry_space_group_name_H-M "C 2/C"
_symmetry_group_IT_number 15
_symmetry_cell_setting 'monoclinic'
loop_
_space_group_symop_operation_xyz
x,y,z
-x,y,1/2-z
-x,-y,-z
x,-y,1/2+z
1/2+x,1/2+y,z
1/2-x,1/2+y,1/2-z
1/2-x,1/2-y,-z
1/2+x,1/2-y,1/2+z
loop_
_atom_site_type_symbol
_atom_site_label
_atom_site_fract_x
_atom_site_fract_y
_atom_site_fract_z
Si Si1 0.777614 0.362482 0.405174
Si Si2 0.387894 0.221508 0.852469
Si Si3 0.092185 0.039035 0.477152
Si Si4 0.479251 0.615735 0.528972
Si Si5 0.874036 0.567452 0.821106
Si Si6 0.877900 0.208537 0.941058
Si Si7 0.000000 0.001734 0.750000
O O1 0.500000 0.367612 0.250000
O O2 0.883929 0.316269 0.425867
O O3 0.759475 0.371880 0.507785
O O4 0.953195 0.398301 0.433142
O O5 0.627896 0.219786 0.889151
O O6 0.151589 0.219090 0.682244
O O7 0.396255 0.264363 0.918200
O O8 0.915545 0.080375 0.423922
O O9 0.379077 0.049316 0.624186
O O10 0.091509 0.028882 0.369266
O O11 0.000000 0.000000 0.500000
O O12 0.702120 0.592833 0.677549
O O13 0.575300 0.658907 0.523053
O O14 0.727131 0.529560 0.808619
#
# Coordination Sequence:
#
# PCOD8132302 Si02
#       7
#     8   8   8   8   8   8   4
#     4  10  18  36  63  94 116 157 218 256 302 378
#     4  10  20  36  59  94 124 165 208 269 309 379
#     4  12  25  39  64  95 126 167 212 267 323 384
#     4  11  21  38  64  93 118 167 217 258 306 386
#     4  11  20  40  66  90 123 164 213 262 306 385
#     4  10  21  37  62  90 126 163 219 258 320 373
#     4  12  24  42  60  96 130 162 212 268 334 370
#
# _framework density 21.308771
#
# number of rings (size 3 to 8) (size 9 to 14) (size 15 to 20)
#    0.000    1.231    6.923    1.846    2.154    0.615 
#    0.000    4.615    0.000    1.846    0.000    0.000 
#    0.000    0.000    0.000    0.000    0.000    0.000 
#
# Total GULP energy -322210.970360 kJ/mol
# GULP energy per Si atom -12392.729629 kJ/mol
# Density = 2.126027 g / cm^3
# Si number density = 21.308771 Si / 1000 Ang^3
#
#
#
# Elastic Constant Matrix: (Units=GPa)
#
#
# Indices 1 2 3 4 5 6 
#
# 1 72.7888 41.2131 12.9571 0.0000 -2.6358 0.0000
# 2 41.2131 177.6690 56.2978 0.0000 -20.4470 0.0000
# 3 12.9571 56.2978 42.5499 0.0000 -7.9534 0.0000
# 4 0.0000 0.0000 0.0000 34.2553 0.0000 -12.9913
# 5 -2.6358 -20.4470 -7.9534 0.0000 12.4885 0.0000
# 6 0.0000 0.0000 0.0000 -12.9913 0.0000 42.4217
#
#
#
# Elastic Compliance Matrix: (Units=1/GPa)
#
#
# Indices 1 2 3 4 5 6 
#
# 1 0.015926 -0.004036 -0.000133 0.000000 -0.003331 0.000000
# 2 -0.004036 0.011635 -0.012218 0.000000 0.010416 0.000000
# 3 -0.000133 -0.012218 0.040823 0.000000 0.005966 0.000000
# 4 0.000000 0.000000 0.000000 0.033029 0.000000 0.010115
# 5 -0.003331 0.010416 0.005966 0.000000 0.100225 0.000000
# 6 0.000000 0.000000 0.000000 0.010115 0.000000 0.026670
#
#
# Mechanical properties :
#
#
# Convention : Reuss Voigt Hill
#
# Bulk Modulus (GPa) = 28.08106 57.10486 42.59296
# Shear Modulus (GPa) = 18.31822 30.00241 24.16032
#
# Velocity S-wave (km/s) = 2.93517 3.75638 3.37088
# Velocity P-wave (km/s) = 4.96928 6.75802 5.93147
#
# Compressibility (1/GPa) = 0.03561119
#
# Stress axis : x y z
#
# Youngs Moduli (GPa) = 62.78898 85.94845 24.49580
#
# Poissons Ratio (x) = 0.34685 0.00326
# Poissons Ratio (y) = 0.25339 0.29929
# Poissons Ratio (z) = 0.00835 1.05013
#
# Static dielectric constant tensor:
#      x y z
#    x 4.199480 0.000000 -0.368920 
#    y 0.000000 4.281270 0.000000 
#    z -0.368920 0.000000 3.717970 
# 
# 
# High freq. dielectric constant tensor:
#      x y z
#    x 1.850820 0.000000 -0.030010 
#    y 0.000000 1.849350 0.000000 
#    z -0.030010 0.000000 1.783280 
# 
# From -- ./inp_files/139320.got.cif
#   From: 2010.06.25/outbox.cif.g09.slc.cpg/sg15_70_cif.got.tgz:139320.got - 2010.06.28 07:06:18.
