data_PCOD8132179
_publ_section_title
;
Structure prediction by ZEFSAII (Michael W. Deem and Ramdas Pophale) SiO2 
 PCOD8132179
Probable space group: C 2/C
;
_chemical_formula_sum "Si O2"
_cell_formula_units_Z 60
_cell_length_a 9.019427
_cell_length_b 11.908941
_cell_length_c 26.786822
_cell_angle_alpha 90.000000
_cell_angle_beta 94.831110
_cell_angle_gamma 90.000000
_cell_volume 2866.999441
_symmetry_space_group_name_H-M "C 2/C"
_symmetry_group_IT_number 15
_symmetry_cell_setting 'monoclinic'
loop_
_space_group_symop_operation_xyz
x,y,z
-x,y,1/2-z
-x,-y,-z
x,-y,1/2+z
1/2+x,1/2+y,z
1/2-x,1/2+y,1/2-z
1/2-x,1/2-y,-z
1/2+x,1/2-y,1/2+z
loop_
_atom_site_type_symbol
_atom_site_label
_atom_site_fract_x
_atom_site_fract_y
_atom_site_fract_z
Si Si1 0.354104 0.288186 0.047133
Si Si2 0.480457 0.112957 0.119584
Si Si3 0.619746 0.414861 0.023138
Si Si4 0.789806 0.748806 0.311909
Si Si5 0.932730 0.932225 0.671551
Si Si6 0.219525 0.021681 0.632857
Si Si7 0.759659 0.529163 0.430086
Si Si8 0.000000 0.879263 0.250000
O O1 0.362517 0.199771 0.092166
O O2 0.527249 0.303300 0.035024
O O3 0.278877 0.399573 0.065793
O O4 0.250000 0.250000 0.000000
O O5 0.589349 0.164682 0.162869
O O6 0.567999 0.047308 0.078247
O O7 0.382328 0.026066 0.148219
O O8 0.695390 0.473068 0.072716
O O9 0.500000 0.500000 0.000000
O O10 0.732837 0.397642 0.980025
O O11 0.631881 0.679082 0.300339
O O12 0.774830 0.850663 0.349570
O O13 0.862082 0.800925 0.263773
O O14 0.838449 0.928416 0.618527
O O15 0.104488 0.937840 0.658130
O O16 0.919290 0.042522 0.706047
#
# Coordination Sequence:
#
# PCOD8132179 Si02
#       8
#     8   8   8   8   8   8   8   4
#     4  11  21  34  56  88 125 169 213 253 304 346
#     4  11  23  39  61  90 123 166 209 255 304 362
#     4  10  18  36  58  84 128 172 204 255 293 351
#     4  10  23  44  65  94 120 160 202 251 324 374
#     4  10  21  42  68  90 121 164 199 255 321 373
#     4  11  21  40  63  91 132 163 207 256 296 363
#     4  10  22  40  58  87 127 165 216 255 298 368
#     4  10  22  42  70  92 124 148 200 268 314 380
#
# _framework density 20.927803000000001
#
# number of rings (size 3 to 8) (size 9 to 14) (size 15 to 20)
#    0.000    1.600    4.000    2.400    0.000    5.867 
#    2.400    2.667    0.000    0.000    0.000    0.000 
#    0.000    0.000    0.000    0.000    0.000    0.000 
#
# Total GULP energy -371641.507121 kJ/mol
# GULP energy per Si atom -12388.050237 kJ/mol
# Density = 2.088017 g / cm^3
# Si number density = 20.927803 Si / 1000 Ang^3
#
#
#
# Elastic Constant Matrix: (Units=GPa)
#
#
# Indices 1 2 3 4 5 6 
#
# 1 118.2261 58.2326 36.1290 0.0000 -25.9800 0.0000
# 2 58.2326 73.1136 26.6765 0.0000 -17.1147 0.0000
# 3 36.1290 26.6765 84.4339 0.0000 -30.4820 0.0000
# 4 0.0000 0.0000 0.0000 27.2249 0.0000 -3.5389
# 5 -25.9800 -17.1147 -30.4820 0.0000 29.7830 0.0000
# 6 0.0000 0.0000 0.0000 -3.5389 0.0000 38.1886
#
#
#
# Elastic Compliance Matrix: (Units=1/GPa)
#
#
# Indices 1 2 3 4 5 6 
#
# 1 0.015215 -0.010273 -0.000959 0.000000 0.006388 0.000000
# 2 -0.010273 0.023143 -0.002141 0.000000 0.002146 0.000000
# 3 -0.000959 -0.002141 0.019324 0.000000 0.017711 0.000000
# 4 0.000000 0.000000 0.000000 0.037179 0.000000 0.003445
# 5 0.006388 0.002146 0.017711 0.000000 0.058508 0.000000
# 6 0.000000 0.000000 0.000000 0.003445 0.000000 0.026505
#
#
# Mechanical properties :
#
#
# Convention : Reuss Voigt Hill
#
# Bulk Modulus (GPa) = 32.32460 57.53886 44.93173
# Shear Modulus (GPa) = 23.04851 29.35502 26.20177
#
# Velocity S-wave (km/s) = 3.32224 3.74930 3.54221
# Velocity P-wave (km/s) = 5.49506 6.80417 6.18435
#
# Compressibility (1/GPa) = 0.03093619
#
# Stress axis : x y z
#
# Youngs Moduli (GPa) = 65.72382 43.20878 51.74833
#
# Poissons Ratio (x) = 0.44390 0.04961
# Poissons Ratio (y) = 0.67521 0.11081
# Poissons Ratio (z) = 0.06301 0.09252
#
# Static dielectric constant tensor:
#      x y z
#    x 3.952620 0.000000 -0.678100 
#    y 0.000000 2.615890 0.000000 
#    z -0.678100 0.000000 4.277750 
# 
# 
# High freq. dielectric constant tensor:
#      x y z
#    x 1.816210 0.000000 -0.014050 
#    y 0.000000 1.816850 0.000000 
#    z -0.014050 0.000000 1.818470 
# 
# From -- ./inp_files/307180.got.cif
#   From: 2010.06.25/outbox.cif.g09.slc.cpg/sg15_154_cif.got.tgz:307180.got - 2010.06.28 07:06:18.
