data_PCOD8132747
_publ_section_title
;
Structure prediction by ZEFSAII (Michael W. Deem and Ramdas Pophale) SiO2 
 PCOD8132747
Probable space group: C 2/C
;
_chemical_formula_sum "Si O2"
_cell_formula_units_Z 44
_cell_length_a 9.638200
_cell_length_b 16.382083
_cell_length_c 16.665340
_cell_angle_alpha 90.000000
_cell_angle_beta 51.834635
_cell_angle_gamma 90.000000
_cell_volume 2068.850757
_symmetry_space_group_name_H-M "C 2/C"
_symmetry_group_IT_number 15
_symmetry_cell_setting 'monoclinic'
loop_
_space_group_symop_operation_xyz
x,y,z
-x,y,1/2-z
-x,-y,-z
x,-y,1/2+z
1/2+x,1/2+y,z
1/2-x,1/2+y,1/2-z
1/2-x,1/2-y,-z
1/2+x,1/2-y,1/2+z
loop_
_atom_site_type_symbol
_atom_site_label
_atom_site_fract_x
_atom_site_fract_y
_atom_site_fract_z
Si Si1 0.500000 0.197224 0.750000
Si Si2 0.140769 0.827887 0.009107
Si Si3 0.840839 0.530655 0.360579
Si Si4 0.042886 0.436001 0.415187
Si Si5 0.686782 0.410490 0.308754
Si Si6 0.953789 0.257989 0.437016
O O1 0.675559 0.142946 0.688965
O O2 0.476762 0.252415 0.678723
O O3 0.001472 0.863081 0.124932
O O4 0.250000 0.750000 0.000000
O O5 0.278947 0.899090 0.942602
O O6 0.038489 0.810425 0.962925
O O7 0.681355 0.495706 0.361569
O O8 0.000000 0.567062 0.250000
O O9 0.918110 0.456148 0.385067
O O10 0.244671 0.431284 0.306829
O O11 0.000000 0.500000 0.500000
O O12 0.998629 0.345405 0.461482
O O13 0.750000 0.250000 0.500000
#
# Coordination Sequence:
#
# PCOD8132747 Si02
#       6
#     4   8   8   8   8   8
#     4  10  18  40  68  90 116 174 236 260 322 390
#     4  12  25  38  63 103 138 166 212 284 355 391
#     4  10  20  40  63  88 124 175 220 262 330 402
#     4  10  20  39  65  90 121 169 224 271 320 392
#     4  10  19  41  67  85 125 180 218 260 331 406
#     4  11  21  40  66  89 127 174 221 268 322 408
#
# _framework density 21.267845999999999
#
# number of rings (size 3 to 8) (size 9 to 14) (size 15 to 20)
#    0.000    1.455    6.364    1.636    0.000    2.909 
#    6.545    4.545    0.000    0.000    0.000    0.000 
#    0.000    0.000    0.000    0.000    0.000    0.000 
#
# Total GULP energy -272545.257198 kJ/mol
# GULP energy per Si atom -12388.420782 kJ/mol
# Density = 2.121944 g / cm^3
# Si number density = 21.267846 Si / 1000 Ang^3
#
#
#
# Elastic Constant Matrix: (Units=GPa)
#
#
# Indices 1 2 3 4 5 6 
#
# 1 54.7396 8.5722 35.9747 -0.0003 -9.8617 0.0000
# 2 8.5722 71.2853 47.4188 -0.0002 -16.6511 0.0000
# 3 35.9747 47.4188 141.6524 -0.0001 -7.4188 -0.0001
# 4 -0.0003 -0.0002 -0.0001 37.5210 0.0001 4.6889
# 5 -9.8617 -16.6511 -7.4188 0.0001 36.0249 0.0000
# 6 0.0000 0.0000 -0.0001 4.6889 0.0000 37.5422
#
#
#
# Elastic Compliance Matrix: (Units=1/GPa)
#
#
# Indices 1 2 3 4 5 6 
#
# 1 0.023293 0.003108 -0.006618 0.000000 0.006450 0.000000
# 2 0.003108 0.020503 -0.007190 0.000000 0.008847 0.000000
# 3 -0.006618 -0.007190 0.010997 0.000000 -0.002870 0.000000
# 4 0.000000 0.000000 0.000000 0.027074 0.000000 -0.003381
# 5 0.006450 0.008847 -0.002870 0.000000 0.033022 0.000000
# 6 0.000000 0.000000 0.000000 -0.003381 0.000000 0.027059
#
#
# Mechanical properties :
#
#
# Convention : Reuss Voigt Hill
#
# Bulk Modulus (GPa) = 29.94578 50.17874 40.06226
# Shear Modulus (GPa) = 28.65659 33.93173 31.29416
#
# Velocity S-wave (km/s) = 3.67470 3.99864 3.84008
# Velocity P-wave (km/s) = 5.66704 6.70550 6.20802
#
# Compressibility (1/GPa) = 0.03339368
#
# Stress axis : x y z
#
# Youngs Moduli (GPa) = 42.93114 48.77231 90.93593
#
# Poissons Ratio (x) = -0.15158 0.60184
# Poissons Ratio (y) = -0.13343 0.65379
# Poissons Ratio (z) = 0.28413 0.35065
#
# Static dielectric constant tensor:
#      x y z
#    x 3.400890 0.000000 -0.323950 
#    y 0.000000 5.318640 0.000000 
#    z -0.323950 0.000000 3.592980 
# 
# 
# High freq. dielectric constant tensor:
#      x y z
#    x 1.818840 0.000000 0.003800 
#    y 0.000000 1.824250 0.000000 
#    z 0.003800 0.000000 1.840320 
# 
# From -- ./inp_files/189154.got.cif
#   From: 2010.06.25/outbox.cif.g09.slc.cpg/sg15_95_cif.got.tgz:189154.got - 2010.06.28 07:06:18.
