data_PCOD8132836
_publ_section_title
;
Structure prediction by ZEFSAII (Michael W. Deem and Ramdas Pophale) SiO2 
 PCOD8132836
Probable space group: C 2/C
;
_chemical_formula_sum "Si O2"
_cell_formula_units_Z 60
_cell_length_a 20.706901
_cell_length_b 30.513205
_cell_length_c 14.757571
_cell_angle_alpha 90.000000
_cell_angle_beta 158.736713
_cell_angle_gamma 90.000000
_cell_volume 3381.508492
_symmetry_space_group_name_H-M "C 2/C"
_symmetry_group_IT_number 15
_symmetry_cell_setting 'monoclinic'
loop_
_space_group_symop_operation_xyz
x,y,z
-x,y,1/2-z
-x,-y,-z
x,-y,1/2+z
1/2+x,1/2+y,z
1/2-x,1/2+y,1/2-z
1/2-x,1/2-y,-z
1/2+x,1/2-y,1/2+z
loop_
_atom_site_type_symbol
_atom_site_label
_atom_site_fract_x
_atom_site_fract_y
_atom_site_fract_z
Si Si1 0.955881 0.200126 0.326636
Si Si2 0.330700 0.517223 0.148622
Si Si3 0.497322 0.933809 0.941444
Si Si4 0.982456 0.366686 0.377899
Si Si5 0.500000 0.957115 0.750000
Si Si6 0.274087 0.613443 0.120613
Si Si7 0.719007 0.498426 0.120622
Si Si8 0.288215 0.217712 0.664224
O O1 0.931210 0.149146 0.319578
O O2 0.875420 0.234359 0.294696
O O3 0.168826 0.206369 0.596012
O O4 0.849796 0.214330 0.098527
O O5 0.344615 0.563850 0.218656
O O6 0.525213 0.494618 0.412951
O O7 0.291787 0.524529 0.991692
O O8 0.174272 0.488223 0.987842
O O9 0.534134 0.890622 0.047183
O O10 0.660368 0.967456 0.160501
O O11 0.480813 0.925212 0.811874
O O12 0.312314 0.954324 0.735535
O O13 0.949958 0.315869 0.357664
O O14 0.172489 0.373899 0.579885
O O15 0.840526 0.384603 0.120641
#
# Coordination Sequence:
#
# PCOD8132836 Si02
#       8
#     8   8   8   8   4   8   8   8
#     4   9  17  28  42  66  97 128 163 182 241 283
#     4  10  19  33  49  73  95 132 165 206 251 305
#     4  10  20  36  48  70  94 134 169 218 251 293
#     4  10  19  31  47  67  97 127 167 200 250 284
#     4  10  22  36  52  64  98 132 178 220 254 284
#     4  10  19  28  46  70  97 128 161 203 234 306
#     4   9  20  32  51  66  99 126 170 208 253 294
#     4   9  17  28  45  63  95 134 156 195 226 300
#
# _framework density 17.743559999999999
#
# number of rings (size 3 to 8) (size 9 to 14) (size 15 to 20)
#    0.000    2.400    1.333    1.600    5.600    4.800 
#    0.000    0.000    0.000    0.000    0.000    0.000 
#    0.000    4.267    0.000    0.000    0.000    0.133 
#
# Total GULP energy -371779.003111 kJ/mol
# GULP energy per Si atom -12392.633437 kJ/mol
# Density = 1.770317 g / cm^3
# Si number density = 17.743560 Si / 1000 Ang^3
#
#
#
# Elastic Constant Matrix: (Units=GPa)
#
#
# Indices 1 2 3 4 5 6 
#
# 1 76.9946 34.4870 32.2450 0.0000 13.4264 0.0000
# 2 34.4870 63.4041 15.8639 0.0001 3.0572 0.0001
# 3 32.2450 15.8639 59.9796 -0.0001 21.6349 0.0000
# 4 0.0000 0.0001 -0.0001 9.8907 0.0000 3.5753
# 5 13.4264 3.0572 21.6349 0.0000 30.4245 0.0000
# 6 0.0000 0.0001 0.0000 3.5753 0.0000 20.5517
#
#
#
# Elastic Compliance Matrix: (Units=1/GPa)
#
#
# Indices 1 2 3 4 5 6 
#
# 1 0.020882 -0.009279 -0.007780 0.000000 -0.002751 0.000000
# 2 -0.009279 0.021103 -0.001756 0.000000 0.003223 0.000000
# 3 -0.007780 -0.001756 0.026923 0.000000 -0.015535 0.000000
# 4 0.000000 0.000000 0.000000 0.107889 0.000000 -0.018769
# 5 -0.002751 0.003223 -0.015535 0.000000 0.044805 0.000000
# 6 0.000000 0.000000 0.000000 -0.018769 0.000000 0.051923
#
#
# Mechanical properties :
#
#
# Convention : Reuss Voigt Hill
#
# Bulk Modulus (GPa) = 31.97058 40.61889 36.29474
# Shear Modulus (GPa) = 15.54826 20.02556 17.78691
#
# Velocity S-wave (km/s) = 2.96341 3.36312 3.16957
# Velocity P-wave (km/s) = 5.45585 6.16625 5.82190
#
# Compressibility (1/GPa) = 0.03127876
#
# Stress axis : x y z
#
# Youngs Moduli (GPa) = 47.88839 47.38712 37.14362
#
# Poissons Ratio (x) = 0.43971 0.28897
# Poissons Ratio (y) = 0.44436 0.06521
# Poissons Ratio (z) = 0.37256 0.08319
#
# Static dielectric constant tensor:
#      x y z
#    x 3.296930 0.000000 0.318320 
#    y 0.000000 3.118450 0.000000 
#    z 0.318320 0.000000 3.160760 
# 
# 
# High freq. dielectric constant tensor:
#      x y z
#    x 1.679890 0.000000 0.037330 
#    y 0.000000 1.665650 0.000000 
#    z 0.037330 0.000000 1.652700 
# 
# From -- ./inp_files/44309.got.cif
#   From: 2010.06.25/outbox.cif.g09.slc.cpg/sg15_23_cif.got.tgz:44309.got - 2010.06.28 07:06:18.
