data_PCOD8132688
_publ_section_title
;
Structure prediction by ZEFSAII (Michael W. Deem and Ramdas Pophale) SiO2 
 PCOD8132688
Probable space group: C 2/C
;
_chemical_formula_sum "Si O2"
_cell_formula_units_Z 60
_cell_length_a 11.467814
_cell_length_b 10.637603
_cell_length_c 29.762008
_cell_angle_alpha 90.000000
_cell_angle_beta 131.785311
_cell_angle_gamma 90.000000
_cell_volume 2707.196863
_symmetry_space_group_name_H-M "C 2/C"
_symmetry_group_IT_number 15
_symmetry_cell_setting 'monoclinic'
loop_
_space_group_symop_operation_xyz
x,y,z
-x,y,1/2-z
-x,-y,-z
x,-y,1/2+z
1/2+x,1/2+y,z
1/2-x,1/2+y,1/2-z
1/2-x,1/2-y,-z
1/2+x,1/2-y,1/2+z
loop_
_atom_site_type_symbol
_atom_site_label
_atom_site_fract_x
_atom_site_fract_y
_atom_site_fract_z
Si Si1 0.000000 0.716818 0.750000
Si Si2 0.842766 0.643855 0.845127
Si Si3 0.302242 0.343642 0.283263
Si Si4 0.922666 0.036690 0.597331
Si Si5 0.962111 0.179335 0.950696
Si Si6 0.532422 0.870789 0.626502
Si Si7 0.630284 0.278026 0.875744
Si Si8 0.763908 0.236427 0.417684
O O1 0.866851 0.626783 0.737495
O O2 0.921138 0.800397 0.689686
O O3 0.708504 0.646859 0.773020
O O4 0.892918 0.501934 0.868753
O O5 0.772860 0.718785 0.868907
O O6 0.995574 0.712550 0.868215
O O7 0.431536 0.443811 0.331494
O O8 0.348363 0.202475 0.309966
O O9 0.792727 0.144609 0.567747
O O10 0.994200 0.049218 0.564858
O O11 0.838693 0.907634 0.589434
O O12 0.993376 0.297020 0.926310
O O13 0.780409 0.186592 0.917828
O O14 0.068081 0.189400 0.022177
O O15 0.364079 0.876035 0.608998
#
# Coordination Sequence:
#
# PCOD8132688 Si02
#       8
#     4   8   8   8   8   8   8   8
#     4  10  18  40  58  86 124 158 204 256 316 388
#     4  11  25  38  59  97 129 163 212 257 324 391
#     4   9  21  38  61  89 122 163 205 258 319 384
#     4  10  21  38  65  91 118 165 216 265 312 384
#     4  10  21  43  65  88 120 168 220 263 317 378
#     4  10  21  42  64  91 124 167 210 271 317 375
#     4  11  23  37  63  92 124 165 211 258 325 386
#     4  10  23  41  63  91 126 165 215 267 316 377
#
# _framework density 22.163146000000001
#
# number of rings (size 3 to 8) (size 9 to 14) (size 15 to 20)
#    0.000    2.133    2.667    2.400    3.733    6.933 
#    0.000    1.333    0.000    0.000    0.000    0.000 
#    0.000    0.000    0.000    0.000    0.000    0.000 
#
# Total GULP energy -371818.385997 kJ/mol
# GULP energy per Si atom -12393.946200 kJ/mol
# Density = 2.211270 g / cm^3
# Si number density = 22.163146 Si / 1000 Ang^3
#
#
#
# Elastic Constant Matrix: (Units=GPa)
#
#
# Indices 1 2 3 4 5 6 
#
# 1 32.8182 14.1437 -11.1559 0.0000 6.9713 0.0000
# 2 14.1437 29.5468 7.8444 0.0000 -11.8807 0.0000
# 3 -11.1559 7.8444 74.9905 0.0000 7.8032 0.0000
# 4 0.0000 0.0000 0.0000 8.8505 0.0000 1.6429
# 5 6.9713 -11.8807 7.8032 0.0000 35.6436 0.0000
# 6 0.0000 0.0000 0.0000 1.6429 0.0000 24.7347
#
#
#
# Elastic Compliance Matrix: (Units=1/GPa)
#
#
# Indices 1 2 3 4 5 6 
#
# 1 0.064932 -0.049243 0.018256 0.000000 -0.033110 0.000000
# 2 -0.049243 0.078842 -0.019760 0.000000 0.040236 0.000000
# 3 0.018256 -0.019760 0.019622 0.000000 -0.014453 0.000000
# 4 0.000000 0.000000 0.000000 0.114398 0.000000 -0.007598
# 5 -0.033110 0.040236 -0.014453 0.000000 0.051107 0.000000
# 6 0.000000 0.000000 0.000000 -0.007598 0.000000 0.040934
#
#
# Mechanical properties :
#
#
# Convention : Reuss Voigt Hill
#
# Bulk Modulus (GPa) = 16.15435 17.66888 16.91161
# Shear Modulus (GPa) = 10.16340 22.28065 16.22202
#
# Velocity S-wave (km/s) = 2.14375 3.17409 2.70837
# Velocity P-wave (km/s) = 3.66500 4.62846 4.17462
#
# Compressibility (1/GPa) = 0.06190282
#
# Stress axis : x y z
#
# Youngs Moduli (GPa) = 15.40067 12.68364 50.96394
#
# Poissons Ratio (x) = 0.62458 -0.93040
# Poissons Ratio (y) = 0.75837 1.00703
# Poissons Ratio (z) = -0.28115 0.25063
#
# Static dielectric constant tensor:
#      x y z
#    x 4.590170 0.000000 0.029130 
#    y 0.000000 3.860260 0.000000 
#    z 0.029130 0.000000 3.962970 
# 
# 
# High freq. dielectric constant tensor:
#      x y z
#    x 1.888810 0.000000 0.006060 
#    y 0.000000 1.838480 0.000000 
#    z 0.006060 0.000000 1.870520 
# 
# From -- ./inp_files/310820.got.cif
#   From: 2010.06.25/outbox.cif.g09.slc.cpg/sg15_156_cif.got.tgz:310820.got - 2010.06.28 07:06:18.
