data_PCOD8132218
_publ_section_title
;
Structure prediction by ZEFSAII (Michael W. Deem and Ramdas Pophale) SiO2 
 PCOD8132218
Probable space group: C 2/C
;
_chemical_formula_sum "Si O2"
_cell_formula_units_Z 64
_cell_length_a 8.558591
_cell_length_b 19.856946
_cell_length_c 19.964715
_cell_angle_alpha 90.000000
_cell_angle_beta 92.013006
_cell_angle_gamma 90.000000
_cell_volume 3390.859128
_symmetry_space_group_name_H-M "C 2/C"
_symmetry_group_IT_number 15
_symmetry_cell_setting 'monoclinic'
loop_
_space_group_symop_operation_xyz
x,y,z
-x,y,1/2-z
-x,-y,-z
x,-y,1/2+z
1/2+x,1/2+y,z
1/2-x,1/2+y,1/2-z
1/2-x,1/2-y,-z
1/2+x,1/2-y,1/2+z
loop_
_atom_site_type_symbol
_atom_site_label
_atom_site_fract_x
_atom_site_fract_y
_atom_site_fract_z
Si Si1 0.663643 0.194728 0.269157
Si Si2 0.344962 0.264794 0.896885
Si Si3 0.921382 0.836448 0.680917
Si Si4 0.063819 0.447486 0.552757
Si Si5 0.328468 0.852835 0.495462
Si Si6 0.630401 0.481913 0.449075
Si Si7 0.956843 0.987817 0.820998
Si Si8 0.102850 0.545579 0.313013
O O1 0.500000 0.230947 0.250000
O O2 0.754096 0.240810 0.324422
O O3 0.740435 0.178045 0.196709
O O4 0.636683 0.124049 0.305303
O O5 0.518262 0.293588 0.882014
O O6 0.360122 0.191580 0.930049
O O7 0.261814 0.313888 0.947882
O O8 0.000000 0.809478 0.750000
O O9 0.968890 0.913569 0.670614
O O10 0.252593 0.453408 0.556917
O O11 0.000000 0.500000 0.500000
O O12 0.997450 0.374812 0.528217
O O13 0.000320 0.468242 0.623933
O O14 0.224689 0.916342 0.472733
O O15 0.500000 0.500000 0.500000
O O16 0.539331 0.466746 0.378575
O O17 0.769568 0.990699 0.825176
O O18 0.000000 0.019062 0.750000
O O19 0.000000 0.516296 0.250000
#
# Coordination Sequence:
#
# PCOD8132218 Si02
#       8
#     8   8   8   8   8   8   8   8
#     4  10  19  31  56  88 114 141 188 247 290 336
#     4  10  18  36  60  78 118 148 193 241 283 358
#     4   9  16  30  52  84 105 142 180 231 294 321
#     4  10  20  36  55  80 118 152 193 235 287 356
#     4  10  21  37  56  83 111 162 194 229 297 352
#     4  11  23  36  57  83 116 154 193 242 296 350
#     4  11  18  32  54  84 115 143 185 243 292 340
#     4  11  19  32  55  88 115 142 195 245 292 342
#
# _framework density 18.874272999999999
#
# number of rings (size 3 to 8) (size 9 to 14) (size 15 to 20)
#    0.000    1.750    5.000    3.000    1.750    0.000 
#    0.000    1.875    0.000   24.750    0.000    0.000 
#    0.000    0.000    0.000    0.000    0.000    0.000 
#
# Total GULP energy -396498.472992 kJ/mol
# GULP energy per Si atom -12390.577281 kJ/mol
# Density = 1.883131 g / cm^3
# Si number density = 18.874273 Si / 1000 Ang^3
#
#
#
# Elastic Constant Matrix: (Units=GPa)
#
#
# Indices 1 2 3 4 5 6 
#
# 1 121.2911 20.0630 40.4583 0.0000 -4.0708 0.0000
# 2 20.0630 46.7033 20.2723 0.0000 -3.1224 0.0000
# 3 40.4583 20.2723 100.4211 0.0000 -7.3543 0.0000
# 4 0.0000 0.0000 0.0000 25.9416 0.0000 -3.4599
# 5 -4.0708 -3.1224 -7.3543 0.0000 43.2499 0.0000
# 6 0.0000 0.0000 0.0000 -3.4599 0.0000 15.8826
#
#
#
# Elastic Compliance Matrix: (Units=1/GPa)
#
#
# Indices 1 2 3 4 5 6 
#
# 1 0.009837 -0.002740 -0.003399 0.000000 0.000150 0.000000
# 2 -0.002740 0.024266 -0.003732 0.000000 0.000859 0.000000
# 3 -0.003399 -0.003732 0.012189 0.000000 0.001483 0.000000
# 4 0.000000 0.000000 0.000000 0.039702 0.000000 0.008649
# 5 0.000150 0.000859 0.001483 0.000000 0.023450 0.000000
# 6 0.000000 0.000000 0.000000 0.008649 0.000000 0.064846
#
#
# Mechanical properties :
#
#
# Convention : Reuss Voigt Hill
#
# Bulk Modulus (GPa) = 37.66408 47.77807 42.72107
# Shear Modulus (GPa) = 24.64492 29.52296 27.08394
#
# Velocity S-wave (km/s) = 3.61742 3.95928 3.79220
# Velocity P-wave (km/s) = 6.11933 6.80220 6.46978
#
# Compressibility (1/GPa) = 0.02655050
#
# Stress axis : x y z
#
# Youngs Moduli (GPa) = 101.66019 41.20950 82.03851
#
# Poissons Ratio (x) = 0.11293 0.27884
# Poissons Ratio (y) = 0.27858 0.30614
# Poissons Ratio (z) = 0.34553 0.15378
#
# Static dielectric constant tensor:
#      x y z
#    x 4.186490 0.000000 -0.038230 
#    y 0.000000 3.173210 0.000000 
#    z -0.038230 0.000000 3.886320 
# 
# 
# High freq. dielectric constant tensor:
#      x y z
#    x 1.746130 0.000000 -0.007100 
#    y 0.000000 1.676640 0.000000 
#    z -0.007100 0.000000 1.750600 
# 
# From -- ./inp_files/192174.got.cif
#   From: 2010.06.25/outbox.cif.g09.slc.cpg/sg15_97_cif.got.tgz:192174.got - 2010.06.28 07:06:18.
