data_PCOD8132656
_publ_section_title
;
Structure prediction by ZEFSAII (Michael W. Deem and Ramdas Pophale) SiO2 
 PCOD8132656
Probable space group: C 2/C
;
_chemical_formula_sum "Si O2"
_cell_formula_units_Z 52
_cell_length_a 11.168685
_cell_length_b 16.091390
_cell_length_c 26.998266
_cell_angle_alpha 90.000000
_cell_angle_beta 150.022464
_cell_angle_gamma 90.000000
_cell_volume 2424.411985
_symmetry_space_group_name_H-M "C 2/C"
_symmetry_group_IT_number 15
_symmetry_cell_setting 'monoclinic'
loop_
_space_group_symop_operation_xyz
x,y,z
-x,y,1/2-z
-x,-y,-z
x,-y,1/2+z
1/2+x,1/2+y,z
1/2-x,1/2+y,1/2-z
1/2-x,1/2-y,-z
1/2+x,1/2-y,1/2+z
loop_
_atom_site_type_symbol
_atom_site_label
_atom_site_fract_x
_atom_site_fract_y
_atom_site_fract_z
Si Si1 0.289308 0.716620 0.770248
Si Si2 0.960037 0.357840 0.969466
Si Si3 0.405578 0.831532 0.060570
Si Si4 0.238948 0.186913 0.071925
Si Si5 0.610696 0.418695 0.431126
Si Si6 0.979594 0.062379 0.037444
Si Si7 0.500000 0.692100 0.250000
O O1 0.486021 0.785991 0.827957
O O2 0.401930 0.632064 0.830380
O O3 0.164513 0.693648 0.673785
O O4 0.098411 0.750299 0.741246
O O5 0.712307 0.364492 0.849441
O O6 0.922915 0.376883 0.013868
O O7 0.064880 0.264897 0.000719
O O8 0.153852 0.425127 0.019393
O O9 0.250000 0.750000 0.000000
O O10 0.281886 0.894714 0.054971
O O11 0.174911 0.136407 0.099750
O O12 0.200540 0.126087 0.012621
O O13 0.496318 0.509328 0.402920
O O14 0.000000 0.000000 0.000000
#
# Coordination Sequence:
#
# PCOD8132656 Si02
#       7
#     8   8   8   8   8   8   4
#     4  11  22  36  67  97 129 175 227 261 330 390
#     4  11  21  38  67  92 131 171 225 270 321 388
#     4  12  24  41  62  99 134 175 215 279 331 382
#     4  10  18  39  63  98 124 166 223 278 314 384
#     4  10  21  40  63  96 129 176 214 270 328 393
#     4  10  23  43  66  92 137 170 212 275 338 382
#     4  12  18  34  66  94 128 174 226 264 310 408
#
# _framework density 21.448501
#
# number of rings (size 3 to 8) (size 9 to 14) (size 15 to 20)
#    0.000    1.231    6.154    0.923    2.154    3.077 
#    0.000    6.154    0.000    0.000    0.000    0.000 
#    0.000    0.000    0.000    0.000    0.000    0.000 
#
# Total GULP energy -322308.254553 kJ/mol
# GULP energy per Si atom -12396.471329 kJ/mol
# Density = 2.139968 g / cm^3
# Si number density = 21.448501 Si / 1000 Ang^3
#
#
#
# Elastic Constant Matrix: (Units=GPa)
#
#
# Indices 1 2 3 4 5 6 
#
# 1 137.6582 41.8522 41.2271 -0.0002 8.7020 -0.0001
# 2 41.8522 69.3188 29.9781 -0.0002 5.6655 -0.0001
# 3 41.2271 29.9781 131.8793 -0.0042 -1.3882 -0.0009
# 4 -0.0002 -0.0002 -0.0042 11.8041 -0.0008 -3.1991
# 5 8.7020 5.6655 -1.3882 -0.0008 31.1477 -0.0002
# 6 -0.0001 -0.0001 -0.0009 -3.1991 -0.0002 52.2335
#
#
#
# Elastic Compliance Matrix: (Units=1/GPa)
#
#
# Indices 1 2 3 4 5 6 
#
# 1 0.009372 -0.004693 -0.001882 -0.000001 -0.001849 0.000000
# 2 -0.004693 0.018649 -0.002795 -0.000001 -0.002205 0.000000
# 3 -0.001882 -0.002795 0.008822 0.000003 0.001427 0.000000
# 4 -0.000001 -0.000001 0.000003 0.086147 0.000003 0.005276
# 5 -0.001849 -0.002205 0.001427 0.000003 0.033086 0.000000
# 6 0.000000 0.000000 0.000000 0.005276 0.000000 0.019468
#
#
# Mechanical properties :
#
#
# Convention : Reuss Voigt Hill
#
# Bulk Modulus (GPa) = 55.24682 62.77456 59.01069
# Shear Modulus (GPa) = 24.96029 34.09031 29.52530
#
# Velocity S-wave (km/s) = 3.41505 3.99106 3.71424
# Velocity P-wave (km/s) = 6.43148 7.11120 6.77986
#
# Compressibility (1/GPa) = 0.01810059
#
# Stress axis : x y z
#
# Youngs Moduli (GPa) = 106.70243 53.62277 113.35865
#
# Poissons Ratio (x) = 0.25166 0.21338
# Poissons Ratio (y) = 0.50078 0.31686
# Poissons Ratio (z) = 0.20085 0.14989
#
# Static dielectric constant tensor:
#      x y z
#    x 5.680670 0.000010 -0.720850 
#    y 0.000010 4.168000 -0.000010 
#    z -0.720850 -0.000010 4.429790 
# 
# 
# High freq. dielectric constant tensor:
#      x y z
#    x 1.867870 0.000000 0.008210 
#    y 0.000000 1.830390 0.000000 
#    z 0.008210 0.000000 1.816310 
# 
# From -- ./inp_files/293481.got.cif
#   From: 2010.06.25/outbox.cif.g09.slc.cpg/sg15_147_cif.got.tgz:293481.got - 2010.06.28 07:06:18.
