data_PCOD8132095
_publ_section_title
;
Structure prediction by ZEFSAII (Michael W. Deem and Ramdas Pophale) SiO2 
 PCOD8132095
Probable space group: C 2/C
;
_chemical_formula_sum "Si O2"
_cell_formula_units_Z 56
_cell_length_a 8.710765
_cell_length_b 16.289305
_cell_length_c 18.490547
_cell_angle_alpha 90.000000
_cell_angle_beta 76.376181
_cell_angle_gamma 90.000000
_cell_volume 2549.844715
_symmetry_space_group_name_H-M "C 2/C"
_symmetry_group_IT_number 15
_symmetry_cell_setting 'monoclinic'
loop_
_space_group_symop_operation_xyz
x,y,z
-x,y,1/2-z
-x,-y,-z
x,-y,1/2+z
1/2+x,1/2+y,z
1/2-x,1/2+y,1/2-z
1/2-x,1/2-y,-z
1/2+x,1/2-y,1/2+z
loop_
_atom_site_type_symbol
_atom_site_label
_atom_site_fract_x
_atom_site_fract_y
_atom_site_fract_z
Si Si1 0.493421 0.832389 0.095556
Si Si2 0.932340 0.234280 0.972705
Si Si3 0.057087 0.375000 0.635826
Si Si4 0.000000 0.256302 0.250000
Si Si5 0.838977 0.917611 0.404444
Si Si6 0.249138 0.125000 0.250000
Si Si7 0.344954 0.984280 0.472705
Si Si8 0.500000 0.506302 0.750000
O O1 0.496874 0.812376 0.179514
O O2 0.327616 0.875000 0.094768
O O3 0.643135 0.892558 0.061659
O O4 0.512689 0.750662 0.042698
O O5 0.997576 0.302099 0.910290
O O6 0.954794 0.142558 0.938341
O O7 0.750000 0.250000 0.000000
O O8 0.175057 0.341233 0.684206
O O9 0.157866 0.447901 0.589710
O O10 0.890737 0.408767 0.684206
O O11 0.156695 0.201240 0.225653
O O12 0.805388 0.999338 0.457302
O O13 0.926388 0.937624 0.320486
O O14 0.132348 0.048760 0.274347
O O15 0.500000 0.000000 0.500000
#
# Coordination Sequence:
#
# PCOD8132095 Si02
#       8
#     8   8   8   4   8   8   8   4
#     4  10  21  37  66  92 129 172 216 273 332 396
#     4  10  18  35  65  94 123 162 225 272 322 390
#     4  11  20  40  70  94 122 178 230 258 326 414
#     4  11  24  42  62  95 144 166 216 285 336 386
#     4  10  21  37  66  92 129 172 216 273 332 396
#     4  10  24  40  64  94 132 178 214 274 332 398
#     4  10  18  35  65  94 123 162 225 272 322 390
#     4  11  24  42  62  95 144 166 216 285 336 386
#
# _framework density 21.962121
#
# number of rings (size 3 to 8) (size 9 to 14) (size 15 to 20)
#    0.000    1.714    4.286    3.429    0.000    4.571 
#    0.000    1.429    6.286    0.000    0.000    0.000 
#    0.000    0.000    0.000    0.000    0.000    0.000 
#
# Total GULP energy -347018.240930 kJ/mol
# GULP energy per Si atom -12393.508605 kJ/mol
# Density = 2.191213 g / cm^3
# Si number density = 21.962121 Si / 1000 Ang^3
#
#
#
# Elastic Constant Matrix: (Units=GPa)
#
#
# Indices 1 2 3 4 5 6 
#
# 1 62.2588 22.1830 36.7959 0.0000 2.1922 0.0000
# 2 22.1830 107.0236 61.8274 0.0000 1.8547 0.0000
# 3 36.7959 61.8274 163.5660 0.0000 2.5473 0.0000
# 4 0.0000 0.0000 0.0000 2.4782 0.0000 -0.9068
# 5 2.1922 1.8547 2.5473 0.0000 36.1771 0.0000
# 6 0.0000 0.0000 0.0000 -0.9068 0.0000 21.8610
#
#
#
# Elastic Compliance Matrix: (Units=1/GPa)
#
#
# Indices 1 2 3 4 5 6 
#
# 1 0.018833 -0.001854 -0.003523 0.000000 -0.000798 0.000000
# 2 -0.001854 0.012140 -0.004168 0.000000 -0.000217 0.000000
# 3 -0.003523 -0.004168 0.008485 0.000000 -0.000170 0.000000
# 4 0.000000 0.000000 0.000000 0.409737 0.000000 0.016996
# 5 -0.000798 -0.000217 -0.000170 0.000000 0.027713 0.000000
# 6 0.000000 0.000000 0.000000 0.016996 0.000000 0.046449
#
#
# Mechanical properties :
#
#
# Convention : Reuss Voigt Hill
#
# Bulk Modulus (GPa) = 49.10229 63.82901 56.46565
# Shear Modulus (GPa) = 9.10353 26.23938 17.67146
#
# Velocity S-wave (km/s) = 2.03816 3.46027 2.83968
# Velocity P-wave (km/s) = 5.28631 6.71498 6.04301
#
# Compressibility (1/GPa) = 0.02036565
#
# Stress axis : x y z
#
# Youngs Moduli (GPa) = 53.09786 82.37326 117.86034
#
# Poissons Ratio (x) = 0.15275 0.41526
# Poissons Ratio (y) = 0.09846 0.49128
# Poissons Ratio (z) = 0.18708 0.34336
#
# Static dielectric constant tensor:
#      x y z
#    x 3.819630 0.000000 -0.046780 
#    y 0.000000 4.098780 0.000000 
#    z -0.046780 0.000000 2.819710 
# 
# 
# High freq. dielectric constant tensor:
#      x y z
#    x 1.841090 0.000000 0.001740 
#    y 0.000000 1.852180 0.000000 
#    z 0.001740 0.000000 1.878230 
# 
# From -- ./inp_files/190971.got.cif
#   From: 2010.06.25/outbox.cif.g09.slc.cpg/sg15_96_cif.got.tgz:190971.got - 2010.06.28 07:06:18.
