data_PCOD8132307
_publ_section_title
;
Structure prediction by ZEFSAII (Michael W. Deem and Ramdas Pophale) SiO2 
 PCOD8132307
Probable space group: C 2/C
;
_chemical_formula_sum "Si O2"
_cell_formula_units_Z 44
_cell_length_a 18.075387
_cell_length_b 8.871467
_cell_length_c 13.435083
_cell_angle_alpha 90.000000
_cell_angle_beta 107.768956
_cell_angle_gamma 90.000000
_cell_volume 2051.610208
_symmetry_space_group_name_H-M "C 2/C"
_symmetry_group_IT_number 15
_symmetry_cell_setting 'monoclinic'
loop_
_space_group_symop_operation_xyz
x,y,z
-x,y,1/2-z
-x,-y,-z
x,-y,1/2+z
1/2+x,1/2+y,z
1/2-x,1/2+y,1/2-z
1/2-x,1/2-y,-z
1/2+x,1/2-y,1/2+z
loop_
_atom_site_type_symbol
_atom_site_label
_atom_site_fract_x
_atom_site_fract_y
_atom_site_fract_z
Si Si1 0.192248 0.550051 0.516499
Si Si2 0.500000 0.414378 0.250000
Si Si3 0.133791 0.286062 0.608640
Si Si4 0.261983 0.812269 0.662477
Si Si5 0.394071 0.453720 0.868636
Si Si6 0.961001 0.267085 0.549254
O O1 0.186853 0.376323 0.550633
O O2 0.251158 0.646342 0.609768
O O3 0.221449 0.561851 0.415392
O O4 0.105186 0.610858 0.490692
O O5 0.562408 0.516534 0.217467
O O6 0.547286 0.309671 0.346012
O O7 0.167106 0.311192 0.732797
O O8 0.045017 0.346227 0.572074
O O9 0.131564 0.107919 0.585691
O O10 0.182950 0.857667 0.686546
O O11 0.452358 0.363880 0.963819
#
# Coordination Sequence:
#
# PCOD8132307 Si02
#       6
#     8   4   8   8   8   8
#     4  10  21  38  58  81 117 150 182 233 280 330
#     4  10  18  36  64  78 104 152 188 228 278 334
#     4  11  20  36  59  84 111 147 189 230 276 333
#     4  10  22  38  57  85 114 150 189 226 282 341
#     4  10  22  38  57  84 113 144 190 234 279 336
#     4  10  21  38  59  84 111 146 191 231 277 337
#
# _framework density 21.446569
#
# number of rings (size 3 to 8) (size 9 to 14) (size 15 to 20)
#    0.000    1.818    0.000    6.000    0.000    3.636 
#    0.000    9.091    0.000    5.455    0.000    0.000 
#    0.000    0.000    0.000    0.000    0.000    0.000 
#
# Total GULP energy -272758.143204 kJ/mol
# GULP energy per Si atom -12398.097418 kJ/mol
# Density = 2.139776 g / cm^3
# Si number density = 21.446569 Si / 1000 Ang^3
#
#
#
# Elastic Constant Matrix: (Units=GPa)
#
#
# Indices 1 2 3 4 5 6 
#
# 1 76.9307 37.0201 37.5683 0.0000 3.9704 0.0000
# 2 37.0201 67.3287 33.3320 0.0000 -9.1831 0.0000
# 3 37.5683 33.3320 101.2433 0.0000 6.0261 0.0000
# 4 0.0000 0.0000 0.0000 24.1333 0.0000 -5.6414
# 5 3.9704 -9.1831 6.0261 0.0000 37.2799 0.0000
# 6 0.0000 0.0000 0.0000 -5.6414 0.0000 27.8641
#
#
#
# Elastic Compliance Matrix: (Units=1/GPa)
#
#
# Indices 1 2 3 4 5 6 
#
# 1 0.019629 -0.009328 -0.003990 0.000000 -0.003743 0.000000
# 2 -0.009328 0.023309 -0.004658 0.000000 0.007488 0.000000
# 3 -0.003990 -0.004658 0.013060 0.000000 -0.002834 0.000000
# 4 0.000000 0.000000 0.000000 0.043495 0.000000 0.008806
# 5 -0.003743 0.007488 -0.002834 0.000000 0.029525 0.000000
# 6 0.000000 0.000000 0.000000 0.008806 0.000000 0.037671
#
#
# Mechanical properties :
#
#
# Convention : Reuss Voigt Hill
#
# Bulk Modulus (GPa) = 49.88655 51.26038 50.57347
# Shear Modulus (GPa) = 23.88634 27.02760 25.45697
#
# Velocity S-wave (km/s) = 3.34093 3.55382 3.44902
# Velocity P-wave (km/s) = 6.18011 6.38693 6.28437
#
# Compressibility (1/GPa) = 0.02004548
#
# Stress axis : x y z
#
# Youngs Moduli (GPa) = 50.94440 42.90183 76.56981
#
# Poissons Ratio (x) = 0.40020 0.30550
# Poissons Ratio (y) = 0.47523 0.35668
# Poissons Ratio (z) = 0.20326 0.19985
#
# Static dielectric constant tensor:
#      x y z
#    x 3.935500 0.000000 0.140990 
#    y 0.000000 3.724940 0.000000 
#    z 0.140990 0.000000 3.780870 
# 
# 
# High freq. dielectric constant tensor:
#      x y z
#    x 1.853780 0.000000 0.015000 
#    y 0.000000 1.823540 0.000000 
#    z 0.015000 0.000000 1.838520 
# 
# From -- ./inp_files/109981.got.cif
#   From: 2010.06.25/outbox.cif.g09.slc.cpg/sg15_55_cif.got.tgz:109981.got - 2010.06.28 07:06:18.
