data_PCOD8132992
_publ_section_title
;
Structure prediction by ZEFSAII (Michael W. Deem and Ramdas Pophale) SiO2 
 PCOD8132992
Probable space group: C 2/C
;
_chemical_formula_sum "Si O2"
_cell_formula_units_Z 56
_cell_length_a 14.003965
_cell_length_b 20.726018
_cell_length_c 12.045993
_cell_angle_alpha 90.000000
_cell_angle_beta 116.421480
_cell_angle_gamma 90.000000
_cell_volume 3131.099797
_symmetry_space_group_name_H-M "C 2/C"
_symmetry_group_IT_number 15
_symmetry_cell_setting 'monoclinic'
loop_
_space_group_symop_operation_xyz
x,y,z
-x,y,1/2-z
-x,-y,-z
x,-y,1/2+z
1/2+x,1/2+y,z
1/2-x,1/2+y,1/2-z
1/2-x,1/2-y,-z
1/2+x,1/2-y,1/2+z
loop_
_atom_site_type_symbol
_atom_site_label
_atom_site_fract_x
_atom_site_fract_y
_atom_site_fract_z
Si Si1 0.231681 0.375989 0.981711
Si Si2 0.549907 0.321734 0.394963
Si Si3 0.934313 0.066012 0.947334
Si Si4 0.112115 0.898246 0.839330
Si Si5 0.696807 0.895499 0.703176
Si Si6 0.489789 0.819829 0.613486
Si Si7 0.706990 0.518990 0.812965
O O1 0.222146 0.388566 0.845929
O O2 0.121665 0.351653 0.978654
O O3 0.321513 0.321476 0.049090
O O4 0.260539 0.441115 0.061876
O O5 0.500000 0.334469 0.250000
O O6 0.521601 0.381382 0.458505
O O7 0.508588 0.254467 0.426594
O O8 0.837530 0.062595 0.809608
O O9 0.873645 0.095914 0.021841
O O10 0.000000 0.000000 0.000000
O O11 0.210663 0.862503 0.826841
O O12 0.000000 0.864300 0.750000
O O13 0.108441 0.972086 0.792594
O O14 0.586535 0.860976 0.611543
O O15 0.693639 0.972654 0.674094
O O16 0.500000 0.819314 0.750000
#
# Coordination Sequence:
#
# PCOD8132992 Si02
#       7
#     8   8   8   8   8   8   8
#     4  11  19  35  57  85 111 146 188 236 279 327
#     4  11  21  34  56  87 110 141 184 239 287 326
#     4  12  20  32  53  85 116 136 178 235 293 330
#     4  10  19  31  51  80 109 142 171 224 279 337
#     4   9  21  36  55  81 115 149 184 224 283 339
#     4   9  21  39  55  76 113 152 193 229 270 333
#     4  10  20  30  55  82 115 137 182 227 290 322
#
# _framework density 17.885090000000002
#
# number of rings (size 3 to 8) (size 9 to 14) (size 15 to 20)
#    0.857    0.857    2.857    3.857    0.000    0.571 
#    0.000    0.714    0.000    0.000    0.000    0.000 
#    0.000    0.000    0.000    0.000    0.000    0.000 
#
# Total GULP energy -346907.321768 kJ/mol
# GULP energy per Si atom -12389.547206 kJ/mol
# Density = 1.784438 g / cm^3
# Si number density = 17.885090 Si / 1000 Ang^3
#
#
#
# Elastic Constant Matrix: (Units=GPa)
#
#
# Indices 1 2 3 4 5 6 
#
# 1 142.5542 52.3380 47.3716 0.0000 11.1688 0.0000
# 2 52.3380 76.3636 17.3803 0.0000 8.5831 0.0000
# 3 47.3716 17.3803 72.7711 0.0000 -1.6225 0.0000
# 4 0.0000 0.0000 0.0000 16.1694 0.0000 2.4055
# 5 11.1688 8.5831 -1.6225 0.0000 29.5873 0.0000
# 6 0.0000 0.0000 0.0000 2.4055 0.0000 30.1783
#
#
#
# Elastic Compliance Matrix: (Units=1/GPa)
#
#
# Indices 1 2 3 4 5 6 
#
# 1 0.011544 -0.006199 -0.006099 0.000000 -0.002894 0.000000
# 2 -0.006199 0.017719 -0.000260 0.000000 -0.002815 0.000000
# 3 -0.006099 -0.000260 0.017849 0.000000 0.003356 0.000000
# 4 0.000000 0.000000 0.000000 0.062587 0.000000 -0.004989
# 5 -0.002894 -0.002815 0.003356 0.000000 0.035891 0.000000
# 6 0.000000 0.000000 0.000000 -0.004989 0.000000 0.033534
#
#
# Mechanical properties :
#
#
# Convention : Reuss Voigt Hill
#
# Bulk Modulus (GPa) = 45.45939 58.42985 51.94462
# Shear Modulus (GPa) = 23.63266 26.82695 25.22981
#
# Velocity S-wave (km/s) = 3.63900 3.87714 3.75995
# Velocity P-wave (km/s) = 6.56727 7.26522 6.92504
#
# Compressibility (1/GPa) = 0.02199765
#
# Stress axis : x y z
#
# Youngs Moduli (GPa) = 86.62405 56.43617 56.02645
#
# Poissons Ratio (x) = 0.34983 0.34170
# Poissons Ratio (y) = 0.53696 0.01454
# Poissons Ratio (z) = 0.52831 0.01465
#
# Static dielectric constant tensor:
#      x y z
#    x 3.409220 0.000000 0.014040 
#    y 0.000000 3.202820 0.000000 
#    z 0.014040 0.000000 3.222070 
# 
# 
# High freq. dielectric constant tensor:
#      x y z
#    x 1.686350 0.000000 0.002070 
#    y 0.000000 1.670220 0.000000 
#    z 0.002070 0.000000 1.686680 
# 
# From -- ./inp_files/89638.got.cif
#   From: 2010.06.25/outbox.cif.g09.slc.cpg/sg15_45_cif.got.tgz:89638.got - 2010.06.28 07:06:18.
