data_PCOD8132842
_publ_section_title
;
Structure prediction by ZEFSAII (Michael W. Deem and Ramdas Pophale) SiO2 
 PCOD8132842
Probable space group: C 2/C
;
_chemical_formula_sum "Si O2"
_cell_formula_units_Z 56
_cell_length_a 20.513283
_cell_length_b 35.192899
_cell_length_c 5.267197
_cell_angle_alpha 90.000000
_cell_angle_beta 105.248547
_cell_angle_gamma 90.000000
_cell_volume 3668.633840
_symmetry_space_group_name_H-M "C 2/C"
_symmetry_group_IT_number 15
_symmetry_cell_setting 'monoclinic'
loop_
_space_group_symop_operation_xyz
x,y,z
-x,y,1/2-z
-x,-y,-z
x,-y,1/2+z
1/2+x,1/2+y,z
1/2-x,1/2+y,1/2-z
1/2-x,1/2-y,-z
1/2+x,1/2-y,1/2+z
loop_
_atom_site_type_symbol
_atom_site_label
_atom_site_fract_x
_atom_site_fract_y
_atom_site_fract_z
Si Si1 0.117125 0.419601 0.337987
Si Si2 0.141560 0.761954 0.389194
Si Si3 0.426311 0.042386 0.210956
Si Si4 0.921727 0.263487 0.175584
Si Si5 0.297550 0.987006 0.069998
Si Si6 0.671585 0.163074 0.918072
Si Si7 0.765156 0.688471 0.016866
O O1 0.071998 0.432911 0.529396
O O2 0.189127 0.442119 0.429651
O O3 0.128561 0.375084 0.371653
O O4 0.084754 0.428600 0.032890
O O5 0.094770 0.761092 0.590804
O O6 0.190391 0.726075 0.439031
O O7 0.186200 0.800280 0.438736
O O8 0.096460 0.761646 0.089304
O O9 0.500000 0.023109 0.250000
O O10 0.370501 0.009071 0.164835
O O11 0.881133 0.302646 0.135166
O O12 0.000000 0.274008 0.250000
O O13 0.256375 0.998259 0.282068
O O14 0.719437 0.164262 0.719755
O O15 0.718410 0.163926 0.216191
#
# Coordination Sequence:
#
# PCOD8132842 Si02
#       7
#     8   8   8   8   8   8   8
#     4  10  19  29  39  54  73  94 120 158 205 239
#     4   9  17  30  46  60  74  99 131 158 188 225
#     4  10  19  29  40  52  68  96 134 166 191 226
#     4  10  19  29  41  60  85 105 122 151 197 248
#     4   8  16  27  39  51  66  89 123 161 193 219
#     4  10  19  30  42  59  80 100 125 160 206 246
#     4   9  17  30  47  60  72  95 131 166 189 225
#
# _framework density 15.264538
#
# number of rings (size 3 to 8) (size 9 to 14) (size 15 to 20)
#    0.000    2.571    0.000    2.571    0.000    9.714 
#    0.000    0.000    0.000    0.000    0.000    0.000 
#    0.000    0.000    0.000    0.000    0.000    0.000 
#
# Total GULP energy -347033.057675 kJ/mol
# GULP energy per Si atom -12394.037774 kJ/mol
# Density = 1.522980 g / cm^3
# Si number density = 15.264538 Si / 1000 Ang^3
#
#
#
# Elastic Constant Matrix: (Units=GPa)
#
#
# Indices 1 2 3 4 5 6 
#
# 1 44.0372 20.6462 29.3539 0.0000 -9.9170 0.0000
# 2 20.6462 34.6051 9.5155 0.0000 -0.3627 0.0000
# 3 29.3539 9.5155 111.8448 0.0000 -25.3541 0.0000
# 4 0.0000 0.0000 0.0000 17.3272 0.0000 -1.6063
# 5 -9.9170 -0.3627 -25.3541 0.0000 24.5110 0.0000
# 6 0.0000 0.0000 0.0000 -1.6063 0.0000 10.3593
#
#
#
# Elastic Compliance Matrix: (Units=1/GPa)
#
#
# Indices 1 2 3 4 5 6 
#
# 1 0.039017 -0.021422 -0.006415 0.000000 0.008833 0.000000
# 2 -0.021422 0.041502 0.000347 0.000000 -0.007694 0.000000
# 3 -0.006415 0.000347 0.013073 0.000000 0.010933 0.000000
# 4 0.000000 0.000000 0.000000 0.058554 0.000000 0.009080
# 5 0.008833 -0.007694 0.010933 0.000000 0.055567 0.000000
# 6 0.000000 0.000000 0.000000 0.009080 0.000000 0.097939
#
#
# Mechanical properties :
#
#
# Convention : Reuss Voigt Hill
#
# Bulk Modulus (GPa) = 25.89812 34.39092 30.14452
# Shear Modulus (GPa) = 13.38679 19.17094 16.27886
#
# Velocity S-wave (km/s) = 2.96461 3.54773 3.26920
# Velocity P-wave (km/s) = 5.35925 6.27381 5.83448
#
# Compressibility (1/GPa) = 0.03861284
#
# Stress axis : x y z
#
# Youngs Moduli (GPa) = 25.63012 24.09519 76.49101
#
# Poissons Ratio (x) = 0.51616 0.49070
# Poissons Ratio (y) = 0.54904 -0.02655
# Poissons Ratio (z) = 0.16442 -0.00836
#
# Static dielectric constant tensor:
#      x y z
#    x 2.666290 0.000000 -0.439390 
#    y 0.000000 2.697030 0.000000 
#    z -0.439390 0.000000 3.712540 
# 
# 
# High freq. dielectric constant tensor:
#      x y z
#    x 1.531450 0.000000 -0.032520 
#    y 0.000000 1.556110 0.000000 
#    z -0.032520 0.000000 1.613150 
# 
# From -- ./inp_files/12061.got.cif
#   From: 2010.06.25/outbox.cif.g09.slc.cpg/sg15_7_cif.got.tgz:12061.got - 2010.06.28 07:06:18.
