data_PCOD8132029
_publ_section_title
;
Structure prediction by ZEFSAII (Michael W. Deem and Ramdas Pophale) SiO2 
 PCOD8132029
Probable space group: C 2/C
;
_chemical_formula_sum "Si O2"
_cell_formula_units_Z 48
_cell_length_a 10.467692
_cell_length_b 16.000414
_cell_length_c 27.079894
_cell_angle_alpha 90.000000
_cell_angle_beta 148.619541
_cell_angle_gamma 90.000000
_cell_volume 2361.740178
_symmetry_space_group_name_H-M "C 2/C"
_symmetry_group_IT_number 15
_symmetry_cell_setting 'monoclinic'
loop_
_space_group_symop_operation_xyz
x,y,z
-x,y,1/2-z
-x,-y,-z
x,-y,1/2+z
1/2+x,1/2+y,z
1/2-x,1/2+y,1/2-z
1/2-x,1/2-y,-z
1/2+x,1/2-y,1/2+z
loop_
_atom_site_type_symbol
_atom_site_label
_atom_site_fract_x
_atom_site_fract_y
_atom_site_fract_z
Si Si1 0.917598 0.102171 0.272090
Si Si2 0.247371 0.421623 0.185129
Si Si3 0.441610 0.920379 0.174944
Si Si4 0.296451 0.135569 0.475609
Si Si5 0.947598 0.181525 0.005032
Si Si6 0.038179 0.382113 0.818921
O O1 0.700749 0.149151 0.229724
O O2 0.000000 0.154007 0.250000
O O3 0.146933 0.084069 0.384583
O O4 0.805179 0.017733 0.213039
O O5 0.500000 0.376122 0.250000
O O6 0.147253 0.384425 0.204227
O O7 0.038712 0.412975 0.074017
O O8 0.500000 0.896479 0.250000
O O9 0.412132 0.019366 0.158011
O O10 0.188254 0.874921 0.079978
O O11 0.108910 0.148620 0.458685
O O12 0.371535 0.222474 0.475091
O O13 0.232717 0.171040 0.086185
O O14 0.000000 0.358520 0.750000
#
# Coordination Sequence:
#
# PCOD8132029 Si02
#       6
#     8   8   8   8   8   8
#     4  10  21  38  58  85 117 149 188 247 292 330
#     4   9  20  38  58  82 111 156 198 231 281 354
#     4   9  19  35  57  87 116 146 191 252 289 323
#     4  10  21  38  57  84 119 156 189 237 292 345
#     4  10  20  36  58  84 117 155 192 234 292 353
#     4  10  18  35  60  85 109 153 202 234 278 354
#
# _framework density 20.323996999999999
#
# number of rings (size 3 to 8) (size 9 to 14) (size 15 to 20)
#    0.000    2.333    1.667    0.500    0.000    4.000 
#    6.000    0.833    0.000    0.000    0.000    0.000 
#    0.000    0.000    0.000    0.000    0.000    0.000 
#
# Total GULP energy -297448.349703 kJ/mol
# GULP energy per Si atom -12393.681238 kJ/mol
# Density = 2.027774 g / cm^3
# Si number density = 20.323997 Si / 1000 Ang^3
#
#
#
# Elastic Constant Matrix: (Units=GPa)
#
#
# Indices 1 2 3 4 5 6 
#
# 1 149.0470 11.9551 78.5406 -0.0003 10.9612 -0.0001
# 2 11.9551 23.6965 16.4418 -0.0002 -2.5116 0.0000
# 3 78.5406 16.4418 137.5165 -0.0005 13.4233 0.0003
# 4 -0.0003 -0.0002 -0.0005 2.7209 -0.0004 -6.7667
# 5 10.9612 -2.5116 13.4233 -0.0004 36.6517 0.0001
# 6 -0.0001 0.0000 0.0003 -6.7667 0.0001 9.6973
#
#
#
# Elastic Compliance Matrix: (Units=1/GPa)
#
#
# Indices 1 2 3 4 5 6 
#
# 1 0.009664 -0.001341 -0.005256 -0.000001 -0.001057 0.000000
# 2 -0.001341 0.047242 -0.005432 -0.000003 0.005628 -0.000002
# 3 -0.005256 -0.005432 0.011207 0.000000 -0.002905 0.000000
# 4 -0.000001 -0.000003 0.000000 -0.499777 -0.000004 -0.348743
# 5 -0.001057 0.005628 -0.002905 -0.000004 0.029049 -0.000003
# 6 0.000000 -0.000002 0.000000 -0.348743 -0.000003 -0.140229
#
#
# Mechanical properties :
#
#
# Convention : Reuss Voigt Hill
#
# Bulk Modulus (GPa) = 22.69859 58.23722 40.46791
# Shear Modulus (GPa) = -9.91866 23.36880 6.72507
#
# Velocity S-wave (km/s) = -2.21153 3.39457 1.82102
# Velocity P-wave (km/s) = 2.16136 6.63933 4.93722
#
# Compressibility (1/GPa) = 0.04405561
#
# Stress axis : x y z
#
# Youngs Moduli (GPa) = 103.47351 21.16748 89.23153
#
# Poissons Ratio (x) = 0.02838 0.46901
# Poissons Ratio (y) = 0.13874 0.48470
# Poissons Ratio (z) = 0.54387 0.11498
#
# Static dielectric constant tensor:
#      x y z
#    x 4.576090 0.000000 0.243050 
#    y 0.000000 3.265920 0.000000 
#    z 0.243050 0.000000 3.761730 
# 
# 
# High freq. dielectric constant tensor:
#      x y z
#    x 1.803740 0.000000 0.005380 
#    y 0.000000 1.755980 0.000000 
#    z 0.005380 0.000000 1.801300 
# 
# From -- ./inp_files/311253.got.cif
#   From: 2010.06.25/outbox.cif.g09.slc.cpg/sg15_156_cif.got.tgz:311253.got - 2010.06.28 07:06:18.
