data_PCOD8132895
_publ_section_title
;
Structure prediction by ZEFSAII (Michael W. Deem and Ramdas Pophale) SiO2 
 PCOD8132895
Probable space group: C 2/C
;
_chemical_formula_sum "Si O2"
_cell_formula_units_Z 52
_cell_length_a 23.918792
_cell_length_b 7.405606
_cell_length_c 16.913131
_cell_angle_alpha 90.000000
_cell_angle_beta 44.996426
_cell_angle_gamma 90.000000
_cell_volume 2118.272204
_symmetry_space_group_name_H-M "C 2/C"
_symmetry_group_IT_number 15
_symmetry_cell_setting 'monoclinic'
loop_
_space_group_symop_operation_xyz
x,y,z
-x,y,1/2-z
-x,-y,-z
x,-y,1/2+z
1/2+x,1/2+y,z
1/2-x,1/2+y,1/2-z
1/2-x,1/2-y,-z
1/2+x,1/2-y,1/2+z
loop_
_atom_site_type_symbol
_atom_site_label
_atom_site_fract_x
_atom_site_fract_y
_atom_site_fract_z
Si Si1 0.244291 0.013718 0.357022
Si Si2 0.610364 0.215225 0.517000
Si Si3 0.351331 0.763695 0.154399
Si Si4 0.978629 0.208274 0.542448
Si Si5 0.377320 0.465100 0.262293
Si Si6 0.000000 0.875277 0.750000
Si Si7 0.271117 0.041740 0.000235
O O1 0.172114 0.876907 0.443054
O O2 0.311070 0.941402 0.230386
O O3 0.284576 0.057674 0.402292
O O4 0.208543 0.191372 0.352485
O O5 0.571024 0.177418 0.471831
O O6 0.534983 0.257648 0.645244
O O7 0.652974 0.044757 0.516833
O O8 0.365209 0.626959 0.212721
O O9 0.436880 0.807634 0.028533
O O10 0.919703 0.205349 0.677226
O O11 0.000000 0.000000 0.500000
O O12 0.430217 0.507130 0.284794
O O13 0.292774 0.427446 0.386148
O O14 0.250000 0.250000 0.000000
#
# Coordination Sequence:
#
# PCOD8132895 Si02
#       7
#     8   8   8   8   8   4   8
#     4  11  20  35  54  84 121 155 198 250 302 363
#     4  11  18  28  49  80 113 141 187 260 297 330
#     4  11  20  35  54  84 121 155 198 250 302 363
#     4  10  19  30  48  83 113 143 192 253 302 341
#     4  11  18  28  49  80 113 141 187 260 297 330
#     4  12  16  24  44  80 108 138 188 244 304 314
#     4  10  19  30  48  83 113 143 192 253 302 341
#
# _framework density 24.548310000000001
#
# number of rings (size 3 to 8) (size 9 to 14) (size 15 to 20)
#    0.000    1.231   12.308    0.000    0.000    0.000 
#    0.000    0.000    0.000    1.846    0.000    0.000 
#    0.000    0.000    0.000    0.000    0.000    0.000 
#
# Total GULP energy -322129.577346 kJ/mol
# GULP energy per Si atom -12389.599129 kJ/mol
# Density = 2.449244 g / cm^3
# Si number density = 24.548310 Si / 1000 Ang^3
#
#
#
# Elastic Constant Matrix: (Units=GPa)
#
#
# Indices 1 2 3 4 5 6 
#
# 1 155.2930 28.0363 33.3097 -0.0079 4.0791 0.0092
# 2 28.0363 27.2348 27.9752 -0.0270 0.0097 0.0112
# 3 33.3097 27.9752 155.1937 -0.0036 -3.9851 -0.0013
# 4 -0.0079 -0.0270 -0.0036 11.0266 -0.0002 -0.0114
# 5 4.0791 0.0097 -3.9851 -0.0002 40.9752 0.0024
# 6 0.0092 0.0112 -0.0013 -0.0114 0.0024 11.0759
#
#
#
# Elastic Compliance Matrix: (Units=1/GPa)
#
#
# Indices 1 2 3 4 5 6 
#
# 1 0.007947 -0.007863 -0.000309 -0.000014 -0.000819 0.000001
# 2 -0.007863 0.052867 -0.007842 0.000121 0.000008 -0.000048
# 3 -0.000309 -0.007842 0.007944 -0.000017 0.000805 0.000009
# 4 -0.000014 0.000121 -0.000017 0.090690 0.000000 0.000093
# 5 -0.000819 0.000008 0.000805 0.000000 0.024565 -0.000005
# 6 0.000001 -0.000048 0.000009 0.000093 -0.000005 0.090286
#
#
# Mechanical properties :
#
#
# Convention : Reuss Voigt Hill
#
# Bulk Modulus (GPa) = 27.22562 57.37377 42.29969
# Shear Modulus (GPa) = 15.69510 29.17556 22.43533
#
# Velocity S-wave (km/s) = 2.53129 3.45120 3.02640
# Velocity P-wave (km/s) = 4.43373 6.26925 5.42962
#
# Compressibility (1/GPa) = 0.03673011
#
# Stress axis : x y z
#
# Youngs Moduli (GPa) = 125.83633 18.91533 125.87727
#
# Poissons Ratio (x) = 0.14872 0.03894
# Poissons Ratio (y) = 0.98941 0.98714
# Poissons Ratio (z) = 0.03893 0.14833
#
# Static dielectric constant tensor:
#      x y z
#    x 5.344180 0.000010 0.001840 
#    y 0.000010 3.673550 -0.000010 
#    z 0.001840 -0.000010 5.336890 
# 
# 
# High freq. dielectric constant tensor:
#      x y z
#    x 1.993230 0.000000 0.000010 
#    y 0.000000 1.915420 0.000000 
#    z 0.000010 0.000000 1.993220 
# 
# From -- ./inp_files/221859.got.cif
#   From: 2010.06.25/outbox.cif.g09.slc.cpg/sg15_111_cif.got.tgz:221859.got - 2010.06.28 07:06:18.
