data_PCOD8132888
_publ_section_title
;
Structure prediction by ZEFSAII (Michael W. Deem and Ramdas Pophale) SiO2 
 PCOD8132888
Probable space group: C 2/C
;
_chemical_formula_sum "Si O2"
_cell_formula_units_Z 40
_cell_length_a 13.510575
_cell_length_b 34.293957
_cell_length_c 5.082585
_cell_angle_alpha 90.000000
_cell_angle_beta 109.360957
_cell_angle_gamma 90.000000
_cell_volume 2221.746019
_symmetry_space_group_name_H-M "C 2/C"
_symmetry_group_IT_number 15
_symmetry_cell_setting 'monoclinic'
loop_
_space_group_symop_operation_xyz
x,y,z
-x,y,1/2-z
-x,-y,-z
x,-y,1/2+z
1/2+x,1/2+y,z
1/2-x,1/2+y,1/2-z
1/2-x,1/2-y,-z
1/2+x,1/2-y,1/2+z
loop_
_atom_site_type_symbol
_atom_site_label
_atom_site_fract_x
_atom_site_fract_y
_atom_site_fract_z
Si Si1 0.621029 0.167824 0.391678
Si Si2 0.796674 0.106350 0.504107
Si Si3 0.616800 0.642876 0.425960
Si Si4 0.120032 0.974682 0.331764
Si Si5 0.215484 0.705663 0.968501
O O1 0.500000 0.156764 0.250000
O O2 0.683754 0.126591 0.458690
O O3 0.635560 0.193494 0.666998
O O4 0.661175 0.195055 0.193630
O O5 0.832076 0.113080 0.236497
O O6 0.795967 0.059876 0.547895
O O7 0.880195 0.124311 0.782005
O O8 0.500000 0.653177 0.250000
O O9 0.675959 0.683540 0.475309
O O10 0.000000 0.959034 0.250000
O O11 0.140198 0.008719 0.559647
O O12 0.250000 0.750000 0.000000
#
# Coordination Sequence:
#
# PCOD8132888 Si02
#       5
#     8   8   8   8   8
#     4  10  21  37  57  76 100 140 179 212 252 297
#     4  10  20  34  51  73 103 132 170 211 244 304
#     4  10  19  31  50  73  99 134 166 201 254 304
#     4  10  19  30  48  74 102 132 162 200 257 311
#     4  10  21  36  52  78 106 130 170 216 256 302
#
# _framework density 18.003858999999999
#
# number of rings (size 3 to 8) (size 9 to 14) (size 15 to 20)
#    0.000    2.000    0.000    4.200    0.000    3.200 
#    0.000    0.000    0.000    1.200    0.000    0.000 
#    0.000    0.000    0.000    0.000    0.000    0.000 
#
# Total GULP energy -248016.861114 kJ/mol
# GULP energy per Si atom -12400.843056 kJ/mol
# Density = 1.796288 g / cm^3
# Si number density = 18.003859 Si / 1000 Ang^3
#
#
#
# Elastic Constant Matrix: (Units=GPa)
#
#
# Indices 1 2 3 4 5 6 
#
# 1 49.0932 31.2515 22.2481 0.0000 23.6049 0.0000
# 2 31.2515 116.3072 27.2191 0.0000 13.2830 0.0000
# 3 22.2481 27.2191 93.8257 0.0000 10.9757 0.0000
# 4 0.0000 0.0000 0.0000 15.7763 0.0000 2.2235
# 5 23.6049 13.2830 10.9757 0.0000 32.4229 0.0000
# 6 0.0000 0.0000 0.0000 2.2235 0.0000 12.1378
#
#
#
# Elastic Compliance Matrix: (Units=1/GPa)
#
#
# Indices 1 2 3 4 5 6 
#
# 1 0.037629 -0.006437 -0.004330 0.000000 -0.023292 0.000000
# 2 -0.006437 0.010613 -0.001658 0.000000 0.000900 0.000000
# 3 -0.004330 -0.001658 0.012201 0.000000 -0.000298 0.000000
# 4 0.000000 0.000000 0.000000 0.065066 0.000000 -0.011919
# 5 -0.023292 0.000900 -0.000298 0.000000 0.047532 0.000000
# 6 0.000000 0.000000 0.000000 -0.011919 0.000000 0.084571
#
#
# Mechanical properties :
#
#
# Convention : Reuss Voigt Hill
#
# Bulk Modulus (GPa) = 28.09660 46.74040 37.41850
# Shear Modulus (GPa) = 16.98801 23.96790 20.47796
#
# Velocity S-wave (km/s) = 3.07510 3.65261 3.37623
# Velocity P-wave (km/s) = 5.31489 6.61864 6.00227
#
# Compressibility (1/GPa) = 0.03559149
#
# Stress axis : x y z
#
# Youngs Moduli (GPa) = 26.57539 94.22607 81.96258
#
# Poissons Ratio (x) = 0.60656 0.35494
# Poissons Ratio (y) = 0.17107 0.13586
# Poissons Ratio (z) = 0.11508 0.15619
#
# Static dielectric constant tensor:
#      x y z
#    x 3.234500 0.000000 -0.119530 
#    y 0.000000 3.208440 0.000000 
#    z -0.119530 0.000000 3.653340 
# 
# 
# High freq. dielectric constant tensor:
#      x y z
#    x 1.675450 0.000000 -0.013080 
#    y 0.000000 1.690230 0.000000 
#    z -0.013080 0.000000 1.721040 
# 
# From -- ./inp_files/5696.got.cif
#   From: 2010.06.25/outbox.cif.g09.slc.cpg/sg15_3_cif.got.tgz:5696.got - 2010.06.28 07:06:18.
