data_PCOD8132017
_publ_section_title
;
Structure prediction by ZEFSAII (Michael W. Deem and Ramdas Pophale) SiO2 
 PCOD8132017
Probable space group: C 2/C
;
_chemical_formula_sum "Si O2"
_cell_formula_units_Z 48
_cell_length_a 28.453488
_cell_length_b 10.192284
_cell_length_c 16.061256
_cell_angle_alpha 90.000000
_cell_angle_beta 145.655727
_cell_angle_gamma 90.000000
_cell_volume 2627.798548
_symmetry_space_group_name_H-M "C 2/C"
_symmetry_group_IT_number 15
_symmetry_cell_setting 'monoclinic'
loop_
_space_group_symop_operation_xyz
x,y,z
-x,y,1/2-z
-x,-y,-z
x,-y,1/2+z
1/2+x,1/2+y,z
1/2-x,1/2+y,1/2-z
1/2-x,1/2-y,-z
1/2+x,1/2-y,1/2+z
loop_
_atom_site_type_symbol
_atom_site_label
_atom_site_fract_x
_atom_site_fract_y
_atom_site_fract_z
Si Si1 0.066502 0.329785 0.070308
Si Si2 0.745228 0.646024 0.068019
Si Si3 0.903813 0.371479 0.916420
Si Si4 0.911119 0.258381 0.576167
Si Si5 0.695691 0.869288 0.395939
Si Si6 0.595946 0.948590 0.407295
O O1 0.062312 0.479915 0.034866
O O2 0.147178 0.317006 0.244873
O O3 0.075948 0.235587 0.003772
O O4 0.981579 0.287242 0.994488
O O5 0.657995 0.658316 0.989499
O O6 0.750000 0.750000 0.000000
O O7 0.823402 0.664951 0.244449
O O8 0.749006 0.498319 0.039095
O O9 0.883376 0.350711 0.984647
O O10 0.871875 0.402867 0.532753
O O11 0.000000 0.235222 0.750000
O O12 0.750000 0.750000 0.500000
O O13 0.632790 0.891998 0.377971
O O14 0.500000 0.957428 0.250000
#
# Coordination Sequence:
#
# PCOD8132017 Si02
#       6
#     8   8   8   8   8   8
#     4   9  18  34  54  85 111 146 185 238 280 329
#     4  11  21  37  58  86 112 148 193 240 285 335
#     4   9  18  31  58  85 113 137 193 240 277 328
#     4  10  20  34  60  84 113 147 193 239 287 336
#     4  11  23  37  57  84 121 151 190 235 286 346
#     4  10  18  35  59  85 109 152 195 236 282 339
#
# _framework density 18.26624
#
# number of rings (size 3 to 8) (size 9 to 14) (size 15 to 20)
#    0.000    2.000    3.333    1.000    7.000    0.000 
#    0.000    0.833    0.000    2.000    0.000    0.000 
#    0.000    0.000    0.000    0.000    0.000    0.000 
#
# Total GULP energy -297463.838132 kJ/mol
# GULP energy per Si atom -12394.326589 kJ/mol
# Density = 1.822467 g / cm^3
# Si number density = 18.266240 Si / 1000 Ang^3
#
#
#
# Elastic Constant Matrix: (Units=GPa)
#
#
# Indices 1 2 3 4 5 6 
#
# 1 130.5627 38.9689 49.6713 0.0000 -4.4940 0.0000
# 2 38.9689 62.1499 48.2754 0.0000 0.8693 0.0000
# 3 49.6713 48.2754 96.2308 0.0000 -8.9518 0.0000
# 4 0.0000 0.0000 0.0000 26.2336 0.0000 -0.0362
# 5 -4.4940 0.8693 -8.9518 0.0000 39.3869 0.0000
# 6 0.0000 0.0000 0.0000 -0.0362 0.0000 18.0036
#
#
#
# Elastic Compliance Matrix: (Units=1/GPa)
#
#
# Indices 1 2 3 4 5 6 
#
# 1 0.010037 -0.003788 -0.003235 0.000000 0.000494 0.000000
# 2 -0.003788 0.028321 -0.012617 0.000000 -0.003925 0.000000
# 3 -0.003235 -0.012617 0.018780 0.000000 0.004178 0.000000
# 4 0.000000 0.000000 0.000000 0.038119 0.000000 0.000077
# 5 0.000494 -0.003925 0.004178 0.000000 0.026482 0.000000
# 6 0.000000 0.000000 0.000000 0.000077 0.000000 0.055545
#
#
# Mechanical properties :
#
#
# Convention : Reuss Voigt Hill
#
# Bulk Modulus (GPa) = 55.99834 62.53051 59.26442
# Shear Modulus (GPa) = 22.47031 26.86000 24.66515
#
# Velocity S-wave (km/s) = 3.51116 3.83883 3.67865
# Velocity P-wave (km/s) = 6.86738 7.34548 7.11045
#
# Compressibility (1/GPa) = 0.01785767
#
# Stress axis : x y z
#
# Youngs Moduli (GPa) = 99.62792 35.30986 53.24889
#
# Poissons Ratio (x) = 0.13375 0.17225
# Poissons Ratio (y) = 0.37737 0.67186
# Poissons Ratio (z) = 0.32228 0.44552
#
# Static dielectric constant tensor:
#      x y z
#    x 3.630610 0.000000 -0.098050 
#    y 0.000000 2.750180 0.000000 
#    z -0.098050 0.000000 2.967570 
# 
# 
# High freq. dielectric constant tensor:
#      x y z
#    x 1.729940 0.000000 -0.009870 
#    y 0.000000 1.653970 0.000000 
#    z -0.009870 0.000000 1.717410 
# 
# From -- ./inp_files/177013.got.cif
#   From: 2010.06.25/outbox.cif.g09.slc.cpg/sg15_89_cif.got.tgz:177013.got - 2010.06.28 07:06:18.
