data_PCOD8132581
_publ_section_title
;
Structure prediction by ZEFSAII (Michael W. Deem and Ramdas Pophale) SiO2 
 PCOD8132581
Probable space group: C 2/C
;
_chemical_formula_sum "Si O2"
_cell_formula_units_Z 44
_cell_length_a 17.413236
_cell_length_b 8.591445
_cell_length_c 16.566833
_cell_angle_alpha 90.000000
_cell_angle_beta 53.402254
_cell_angle_gamma 90.000000
_cell_volume 1989.824161
_symmetry_space_group_name_H-M "C 2/C"
_symmetry_group_IT_number 15
_symmetry_cell_setting 'monoclinic'
loop_
_space_group_symop_operation_xyz
x,y,z
-x,y,1/2-z
-x,-y,-z
x,-y,1/2+z
1/2+x,1/2+y,z
1/2-x,1/2+y,1/2-z
1/2-x,1/2-y,-z
1/2+x,1/2-y,1/2+z
loop_
_atom_site_type_symbol
_atom_site_label
_atom_site_fract_x
_atom_site_fract_y
_atom_site_fract_z
Si Si1 0.500000 0.058653 0.250000
Si Si2 0.582987 0.096873 0.847812
Si Si3 0.246092 0.300164 0.132219
Si Si4 0.945562 0.722239 0.057874
Si Si5 0.606434 0.742025 0.578994
Si Si6 0.252126 0.002861 0.024109
O O1 0.411191 0.174154 0.323902
O O2 0.484309 0.949834 0.183765
O O3 0.680440 0.172572 0.752368
O O4 0.601048 0.946670 0.893160
O O5 0.520215 0.220802 0.936759
O O6 0.356124 0.332836 0.090570
O O7 0.237499 0.123380 0.105852
O O8 0.211914 0.412808 0.080830
O O9 0.005757 0.784270 0.096346
O O10 0.677219 0.864729 0.488701
O O11 0.650814 0.573767 0.565360
#
# Coordination Sequence:
#
# PCOD8132581 Si02
#       6
#     4   8   8   8   8   8
#     4  10  18  38  64  88 114 180 210 246 310 400
#     4  10  21  39  66  91 124 170 212 254 316 388
#     4  11  22  41  65  97 126 162 211 268 322 368
#     4  10  23  41  64  92 129 165 212 260 321 377
#     4  10  21  43  63  87 129 168 209 259 313 386
#     4  10  22  39  65  94 125 163 214 265 309 383
#
# _framework density 22.112507000000001
#
# number of rings (size 3 to 8) (size 9 to 14) (size 15 to 20)
#    0.000    1.818    1.818    3.273    2.545    2.182 
#   13.091    0.000    0.000    0.000    0.000    0.000 
#    0.000    0.000    0.000    0.000    0.000    0.000 
#
# Total GULP energy -272679.564203 kJ/mol
# GULP energy per Si atom -12394.525646 kJ/mol
# Density = 2.206218 g / cm^3
# Si number density = 22.112507 Si / 1000 Ang^3
#
#
#
# Elastic Constant Matrix: (Units=GPa)
#
#
# Indices 1 2 3 4 5 6 
#
# 1 106.4285 30.9513 26.1231 0.0000 -12.2606 0.0000
# 2 30.9513 56.0882 8.7323 0.0000 -11.7109 0.0002
# 3 26.1231 8.7323 120.5211 0.0000 -16.9741 0.0000
# 4 0.0000 0.0000 0.0000 27.9165 0.0000 -9.7551
# 5 -12.2606 -11.7109 -16.9741 0.0000 30.0783 0.0000
# 6 0.0000 0.0002 0.0000 -9.7551 0.0000 27.4186
#
#
#
# Elastic Compliance Matrix: (Units=1/GPa)
#
#
# Indices 1 2 3 4 5 6 
#
# 1 0.011741 -0.005886 -0.001920 0.000000 0.001411 0.000000
# 2 -0.005886 0.022372 0.000591 0.000000 0.006645 0.000000
# 3 -0.001920 0.000591 0.009335 0.000000 0.004715 0.000000
# 4 0.000000 0.000000 0.000000 0.040907 0.000000 0.014554
# 5 0.001411 0.006645 0.004715 0.000000 0.039070 0.000000
# 6 0.000000 0.000000 0.000000 0.014554 0.000000 0.041650
#
#
# Mechanical properties :
#
#
# Convention : Reuss Voigt Hill
#
# Bulk Modulus (GPa) = 34.46057 46.07236 40.26646
# Shear Modulus (GPa) = 26.43017 31.56476 28.99747
#
# Velocity S-wave (km/s) = 3.46100 3.78228 3.62520
# Velocity P-wave (km/s) = 5.62045 6.32098 5.98098
#
# Compressibility (1/GPa) = 0.02901868
#
# Stress axis : x y z
#
# Youngs Moduli (GPa) = 85.16836 44.69776 107.12696
#
# Poissons Ratio (x) = 0.26308 0.20566
# Poissons Ratio (y) = 0.50128 -0.06327
# Poissons Ratio (z) = 0.16350 -0.02640
#
# Static dielectric constant tensor:
#      x y z
#    x 3.899720 0.000000 -0.012790 
#    y 0.000000 3.733810 0.000000 
#    z -0.012790 0.000000 4.130550 
# 
# 
# High freq. dielectric constant tensor:
#      x y z
#    x 1.871840 0.000000 -0.001670 
#    y 0.000000 1.842470 0.000000 
#    z -0.001670 0.000000 1.870220 
# 
# From -- ./inp_files/176428.got.cif
#   From: 2010.06.25/outbox.cif.g09.slc.cpg/sg15_89_cif.got.tgz:176428.got - 2010.06.28 07:06:18.
