data_PCOD8132122
_publ_section_title
;
Structure prediction by ZEFSAII (Michael W. Deem and Ramdas Pophale) SiO2 
 PCOD8132122
Probable space group: C 2/C
;
_chemical_formula_sum "Si O2"
_cell_formula_units_Z 60
_cell_length_a 20.657504
_cell_length_b 10.846978
_cell_length_c 16.318813
_cell_angle_alpha 90.000000
_cell_angle_beta 124.691277
_cell_angle_gamma 90.000000
_cell_volume 3006.552969
_symmetry_space_group_name_H-M "C 2/C"
_symmetry_group_IT_number 15
_symmetry_cell_setting 'monoclinic'
loop_
_space_group_symop_operation_xyz
x,y,z
-x,y,1/2-z
-x,-y,-z
x,-y,1/2+z
1/2+x,1/2+y,z
1/2-x,1/2+y,1/2-z
1/2-x,1/2-y,-z
1/2+x,1/2-y,1/2+z
loop_
_atom_site_type_symbol
_atom_site_label
_atom_site_fract_x
_atom_site_fract_y
_atom_site_fract_z
Si Si1 0.747717 0.167278 0.874118
Si Si2 0.000000 0.854297 0.750000
Si Si3 0.424768 0.690982 0.596092
Si Si4 0.128367 0.290685 0.428368
Si Si5 0.349620 0.932708 0.508768
Si Si6 0.742177 0.664598 0.801861
Si Si7 0.738101 0.393411 0.576830
Si Si8 0.080599 0.919884 0.232728
O O1 0.678542 0.219852 0.881143
O O2 0.734922 0.211742 0.772110
O O3 0.744295 0.020663 0.866180
O O4 0.830861 0.213111 0.970154
O O5 0.956370 0.767975 0.652073
O O6 0.936987 0.939722 0.752348
O O7 0.421641 0.837752 0.575001
O O8 0.355497 0.622935 0.497211
O O9 0.412907 0.667685 0.683580
O O10 0.508198 0.634291 0.626144
O O11 0.118345 0.430986 0.451606
O O12 0.312889 0.918262 0.391119
O O13 0.277462 0.893107 0.515587
O O14 0.724781 0.785950 0.842194
O O15 0.661692 0.583969 0.740567
#
# Coordination Sequence:
#
# PCOD8132122 Si02
#       8
#     8   4   8   8   8   8   8   8
#     4  10  23  37  61  84 119 158 198 243 294 367
#     4  10  22  38  62  86 118 170 204 240 296 380
#     4   9  16  32  54  83 109 149 183 246 295 346
#     4  10  23  41  58  85 120 165 199 238 304 369
#     4  10  19  35  60  82 118 152 200 249 294 355
#     4  11  21  35  60  93 115 151 203 255 298 344
#     4  10  18  36  55  83 115 147 197 244 293 350
#     4  10  19  31  59  87 118 143 202 248 294 343
#
# _framework density 19.956409000000001
#
# number of rings (size 3 to 8) (size 9 to 14) (size 15 to 20)
#    0.000    2.133    2.667    2.400    5.600    1.067 
#    0.000    5.333    0.000    1.600    0.000    0.000 
#    0.000    0.000    0.000    0.000    0.000    0.000 
#
# Total GULP energy -371981.829759 kJ/mol
# GULP energy per Si atom -12399.394325 kJ/mol
# Density = 1.991099 g / cm^3
# Si number density = 19.956409 Si / 1000 Ang^3
#
#
#
# Elastic Constant Matrix: (Units=GPa)
#
#
# Indices 1 2 3 4 5 6 
#
# 1 33.5959 22.4277 36.2212 0.0000 3.3252 0.0000
# 2 22.4277 112.6452 48.2156 0.0000 9.9909 0.0000
# 3 36.2212 48.2156 116.3211 0.0000 1.9689 0.0000
# 4 0.0000 0.0000 0.0000 23.5858 0.0000 10.6206
# 5 3.3252 9.9909 1.9689 0.0000 31.7254 0.0000
# 6 0.0000 0.0000 0.0000 10.6206 0.0000 18.1234
#
#
#
# Elastic Compliance Matrix: (Units=1/GPa)
#
#
# Indices 1 2 3 4 5 6 
#
# 1 0.046303 -0.003410 -0.012955 0.000000 -0.002975 0.000000
# 2 -0.003410 0.011362 -0.003597 0.000000 -0.002997 0.000000
# 3 -0.012955 -0.003597 0.014094 0.000000 0.001616 0.000000
# 4 0.000000 0.000000 0.000000 0.057597 0.000000 -0.033753
# 5 -0.002975 -0.002997 0.001616 0.000000 0.032676 0.000000
# 6 0.000000 0.000000 0.000000 -0.033753 0.000000 0.074957
#
#
# Mechanical properties :
#
#
# Convention : Reuss Voigt Hill
#
# Bulk Modulus (GPa) = 31.41056 52.92125 42.16590
# Shear Modulus (GPa) = 17.38978 25.06678 21.22828
#
# Velocity S-wave (km/s) = 2.95513 3.54796 3.26503
# Velocity P-wave (km/s) = 5.23617 6.58483 5.94885
#
# Compressibility (1/GPa) = 0.03183643
#
# Stress axis : x y z
#
# Youngs Moduli (GPa) = 21.59664 88.01393 70.95024
#
# Poissons Ratio (x) = 0.30015 0.91913
# Poissons Ratio (y) = 0.07365 0.25520
# Poissons Ratio (z) = 0.27977 0.31658
#
# Static dielectric constant tensor:
#      x y z
#    x 3.431310 0.000000 0.189300 
#    y 0.000000 3.669910 0.000000 
#    z 0.189300 0.000000 3.645960 
# 
# 
# High freq. dielectric constant tensor:
#      x y z
#    x 1.740830 0.000000 0.015800 
#    y 0.000000 1.786560 0.000000 
#    z 0.015800 0.000000 1.775630 
# 
# From -- ./inp_files/167697.got.cif
#   From: 2010.06.25/outbox.cif.g09.slc.cpg/sg15_84_cif.got.tgz:167697.got - 2010.06.28 07:06:18.
