data_PCOD8132105
_publ_section_title
;
Structure prediction by ZEFSAII (Michael W. Deem and Ramdas Pophale) SiO2 
 PCOD8132105
Probable space group: C 2/C
;
_chemical_formula_sum "Si O2"
_cell_formula_units_Z 64
_cell_length_a 24.553084
_cell_length_b 16.934287
_cell_length_c 9.493753
_cell_angle_alpha 90.000000
_cell_angle_beta 93.682197
_cell_angle_gamma 90.000000
_cell_volume 3939.248870
_symmetry_space_group_name_H-M "C 2/C"
_symmetry_group_IT_number 15
_symmetry_cell_setting 'monoclinic'
loop_
_space_group_symop_operation_xyz
x,y,z
-x,y,1/2-z
-x,-y,-z
x,-y,1/2+z
1/2+x,1/2+y,z
1/2-x,1/2+y,1/2-z
1/2-x,1/2-y,-z
1/2+x,1/2-y,1/2+z
loop_
_atom_site_type_symbol
_atom_site_label
_atom_site_fract_x
_atom_site_fract_y
_atom_site_fract_z
Si Si1 0.191324 0.249213 0.803037
Si Si2 0.756857 0.909182 0.212771
Si Si3 0.341147 0.830482 0.955640
Si Si4 0.343548 0.192262 0.901310
Si Si5 0.242812 0.936632 0.962254
Si Si6 0.697163 0.709852 0.326959
Si Si7 0.437355 0.073623 0.579055
Si Si8 0.938595 0.422414 0.404317
O O1 0.194507 0.154187 0.803420
O O2 0.145646 0.284806 0.689107
O O3 0.247735 0.282639 0.752801
O O4 0.181741 0.280472 0.956880
O O5 0.697194 0.870578 0.179247
O O6 0.760801 0.943791 0.370193
O O7 0.767296 0.977547 0.102307
O O8 0.305141 0.772433 0.046516
O O9 0.398681 0.853111 0.034042
O O10 0.303219 0.907427 0.926670
O O11 0.350104 0.267502 0.795174
O O12 0.402469 0.153692 0.935924
O O13 0.195534 0.877957 0.892500
O O14 0.498847 0.098641 0.548509
O O15 0.432012 0.053065 0.741524
O O16 0.418295 0.996348 0.491962
#
# Coordination Sequence:
#
# PCOD8132105 Si02
#       8
#     8   8   8   8   8   8   8   8
#     4  10  21  33  49  70  97 129 170 207 243 291
#     4  11  21  32  45  72  99 130 164 199 240 294
#     4  11  18  35  52  67  94 140 169 199 243 294
#     4  11  21  33  51  70  99 133 172 203 242 291
#     4  11  21  30  48  69 100 129 166 199 241 293
#     4  10  18  36  49  65  97 132 167 203 242 291
#     4  10  21  35  53  72 102 134 168 211 249 282
#     4  10  21  36  50  75 102 131 171 210 245 291
#
# _framework density 16.246752000000001
#
# number of rings (size 3 to 8) (size 9 to 14) (size 15 to 20)
#    0.000    1.500    5.000    3.000    7.000    0.000 
#    0.000    0.000    0.000    0.000    0.000    0.000 
#    0.000    6.000    0.000    0.000    0.000    0.000 
#
# Total GULP energy -396688.741278 kJ/mol
# GULP energy per Si atom -12396.523165 kJ/mol
# Density = 1.620977 g / cm^3
# Si number density = 16.246752 Si / 1000 Ang^3
#
#
#
# Elastic Constant Matrix: (Units=GPa)
#
#
# Indices 1 2 3 4 5 6 
#
# 1 54.1722 32.7847 23.9098 0.0000 7.7710 0.0000
# 2 32.7847 75.5409 47.1391 0.0000 3.2170 0.0000
# 3 23.9098 47.1391 115.3589 0.0000 -1.0134 0.0000
# 4 0.0000 0.0000 0.0000 39.7973 0.0000 1.6273
# 5 7.7710 3.2170 -1.0134 0.0000 22.0222 0.0000
# 6 0.0000 0.0000 0.0000 1.6273 0.0000 20.6954
#
#
#
# Elastic Compliance Matrix: (Units=1/GPa)
#
#
# Indices 1 2 3 4 5 6 
#
# 1 0.026408 -0.010291 -0.001337 0.000000 -0.007877 0.000000
# 2 -0.010291 0.021970 -0.006844 0.000000 0.000107 0.000000
# 3 -0.001337 -0.006844 0.011760 0.000000 0.002013 0.000000
# 4 0.000000 0.000000 0.000000 0.025208 0.000000 -0.001982
# 5 -0.007877 0.000107 0.002013 0.000000 0.048265 0.000000
# 6 0.000000 0.000000 0.000000 -0.001982 0.000000 0.048476
#
#
# Mechanical properties :
#
#
# Convention : Reuss Voigt Hill
#
# Bulk Modulus (GPa) = 43.11496 50.30436 46.70966
# Shear Modulus (GPa) = 22.04941 25.91886 23.98414
#
# Velocity S-wave (km/s) = 3.68796 3.99849 3.84636
# Velocity P-wave (km/s) = 6.68804 7.23513 6.96696
#
# Compressibility (1/GPa) = 0.02319381
#
# Stress axis : x y z
#
# Youngs Moduli (GPa) = 37.86743 45.51605 85.03350
#
# Poissons Ratio (x) = 0.46841 0.11373
# Poissons Ratio (y) = 0.38969 0.58195
# Poissons Ratio (z) = 0.05064 0.31150
#
# Static dielectric constant tensor:
#      x y z
#    x 2.858840 0.000000 0.149530 
#    y 0.000000 3.182140 0.000000 
#    z 0.149530 0.000000 3.443930 
# 
# 
# High freq. dielectric constant tensor:
#      x y z
#    x 1.579250 0.000000 -0.000690 
#    y 0.000000 1.612020 0.000000 
#    z -0.000690 0.000000 1.653630 
# 
# From -- ./inp_files/62509.got.cif
#   From: 2010.06.25/outbox.cif.g09.slc.cpg/sg15_32_cif.got.tgz:62509.got - 2010.06.28 07:06:18.
