data_PCOD8132236
_publ_section_title
;
Structure prediction by ZEFSAII (Michael W. Deem and Ramdas Pophale) SiO2 
 PCOD8132236
Probable space group: C 2/C
;
_chemical_formula_sum "Si O2"
_cell_formula_units_Z 48
_cell_length_a 12.635155
_cell_length_b 16.820621
_cell_length_c 14.370695
_cell_angle_alpha 90.000000
_cell_angle_beta 135.495792
_cell_angle_gamma 90.000000
_cell_volume 2140.891349
_symmetry_space_group_name_H-M "C 2/C"
_symmetry_group_IT_number 15
_symmetry_cell_setting 'monoclinic'
loop_
_space_group_symop_operation_xyz
x,y,z
-x,y,1/2-z
-x,-y,-z
x,-y,1/2+z
1/2+x,1/2+y,z
1/2-x,1/2+y,1/2-z
1/2-x,1/2-y,-z
1/2+x,1/2-y,1/2+z
loop_
_atom_site_type_symbol
_atom_site_label
_atom_site_fract_x
_atom_site_fract_y
_atom_site_fract_z
Si Si1 0.933939 0.729267 0.364645
Si Si2 0.033003 0.549233 0.164433
Si Si3 0.157013 0.042028 0.086070
Si Si4 0.500000 0.622211 0.250000
Si Si5 0.402762 0.705641 0.368912
Si Si6 0.224378 0.014917 0.916956
Si Si7 0.000000 0.850077 0.250000
O O1 0.973191 0.643968 0.348196
O O2 0.754586 0.745668 0.259809
O O3 0.014000 0.794966 0.349484
O O4 0.997766 0.732518 0.509849
O O5 0.206649 0.517444 0.254961
O O6 0.000000 0.526634 0.250000
O O7 0.906797 0.511859 0.014905
O O8 0.130573 0.134838 0.080648
O O9 0.209660 0.021671 0.017455
O O10 0.000000 0.000000 0.000000
O O11 0.500426 0.677342 0.341187
O O12 0.351442 0.566596 0.166109
O O13 0.145341 0.092974 0.824144
#
# Coordination Sequence:
#
# PCOD8132236 Si02
#       7
#     8   8   8   4   8   8   4
#     4  11  22  38  61  93 125 156 200 247 313 372
#     4   9  19  33  59  94 125 149 186 251 313 371
#     4  10  18  36  60  87 120 156 198 249 305 362
#     4  11  24  42  62  78 122 171 214 250 288 351
#     4  11  24  40  61  87 121 165 209 251 295 360
#     4  10  20  36  59  92 121 154 196 247 315 359
#     4  11  20  32  64  94 126 155 186 254 324 383
#
# _framework density 22.420566999999998
#
# number of rings (size 3 to 8) (size 9 to 14) (size 15 to 20)
#    0.000    1.667    4.167    1.000    0.000    2.000 
#    0.000    5.000    0.000    0.000    0.000    0.000 
#    0.000    0.000    0.000    0.000    0.000    0.000 
#
# Total GULP energy -297404.649211 kJ/mol
# GULP energy per Si atom -12391.860384 kJ/mol
# Density = 2.236954 g / cm^3
# Si number density = 22.420567 Si / 1000 Ang^3
#
#
#
# Elastic Constant Matrix: (Units=GPa)
#
#
# Indices 1 2 3 4 5 6 
#
# 1 65.1831 13.1491 28.1689 0.0000 20.2480 0.0000
# 2 13.1491 24.1720 9.7089 0.0000 9.3516 0.0000
# 3 28.1689 9.7089 134.3910 0.0000 40.1847 0.0000
# 4 0.0000 0.0000 0.0000 2.0400 0.0000 4.2787
# 5 20.2480 9.3516 40.1847 0.0000 46.0056 0.0000
# 6 0.0000 0.0000 0.0000 4.2787 0.0000 16.5074
#
#
#
# Elastic Compliance Matrix: (Units=1/GPa)
#
#
# Indices 1 2 3 4 5 6 
#
# 1 0.019369 -0.007723 -0.001925 0.000000 -0.005273 0.000000
# 2 -0.007723 0.048029 0.000070 0.000000 -0.006425 0.000000
# 3 -0.001925 0.000070 0.010274 0.000000 -0.008141 0.000000
# 4 0.000000 0.000000 0.000000 1.074167 0.000000 -0.278422
# 5 -0.005273 -0.006425 -0.008141 0.000000 0.032474 0.000000
# 6 0.000000 0.000000 0.000000 -0.278422 0.000000 0.132745
#
#
# Mechanical properties :
#
#
# Convention : Reuss Voigt Hill
#
# Bulk Modulus (GPa) = 17.08944 36.20001 26.64472
# Shear Modulus (GPa) = 3.68808 24.42522 14.05665
#
# Velocity S-wave (km/s) = 1.28395 3.30420 2.50662
# Velocity P-wave (km/s) = 3.13637 5.54418 4.50415
#
# Compressibility (1/GPa) = 0.05851568
#
# Stress axis : x y z
#
# Youngs Moduli (GPa) = 51.62779 20.82080 97.33696
#
# Poissons Ratio (x) = 0.16080 0.18739
# Poissons Ratio (y) = 0.39873 -0.00683
# Poissons Ratio (z) = 0.09939 -0.00146
#
# Static dielectric constant tensor:
#      x y z
#    x 4.117030 0.000000 0.609360 
#    y 0.000000 3.714890 0.000000 
#    z 0.609360 0.000000 4.869500 
# 
# 
# High freq. dielectric constant tensor:
#      x y z
#    x 1.875170 0.000000 0.009970 
#    y 0.000000 1.851740 0.000000 
#    z 0.009970 0.000000 1.909120 
# 
# From -- ./inp_files/155305.got.cif
#   From: 2010.06.25/outbox.cif.g09.slc.cpg/sg15_78_cif.got.tgz:155305.got - 2010.06.28 07:06:18.
