data_PCOD8132942
_publ_section_title
;
Structure prediction by ZEFSAII (Michael W. Deem and Ramdas Pophale) SiO2 
 PCOD8132942
Probable space group: C 2/C
;
_chemical_formula_sum "Si O2"
_cell_formula_units_Z 48
_cell_length_a 23.357422
_cell_length_b 13.026777
_cell_length_c 18.649835
_cell_angle_alpha 90.000000
_cell_angle_beta 156.227212
_cell_angle_gamma 90.000000
_cell_volume 2287.500548
_symmetry_space_group_name_H-M "C 2/C"
_symmetry_group_IT_number 15
_symmetry_cell_setting 'monoclinic'
loop_
_space_group_symop_operation_xyz
x,y,z
-x,y,1/2-z
-x,-y,-z
x,-y,1/2+z
1/2+x,1/2+y,z
1/2-x,1/2+y,1/2-z
1/2-x,1/2-y,-z
1/2+x,1/2-y,1/2+z
loop_
_atom_site_type_symbol
_atom_site_label
_atom_site_fract_x
_atom_site_fract_y
_atom_site_fract_z
Si Si1 0.461917 0.632458 0.125623
Si Si2 0.655344 0.030044 0.432462
Si Si3 0.410862 0.142552 0.533660
Si Si4 0.304573 0.416455 0.820063
Si Si5 0.099526 0.954134 0.193540
Si Si6 0.319374 0.972615 0.195925
O O1 0.500000 0.603497 0.250000
O O2 0.490348 0.752404 0.143776
O O3 0.555021 0.561546 0.180298
O O4 0.295145 0.615949 0.920357
O O5 0.500000 0.084825 0.250000
O O6 0.637251 0.917512 0.449505
O O7 0.771949 0.095516 0.611919
O O8 0.715349 0.018951 0.421798
O O9 0.276733 0.161776 0.326359
O O10 0.521993 0.070977 0.618193
O O11 0.338382 0.521282 0.814126
O O12 0.201374 0.438679 0.768638
O O13 0.461396 0.378714 0.028190
#
# Coordination Sequence:
#
# PCOD8132942 Si02
#       6
#     8   8   8   8   8   8
#     4  11  20  29  50  76 105 139 163 201 249 304
#     4   9  17  30  46  74  99 127 161 209 245 294
#     4  10  21  30  45  71 108 137 169 201 243 304
#     4   9  19  33  46  63  98 148 170 203 236 292
#     4   9  18  33  49  68 103 135 174 201 243 299
#     4  10  19  31  48  69 100 139 172 202 244 297
#
# _framework density 20.983602000000001
#
# number of rings (size 3 to 8) (size 9 to 14) (size 15 to 20)
#    0.000    2.333    1.667    2.000    4.667    1.333 
#    0.000    0.000    0.000    0.000    0.000    0.000 
#    0.000   48.000    0.667    0.167    0.000    0.000 
#
# Total GULP energy -297341.815361 kJ/mol
# GULP energy per Si atom -12389.242307 kJ/mol
# Density = 2.093584 g / cm^3
# Si number density = 20.983602 Si / 1000 Ang^3
#
#
#
# Elastic Constant Matrix: (Units=GPa)
#
#
# Indices 1 2 3 4 5 6 
#
# 1 122.5736 5.9606 20.5410 0.0001 -5.0809 0.0001
# 2 5.9606 8.8676 -2.6000 0.0002 -4.2449 0.0001
# 3 20.5410 -2.6000 148.2847 0.0003 -12.9509 0.0002
# 4 0.0001 0.0002 0.0003 18.0075 0.0002 -1.1317
# 5 -5.0809 -4.2449 -12.9509 0.0002 32.5227 0.0001
# 6 0.0001 0.0001 0.0002 -1.1317 0.0001 11.7523
#
#
#
# Elastic Compliance Matrix: (Units=1/GPa)
#
#
# Indices 1 2 3 4 5 6 
#
# 1 0.008681 -0.006207 -0.001309 0.000000 0.000025 0.000000
# 2 -0.006207 0.126614 0.004598 -0.000002 0.017387 -0.000002
# 3 -0.001309 0.004598 0.007294 0.000000 0.003300 0.000000
# 4 0.000000 -0.000002 0.000000 0.055870 -0.000001 0.005380
# 5 0.000025 0.017387 0.003300 -0.000001 0.034335 -0.000001
# 6 0.000000 -0.000002 0.000000 0.005380 -0.000001 0.085607
#
#
# Mechanical properties :
#
#
# Convention : Reuss Voigt Hill
#
# Bulk Modulus (GPa) = 7.31246 36.39210 21.85228
# Shear Modulus (GPa) = 13.52006 29.51146 21.51576
#
# Velocity S-wave (km/s) = 2.54109 3.75428 3.20560
# Velocity P-wave (km/s) = 3.47878 6.01445 4.91302
#
# Compressibility (1/GPa) = 0.13675291
#
# Stress axis : x y z
#
# Youngs Moduli (GPa) = 115.19931 7.89805 137.09904
#
# Poissons Ratio (x) = 0.04902 0.17948
# Poissons Ratio (y) = 0.71503 -0.63044
# Poissons Ratio (z) = 0.15081 -0.03632
#
# Static dielectric constant tensor:
#      x y z
#    x 3.905310 0.000000 -0.006500 
#    y 0.000000 2.847910 0.000000 
#    z -0.006500 0.000000 4.402580 
# 
# 
# High freq. dielectric constant tensor:
#      x y z
#    x 1.839310 0.000000 -0.001180 
#    y 0.000000 1.715930 0.000000 
#    z -0.001180 0.000000 1.855640 
# 
# From -- ./inp_files/215477.got.cif
#   From: 2010.06.25/outbox.cif.g09.slc.cpg/sg15_108_cif.got.tgz:215477.got - 2010.06.28 07:06:18.
