data_PCOD8132232
_publ_section_title
;
Structure prediction by ZEFSAII (Michael W. Deem and Ramdas Pophale) SiO2 
 PCOD8132232
Probable space group: C 2/C
;
_chemical_formula_sum "Si O2"
_cell_formula_units_Z 36
_cell_length_a 9.594823
_cell_length_b 26.046407
_cell_length_c 7.249989
_cell_angle_alpha 90.000000
_cell_angle_beta 116.052790
_cell_angle_gamma 90.000000
_cell_volume 1627.747116
_symmetry_space_group_name_H-M "C 2/C"
_symmetry_group_IT_number 15
_symmetry_cell_setting 'monoclinic'
loop_
_space_group_symop_operation_xyz
x,y,z
-x,y,1/2-z
-x,-y,-z
x,-y,1/2+z
1/2+x,1/2+y,z
1/2-x,1/2+y,1/2-z
1/2-x,1/2-y,-z
1/2+x,1/2-y,1/2+z
loop_
_atom_site_type_symbol
_atom_site_label
_atom_site_fract_x
_atom_site_fract_y
_atom_site_fract_z
Si Si1 0.000000 0.526861 0.750000
Si Si2 0.500000 0.400545 0.750000
Si Si3 0.144176 0.274872 0.092047
Si Si4 0.182786 0.560605 0.186180
Si Si5 0.437061 0.685183 0.923076
Si Si6 0.000000 0.645666 0.250000
O O1 0.940288 0.563275 0.553213
O O2 0.852564 0.491581 0.722635
O O3 0.640117 0.438191 0.775863
O O4 0.450071 0.367203 0.544216
O O5 0.255492 0.297685 0.315729
O O6 0.250000 0.250000 0.000000
O O7 0.030951 0.229020 0.091111
O O8 0.038676 0.319999 0.948886
O O9 0.149729 0.610651 0.291741
O O10 0.500000 0.677443 0.750000
#
# Coordination Sequence:
#
# PCOD8132232 Si02
#       6
#     4   4   8   8   8   4
#     4   9  22  48  67  88 124 160 201 260 354 387
#     4  12  26  40  63 106 128 158 227 264 304 380
#     4  10  18  36  60  85 128 182 211 246 310 357
#     4  10  23  42  67  94 121 160 209 269 320 399
#     4  10  22  39  58  89 135 179 213 257 306 360
#     4  11  20  38  70  90 126 172 220 256 312 385
#
# _framework density 22.116458999999999
#
# number of rings (size 3 to 8) (size 9 to 14) (size 15 to 20)
#    0.000    1.778    3.333    2.667    3.111    1.778 
#    4.000    0.000    0.000    0.000    0.000    0.000 
#    0.000    0.000    0.000    0.000    0.000    0.000 
#
# Total GULP energy -223170.108574 kJ/mol
# GULP energy per Si atom -12398.339365 kJ/mol
# Density = 2.206612 g / cm^3
# Si number density = 22.116459 Si / 1000 Ang^3
#
#
#
# Elastic Constant Matrix: (Units=GPa)
#
#
# Indices 1 2 3 4 5 6 
#
# 1 124.7055 39.9174 20.5616 0.0000 15.1411 0.0000
# 2 39.9174 72.4347 13.8147 0.0000 6.7530 0.0000
# 3 20.5616 13.8147 70.5197 0.0000 8.5995 0.0000
# 4 0.0000 0.0000 0.0000 18.4989 0.0000 6.2284
# 5 15.1411 6.7530 8.5995 0.0000 34.3892 0.0000
# 6 0.0000 0.0000 0.0000 6.2284 0.0000 11.4384
#
#
#
# Elastic Compliance Matrix: (Units=1/GPa)
#
#
# Indices 1 2 3 4 5 6 
#
# 1 0.010289 -0.005068 -0.001626 0.000000 -0.003128 0.000000
# 2 -0.005068 0.016998 -0.001771 0.000000 -0.000663 0.000000
# 3 -0.001626 -0.001771 0.015339 0.000000 -0.002772 0.000000
# 4 0.000000 0.000000 0.000000 0.066193 0.000000 -0.036043
# 5 -0.003128 -0.000663 -0.002772 0.000000 0.031280 0.000000
# 6 0.000000 0.000000 0.000000 -0.036043 0.000000 0.107051
#
#
# Mechanical properties :
#
#
# Convention : Reuss Voigt Hill
#
# Bulk Modulus (GPa) = 38.91608 46.24970 42.58289
# Shear Modulus (GPa) = 18.33876 25.75637 22.04757
#
# Velocity S-wave (km/s) = 2.88269 3.41630 3.16077
# Velocity P-wave (km/s) = 5.35855 6.04307 5.71108
#
# Compressibility (1/GPa) = 0.02569632
#
# Stress axis : x y z
#
# Youngs Moduli (GPa) = 97.18980 58.82932 65.19127
#
# Poissons Ratio (x) = 0.29817 0.10598
# Poissons Ratio (y) = 0.49260 0.11547
# Poissons Ratio (z) = 0.15800 0.10420
#
# Static dielectric constant tensor:
#      x y z
#    x 4.130800 0.000000 0.260890 
#    y 0.000000 3.896650 0.000000 
#    z 0.260890 0.000000 3.964890 
# 
# 
# High freq. dielectric constant tensor:
#      x y z
#    x 1.865730 0.000000 0.005470 
#    y 0.000000 1.861750 0.000000 
#    z 0.005470 0.000000 1.864860 
# 
# From -- ./inp_files/23376.got.cif
#   From: 2010.06.25/outbox.cif.g09.slc.cpg/sg15_12_cif.got.tgz:23376.got - 2010.06.28 07:06:18.
