data_PCOD8132908
_publ_section_title
;
Structure prediction by ZEFSAII (Michael W. Deem and Ramdas Pophale) SiO2 
 PCOD8132908
Probable space group: C 2/C
;
_chemical_formula_sum "Si O2"
_cell_formula_units_Z 56
_cell_length_a 14.540898
_cell_length_b 18.602871
_cell_length_c 14.342776
_cell_angle_alpha 90.000000
_cell_angle_beta 123.269355
_cell_angle_gamma 90.000000
_cell_volume 3243.867481
_symmetry_space_group_name_H-M "C 2/C"
_symmetry_group_IT_number 15
_symmetry_cell_setting 'monoclinic'
loop_
_space_group_symop_operation_xyz
x,y,z
-x,y,1/2-z
-x,-y,-z
x,-y,1/2+z
1/2+x,1/2+y,z
1/2-x,1/2+y,1/2-z
1/2-x,1/2-y,-z
1/2+x,1/2-y,1/2+z
loop_
_atom_site_type_symbol
_atom_site_label
_atom_site_fract_x
_atom_site_fract_y
_atom_site_fract_z
Si Si1 0.166411 0.806920 0.494555
Si Si2 0.723726 0.314761 0.738557
Si Si3 0.372395 0.597044 0.688290
Si Si4 0.586904 0.709295 0.636792
Si Si5 0.330521 0.654964 0.003934
Si Si6 0.379710 0.777760 0.178004
Si Si7 0.630890 0.438056 0.816919
O O1 0.250000 0.750000 0.500000
O O2 0.199165 0.828266 0.617041
O O3 0.178600 0.878167 0.438519
O O4 0.041576 0.776721 0.413739
O O5 0.849653 0.286522 0.827755
O O6 0.648038 0.249599 0.733438
O O7 0.694843 0.386984 0.779183
O O8 0.500000 0.584346 0.750000
O O9 0.351232 0.657970 0.754186
O O10 0.326770 0.517761 0.687736
O O11 0.591123 0.666430 0.541181
O O12 0.204287 0.662303 0.902952
O O13 0.371999 0.710706 0.104493
O O14 0.334807 0.577624 0.056152
O O15 0.500000 0.812522 0.250000
O O16 0.500000 0.426647 0.750000
#
# Coordination Sequence:
#
# PCOD8132908 Si02
#       7
#     8   8   8   8   8   8   8
#     4  11  20  33  53  75  97 134 175 209 249 291
#     4  10  19  30  51  77 100 134 164 207 254 297
#     4   9  20  34  49  73 107 133 162 212 251 297
#     4  10  19  33  50  77 104 126 173 213 249 294
#     4   9  17  28  48  73 100 133 161 202 256 301
#     4   9  16  28  45  74 104 127 165 208 247 297
#     4  10  19  33  51  77 108 131 160 204 261 312
#
# _framework density 17.263345000000001
#
# number of rings (size 3 to 8) (size 9 to 14) (size 15 to 20)
#    0.000    2.286    1.429    4.286    0.000    1.143 
#    0.000    4.286    0.000    0.857    3.714    0.000 
#    0.000    0.000    0.000    0.000    0.000    0.000 
#
# Total GULP energy -346916.537243 kJ/mol
# GULP energy per Si atom -12389.876330 kJ/mol
# Density = 1.722405 g / cm^3
# Si number density = 17.263345 Si / 1000 Ang^3
#
#
#
# Elastic Constant Matrix: (Units=GPa)
#
#
# Indices 1 2 3 4 5 6 
#
# 1 94.1906 44.2686 43.0528 0.0000 4.4517 0.0000
# 2 44.2686 98.6681 42.3182 0.0000 -0.4626 0.0000
# 3 43.0528 42.3182 104.5251 0.0000 -16.8876 0.0000
# 4 0.0000 0.0000 0.0000 10.9303 0.0000 -6.1636
# 5 4.4517 -0.4626 -16.8876 0.0000 37.0159 0.0000
# 6 0.0000 0.0000 0.0000 -6.1636 0.0000 19.6951
#
#
#
# Elastic Compliance Matrix: (Units=1/GPa)
#
#
# Indices 1 2 3 4 5 6 
#
# 1 0.015371 -0.004728 -0.005101 0.000000 -0.004235 0.000000
# 2 -0.004728 0.013900 -0.003843 0.000000 -0.001011 0.000000
# 3 -0.005101 -0.003843 0.014375 0.000000 0.007124 0.000000
# 4 0.000000 0.000000 0.000000 0.111094 0.000000 0.034767
# 5 -0.004235 -0.001011 0.007124 0.000000 0.030762 0.000000
# 6 0.000000 0.000000 0.000000 0.034767 0.000000 0.061655
#
#
# Mechanical properties :
#
#
# Convention : Reuss Voigt Hill
#
# Bulk Modulus (GPa) = 61.34763 61.85145 61.59954
# Shear Modulus (GPa) = 17.86126 24.71119 21.28622
#
# Velocity S-wave (km/s) = 3.22006 3.78752 3.51526
# Velocity P-wave (km/s) = 7.03126 7.41843 7.22744
#
# Compressibility (1/GPa) = 0.01630055
#
# Stress axis : x y z
#
# Youngs Moduli (GPa) = 65.05870 71.94194 69.56485
#
# Poissons Ratio (x) = 0.34017 0.35484
# Poissons Ratio (y) = 0.30762 0.26737
# Poissons Ratio (z) = 0.33186 0.27650
#
# Static dielectric constant tensor:
#      x y z
#    x 3.271700 0.000000 -0.107340 
#    y 0.000000 3.188910 0.000000 
#    z -0.107340 0.000000 3.300170 
# 
# 
# High freq. dielectric constant tensor:
#      x y z
#    x 1.661880 0.000000 -0.012760 
#    y 0.000000 1.633800 0.000000 
#    z -0.012760 0.000000 1.677410 
# 
# From -- ./inp_files/154925.got.cif
#   From: 2010.06.25/outbox.cif.g09.slc.cpg/sg15_78_cif.got.tgz:154925.got - 2010.06.28 07:06:18.
