data_PCOD8132929
_publ_section_title
;
Structure prediction by ZEFSAII (Michael W. Deem and Ramdas Pophale) SiO2 
 PCOD8132929
Probable space group: C 2/C
;
_chemical_formula_sum "Si O2"
_cell_formula_units_Z 64
_cell_length_a 18.179830
_cell_length_b 15.422718
_cell_length_c 23.313904
_cell_angle_alpha 90.000000
_cell_angle_beta 31.234795
_cell_angle_gamma 90.000000
_cell_volume 3389.638112
_symmetry_space_group_name_H-M "C 2/C"
_symmetry_group_IT_number 15
_symmetry_cell_setting 'monoclinic'
loop_
_space_group_symop_operation_xyz
x,y,z
-x,y,1/2-z
-x,-y,-z
x,-y,1/2+z
1/2+x,1/2+y,z
1/2-x,1/2+y,1/2-z
1/2-x,1/2-y,-z
1/2+x,1/2-y,1/2+z
loop_
_atom_site_type_symbol
_atom_site_label
_atom_site_fract_x
_atom_site_fract_y
_atom_site_fract_z
Si Si1 0.844541 0.685075 0.361625
Si Si2 0.095684 0.087706 0.323470
Si Si3 0.822842 0.447654 0.577657
Si Si4 0.125527 0.620177 0.899886
Si Si5 0.395104 0.313195 0.567216
Si Si6 0.390167 0.442718 0.868802
Si Si7 0.096253 0.889026 0.346828
Si Si8 0.627179 0.360084 0.096715
O O1 0.749089 0.661113 0.369986
O O2 0.775873 0.641558 0.463339
O O3 0.863874 0.788946 0.358609
O O4 0.000000 0.643046 0.250000
O O5 0.228406 0.096252 0.191033
O O6 0.116770 0.159272 0.358440
O O7 0.940618 0.099588 0.395399
O O8 0.087859 0.992515 0.355323
O O9 0.813403 0.552285 0.593735
O O10 0.765328 0.420458 0.552524
O O11 0.983988 0.419132 0.467481
O O12 0.086015 0.710865 0.954592
O O13 0.240349 0.637125 0.772870
O O14 0.537490 0.356622 0.447058
O O15 0.500000 0.405336 0.750000
O O16 0.402232 0.546250 0.858768
O O17 0.001892 0.840718 0.361195
#
# Coordination Sequence:
#
# PCOD8132929 Si02
#       8
#     8   8   8   8   8   8   8   8
#     4  10  19  31  43  76 109 134 165 206 262 312
#     4   9  19  35  55  79 102 142 181 212 261 318
#     4   9  19  36  54  79 106 134 176 228 272 304
#     4  10  20  33  52  82 107 133 177 220 270 311
#     4  11  21  32  55  77 111 143 173 215 260 327
#     4   9  16  32  57  72  94 133 181 220 252 305
#     4   9  19  35  52  77 106 146 176 208 256 318
#     4   9  17  30  51  71 100 136 175 206 250 315
#
# _framework density 18.881070999999999
#
# number of rings (size 3 to 8) (size 9 to 14) (size 15 to 20)
#    0.000    2.500    0.000    3.000    1.750    0.000 
#    6.750    0.625    0.000    0.000    0.000    0.000 
#    0.000    0.000    0.000    0.000    0.000    0.000 
#
# Total GULP energy -396502.305107 kJ/mol
# GULP energy per Si atom -12390.697035 kJ/mol
# Density = 1.883810 g / cm^3
# Si number density = 18.881071 Si / 1000 Ang^3
#
#
#
# Elastic Constant Matrix: (Units=GPa)
#
#
# Indices 1 2 3 4 5 6 
#
# 1 105.4201 18.5547 44.4507 -0.0012 -6.6228 -0.0003
# 2 18.5547 40.0184 22.8992 -0.0147 -0.5801 0.0016
# 3 44.4507 22.8992 123.4481 -0.0118 -14.6346 0.0008
# 4 -0.0012 -0.0147 -0.0118 19.5422 0.0028 0.8776
# 5 -6.6228 -0.5801 -14.6346 0.0028 24.6915 0.0005
# 6 -0.0003 0.0016 0.0008 0.8776 0.0005 21.5742
#
#
#
# Elastic Compliance Matrix: (Units=1/GPa)
#
#
# Indices 1 2 3 4 5 6 
#
# 1 0.011591 -0.003400 -0.003424 -0.000004 0.000999 0.000001
# 2 -0.003400 0.029109 -0.004520 0.000020 -0.002907 -0.000003
# 3 -0.003424 -0.004520 0.010810 0.000002 0.005382 0.000000
# 4 -0.000004 0.000020 0.000002 0.051265 -0.000005 -0.002085
# 5 0.000999 -0.002907 0.005382 -0.000005 0.043890 -0.000001
# 6 0.000001 -0.000003 0.000000 -0.002085 -0.000001 0.046436
#
#
# Mechanical properties :
#
#
# Convention : Reuss Voigt Hill
#
# Bulk Modulus (GPa) = 34.69664 48.96619 41.83141
# Shear Modulus (GPa) = 22.18297 25.36037 23.77167
#
# Velocity S-wave (km/s) = 3.43137 3.66890 3.55212
# Velocity P-wave (km/s) = 5.84084 6.62858 6.24714
#
# Compressibility (1/GPa) = 0.02882124
#
# Stress axis : x y z
#
# Youngs Moduli (GPa) = 86.27358 34.35325 92.50564
#
# Poissons Ratio (x) = 0.11681 0.31678
# Poissons Ratio (y) = 0.29335 0.41812
# Poissons Ratio (z) = 0.29544 0.15528
#
# Static dielectric constant tensor:
#      x y z
#    x 3.514800 0.000000 -0.176660 
#    y 0.000000 3.148240 0.000010 
#    z -0.176660 0.000010 3.501540 
# 
# 
# High freq. dielectric constant tensor:
#      x y z
#    x 1.725670 0.000000 -0.011670 
#    y 0.000000 1.698530 0.000000 
#    z -0.011670 0.000000 1.733550 
# 
# From -- ./inp_files/277623.got.cif
#   From: 2010.06.25/outbox.cif.g09.slc.cpg/sg15_139_cif.got.tgz:277623.got - 2010.06.28 07:06:18.
