data_PCOD8132766
_publ_section_title
;
Structure prediction by ZEFSAII (Michael W. Deem and Ramdas Pophale) SiO2 
 PCOD8132766
Probable space group: C 2/C
;
_chemical_formula_sum "Si O2"
_cell_formula_units_Z 40
_cell_length_a 12.127952
_cell_length_b 13.186803
_cell_length_c 22.197197
_cell_angle_alpha 90.000000
_cell_angle_beta 146.247445
_cell_angle_gamma 90.000000
_cell_volume 1972.391287
_symmetry_space_group_name_H-M "C 2/C"
_symmetry_group_IT_number 15
_symmetry_cell_setting 'monoclinic'
loop_
_space_group_symop_operation_xyz
x,y,z
-x,y,1/2-z
-x,-y,-z
x,-y,1/2+z
1/2+x,1/2+y,z
1/2-x,1/2+y,1/2-z
1/2-x,1/2-y,-z
1/2+x,1/2-y,1/2+z
loop_
_atom_site_type_symbol
_atom_site_label
_atom_site_fract_x
_atom_site_fract_y
_atom_site_fract_z
Si Si1 0.422477 0.295341 0.919649
Si Si2 0.217143 0.291413 0.330633
Si Si3 0.384419 0.219256 0.116244
Si Si4 0.252997 0.896548 0.767659
Si Si5 0.709957 0.625608 0.761772
O O1 0.249441 0.318593 0.889466
O O2 0.406655 0.377184 0.858331
O O3 0.393500 0.183346 0.877359
O O4 0.638696 0.303286 0.046747
O O5 0.214744 0.175640 0.307183
O O6 0.288004 0.364440 0.309528
O O7 0.000000 0.327659 0.250000
O O8 0.529653 0.127805 0.161495
O O9 0.508591 0.319273 0.192990
O O10 0.250000 0.250000 0.000000
O O11 0.226698 0.007451 0.784009
#
# Coordination Sequence:
#
# PCOD8132766 Si02
#       5
#     8   8   8   8   8
#     4  10  20  41  63  79 121 164 189 248 296 344
#     4  10  22  40  54  81 125 157 191 241 300 347
#     4  10  18  41  64  82 119 156 194 242 294 353
#     4  10  22  37  59  93 113 148 207 241 290 354
#     4  10  22  37  59  93 113 148 207 241 290 354
#
# _framework density 20.279951000000001
#
# number of rings (size 3 to 8) (size 9 to 14) (size 15 to 20)
#    0.000    2.400    4.000    2.400    0.000    8.000 
#    7.200    0.000    0.000    0.000    0.000    0.000 
#    0.000    0.000    0.000    0.000    0.000    0.000 
#
# Total GULP energy -247907.297252 kJ/mol
# GULP energy per Si atom -12395.364863 kJ/mol
# Density = 2.023379 g / cm^3
# Si number density = 20.279951 Si / 1000 Ang^3
#
#
#
# Elastic Constant Matrix: (Units=GPa)
#
#
# Indices 1 2 3 4 5 6 
#
# 1 39.3949 -11.3810 19.9655 -0.0005 10.8912 0.0000
# 2 -11.3810 54.3259 -16.1633 -0.0003 15.6882 0.0000
# 3 19.9655 -16.1633 146.7529 -0.0025 9.5219 -0.0004
# 4 -0.0005 -0.0003 -0.0025 11.3883 -0.0009 -2.6359
# 5 10.8912 15.6882 9.5219 -0.0009 32.5965 0.0000
# 6 0.0000 0.0000 -0.0004 -2.6359 0.0000 12.4155
#
#
#
# Elastic Compliance Matrix: (Units=1/GPa)
#
#
# Indices 1 2 3 4 5 6 
#
# 1 0.034257 0.011113 -0.002392 0.000000 -0.016096 0.000000
# 2 0.011113 0.026443 0.002515 0.000001 -0.017175 0.000000
# 3 -0.002392 0.002515 0.007587 0.000002 -0.002627 0.000001
# 4 0.000000 0.000001 0.000002 0.092347 0.000002 0.019606
# 5 -0.016096 -0.017175 -0.002627 0.000002 0.045089 0.000000
# 6 0.000000 0.000000 0.000001 0.019606 0.000000 0.084707
#
#
# Mechanical properties :
#
#
# Convention : Reuss Voigt Hill
#
# Bulk Modulus (GPa) = 11.01826 25.03511 18.02668
# Shear Modulus (GPa) = 16.76655 27.81686 22.29171
#
# Velocity S-wave (km/s) = 2.87845 3.70759 3.31901
# Velocity P-wave (km/s) = 4.06106 5.54074 4.85757
#
# Compressibility (1/GPa) = 0.09075843
#
# Stress axis : x y z
#
# Youngs Moduli (GPa) = 29.19136 37.81656 131.80250
#
# Poissons Ratio (x) = -0.42025 0.31531
# Poissons Ratio (y) = -0.32440 -0.33147
# Poissons Ratio (z) = 0.06983 -0.09511
#
# Static dielectric constant tensor:
#      x y z
#    x 3.803590 0.000000 -0.132360 
#    y 0.000000 3.428330 0.000000 
#    z -0.132360 0.000000 3.860500 
# 
# 
# High freq. dielectric constant tensor:
#      x y z
#    x 1.789480 0.000000 -0.013400 
#    y 0.000000 1.760340 0.000000 
#    z -0.013400 0.000000 1.804690 
# 
# From -- ./inp_files/95523.got.cif
#   From: 2010.06.25/outbox.cif.g09.slc.cpg/sg15_48_cif.got.tgz:95523.got - 2010.06.28 07:06:18.
