data_PCOD8132506
_publ_section_title
;
Structure prediction by ZEFSAII (Michael W. Deem and Ramdas Pophale) SiO2 
 PCOD8132506
Probable space group: C 2/C
;
_chemical_formula_sum "Si O2"
_cell_formula_units_Z 44
_cell_length_a 12.571450
_cell_length_b 11.315341
_cell_length_c 16.917012
_cell_angle_alpha 90.000000
_cell_angle_beta 50.820566
_cell_angle_gamma 90.000000
_cell_volume 1865.410266
_symmetry_space_group_name_H-M "C 2/C"
_symmetry_group_IT_number 15
_symmetry_cell_setting 'monoclinic'
loop_
_space_group_symop_operation_xyz
x,y,z
-x,y,1/2-z
-x,-y,-z
x,-y,1/2+z
1/2+x,1/2+y,z
1/2-x,1/2+y,1/2-z
1/2-x,1/2-y,-z
1/2+x,1/2-y,1/2+z
loop_
_atom_site_type_symbol
_atom_site_label
_atom_site_fract_x
_atom_site_fract_y
_atom_site_fract_z
Si Si1 0.358666 0.394493 0.349539
Si Si2 0.500000 0.261994 0.750000
Si Si3 0.135401 0.991674 0.488029
Si Si4 0.783092 0.605795 0.141483
Si Si5 0.738249 0.161292 0.173824
Si Si6 0.459944 0.244476 0.938915
O O1 0.500000 0.445889 0.250000
O O2 0.363103 0.415444 0.440954
O O3 0.233270 0.465002 0.365554
O O4 0.350300 0.256020 0.332962
O O5 0.366147 0.341704 0.803613
O O6 0.475866 0.188538 0.842786
O O7 0.260722 0.034757 0.372713
O O8 0.148468 0.856263 0.512235
O O9 0.000000 0.000000 0.500000
O O10 0.828552 0.638059 0.209106
O O11 0.901435 0.648783 0.026654
O O12 0.893338 0.209324 0.102294
#
# Coordination Sequence:
#
# PCOD8132506 Si02
#       6
#     8   4   8   8   8   8
#     4  12  23  41  69  93 132 179 223 273 331 404
#     4  10  18  38  60 102 118 168 222 268 324 392
#     4  10  21  40  66  94 130 166 225 267 333 393
#     4  11  22  39  67  97 128 175 223 273 333 390
#     4  10  25  39  63  99 133 170 227 267 340 400
#     4  10  21  39  67  94 133 170 218 281 329 391
#
# _framework density 23.587305000000001
#
# number of rings (size 3 to 8) (size 9 to 14) (size 15 to 20)
#    0.000    1.455    2.727    3.273    7.636    0.727 
#    0.000    0.000    2.000    0.000    0.000    0.000 
#    0.000    0.000    0.000    0.000    0.000    0.000 
#
# Total GULP energy -272632.613639 kJ/mol
# GULP energy per Si atom -12392.391529 kJ/mol
# Density = 2.353362 g / cm^3
# Si number density = 23.587305 Si / 1000 Ang^3
#
#
#
# Elastic Constant Matrix: (Units=GPa)
#
#
# Indices 1 2 3 4 5 6 
#
# 1 54.9442 17.6636 29.8768 0.0000 28.8192 0.0000
# 2 17.6636 86.1016 45.6355 0.0000 18.2627 0.0000
# 3 29.8768 45.6355 171.6414 0.0000 32.5996 0.0000
# 4 0.0000 0.0000 0.0000 28.9680 0.0000 -3.5974
# 5 28.8192 18.2627 32.5996 0.0000 40.6812 0.0000
# 6 0.0000 0.0000 0.0000 -3.5974 0.0000 25.7795
#
#
#
# Elastic Compliance Matrix: (Units=1/GPa)
#
#
# Indices 1 2 3 4 5 6 
#
# 1 0.029359 -0.001351 -0.001081 0.000000 -0.019326 0.000000
# 2 -0.001351 0.014088 -0.002938 0.000000 -0.003013 0.000000
# 3 -0.001081 -0.002938 0.007548 0.000000 -0.003964 0.000000
# 4 0.000000 0.000000 0.000000 0.035130 0.000000 0.004902
# 5 -0.019326 -0.003013 -0.003964 0.000000 0.042801 0.000000
# 6 0.000000 0.000000 0.000000 0.004902 0.000000 0.039475
#
#
# Mechanical properties :
#
#
# Convention : Reuss Voigt Hill
#
# Bulk Modulus (GPa) = 24.84147 55.44877 40.14512
# Shear Modulus (GPa) = 25.96608 33.71983 29.84296
#
# Velocity S-wave (km/s) = 3.32151 3.78507 3.56084
# Velocity P-wave (km/s) = 5.02637 6.53156 5.82777
#
# Compressibility (1/GPa) = 0.04025527
#
# Stress axis : x y z
#
# Youngs Moduli (GPa) = 34.06100 70.98409 132.47967
#
# Poissons Ratio (x) = 0.09590 0.14316
# Poissons Ratio (y) = 0.04602 0.38926
# Poissons Ratio (z) = 0.03681 0.20857
#
# Static dielectric constant tensor:
#      x y z
#    x 3.645840 0.000000 0.233330 
#    y 0.000000 4.233690 0.000000 
#    z 0.233330 0.000000 4.628910 
# 
# 
# High freq. dielectric constant tensor:
#      x y z
#    x 1.919180 0.000000 0.018100 
#    y 0.000000 1.910100 0.000000 
#    z 0.018100 0.000000 1.946980 
# 
# From -- ./inp_files/142195.got.cif
#   From: 2010.06.25/outbox.cif.g09.slc.cpg/sg15_72_cif.got.tgz:142195.got - 2010.06.28 07:06:18.
