data_PCOD8132601
_publ_section_title
;
Structure prediction by ZEFSAII (Michael W. Deem and Ramdas Pophale) SiO2 
 PCOD8132601
Probable space group: C 2/C
;
_chemical_formula_sum "Si O2"
_cell_formula_units_Z 48
_cell_length_a 8.529910
_cell_length_b 18.227443
_cell_length_c 20.107079
_cell_angle_alpha 90.000000
_cell_angle_beta 50.480885
_cell_angle_gamma 90.000000
_cell_volume 2411.602689
_symmetry_space_group_name_H-M "C 2/C"
_symmetry_group_IT_number 15
_symmetry_cell_setting 'monoclinic'
loop_
_space_group_symop_operation_xyz
x,y,z
-x,y,1/2-z
-x,-y,-z
x,-y,1/2+z
1/2+x,1/2+y,z
1/2-x,1/2+y,1/2-z
1/2-x,1/2-y,-z
1/2+x,1/2-y,1/2+z
loop_
_atom_site_type_symbol
_atom_site_label
_atom_site_fract_x
_atom_site_fract_y
_atom_site_fract_z
Si Si1 0.500885 0.432296 0.828036
Si Si2 0.454922 0.597758 0.661245
Si Si3 0.946536 0.415416 0.510543
Si Si4 0.765008 0.682296 0.328036
Si Si5 0.771830 0.165416 0.010544
Si Si6 0.311341 0.847758 0.161246
O O1 0.500000 0.444041 0.750000
O O2 0.547661 0.510662 0.848540
O O3 0.287907 0.400597 0.910944
O O4 0.675318 0.374999 0.799787
O O5 0.510858 0.635212 0.575616
O O6 0.237913 0.625001 0.749999
O O7 0.629871 0.624999 0.663419
O O8 0.000000 0.500000 0.500000
O O9 0.080776 0.375000 0.529482
O O10 0.987705 0.385213 0.424383
O O11 0.729266 0.650596 0.410943
O O12 0.656718 0.760663 0.348543
O O13 0.000000 0.694043 0.250000
O O14 0.750000 0.250000 0.000000
#
# Coordination Sequence:
#
# PCOD8132601 Si02
#       6
#     8   8   8   8   8   8
#     4  12  24  40  64  98 129 164 213 273 317 371
#     4  10  18  38  66  85 122 170 215 243 309 385
#     4  11  20  38  66  92 120 171 214 249 308 386
#     4  12  24  40  64  98 129 164 213 273 317 371
#     4  11  20  38  66  92 120 171 214 249 308 386
#     4  10  18  38  66  85 122 170 215 243 309 385
#
# _framework density 19.903777000000002
#
# number of rings (size 3 to 8) (size 9 to 14) (size 15 to 20)
#    0.000    1.000   10.000    1.000    0.000    1.333 
#    0.000    0.000    0.000    0.000    0.000    0.000 
#    0.000    0.000    0.000    0.000    0.000    0.000 
#
# Total GULP energy -297585.935368 kJ/mol
# GULP energy per Si atom -12399.413974 kJ/mol
# Density = 1.985847 g / cm^3
# Si number density = 19.903777 Si / 1000 Ang^3
#
#
#
# Elastic Constant Matrix: (Units=GPa)
#
#
# Indices 1 2 3 4 5 6 
#
# 1 28.3425 27.3212 12.9645 0.0000 -0.0016 0.0001
# 2 27.3212 166.3376 39.7871 0.0000 -0.0009 0.0000
# 3 12.9645 39.7871 178.3656 0.0000 -0.0048 0.0000
# 4 0.0000 0.0000 0.0000 34.4257 0.0000 0.0000
# 5 -0.0016 -0.0009 -0.0048 0.0000 24.1455 -0.0001
# 6 0.0001 0.0000 0.0000 0.0000 -0.0001 26.7257
#
#
#
# Elastic Compliance Matrix: (Units=1/GPa)
#
#
# Indices 1 2 3 4 5 6 
#
# 1 0.042355 -0.006571 -0.001613 0.000000 0.000002 0.000000
# 2 -0.006571 0.007370 -0.001166 0.000000 0.000000 0.000000
# 3 -0.001613 -0.001166 0.005984 0.000000 0.000001 0.000000
# 4 0.000000 0.000000 0.000000 0.029048 0.000000 0.000000
# 5 0.000002 0.000000 0.000001 0.000000 0.041416 0.000000
# 6 0.000000 0.000000 0.000000 0.000000 0.000000 0.037417
#
#
# Mechanical properties :
#
#
# Convention : Reuss Voigt Hill
#
# Bulk Modulus (GPa) = 27.02101 59.24347 43.13224
# Shear Modulus (GPa) = 25.69030 36.59091 31.14060
#
# Velocity S-wave (km/s) = 3.59656 4.29230 3.95974
# Velocity P-wave (km/s) = 5.55449 7.37527 6.52867
#
# Compressibility (1/GPa) = 0.03700823
#
# Stress axis : x y z
#
# Youngs Moduli (GPa) = 23.61016 135.68204 167.11581
#
# Poissons Ratio (x) = 0.89157 0.26952
# Poissons Ratio (y) = 0.15514 0.19493
# Poissons Ratio (z) = 0.03808 0.15826
#
# Static dielectric constant tensor:
#      x y z
#    x 3.063160 0.000000 -0.000080 
#    y 0.000000 3.695650 0.000000 
#    z -0.000080 0.000000 4.749360 
# 
# 
# High freq. dielectric constant tensor:
#      x y z
#    x 1.715440 0.000000 0.000000 
#    y 0.000000 1.792620 0.000000 
#    z 0.000000 0.000000 1.807300 
# 
# From -- ./inp_files/208950.got.cif
#   From: 2010.06.25/outbox.cif.g09.slc.cpg/sg15_105_cif.got.tgz:208950.got - 2010.06.28 07:06:18.
