data_PCOD8132006
_publ_section_title
;
Structure prediction by ZEFSAII (Michael W. Deem and Ramdas Pophale) SiO2 
 PCOD8132006
Probable space group: C 2/C
;
_chemical_formula_sum "Si O2"
_cell_formula_units_Z 64
_cell_length_a 24.455574
_cell_length_b 13.640290
_cell_length_c 14.034792
_cell_angle_alpha 90.000000
_cell_angle_beta 138.274762
_cell_angle_gamma 90.000000
_cell_volume 3115.976108
_symmetry_space_group_name_H-M "C 2/C"
_symmetry_group_IT_number 15
_symmetry_cell_setting 'monoclinic'
loop_
_space_group_symop_operation_xyz
x,y,z
-x,y,1/2-z
-x,-y,-z
x,-y,1/2+z
1/2+x,1/2+y,z
1/2-x,1/2+y,1/2-z
1/2-x,1/2-y,-z
1/2+x,1/2-y,1/2+z
loop_
_atom_site_type_symbol
_atom_site_label
_atom_site_fract_x
_atom_site_fract_y
_atom_site_fract_z
Si Si1 0.399230 0.240506 0.775266
Si Si2 0.184864 0.636411 0.677019
Si Si3 0.768104 0.984666 0.902412
Si Si4 0.583881 0.766254 0.544441
Si Si5 0.595670 0.624308 0.383378
Si Si6 0.437404 0.012440 0.536097
Si Si7 0.889738 0.534632 0.685003
Si Si8 0.263260 0.764340 0.629226
O O1 0.327785 0.221757 0.760291
O O2 0.372655 0.331075 0.675444
O O3 0.403626 0.151247 0.705650
O O4 0.488397 0.259069 0.941015
O O5 0.252980 0.555371 0.792229
O O6 0.099871 0.576096 0.573310
O O7 0.205241 0.683780 0.602769
O O8 0.697887 0.000413 0.890669
O O9 0.769720 0.870295 0.879440
O O10 0.857856 0.019992 0.052643
O O11 0.614856 0.698461 0.496386
O O12 0.593765 0.881160 0.536026
O O13 0.642798 0.746160 0.712927
O O14 0.500000 0.601781 0.250000
O O15 0.401902 0.995602 0.595342
O O16 0.534826 0.992774 0.652867
O O17 0.250000 0.750000 0.500000
#
# Coordination Sequence:
#
# PCOD8132006 Si02
#       8
#     8   8   8   8   8   8   8   8
#     4   9  20  35  61  97 121 154 208 265 319 364
#     4  11  23  38  60  94 126 161 214 266 311 387
#     4  11  23  39  64  92 120 168 210 257 318 378
#     4  10  19  37  65  89 126 165 204 257 316 382
#     4  10  20  41  66  94 127 165 214 269 317 372
#     4  10  18  35  58  93 130 161 195 254 329 382
#     4   9  19  32  60  95 126 158 201 255 322 382
#     4  12  26  44  59  89 131 171 212 258 319 384
#
# _framework density 20.53931
#
# number of rings (size 3 to 8) (size 9 to 14) (size 15 to 20)
#    0.000    1.750    3.750    0.750    1.750    4.500 
#    2.250    1.250    0.000    3.000    0.000    0.000 
#    0.000    0.000    0.000    0.000    0.000    0.000 
#
# Total GULP energy -396567.599081 kJ/mol
# GULP energy per Si atom -12392.737471 kJ/mol
# Density = 2.049256 g / cm^3
# Si number density = 20.539310 Si / 1000 Ang^3
#
#
#
# Elastic Constant Matrix: (Units=GPa)
#
#
# Indices 1 2 3 4 5 6 
#
# 1 76.8460 34.6952 25.0756 0.0000 -7.1349 0.0000
# 2 34.6952 83.1409 36.2142 0.0000 4.1884 0.0000
# 3 25.0756 36.2142 111.1846 0.0000 -2.5433 0.0000
# 4 0.0000 0.0000 0.0000 27.2706 0.0000 4.2362
# 5 -7.1349 4.1884 -2.5433 0.0000 22.6414 0.0000
# 6 0.0000 0.0000 0.0000 4.2362 0.0000 25.4775
#
#
#
# Elastic Compliance Matrix: (Units=1/GPa)
#
#
# Indices 1 2 3 4 5 6 
#
# 1 0.017202 -0.006855 -0.001498 0.000000 0.006521 0.000000
# 2 -0.006855 0.016970 -0.004113 0.000000 -0.005761 0.000000
# 3 -0.001498 -0.004113 0.010706 0.000000 0.001491 0.000000
# 4 0.000000 0.000000 0.000000 0.037642 0.000000 -0.006259
# 5 0.006521 -0.005761 0.001491 0.000000 0.047455 0.000000
# 6 0.000000 0.000000 0.000000 -0.006259 0.000000 0.040291
#
#
# Mechanical properties :
#
#
# Convention : Reuss Voigt Hill
#
# Bulk Modulus (GPa) = 50.13400 51.46017 50.79709
# Shear Modulus (GPa) = 24.77141 26.75700 25.76420
#
# Velocity S-wave (km/s) = 3.47659 3.61324 3.54557
# Velocity P-wave (km/s) = 6.37004 6.52044 6.44568
#
# Compressibility (1/GPa) = 0.01994654
#
# Stress axis : x y z
#
# Youngs Moduli (GPa) = 58.13288 58.92717 93.40816
#
# Poissons Ratio (x) = 0.40392 0.13991
# Poissons Ratio (y) = 0.39848 0.38421
# Poissons Ratio (z) = 0.08707 0.24238
#
# Static dielectric constant tensor:
#      x y z
#    x 3.413500 0.000000 0.049410 
#    y 0.000000 3.635230 0.000000 
#    z 0.049410 0.000000 3.889560 
# 
# 
# High freq. dielectric constant tensor:
#      x y z
#    x 1.790950 0.000000 0.001760 
#    y 0.000000 1.784980 0.000000 
#    z 0.001760 0.000000 1.809820 
# 
# From -- ./inp_files/178183.got.cif
#   From: 2010.06.25/outbox.cif.g09.slc.cpg/sg15_90_cif.got.tgz:178183.got - 2010.06.28 07:06:18.
