data_PCOD8132126
_publ_section_title
;
Structure prediction by ZEFSAII (Michael W. Deem and Ramdas Pophale) SiO2 
 PCOD8132126
Probable space group: C 2/C
;
_chemical_formula_sum "Si O2"
_cell_formula_units_Z 60
_cell_length_a 9.114270
_cell_length_b 13.265670
_cell_length_c 24.792357
_cell_angle_alpha 90.000000
_cell_angle_beta 98.210009
_cell_angle_gamma 90.000000
_cell_volume 2966.845817
_symmetry_space_group_name_H-M "C 2/C"
_symmetry_group_IT_number 15
_symmetry_cell_setting 'monoclinic'
loop_
_space_group_symop_operation_xyz
x,y,z
-x,y,1/2-z
-x,-y,-z
x,-y,1/2+z
1/2+x,1/2+y,z
1/2-x,1/2+y,1/2-z
1/2-x,1/2-y,-z
1/2+x,1/2-y,1/2+z
loop_
_atom_site_type_symbol
_atom_site_label
_atom_site_fract_x
_atom_site_fract_y
_atom_site_fract_z
Si Si1 0.757578 0.524840 0.837553
Si Si2 0.181076 0.863080 0.170475
Si Si3 0.921222 0.231387 0.514871
Si Si4 0.874672 0.326612 0.891033
Si Si5 0.492172 0.816067 0.310601
Si Si6 0.440860 0.689457 0.084994
Si Si7 0.036810 0.956047 0.415733
Si Si8 0.000000 0.963243 0.250000
O O1 0.866675 0.437989 0.865267
O O2 0.675709 0.574510 0.884506
O O3 0.619030 0.476859 0.794368
O O4 0.853468 0.608216 0.810982
O O5 0.127754 0.747936 0.159991
O O6 0.357016 0.879436 0.175613
O O7 0.112514 0.893074 0.223545
O O8 0.119842 0.932109 0.119569
O O9 0.750000 0.250000 0.500000
O O10 0.948038 0.113731 0.530802
O O11 0.982006 0.308568 0.563825
O O12 0.998711 0.255389 0.461593
O O13 0.735032 0.297590 0.921073
O O14 0.500000 0.770112 0.250000
O O15 0.483720 0.726621 0.354650
O O16 0.472813 0.573697 0.072978
#
# Coordination Sequence:
#
# PCOD8132126 Si02
#       8
#     8   8   8   8   8   8   8   4
#     4  10  20  38  59  84 120 154 196 247 299 357
#     4   9  19  37  55  82 114 153 187 243 291 351
#     4  11  21  37  64  91 121 154 198 254 305 352
#     4   9  21  40  57  85 120 153 196 241 302 355
#     4  11  21  38  57  87 122 151 199 250 291 341
#     4  10  21  39  61  87 114 164 199 239 294 365
#     4   9  20  39  60  87 120 151 199 243 298 364
#     4  10  18  36  56  78 112 158 194 234 300 350
#
# _framework density 20.223497999999999
#
# number of rings (size 3 to 8) (size 9 to 14) (size 15 to 20)
#    0.000    2.133    1.333    1.600    0.000    1.067 
#   20.400    7.333    0.000    0.000    0.000    0.000 
#    0.000    0.000    0.000    0.000    0.000    0.000 
#
# Total GULP energy -371705.357334 kJ/mol
# GULP energy per Si atom -12390.178578 kJ/mol
# Density = 2.017747 g / cm^3
# Si number density = 20.223498 Si / 1000 Ang^3
#
#
#
# Elastic Constant Matrix: (Units=GPa)
#
#
# Indices 1 2 3 4 5 6 
#
# 1 87.7661 23.3994 39.9126 0.0000 17.3324 0.0000
# 2 23.3994 72.2378 37.4405 0.0000 11.4203 0.0000
# 3 39.9126 37.4405 111.7038 0.0000 6.3948 0.0000
# 4 0.0000 0.0000 0.0000 20.0954 0.0000 -1.8061
# 5 17.3324 11.4203 6.3948 0.0000 40.4063 0.0000
# 6 0.0000 0.0000 0.0000 -1.8061 0.0000 23.2485
#
#
#
# Elastic Compliance Matrix: (Units=1/GPa)
#
#
# Indices 1 2 3 4 5 6 
#
# 1 0.014901 -0.001693 -0.004459 0.000000 -0.005208 0.000000
# 2 -0.001693 0.017572 -0.005088 0.000000 -0.003435 0.000000
# 3 -0.004459 -0.005088 0.012169 0.000000 0.001425 0.000000
# 4 0.000000 0.000000 0.000000 0.050113 0.000000 0.003893
# 5 -0.005208 -0.003435 0.001425 0.000000 0.027728 0.000000
# 6 0.000000 0.000000 0.000000 0.003893 0.000000 0.043316
#
#
# Mechanical properties :
#
#
# Convention : Reuss Voigt Hill
#
# Bulk Modulus (GPa) = 45.12008 52.57920 48.84964
# Shear Modulus (GPa) = 25.55377 28.14706 26.85041
#
# Velocity S-wave (km/s) = 3.55853 3.73473 3.64769
# Velocity P-wave (km/s) = 6.26445 6.68230 6.47674
#
# Compressibility (1/GPa) = 0.02216308
#
# Stress axis : x y z
#
# Youngs Moduli (GPa) = 67.10779 56.90980 82.17374
#
# Poissons Ratio (x) = 0.09632 0.36641
# Poissons Ratio (y) = 0.11358 0.41812
# Poissons Ratio (z) = 0.29923 0.28957
#
# Static dielectric constant tensor:
#      x y z
#    x 3.773370 0.000000 -0.044220 
#    y 0.000000 3.643080 0.000000 
#    z -0.044220 0.000000 3.888300 
# 
# 
# High freq. dielectric constant tensor:
#      x y z
#    x 1.793820 0.000000 0.001540 
#    y 0.000000 1.761910 0.000000 
#    z 0.001540 0.000000 1.801240 
# 
# From -- ./inp_files/264353.got.cif
#   From: 2010.06.25/outbox.cif.g09.slc.cpg/sg15_133_cif.got.tgz:264353.got - 2010.06.28 07:06:18.
