data_PCOD8132011
_publ_section_title
;
Structure prediction by ZEFSAII (Michael W. Deem and Ramdas Pophale) SiO2 
 PCOD8132011
Probable space group: C 2/C
;
_chemical_formula_sum "Si O2"
_cell_formula_units_Z 52
_cell_length_a 25.903637
_cell_length_b 8.842868
_cell_length_c 17.879451
_cell_angle_alpha 90.000000
_cell_angle_beta 136.500707
_cell_angle_gamma 90.000000
_cell_volume 2819.126886
_symmetry_space_group_name_H-M "C 2/C"
_symmetry_group_IT_number 15
_symmetry_cell_setting 'monoclinic'
loop_
_space_group_symop_operation_xyz
x,y,z
-x,y,1/2-z
-x,-y,-z
x,-y,1/2+z
1/2+x,1/2+y,z
1/2-x,1/2+y,1/2-z
1/2-x,1/2-y,-z
1/2+x,1/2-y,1/2+z
loop_
_atom_site_type_symbol
_atom_site_label
_atom_site_fract_x
_atom_site_fract_y
_atom_site_fract_z
Si Si1 0.749455 0.694573 0.898618
Si Si2 0.735013 0.302987 0.069021
Si Si3 0.500000 0.670352 0.750000
Si Si4 0.841331 0.071764 0.575081
Si Si5 0.159530 0.463006 0.581630
Si Si6 0.350836 0.973265 0.754866
Si Si7 0.992909 0.457425 0.659365
O O1 0.708999 0.559171 0.902594
O O2 0.787269 0.611619 0.868030
O O3 0.689140 0.824478 0.819504
O O4 0.819245 0.764145 0.018151
O O5 0.701963 0.178103 0.089362
O O6 0.808674 0.373660 0.185603
O O7 0.750000 0.250000 0.000000
O O8 0.674389 0.437868 0.999523
O O9 0.428624 0.563793 0.686993
O O10 0.487971 0.775149 0.663808
O O11 0.145242 0.442606 0.653365
O O12 0.080387 0.479338 0.457476
O O13 0.434553 0.995079 0.813260
O O14 0.000000 0.532095 0.750000
#
# Coordination Sequence:
#
# PCOD8132011 Si02
#       7
#     8   8   4   8   8   8   8
#     4  10  18  35  59  82 107 157 199 234 280 354
#     4  11  23  39  60  91 119 154 200 250 293 350
#     4  10  18  36  60  90 104 152 202 246 272 352
#     4  10  19  35  61  82 111 147 202 242 278 339
#     4  12  22  38  58  91 125 152 194 252 307 352
#     4  11  23  38  60  86 124 160 193 246 308 351
#     4  10  20  37  63  85 109 158 212 240 279 359
#
# _framework density 18.445426999999999
#
# number of rings (size 3 to 8) (size 9 to 14) (size 15 to 20)
#    0.462    0.923    4.615    2.308    2.154    0.000 
#    4.154    0.000    0.000    0.923    0.000    0.000 
#    0.000    0.000    0.000    0.000    0.000    0.000 
#
# Total GULP energy -322235.099540 kJ/mol
# GULP energy per Si atom -12393.657675 kJ/mol
# Density = 1.840344 g / cm^3
# Si number density = 18.445427 Si / 1000 Ang^3
#
#
#
# Elastic Constant Matrix: (Units=GPa)
#
#
# Indices 1 2 3 4 5 6 
#
# 1 130.1197 44.5952 41.7889 0.0000 -2.7034 0.0000
# 2 44.5952 64.6105 33.0385 0.0000 8.2882 0.0000
# 3 41.7889 33.0385 81.1645 0.0000 -0.6029 0.0000
# 4 0.0000 0.0000 0.0000 22.7797 0.0000 -1.5443
# 5 -2.7034 8.2882 -0.6029 0.0000 42.9658 0.0000
# 6 0.0000 0.0000 0.0000 -1.5443 0.0000 26.2998
#
#
#
# Elastic Compliance Matrix: (Units=1/GPa)
#
#
# Indices 1 2 3 4 5 6 
#
# 1 0.010805 -0.006129 -0.003055 0.000000 0.001819 0.000000
# 2 -0.006129 0.023692 -0.006526 0.000000 -0.005047 0.000000
# 3 -0.003055 -0.006526 0.016559 0.000000 0.001299 0.000000
# 4 0.000000 0.000000 0.000000 0.044074 0.000000 0.002588
# 5 0.001819 -0.005047 0.001299 0.000000 0.024381 0.000000
# 6 0.000000 0.000000 0.000000 0.002588 0.000000 0.038175
#
#
# Mechanical properties :
#
#
# Convention : Reuss Voigt Hill
#
# Bulk Modulus (GPa) = 50.92359 57.19332 54.05845
# Shear Modulus (GPa) = 25.55576 28.84054 27.19815
#
# Velocity S-wave (km/s) = 3.72624 3.95848 3.84411
# Velocity P-wave (km/s) = 6.79565 7.20880 7.00527
#
# Compressibility (1/GPa) = 0.01963726
#
# Stress axis : x y z
#
# Youngs Moduli (GPa) = 92.55356 42.20815 60.38856
#
# Poissons Ratio (x) = 0.25869 0.18446
# Poissons Ratio (y) = 0.56725 0.39409
# Poissons Ratio (z) = 0.28271 0.27545
#
# Static dielectric constant tensor:
#      x y z
#    x 3.373690 0.000000 0.024430 
#    y 0.000000 3.305590 0.000000 
#    z 0.024430 0.000000 3.311080 
# 
# 
# High freq. dielectric constant tensor:
#      x y z
#    x 1.718830 0.000000 0.009410 
#    y 0.000000 1.705250 0.000000 
#    z 0.009410 0.000000 1.711710 
# 
# From -- ./inp_files/221829.got.cif
#   From: 2010.06.25/outbox.cif.g09.slc.cpg/sg15_111_cif.got.tgz:221829.got - 2010.06.28 07:06:18.
