data_PCOD8132524
_publ_section_title
;
Structure prediction by ZEFSAII (Michael W. Deem and Ramdas Pophale) SiO2 
 PCOD8132524
Probable space group: C 2/C
;
_chemical_formula_sum "Si O2"
_cell_formula_units_Z 56
_cell_length_a 12.298763
_cell_length_b 31.173647
_cell_length_c 9.464422
_cell_angle_alpha 90.000000
_cell_angle_beta 51.124540
_cell_angle_gamma 90.000000
_cell_volume 2824.935092
_symmetry_space_group_name_H-M "C 2/C"
_symmetry_group_IT_number 15
_symmetry_cell_setting 'monoclinic'
loop_
_space_group_symop_operation_xyz
x,y,z
-x,y,1/2-z
-x,-y,-z
x,-y,1/2+z
1/2+x,1/2+y,z
1/2-x,1/2+y,1/2-z
1/2-x,1/2-y,-z
1/2+x,1/2-y,1/2+z
loop_
_atom_site_type_symbol
_atom_site_label
_atom_site_fract_x
_atom_site_fract_y
_atom_site_fract_z
Si Si1 0.960525 0.819889 0.129854
Si Si2 0.725277 0.368717 0.818761
Si Si3 0.900086 0.755014 0.947266
Si Si4 0.717071 0.119464 0.914623
Si Si5 0.027901 0.659326 0.568317
Si Si6 0.431729 0.445863 0.669769
Si Si7 0.881845 0.960245 0.238000
O O1 0.857786 0.859541 0.238740
O O2 0.000000 0.799548 0.250000
O O3 0.884083 0.783857 0.099636
O O4 0.095363 0.836392 0.935573
O O5 0.820370 0.353630 0.611673
O O6 0.678160 0.416630 0.821394
O O7 0.807036 0.369614 0.900954
O O8 0.976073 0.710855 0.931096
O O9 0.000000 0.777529 0.750000
O O10 0.750000 0.750000 0.000000
O O11 0.585277 0.137578 0.939926
O O12 0.741213 0.068231 0.874016
O O13 0.000000 0.642436 0.750000
O O14 0.500000 0.422360 0.750000
O O15 0.563733 0.456471 0.465052
O O16 0.351539 0.489199 0.787596
O O17 0.000000 0.943088 0.250000
#
# Coordination Sequence:
#
# PCOD8132524 Si02
#       7
#     8   8   8   8   8   8   8
#     4  10  21  37  65  90 114 149 204 249 290 353
#     4  11  22  40  60  89 119 160 200 245 298 357
#     4  11  23  42  61  85 120 158 195 248 306 353
#     4  11  21  40  61  87 123 158 192 246 303 354
#     4  11  26  41  58  85 122 159 198 242 301 364
#     4  10  21  32  62  95 120 152 204 249 297 346
#     4  10  18  38  60  91 124 155 195 252 297 353
#
# _framework density 19.823464000000001
#
# number of rings (size 3 to 8) (size 9 to 14) (size 15 to 20)
#    0.000    1.429    2.857    3.429    2.000    2.857 
#    0.000    4.286    0.000    0.000    0.000    0.000 
#    0.000    0.000    0.000    0.000    0.000    0.000 
#
# Total GULP energy -347198.028622 kJ/mol
# GULP energy per Si atom -12399.929594 kJ/mol
# Density = 1.977835 g / cm^3
# Si number density = 19.823464 Si / 1000 Ang^3
#
#
#
# Elastic Constant Matrix: (Units=GPa)
#
#
# Indices 1 2 3 4 5 6 
#
# 1 117.6045 43.8762 39.0611 0.0000 14.0189 0.0000
# 2 43.8762 88.0124 28.4561 0.0000 11.8945 0.0000
# 3 39.0611 28.4561 125.3421 0.0000 3.5142 0.0000
# 4 0.0000 0.0000 0.0000 27.7619 0.0000 6.2185
# 5 14.0189 11.8945 3.5142 0.0000 30.6044 0.0000
# 6 0.0000 0.0000 0.0000 6.2185 0.0000 30.4281
#
#
#
# Elastic Compliance Matrix: (Units=1/GPa)
#
#
# Indices 1 2 3 4 5 6 
#
# 1 0.011350 -0.004438 -0.002440 0.000000 -0.003194 0.000000
# 2 -0.004438 0.014636 -0.001843 0.000000 -0.003444 0.000000
# 3 -0.002440 -0.001843 0.009135 0.000000 0.000785 0.000000
# 4 0.000000 0.000000 0.000000 0.037749 0.000000 -0.007715
# 5 -0.003194 -0.003444 0.000785 0.000000 0.035386 0.000000
# 6 0.000000 0.000000 0.000000 -0.007715 0.000000 0.034441
#
#
# Mechanical properties :
#
#
# Convention : Reuss Voigt Hill
#
# Bulk Modulus (GPa) = 56.56476 61.52731 59.04603
# Shear Modulus (GPa) = 30.11488 32.39661 31.25574
#
# Velocity S-wave (km/s) = 3.90186 4.04698 3.97508
# Velocity P-wave (km/s) = 6.99253 7.27615 7.13575
#
# Compressibility (1/GPa) = 0.01767885
#
# Stress axis : x y z
#
# Youngs Moduli (GPa) = 88.10702 68.32642 109.46893
#
# Poissons Ratio (x) = 0.30320 0.26711
# Poissons Ratio (y) = 0.39098 0.20178
# Poissons Ratio (z) = 0.21498 0.12594
#
# Static dielectric constant tensor:
#      x y z
#    x 3.501470 0.000000 0.244890 
#    y 0.000000 3.580400 0.000000 
#    z 0.244890 0.000000 3.851700 
# 
# 
# High freq. dielectric constant tensor:
#      x y z
#    x 1.761370 0.000000 0.021570 
#    y 0.000000 1.767080 0.000000 
#    z 0.021570 0.000000 1.781780 
# 
# From -- ./inp_files/35557.got.cif
#   From: 2010.06.25/outbox.cif.g09.slc.cpg/sg15_18_cif.got.tgz:35557.got - 2010.06.28 07:06:18.
