data_PCOD8132083
_publ_section_title
;
Structure prediction by ZEFSAII (Michael W. Deem and Ramdas Pophale) SiO2 
 PCOD8132083
Probable space group: C 2/C
;
_chemical_formula_sum "Si O2"
_cell_formula_units_Z 48
_cell_length_a 8.089480
_cell_length_b 25.975920
_cell_length_c 15.840811
_cell_angle_alpha 90.000000
_cell_angle_beta 140.363155
_cell_angle_gamma 90.000000
_cell_volume 2123.414269
_symmetry_space_group_name_H-M "C 2/C"
_symmetry_group_IT_number 15
_symmetry_cell_setting 'monoclinic'
loop_
_space_group_symop_operation_xyz
x,y,z
-x,y,1/2-z
-x,-y,-z
x,-y,1/2+z
1/2+x,1/2+y,z
1/2-x,1/2+y,1/2-z
1/2-x,1/2-y,-z
1/2+x,1/2-y,1/2+z
loop_
_atom_site_type_symbol
_atom_site_label
_atom_site_fract_x
_atom_site_fract_y
_atom_site_fract_z
Si Si1 0.673563 0.371008 0.893723
Si Si2 0.154010 0.156784 0.682725
Si Si3 0.105434 0.958827 0.195611
Si Si4 0.587725 0.708594 0.489098
Si Si5 0.856335 0.693441 0.933230
Si Si6 0.870866 0.522403 0.530931
O O1 0.500000 0.393987 0.750000
O O2 0.502718 0.337883 0.893712
O O3 0.811581 0.417507 0.996190
O O4 0.879447 0.332634 0.929747
O O5 0.135563 0.095811 0.662023
O O6 0.238406 0.183459 0.628164
O O7 0.348932 0.172664 0.833451
O O8 0.870482 0.175642 0.596721
O O9 0.397521 0.983679 0.308355
O O10 0.000000 0.951945 0.250000
O O11 0.900681 0.992180 0.058974
O O12 0.750000 0.750000 0.500000
O O13 0.352068 0.743849 0.431852
O O14 0.000000 0.500000 0.500000
#
# Coordination Sequence:
#
# PCOD8132083 Si02
#       6
#     8   8   8   8   8   8
#     4  11  22  39  58  91 129 166 213 266 321 385
#     4  11  20  41  67  92 128 165 221 266 321 395
#     4  10  18  35  63  97 126 170 219 268 328 388
#     4  10  25  38  61  93 127 171 213 265 326 386
#     4  10  21  39  65  91 123 167 217 262 327 381
#     4  10  19  35  62  95 125 171 220 267 323 392
#
# _framework density 22.605104000000001
#
# number of rings (size 3 to 8) (size 9 to 14) (size 15 to 20)
#    0.000    1.667    3.333    3.000    4.667    2.000 
#    0.000    0.833    0.000    2.000    0.000    0.000 
#    0.000    0.000    0.000    0.000    0.000    0.000 
#
# Total GULP energy -297338.977246 kJ/mol
# GULP energy per Si atom -12389.124052 kJ/mol
# Density = 2.255365 g / cm^3
# Si number density = 22.605104 Si / 1000 Ang^3
#
#
#
# Elastic Constant Matrix: (Units=GPa)
#
#
# Indices 1 2 3 4 5 6 
#
# 1 38.7877 20.9853 42.0215 0.0000 -5.7454 0.0000
# 2 20.9853 145.6264 42.1171 0.0000 11.7083 0.0000
# 3 42.0215 42.1171 114.9210 0.0000 23.3717 0.0000
# 4 0.0000 0.0000 0.0000 38.1212 0.0000 0.6364
# 5 -5.7454 11.7083 23.3717 0.0000 34.4330 0.0000
# 6 0.0000 0.0000 0.0000 0.6364 0.0000 16.8332
#
#
#
# Elastic Compliance Matrix: (Units=1/GPa)
#
#
# Indices 1 2 3 4 5 6 
#
# 1 0.061909 -0.003384 -0.027533 0.000000 0.030169 0.000000
# 2 -0.003384 0.007886 -0.001151 0.000000 -0.002465 0.000000
# 3 -0.027533 -0.001151 0.023256 0.000000 -0.019988 0.000000
# 4 0.000000 0.000000 0.000000 0.026249 0.000000 -0.000992
# 5 0.030169 -0.002465 -0.019988 0.000000 0.048481 0.000000
# 6 0.000000 0.000000 0.000000 -0.000992 0.000000 0.059444
#
#
# Mechanical properties :
#
#
# Convention : Reuss Voigt Hill
#
# Bulk Modulus (GPa) = 34.58464 56.62033 45.60248
# Shear Modulus (GPa) = 16.61140 30.82491 23.71815
#
# Velocity S-wave (km/s) = 2.71376 3.69674 3.24271
# Velocity P-wave (km/s) = 5.01518 6.58203 5.85129
#
# Compressibility (1/GPa) = 0.02891457
#
# Stress axis : x y z
#
# Youngs Moduli (GPa) = 16.15273 126.81204 42.99970
#
# Poissons Ratio (x) = 0.42914 1.18389
# Poissons Ratio (y) = 0.05466 0.04951
# Poissons Ratio (z) = 0.44473 0.14601
#
# Static dielectric constant tensor:
#      x y z
#    x 4.000420 0.000000 0.322160 
#    y 0.000000 4.046340 0.000000 
#    z 0.322160 0.000000 4.317990 
# 
# 
# High freq. dielectric constant tensor:
#      x y z
#    x 1.871050 0.000000 0.013470 
#    y 0.000000 1.903580 0.000000 
#    z 0.013470 0.000000 1.879450 
# 
# From -- ./inp_files/139036.got.cif
#   From: 2010.06.25/outbox.cif.g09.slc.cpg/sg15_70_cif.got.tgz:139036.got - 2010.06.28 07:06:18.
