data_PCOD8132904
_publ_section_title
;
Structure prediction by ZEFSAII (Michael W. Deem and Ramdas Pophale) SiO2 
 PCOD8132904
Probable space group: C 2/C
;
_chemical_formula_sum "Si O2"
_cell_formula_units_Z 52
_cell_length_a 15.352394
_cell_length_b 8.869622
_cell_length_c 27.135816
_cell_angle_alpha 90.000000
_cell_angle_beta 125.035617
_cell_angle_gamma 90.000000
_cell_volume 3025.516061
_symmetry_space_group_name_H-M "C 2/C"
_symmetry_group_IT_number 15
_symmetry_cell_setting 'monoclinic'
loop_
_space_group_symop_operation_xyz
x,y,z
-x,y,1/2-z
-x,-y,-z
x,-y,1/2+z
1/2+x,1/2+y,z
1/2-x,1/2+y,1/2-z
1/2-x,1/2-y,-z
1/2+x,1/2-y,1/2+z
loop_
_atom_site_type_symbol
_atom_site_label
_atom_site_fract_x
_atom_site_fract_y
_atom_site_fract_z
Si Si1 0.500000 0.745359 0.250000
Si Si2 0.027648 0.620207 0.940750
Si Si3 0.202600 0.317556 0.365639
Si Si4 0.098695 0.150244 0.933287
Si Si5 0.079094 0.326472 0.566792
Si Si6 0.461387 0.642360 0.135475
Si Si7 0.207529 0.440503 0.942961
O O1 0.608612 0.841540 0.294300
O O2 0.524756 0.649522 0.208282
O O3 0.986407 0.751427 0.890226
O O4 0.125490 0.531542 0.949421
O O5 0.931318 0.502408 0.920556
O O6 0.068481 0.694024 0.004644
O O7 0.308550 0.241182 0.378020
O O8 0.158649 0.204152 0.393933
O O9 0.225119 0.482243 0.395630
O O10 0.163832 0.270431 0.921179
O O11 0.013750 0.231108 0.939442
O O12 0.038761 0.031948 0.879094
O O13 0.178937 0.058551 0.993862
#
# Coordination Sequence:
#
# PCOD8132904 Si02
#       7
#     4   8   8   8   8   8   8
#     4   8  20  36  56  68  88 140 196 210 220 302
#     4   9  18  32  51  76 101 140 163 197 265 327
#     4   9  18  35  54  68  98 140 181 207 245 302
#     4  10  19  30  50  82 114 123 159 216 269 315
#     4  10  19  30  50  82 110 124 160 215 268 313
#     4   9  18  35  54  66 101 139 178 209 245 301
#     4   9  18  32  51  77 104 139 163 200 265 325
#
# _framework density 17.187151
#
# number of rings (size 3 to 8) (size 9 to 14) (size 15 to 20)
#    0.923    1.846    0.000    1.846    0.000    6.154 
#    0.000    2.308    0.000    0.000    0.000    0.000 
#    0.000    0.000    0.000    0.000    0.000    0.000 
#
# Total GULP energy -322148.364308 kJ/mol
# GULP energy per Si atom -12390.321704 kJ/mol
# Density = 1.714803 g / cm^3
# Si number density = 17.187151 Si / 1000 Ang^3
#
#
#
# Elastic Constant Matrix: (Units=GPa)
#
#
# Indices 1 2 3 4 5 6 
#
# 1 46.7873 15.3928 24.9822 0.0000 7.2306 0.0000
# 2 15.3928 82.6394 45.9481 0.0000 -5.3610 0.0000
# 3 24.9822 45.9481 109.7174 0.0000 0.4878 0.0000
# 4 0.0000 0.0000 0.0000 17.8194 0.0000 -2.0812
# 5 7.2306 -5.3610 0.4878 0.0000 27.2361 0.0000
# 6 0.0000 0.0000 0.0000 -2.0812 0.0000 17.5881
#
#
#
# Elastic Compliance Matrix: (Units=1/GPa)
#
#
# Indices 1 2 3 4 5 6 
#
# 1 0.025918 -0.002658 -0.004756 0.000000 -0.007319 0.000000
# 2 -0.002658 0.016334 -0.006253 0.000000 0.004033 0.000000
# 3 -0.004756 -0.006253 0.012817 0.000000 -0.000198 0.000000
# 4 0.000000 0.000000 0.000000 0.056905 0.000000 0.006734
# 5 -0.007319 0.004033 -0.000198 0.000000 0.039456 0.000000
# 6 0.000000 0.000000 0.000000 0.006734 0.000000 0.057653
#
#
# Mechanical properties :
#
#
# Convention : Reuss Voigt Hill
#
# Bulk Modulus (GPa) = 36.05547 45.75447 40.90497
# Shear Modulus (GPa) = 20.35305 22.71681 21.53493
#
# Velocity S-wave (km/s) = 3.44496 3.63951 3.54357
# Velocity P-wave (km/s) = 6.07020 6.65886 6.37133
#
# Compressibility (1/GPa) = 0.02773504
#
# Stress axis : x y z
#
# Youngs Moduli (GPa) = 38.58291 61.22061 78.02239
#
# Poissons Ratio (x) = 0.16274 0.37105
# Poissons Ratio (y) = 0.10256 0.48789
# Poissons Ratio (z) = 0.18349 0.38283
#
# Static dielectric constant tensor:
#      x y z
#    x 3.137300 0.000000 -0.050710 
#    y 0.000000 3.296420 0.000000 
#    z -0.050710 0.000000 2.964400 
# 
# 
# High freq. dielectric constant tensor:
#      x y z
#    x 1.655380 0.000000 -0.001810 
#    y 0.000000 1.661650 0.000000 
#    z -0.001810 0.000000 1.635190 
# 
# From -- ./inp_files/312562.got.cif
#   From: 2010.06.25/outbox.cif.g09.slc.cpg/sg15_157_cif.got.tgz:312562.got - 2010.06.28 07:06:18.
