data_PCOD8132621
_publ_section_title
;
Structure prediction by ZEFSAII (Michael W. Deem and Ramdas Pophale) SiO2 
 PCOD8132621
Probable space group: C 2/C
;
_chemical_formula_sum "Si O2"
_cell_formula_units_Z 52
_cell_length_a 8.812726
_cell_length_b 29.621439
_cell_length_c 11.922917
_cell_angle_alpha 90.000000
_cell_angle_beta 56.806304
_cell_angle_gamma 90.000000
_cell_volume 2604.553938
_symmetry_space_group_name_H-M "C 2/C"
_symmetry_group_IT_number 15
_symmetry_cell_setting 'monoclinic'
loop_
_space_group_symop_operation_xyz
x,y,z
-x,y,1/2-z
-x,-y,-z
x,-y,1/2+z
1/2+x,1/2+y,z
1/2-x,1/2+y,1/2-z
1/2-x,1/2-y,-z
1/2+x,1/2-y,1/2+z
loop_
_atom_site_type_symbol
_atom_site_label
_atom_site_fract_x
_atom_site_fract_y
_atom_site_fract_z
Si Si1 0.534989 0.064405 0.974421
Si Si2 0.000000 0.349579 0.750000
Si Si3 0.888746 0.346617 0.189236
Si Si4 0.506367 0.624731 0.873624
Si Si5 0.213752 0.987435 0.694386
Si Si6 0.205230 0.699463 0.985888
Si Si7 0.745786 0.925528 0.616627
O O1 0.523337 0.113057 0.920130
O O2 0.686995 0.035963 0.844516
O O3 0.332243 0.042693 0.057575
O O4 0.597094 0.066383 0.079166
O O5 0.038918 0.317820 0.628336
O O6 0.173528 0.381127 0.711845
O O7 0.707901 0.362777 0.324766
O O8 0.853339 0.304351 0.120905
O O9 0.000000 0.329277 0.250000
O O10 0.500000 0.605597 0.750000
O O11 0.380348 0.668686 0.935323
O O12 0.439900 0.584858 0.982064
O O13 0.229303 0.968165 0.813780
O O14 0.000000 0.989668 0.750000
O O15 0.250000 0.750000 0.000000
#
# Coordination Sequence:
#
# PCOD8132621 Si02
#       7
#     8   4   8   8   8   8   8
#     4  11  23  43  59  86 126 169 210 260 325 377
#     4  10  18  38  68  84 118 166 208 254 298 380
#     4  11  23  40  64  92 129 162 206 263 321 372
#     4   9  19  37  62  90 113 163 202 246 310 383
#     4  11  26  37  60  93 122 160 220 274 312 369
#     4  10  21  37  68  96 121 163 210 253 309 390
#     4  11  19  41  62  80 124 166 211 251 317 377
#
# _framework density 19.965032000000001
#
# number of rings (size 3 to 8) (size 9 to 14) (size 15 to 20)
#    0.000    1.538    6.154    0.000    7.538    3.077 
#    0.000    0.769    0.000    0.000    0.000    0.000 
#    0.000    0.000    0.000    0.000    0.000    0.000 
#
# Total GULP energy -322230.934772 kJ/mol
# GULP energy per Si atom -12393.497491 kJ/mol
# Density = 1.991959 g / cm^3
# Si number density = 19.965032 Si / 1000 Ang^3
#
#
#
# Elastic Constant Matrix: (Units=GPa)
#
#
# Indices 1 2 3 4 5 6 
#
# 1 95.9849 20.0954 41.6520 0.0000 -2.0383 0.0000
# 2 20.0954 93.1649 41.0735 0.0000 13.5201 0.0000
# 3 41.6520 41.0735 109.9500 0.0000 -12.2326 0.0000
# 4 0.0000 0.0000 0.0000 21.1431 0.0000 9.7680
# 5 -2.0383 13.5201 -12.2326 0.0000 37.8112 0.0000
# 6 0.0000 0.0000 0.0000 9.7680 0.0000 11.1094
#
#
#
# Elastic Compliance Matrix: (Units=1/GPa)
#
#
# Indices 1 2 3 4 5 6 
#
# 1 0.012521 -0.000591 -0.004589 0.000000 -0.000599 0.000000
# 2 -0.000591 0.014554 -0.006012 0.000000 -0.007181 0.000000
# 3 -0.004589 -0.006012 0.013787 0.000000 0.006363 0.000000
# 4 0.000000 0.000000 0.000000 0.079653 0.000000 -0.070035
# 5 -0.000599 -0.007181 0.006363 0.000000 0.031041 0.000000
# 6 0.000000 0.000000 0.000000 -0.070035 0.000000 0.151593
#
#
# Mechanical properties :
#
#
# Convention : Reuss Voigt Hill
#
# Bulk Modulus (GPa) = 54.11760 56.08239 55.09999
# Shear Modulus (GPa) = 15.07430 27.09800 21.08615
#
# Velocity S-wave (km/s) = 2.75077 3.68812 3.25338
# Velocity P-wave (km/s) = 6.10361 6.80350 6.46303
#
# Compressibility (1/GPa) = 0.01847828
#
# Stress axis : x y z
#
# Youngs Moduli (GPa) = 79.86796 68.71179 72.53088
#
# Poissons Ratio (x) = 0.04058 0.33285
# Poissons Ratio (y) = 0.04717 0.43604
# Poissons Ratio (z) = 0.36652 0.41308
#
# Static dielectric constant tensor:
#      x y z
#    x 3.036220 0.000000 0.158780 
#    y 0.000000 3.508720 0.000000 
#    z 0.158780 0.000000 3.593400 
# 
# 
# High freq. dielectric constant tensor:
#      x y z
#    x 1.748190 0.000000 -0.020100 
#    y 0.000000 1.762670 0.000000 
#    z -0.020100 0.000000 1.805230 
# 
# From -- ./inp_files/82090.got.cif
#   From: 2010.06.25/outbox.cif.g09.slc.cpg/sg15_42_cif.got.tgz:82090.got - 2010.06.28 07:06:18.
