data_PCOD8132375
_publ_section_title
;
Structure prediction by ZEFSAII (Michael W. Deem and Ramdas Pophale) SiO2 
 PCOD8132375
Probable space group: C 2/C
;
_chemical_formula_sum "Si O2"
_cell_formula_units_Z 48
_cell_length_a 10.308945
_cell_length_b 19.655127
_cell_length_c 11.864391
_cell_angle_alpha 90.000000
_cell_angle_beta 97.732534
_cell_angle_gamma 90.000000
_cell_volume 2382.146168
_symmetry_space_group_name_H-M "C 2/C"
_symmetry_group_IT_number 15
_symmetry_cell_setting 'monoclinic'
loop_
_space_group_symop_operation_xyz
x,y,z
-x,y,1/2-z
-x,-y,-z
x,-y,1/2+z
1/2+x,1/2+y,z
1/2-x,1/2+y,1/2-z
1/2-x,1/2-y,-z
1/2+x,1/2-y,1/2+z
loop_
_atom_site_type_symbol
_atom_site_label
_atom_site_fract_x
_atom_site_fract_y
_atom_site_fract_z
Si Si1 0.698096 0.436963 0.799749
Si Si2 0.626877 0.424534 0.343763
Si Si3 0.960766 0.759396 0.557354
Si Si4 0.955976 0.908623 0.927510
Si Si5 0.702443 0.202475 0.156481
Si Si6 0.765778 0.719365 0.877956
O O1 0.730782 0.517674 0.809951
O O2 0.576598 0.435649 0.870692
O O3 0.668693 0.414597 0.668692
O O4 0.803767 0.380516 0.851119
O O5 0.500000 0.417944 0.250000
O O6 0.572886 0.448228 0.460087
O O7 0.708347 0.355673 0.358529
O O8 0.841020 0.767972 0.628960
O O9 0.916384 0.726959 0.434085
O O10 0.023486 0.831243 0.532696
O O11 0.077182 0.715177 0.627628
O O12 0.689610 0.231491 0.281101
O O13 0.750000 0.750000 0.000000
#
# Coordination Sequence:
#
# PCOD8132375 Si02
#       6
#     8   8   8   8   8   8
#     4  10  20  35  60  81 114 157 189 246 287 349
#     4  12  23  34  56  92 118 149 192 249 299 348
#     4  10  20  38  62  85 112 158 198 241 283 354
#     4  10  18  37  55  82 119 143 190 241 293 340
#     4  10  21  39  62  84 113 160 206 230 293 356
#     4  12  23  36  58  88 126 150 189 251 296 351
#
# _framework density 20.149898
#
# number of rings (size 3 to 8) (size 9 to 14) (size 15 to 20)
#    0.000    1.333    5.000    2.000    0.000    0.000 
#    0.000    0.833    0.000    0.000    4.333    0.000 
#    0.000    0.000    0.000    0.000    0.000    0.000 
#
# Total GULP energy -297386.595146 kJ/mol
# GULP energy per Si atom -12391.108131 kJ/mol
# Density = 2.010404 g / cm^3
# Si number density = 20.149898 Si / 1000 Ang^3
#
#
#
# Elastic Constant Matrix: (Units=GPa)
#
#
# Indices 1 2 3 4 5 6 
#
# 1 31.7516 24.4889 15.1415 0.0000 11.0748 0.0000
# 2 24.4889 152.4073 62.0455 0.0000 19.1087 0.0000
# 3 15.1415 62.0455 118.5660 0.0000 13.4422 0.0000
# 4 0.0000 0.0000 0.0000 -5.3128 0.0000 -4.3480
# 5 11.0748 19.1087 13.4422 0.0000 22.1364 0.0000
# 6 0.0000 0.0000 0.0000 -4.3480 0.0000 22.4210
#
#
#
# Elastic Compliance Matrix: (Units=1/GPa)
#
#
# Indices 1 2 3 4 5 6 
#
# 1 0.040848 -0.004011 -0.001281 0.000000 -0.016196 0.000000
# 2 -0.004011 0.009254 -0.003922 0.000000 -0.003600 0.000000
# 3 -0.001281 -0.003922 0.010947 0.000000 -0.002621 0.000000
# 4 0.000000 0.000000 0.000000 -0.162444 0.000000 -0.031502
# 5 -0.016196 -0.003600 -0.002621 0.000000 0.057976 0.000000
# 6 0.000000 0.000000 0.000000 -0.031502 0.000000 0.038492
#
#
# Mechanical properties :
#
#
# Convention : Reuss Voigt Hill
#
# Bulk Modulus (GPa) = 23.46317 56.23074 39.84696
# Shear Modulus (GPa) = 180.43764 21.25217 100.84491
#
# Velocity S-wave (km/s) = 9.47323 3.25114 7.08209
# Velocity P-wave (km/s) = 11.45974 6.48537 9.31090
#
# Compressibility (1/GPa) = 0.04261998
#
# Stress axis : x y z
#
# Youngs Moduli (GPa) = 24.48085 108.06150 91.34593
#
# Poissons Ratio (x) = 0.43347 0.11704
# Poissons Ratio (y) = 0.09820 0.35828
# Poissons Ratio (z) = 0.03137 0.42384
#
# Static dielectric constant tensor:
#      x y z
#    x 3.497580 0.000000 0.014360 
#    y 0.000000 3.997940 0.000000 
#    z 0.014360 0.000000 3.848050 
# 
# 
# High freq. dielectric constant tensor:
#      x y z
#    x 1.740740 0.000000 -0.001570 
#    y 0.000000 1.795950 0.000000 
#    z -0.001570 0.000000 1.805470 
# 
# From -- ./inp_files/87472.got.cif
#   From: 2010.06.25/outbox.cif.g09.slc.cpg/sg15_44_cif.got.tgz:87472.got - 2010.06.28 07:06:18.
