data_PCOD8132533
_publ_section_title
;
Structure prediction by ZEFSAII (Michael W. Deem and Ramdas Pophale) SiO2 
 PCOD8132533
Probable space group: C 2/C
;
_chemical_formula_sum "Si O2"
_cell_formula_units_Z 52
_cell_length_a 8.787537
_cell_length_b 14.348636
_cell_length_c 20.609616
_cell_angle_alpha 90.000000
_cell_angle_beta 108.452024
_cell_angle_gamma 90.000000
_cell_volume 2465.050245
_symmetry_space_group_name_H-M "C 2/C"
_symmetry_group_IT_number 15
_symmetry_cell_setting 'monoclinic'
loop_
_space_group_symop_operation_xyz
x,y,z
-x,y,1/2-z
-x,-y,-z
x,-y,1/2+z
1/2+x,1/2+y,z
1/2-x,1/2+y,1/2-z
1/2-x,1/2-y,-z
1/2+x,1/2-y,1/2+z
loop_
_atom_site_type_symbol
_atom_site_label
_atom_site_fract_x
_atom_site_fract_y
_atom_site_fract_z
Si Si1 0.226583 0.699141 0.624830
Si Si2 0.500000 0.382889 0.250000
Si Si3 0.824652 0.045568 0.287285
Si Si4 0.694321 0.888502 0.635935
Si Si5 0.471784 0.267884 0.676853
Si Si6 0.677247 0.899939 0.896000
Si Si7 0.183482 0.527407 0.528844
O O1 0.369661 0.682548 0.696314
O O2 0.052184 0.697983 0.636673
O O3 0.239096 0.800319 0.595098
O O4 0.216499 0.625770 0.566826
O O5 0.417267 0.447223 0.294143
O O6 0.728955 0.058785 0.207765
O O7 0.949843 0.128993 0.313427
O O8 0.702588 0.043904 0.332086
O O9 0.504939 0.876693 0.609509
O O10 0.781194 0.787233 0.641340
O O11 0.764513 0.948451 0.584599
O O12 0.500000 0.219665 0.750000
O O13 0.752490 0.962733 0.964789
O O14 0.000000 0.500000 0.500000
#
# Coordination Sequence:
#
# PCOD8132533 Si02
#       7
#     8   4   8   8   8   8   8
#     4  11  23  39  60  93 124 164 210 256 317 368
#     4  12  22  38  64  92 130 162 210 274 312 366
#     4  10  18  38  61  87 116 162 207 252 305 369
#     4  10  18  39  63  86 124 165 203 255 311 367
#     4   9  19  36  61  87 125 154 201 259 311 359
#     4  10  23  36  65  89 123 160 209 254 318 374
#     4  10  21  42  60  89 128 167 202 258 309 378
#
# _framework density 21.094905000000001
#
# number of rings (size 3 to 8) (size 9 to 14) (size 15 to 20)
#    0.000    1.846    3.846    0.923    6.462    0.000 
#    5.538   11.538    0.000    0.000    0.000    0.000 
#    0.000    0.000    0.000    0.000    0.000    0.000 
#
# Total GULP energy -322188.255930 kJ/mol
# GULP energy per Si atom -12391.855997 kJ/mol
# Density = 2.104689 g / cm^3
# Si number density = 21.094905 Si / 1000 Ang^3
#
#
#
# Elastic Constant Matrix: (Units=GPa)
#
#
# Indices 1 2 3 4 5 6 
#
# 1 81.0432 5.5323 31.1975 0.0000 -14.3383 0.0000
# 2 5.5323 28.1374 10.8099 0.0000 0.7790 0.0000
# 3 31.1975 10.8099 117.5559 0.0000 -4.7822 0.0000
# 4 0.0000 0.0000 0.0000 28.1554 0.0000 -5.1049
# 5 -14.3383 0.7790 -4.7822 0.0000 20.4876 0.0000
# 6 0.0000 0.0000 0.0000 -5.1049 0.0000 26.5434
#
#
#
# Elastic Compliance Matrix: (Units=1/GPa)
#
#
# Indices 1 2 3 4 5 6 
#
# 1 0.015648 -0.001993 -0.003555 0.000000 0.010197 0.000000
# 2 -0.001993 0.037195 -0.003034 0.000000 -0.003518 0.000000
# 3 -0.003555 -0.003034 0.009725 0.000000 -0.000102 0.000000
# 4 0.000000 0.000000 0.000000 0.036800 0.000000 0.007078
# 5 0.010197 -0.003518 -0.000102 0.000000 0.056057 0.000000
# 6 0.000000 0.000000 0.000000 0.007078 0.000000 0.039035
#
#
# Mechanical properties :
#
#
# Convention : Reuss Voigt Hill
#
# Bulk Modulus (GPa) = 22.02504 35.75732 28.89118
# Shear Modulus (GPa) = 22.04991 26.98373 24.51682
#
# Velocity S-wave (km/s) = 3.23657 3.58041 3.41283
# Velocity P-wave (km/s) = 4.94275 5.83780 5.40882
#
# Compressibility (1/GPa) = 0.04540286
#
# Stress axis : x y z
#
# Youngs Moduli (GPa) = 63.90767 26.88536 102.83023
#
# Poissons Ratio (x) = 0.05359 0.36551
# Poissons Ratio (y) = 0.12739 0.31202
# Poissons Ratio (z) = 0.22716 0.08158
#
# Static dielectric constant tensor:
#      x y z
#    x 3.943340 0.000000 -0.232120 
#    y 0.000000 3.627360 0.000000 
#    z -0.232120 0.000000 4.498210 
# 
# 
# High freq. dielectric constant tensor:
#      x y z
#    x 1.819240 0.000000 -0.007270 
#    y 0.000000 1.805540 0.000000 
#    z -0.007270 0.000000 1.831790 
# 
# From -- ./inp_files/190520.got.cif
#   From: 2010.06.25/outbox.cif.g09.slc.cpg/sg15_96_cif.got.tgz:190520.got - 2010.06.28 07:06:18.
