data_PCOD8132010
_publ_section_title
;
Structure prediction by ZEFSAII (Michael W. Deem and Ramdas Pophale) SiO2 
 PCOD8132010
Probable space group: C 2/C
;
_chemical_formula_sum "Si O2"
_cell_formula_units_Z 56
_cell_length_a 13.776425
_cell_length_b 16.570262
_cell_length_c 13.088560
_cell_angle_alpha 90.000000
_cell_angle_beta 104.968968
_cell_angle_gamma 90.000000
_cell_volume 2886.453145
_symmetry_space_group_name_H-M "C 2/C"
_symmetry_group_IT_number 15
_symmetry_cell_setting 'monoclinic'
loop_
_space_group_symop_operation_xyz
x,y,z
-x,y,1/2-z
-x,-y,-z
x,-y,1/2+z
1/2+x,1/2+y,z
1/2-x,1/2+y,1/2-z
1/2-x,1/2-y,-z
1/2+x,1/2-y,1/2+z
loop_
_atom_site_type_symbol
_atom_site_label
_atom_site_fract_x
_atom_site_fract_y
_atom_site_fract_z
Si Si1 0.850176 0.767234 0.846674
Si Si2 0.813600 0.412878 0.100291
Si Si3 0.903459 0.681291 0.062459
Si Si4 0.000000 0.206679 0.750000
Si Si5 0.675162 0.299117 0.166925
Si Si6 0.614796 0.125009 0.094722
Si Si7 0.776455 0.584600 0.172339
Si Si8 0.500000 0.179053 0.750000
O O1 0.757832 0.717518 0.775284
O O2 0.826315 0.864270 0.830813
O O3 0.952795 0.741229 0.818769
O O4 0.860366 0.740775 0.965840
O O5 0.720560 0.352591 0.089421
O O6 0.766663 0.491111 0.142428
O O7 0.915952 0.379515 0.179018
O O8 0.833475 0.423201 0.984741
O O9 0.930129 0.735277 0.166001
O O10 0.817574 0.622713 0.079233
O O11 0.994081 0.622732 0.049954
O O12 0.077412 0.158541 0.696383
O O13 0.642423 0.219015 0.098998
O O14 0.648652 0.086239 0.210577
#
# Coordination Sequence:
#
# PCOD8132010 Si02
#       8
#     8   8   8   4   8   8   8   4
#     4  10  20  38  59  88 117 156 196 243 282 364
#     4  11  23  37  58  89 118 154 193 250 300 347
#     4  11  18  35  60  84 111 157 193 228 297 349
#     4  10  18  35  59  82 106 148 200 234 262 349
#     4   9  20  37  60  84 112 153 205 235 283 359
#     4  10  20  39  59  81 116 162 189 239 295 362
#     4  11  23  36  57  87 128 146 196 245 304 343
#     4  10  22  37  59  90 120 156 202 236 296 367
#
# _framework density 19.400971999999999
#
# number of rings (size 3 to 8) (size 9 to 14) (size 15 to 20)
#    0.000    1.714    5.714    0.857    2.000    2.857 
#    0.000    0.714    0.000    3.429    0.000    0.000 
#    0.000    0.000    0.000    0.000    0.000    0.000 
#
# Total GULP energy -346914.863384 kJ/mol
# GULP energy per Si atom -12389.816549 kJ/mol
# Density = 1.935681 g / cm^3
# Si number density = 19.400972 Si / 1000 Ang^3
#
#
#
# Elastic Constant Matrix: (Units=GPa)
#
#
# Indices 1 2 3 4 5 6 
#
# 1 73.3259 27.5479 9.8598 0.0000 -20.9635 0.0000
# 2 27.5479 78.1934 24.4244 0.0000 -7.8606 0.0000
# 3 9.8598 24.4244 67.2585 0.0000 -12.4675 0.0000
# 4 0.0000 0.0000 0.0000 19.5217 0.0000 -5.8946
# 5 -20.9635 -7.8606 -12.4675 0.0000 27.6681 0.0000
# 6 0.0000 0.0000 0.0000 -5.8946 0.0000 28.9366
#
#
#
# Elastic Compliance Matrix: (Units=1/GPa)
#
#
# Indices 1 2 3 4 5 6 
#
# 1 0.019701 -0.006135 0.001946 0.000000 0.014061 0.000000
# 2 -0.006135 0.016427 -0.005524 0.000000 -0.002471 0.000000
# 3 0.001946 -0.005524 0.018081 0.000000 0.008053 0.000000
# 4 0.000000 0.000000 0.000000 0.054582 0.000000 0.011119
# 5 0.014061 -0.002471 0.008053 0.000000 0.049723 0.000000
# 6 0.000000 0.000000 0.000000 0.011119 0.000000 0.036823
#
#
# Mechanical properties :
#
#
# Convention : Reuss Voigt Hill
#
# Bulk Modulus (GPa) = 28.74886 38.04911 33.39899
# Shear Modulus (GPa) = 22.08879 25.68833 23.88856
#
# Velocity S-wave (km/s) = 3.37789 3.64273 3.51281
# Velocity P-wave (km/s) = 5.48306 6.11123 5.80565
#
# Compressibility (1/GPa) = 0.03478398
#
# Stress axis : x y z
#
# Youngs Moduli (GPa) = 50.75897 60.87403 55.30525
#
# Poissons Ratio (x) = 0.37347 -0.10764
# Poissons Ratio (y) = 0.31142 0.30551
# Poissons Ratio (z) = -0.09879 0.33627
#
# Static dielectric constant tensor:
#      x y z
#    x 3.977860 0.000000 -0.112470 
#    y 0.000000 3.348660 0.000000 
#    z -0.112470 0.000000 3.516180 
# 
# 
# High freq. dielectric constant tensor:
#      x y z
#    x 1.760800 0.000000 -0.014540 
#    y 0.000000 1.717700 0.000000 
#    z -0.014540 0.000000 1.760140 
# 
# From -- ./inp_files/98420.got.cif
#   From: 2010.06.25/outbox.cif.g09.slc.cpg/sg15_50_cif.got.tgz:98420.got - 2010.06.28 07:06:18.
