data_PCOD8132694
_publ_section_title
;
Structure prediction by ZEFSAII (Michael W. Deem and Ramdas Pophale) SiO2 
 PCOD8132694
Probable space group: C 2/C
;
_chemical_formula_sum "Si O2"
_cell_formula_units_Z 40
_cell_length_a 6.717505
_cell_length_b 29.976683
_cell_length_c 10.796271
_cell_angle_alpha 90.000000
_cell_angle_beta 107.893030
_cell_angle_gamma 90.000000
_cell_volume 2068.875188
_symmetry_space_group_name_H-M "C 2/C"
_symmetry_group_IT_number 15
_symmetry_cell_setting 'monoclinic'
loop_
_space_group_symop_operation_xyz
x,y,z
-x,y,1/2-z
-x,-y,-z
x,-y,1/2+z
1/2+x,1/2+y,z
1/2-x,1/2+y,1/2-z
1/2-x,1/2-y,-z
1/2+x,1/2-y,1/2+z
loop_
_atom_site_type_symbol
_atom_site_label
_atom_site_fract_x
_atom_site_fract_y
_atom_site_fract_z
Si Si1 0.500000 0.185957 0.750000
Si Si2 0.260881 0.611588 0.914101
Si Si3 0.968829 0.262012 0.485327
Si Si4 0.053539 0.529558 0.628113
Si Si5 0.000000 0.065532 0.750000
Si Si6 0.660191 0.316697 0.892651
O O1 0.687551 0.154725 0.827123
O O2 0.584097 0.216816 0.657132
O O3 0.447734 0.592593 0.865419
O O4 0.075139 0.575972 0.901493
O O5 0.338213 0.631402 0.061348
O O6 0.750000 0.250000 0.500000
O O7 0.106214 0.297326 0.595209
O O8 0.091769 0.215419 0.493014
O O9 0.301750 0.536332 0.672182
O O10 0.000000 0.505704 0.750000
O O11 0.000000 0.500000 0.500000
O O12 0.500000 0.313368 0.750000
#
# Coordination Sequence:
#
# PCOD8132694 Si02
#       6
#     4   8   8   8   4   8
#     4  10  18  40  60  85 124 158 227 254 286 382
#     4  10  21  37  64  88 122 159 206 255 298 381
#     4  10  22  37  61  82 118 170 207 262 312 349
#     4  10  22  43  65  97 126 153 207 257 313 396
#     4  10  20  40  68  89 118 166 193 240 328 366
#     4  10  22  41  52  88 127 152 210 262 302 367
#
# _framework density 19.334177
#
# number of rings (size 3 to 8) (size 9 to 14) (size 15 to 20)
#    0.000    2.000    4.000    0.000    2.800    4.000 
#    5.400    0.000    0.000    0.000    0.000    0.000 
#    0.000    0.000    0.000    0.000    0.000    0.000 
#
# Total GULP energy -247789.822344 kJ/mol
# GULP energy per Si atom -12389.491117 kJ/mol
# Density = 1.929017 g / cm^3
# Si number density = 19.334177 Si / 1000 Ang^3
#
#
#
# Elastic Constant Matrix: (Units=GPa)
#
#
# Indices 1 2 3 4 5 6 
#
# 1 158.5939 54.7901 61.2771 0.0000 4.4573 0.0000
# 2 54.7901 91.2826 61.2275 0.0000 -1.7697 0.0000
# 3 61.2771 61.2275 140.1717 0.0000 6.0262 0.0000
# 4 0.0000 0.0000 0.0000 30.8250 0.0000 -2.0162
# 5 4.4573 -1.7697 6.0262 0.0000 23.3269 0.0000
# 6 0.0000 0.0000 0.0000 -2.0162 0.0000 12.6124
#
#
#
# Elastic Compliance Matrix: (Units=1/GPa)
#
#
# Indices 1 2 3 4 5 6 
#
# 1 0.008402 -0.003742 -0.001979 0.000000 -0.001378 0.000000
# 2 -0.003742 0.017366 -0.006105 0.000000 0.003610 0.000000
# 3 -0.001979 -0.006105 0.010789 0.000000 -0.002872 0.000000
# 4 0.000000 0.000000 0.000000 0.032784 0.000000 0.005241
# 5 -0.001378 0.003610 -0.002872 0.000000 0.044148 0.000000
# 6 0.000000 0.000000 0.000000 0.005241 0.000000 0.080125
#
#
# Mechanical properties :
#
#
# Convention : Reuss Voigt Hill
#
# Bulk Modulus (GPa) = 77.48957 82.73752 80.11355
# Shear Modulus (GPa) = 22.56652 27.53642 25.05147
#
# Velocity S-wave (km/s) = 3.42011 3.77800 3.60350
# Velocity P-wave (km/s) = 7.46742 7.86876 7.67071
#
# Compressibility (1/GPa) = 0.01290496
#
# Stress axis : x y z
#
# Youngs Moduli (GPa) = 119.02499 57.58437 92.68450
#
# Poissons Ratio (x) = 0.21549 0.18342
# Poissons Ratio (y) = 0.44541 0.56581
# Poissons Ratio (z) = 0.23555 0.35154
#
# Static dielectric constant tensor:
#      x y z
#    x 3.495990 0.000000 -0.010840 
#    y 0.000000 3.644620 0.000000 
#    z -0.010840 0.000000 3.119870 
# 
# 
# High freq. dielectric constant tensor:
#      x y z
#    x 1.751090 0.000000 0.012900 
#    y 0.000000 1.742110 0.000000 
#    z 0.012900 0.000000 1.752730 
# 
# From -- ./inp_files/73694.got.cif
#   From: 2010.06.25/outbox.cif.g09.slc.cpg/sg15_37_cif.got.tgz:73694.got - 2010.06.28 07:06:18.
