data_PCOD8132399
_publ_section_title
;
Structure prediction by ZEFSAII (Michael W. Deem and Ramdas Pophale) SiO2 
 PCOD8132399
Probable space group: C 2/C
;
_chemical_formula_sum "Si O2"
_cell_formula_units_Z 48
_cell_length_a 8.687975
_cell_length_b 15.267932
_cell_length_c 17.678346
_cell_angle_alpha 90.000000
_cell_angle_beta 91.977198
_cell_angle_gamma 90.000000
_cell_volume 2343.590718
_symmetry_space_group_name_H-M "C 2/C"
_symmetry_group_IT_number 15
_symmetry_cell_setting 'monoclinic'
loop_
_space_group_symop_operation_xyz
x,y,z
-x,y,1/2-z
-x,-y,-z
x,-y,1/2+z
1/2+x,1/2+y,z
1/2-x,1/2+y,1/2-z
1/2-x,1/2-y,-z
1/2+x,1/2-y,1/2+z
loop_
_atom_site_type_symbol
_atom_site_label
_atom_site_fract_x
_atom_site_fract_y
_atom_site_fract_z
Si Si1 0.248813 0.197558 0.077282
Si Si2 0.152085 0.081076 0.572038
Si Si3 0.815383 0.405066 0.800172
Si Si4 0.611853 0.964668 0.862831
Si Si5 0.491735 0.276024 0.329678
Si Si6 0.044875 0.909631 0.906905
O O1 0.348883 0.107809 0.071778
O O2 0.332662 0.257713 0.141303
O O3 0.074342 0.171693 0.096911
O O4 0.250000 0.250000 0.000000
O O5 0.098016 0.170363 0.608929
O O6 0.154204 0.097397 0.482352
O O7 0.322707 0.057351 0.605944
O O8 0.039133 0.002658 0.593476
O O9 0.800001 0.432071 0.712264
O O10 0.897209 0.311982 0.810963
O O11 0.647471 0.405161 0.833638
O O12 0.929309 0.474472 0.844710
O O13 0.500000 0.328424 0.250000
#
# Coordination Sequence:
#
# PCOD8132399 Si02
#       6
#     8   8   8   8   8   8
#     4  10  18  37  59  83 118 159 195 245 296 361
#     4  10  22  37  58  91 120 153 202 252 301 369
#     4  10  20  40  61  82 117 168 199 244 307 368
#     4   9  20  39  58  83 124 160 197 246 314 358
#     4  11  21  39  61  88 119 160 203 254 305 359
#     4  10  22  37  61  90 118 159 204 242 312 369
#
# _framework density 20.481390999999999
#
# number of rings (size 3 to 8) (size 9 to 14) (size 15 to 20)
#    0.000    2.000    5.000    0.000    2.333    3.333 
#    0.000    1.667    0.000    0.000    0.000    0.000 
#    0.000    0.000    0.000    0.000    0.000    0.000 
#
# Total GULP energy -297477.035453 kJ/mol
# GULP energy per Si atom -12394.876477 kJ/mol
# Density = 2.043477 g / cm^3
# Si number density = 20.481391 Si / 1000 Ang^3
#
#
#
# Elastic Constant Matrix: (Units=GPa)
#
#
# Indices 1 2 3 4 5 6 
#
# 1 81.3766 17.6472 20.3977 0.0000 2.7106 0.0000
# 2 17.6472 52.2527 22.9865 0.0000 12.8470 0.0000
# 3 20.3977 22.9865 82.9372 0.0000 16.2171 0.0000
# 4 0.0000 0.0000 0.0000 21.7737 0.0000 6.2188
# 5 2.7106 12.8470 16.2171 0.0000 35.4286 0.0000
# 6 0.0000 0.0000 0.0000 6.2188 0.0000 32.2907
#
#
#
# Elastic Compliance Matrix: (Units=1/GPa)
#
#
# Indices 1 2 3 4 5 6 
#
# 1 0.013730 -0.003870 -0.002606 0.000000 0.001546 0.000000
# 2 -0.003870 0.023964 -0.004447 0.000000 -0.006358 0.000000
# 3 -0.002606 -0.004447 0.014911 0.000000 -0.005014 0.000000
# 4 0.000000 0.000000 0.000000 0.048600 0.000000 -0.009360
# 5 0.001546 -0.006358 -0.005014 0.000000 0.032708 0.000000
# 6 0.000000 0.000000 0.000000 -0.009360 0.000000 0.032771
#
#
# Mechanical properties :
#
#
# Convention : Reuss Voigt Hill
#
# Bulk Modulus (GPa) = 32.51167 37.62550 35.06858
# Shear Modulus (GPa) = 25.15291 28.26760 26.71026
#
# Velocity S-wave (km/s) = 3.50821 3.71908 3.61518
# Velocity P-wave (km/s) = 5.68491 6.07063 5.88094
#
# Compressibility (1/GPa) = 0.03075819
#
# Stress axis : x y z
#
# Youngs Moduli (GPa) = 72.83494 41.72869 67.06438
#
# Poissons Ratio (x) = 0.16151 0.17479
# Poissons Ratio (y) = 0.28191 0.29821
# Poissons Ratio (z) = 0.18983 0.18555
#
# Static dielectric constant tensor:
#      x y z
#    x 3.752320 0.000000 0.341630 
#    y 0.000000 3.559780 0.000000 
#    z 0.341630 0.000000 3.987490 
# 
# 
# High freq. dielectric constant tensor:
#      x y z
#    x 1.787670 0.000000 0.023350 
#    y 0.000000 1.777450 0.000000 
#    z 0.023350 0.000000 1.813220 
# 
# From -- ./inp_files/189949.got.cif
#   From: 2010.06.25/outbox.cif.g09.slc.cpg/sg15_95_cif.got.tgz:189949.got - 2010.06.28 07:06:18.
