data_PCOD8132762
_publ_section_title
;
Structure prediction by ZEFSAII (Michael W. Deem and Ramdas Pophale) SiO2 
 PCOD8132762
Probable space group: C 2/C
;
_chemical_formula_sum "Si O2"
_cell_formula_units_Z 40
_cell_length_a 14.608650
_cell_length_b 14.141424
_cell_length_c 14.928541
_cell_angle_alpha 90.000000
_cell_angle_beta 141.774437
_cell_angle_gamma 90.000000
_cell_volume 1908.279951
_symmetry_space_group_name_H-M "C 2/C"
_symmetry_group_IT_number 15
_symmetry_cell_setting 'monoclinic'
loop_
_space_group_symop_operation_xyz
x,y,z
-x,y,1/2-z
-x,-y,-z
x,-y,1/2+z
1/2+x,1/2+y,z
1/2-x,1/2+y,1/2-z
1/2-x,1/2-y,-z
1/2+x,1/2-y,1/2+z
loop_
_atom_site_type_symbol
_atom_site_label
_atom_site_fract_x
_atom_site_fract_y
_atom_site_fract_z
Si Si1 0.571206 0.418524 0.614855
Si Si2 0.500000 0.923750 0.750000
Si Si3 0.296293 0.362825 0.068028
Si Si4 0.079208 0.750963 0.488370
Si Si5 0.000000 0.028615 0.250000
Si Si6 0.592412 0.061105 0.138345
O O1 0.500000 0.500000 0.500000
O O2 0.558492 0.316303 0.559254
O O3 0.495843 0.410037 0.655525
O O4 0.739161 0.448360 0.758424
O O5 0.356867 0.863580 0.607610
O O6 0.440554 0.984410 0.788674
O O7 0.243274 0.300052 0.113207
O O8 0.351289 0.465196 0.140390
O O9 0.426375 0.316982 0.106216
O O10 0.951544 0.671993 0.393142
O O11 0.500000 0.000000 0.000000
#
# Coordination Sequence:
#
# PCOD8132762 Si02
#       6
#     8   4   8   8   4   8
#     4  12  24  43  63  99 138 173 217 280 337 395
#     4  10  18  41  61  94 128 162 206 277 325 378
#     4  10  21  37  68  97 128 163 222 273 329 378
#     4  10  22  38  64  95 129 167 217 274 326 385
#     4  12  24  41  67 100 134 182 216 273 337 400
#     4  11  24  40  64  96 132 172 225 271 335 395
#
# _framework density 20.961283999999999
#
# number of rings (size 3 to 8) (size 9 to 14) (size 15 to 20)
#    0.000    1.200    4.000    2.400    2.800    3.200 
#    0.000    2.000    0.000    0.000    0.000    0.000 
#    0.000    0.000    0.000    0.000    0.000    0.000 
#
# Total GULP energy -247763.228770 kJ/mol
# GULP energy per Si atom -12388.161438 kJ/mol
# Density = 2.091357 g / cm^3
# Si number density = 20.961284 Si / 1000 Ang^3
#
#
#
# Elastic Constant Matrix: (Units=GPa)
#
#
# Indices 1 2 3 4 5 6 
#
# 1 144.4732 54.7754 37.2001 -0.0001 -28.0136 -0.0001
# 2 54.7754 77.5061 44.2978 0.0000 -8.8701 -0.0001
# 3 37.2001 44.2978 81.4752 -0.0001 0.3709 -0.0001
# 4 -0.0001 0.0000 -0.0001 28.3623 -0.0001 2.7787
# 5 -28.0136 -8.8701 0.3709 -0.0001 47.4767 -0.0001
# 6 -0.0001 -0.0001 -0.0001 2.7787 -0.0001 38.5389
#
#
#
# Elastic Compliance Matrix: (Units=1/GPa)
#
#
# Indices 1 2 3 4 5 6 
#
# 1 0.010604 -0.005983 -0.001612 0.000000 0.005152 0.000000
# 2 -0.005983 0.022723 -0.009626 0.000000 0.000790 0.000000
# 3 -0.001612 -0.009626 0.018257 0.000000 -0.002892 0.000000
# 4 0.000000 0.000000 0.000000 0.035509 0.000000 -0.002560
# 5 0.005152 0.000790 -0.002892 0.000000 0.024273 0.000000
# 6 0.000000 0.000000 0.000000 -0.002560 0.000000 0.026132
#
#
# Mechanical properties :
#
#
# Convention : Reuss Voigt Hill
#
# Bulk Modulus (GPa) = 58.34043 64.00011 61.17027
# Shear Modulus (GPa) = 28.14455 34.02099 31.08277
#
# Velocity S-wave (km/s) = 3.66825 4.03307 3.85498
# Velocity P-wave (km/s) = 6.77010 7.23093 7.00431
#
# Compressibility (1/GPa) = 0.01714077
#
# Stress axis : x y z
#
# Youngs Moduli (GPa) = 94.30204 44.00853 54.77498
#
# Poissons Ratio (x) = 0.26332 0.08830
# Poissons Ratio (y) = 0.56424 0.52727
# Poissons Ratio (z) = 0.15202 0.42363
#
# Static dielectric constant tensor:
#      x y z
#    x 0.804750 0.000000 -0.499710 
#    y 0.000000 3.673950 0.000000 
#    z -0.499710 0.000000 3.745800 
# 
# 
# High freq. dielectric constant tensor:
#      x y z
#    x 1.830400 0.000000 0.006100 
#    y 0.000000 1.788080 0.000000 
#    z 0.006100 0.000000 1.826050 
# 
# From -- ./inp_files/154172.got.cif
#   From: 2010.06.25/outbox.cif.g09.slc.cpg/sg15_78_cif.got.tgz:154172.got - 2010.06.28 07:06:18.
