data_PCOD8132509
_publ_section_title
;
Structure prediction by ZEFSAII (Michael W. Deem and Ramdas Pophale) SiO2 
 PCOD8132509
Probable space group: C 2/C
;
_chemical_formula_sum "Si O2"
_cell_formula_units_Z 60
_cell_length_a 24.428240
_cell_length_b 8.885439
_cell_length_c 14.258722
_cell_angle_alpha 90.000000
_cell_angle_beta 74.124851
_cell_angle_gamma 90.000000
_cell_volume 2976.895256
_symmetry_space_group_name_H-M "C 2/C"
_symmetry_group_IT_number 15
_symmetry_cell_setting 'monoclinic'
loop_
_space_group_symop_operation_xyz
x,y,z
-x,y,1/2-z
-x,-y,-z
x,-y,1/2+z
1/2+x,1/2+y,z
1/2-x,1/2+y,1/2-z
1/2-x,1/2-y,-z
1/2+x,1/2-y,1/2+z
loop_
_atom_site_type_symbol
_atom_site_label
_atom_site_fract_x
_atom_site_fract_y
_atom_site_fract_z
Si Si1 0.937392 0.863864 0.307500
Si Si2 0.587406 0.978199 0.650004
Si Si3 0.674587 0.882945 0.245706
Si Si4 0.759084 0.091522 0.544229
Si Si5 0.368976 0.421679 0.512583
Si Si6 0.099259 0.891196 0.797345
Si Si7 0.176428 0.596590 0.962973
Si Si8 0.000000 0.294273 0.250000
O O1 0.935103 0.685611 0.312778
O O2 0.919487 0.936337 0.414412
O O3 0.000000 0.916683 0.250000
O O4 0.894870 0.944514 0.253259
O O5 0.621032 0.983620 0.535299
O O6 0.626672 0.016505 0.719997
O O7 0.536101 0.097013 0.663726
O O8 0.733059 0.905417 0.161469
O O9 0.655324 0.708226 0.248689
O O10 0.681444 0.938745 0.349847
O O11 0.750000 0.250000 0.500000
O O12 0.826274 0.062820 0.524518
O O13 0.731874 0.962393 0.491323
O O14 0.404130 0.418806 0.591230
O O15 0.329758 0.274242 0.516587
O O16 0.041861 0.806388 0.792607
#
# Coordination Sequence:
#
# PCOD8132509 Si02
#       8
#     8   8   8   8   8   8   8   4
#     4  11  21  38  57  84 116 152 193 242 289 338
#     4   9  19  36  58  85 118 151 198 240 283 352
#     4   9  20  38  59  86 117 152 196 237 298 354
#     4  11  22  37  61  89 117 153 194 247 299 354
#     4  10  23  40  58  85 117 154 198 241 291 351
#     4  10  21  39  59  86 117 155 195 242 292 345
#     4   9  20  39  58  84 118 155 191 242 297 352
#     4  10  18  38  60  82 118 164 190 240 292 338
#
# _framework density 20.155227
#
# number of rings (size 3 to 8) (size 9 to 14) (size 15 to 20)
#    0.000    2.133    1.333    1.200    0.000    4.800 
#    2.400    4.000    0.000    0.000    0.000    0.000 
#    0.000    0.000    0.000    0.000    0.000    0.000 
#
# Total GULP energy -371901.294385 kJ/mol
# GULP energy per Si atom -12396.709813 kJ/mol
# Density = 2.010935 g / cm^3
# Si number density = 20.155227 Si / 1000 Ang^3
#
#
#
# Elastic Constant Matrix: (Units=GPa)
#
#
# Indices 1 2 3 4 5 6 
#
# 1 70.9799 31.2984 59.3188 0.0000 10.8717 0.0000
# 2 31.2984 70.7417 41.1470 0.0000 8.4485 0.0000
# 3 59.3188 41.1470 170.0166 0.0000 2.7385 0.0000
# 4 0.0000 0.0000 0.0000 23.1088 0.0000 6.3701
# 5 10.8717 8.4485 2.7385 0.0000 19.8596 0.0000
# 6 0.0000 0.0000 0.0000 6.3701 0.0000 20.9051
#
#
#
# Elastic Compliance Matrix: (Units=1/GPa)
#
#
# Indices 1 2 3 4 5 6 
#
# 1 0.023600 -0.005334 -0.006787 0.000000 -0.009714 0.000000
# 2 -0.005334 0.018529 -0.002549 0.000000 -0.004611 0.000000
# 3 -0.006787 -0.002549 0.008809 0.000000 0.003585 0.000000
# 4 0.000000 0.000000 0.000000 0.047242 0.000000 -0.014395
# 5 -0.009714 -0.004611 0.003585 0.000000 0.057139 0.000000
# 6 0.000000 0.000000 0.000000 -0.014395 0.000000 0.052222
#
#
# Mechanical properties :
#
#
# Convention : Reuss Voigt Hill
#
# Bulk Modulus (GPa) = 46.29886 63.91853 55.10870
# Shear Modulus (GPa) = 20.48515 24.77297 22.62906
#
# Velocity S-wave (km/s) = 3.19151 3.50967 3.35436
# Velocity P-wave (km/s) = 6.04996 6.94303 6.51182
#
# Compressibility (1/GPa) = 0.02159880
#
# Stress axis : x y z
#
# Youngs Moduli (GPa) = 42.37273 53.96893 113.52198
#
# Poissons Ratio (x) = 0.28786 0.77044
# Poissons Ratio (y) = 0.22601 0.28939
# Poissons Ratio (z) = 0.28757 0.13758
#
# Static dielectric constant tensor:
#      x y z
#    x 3.485010 0.000000 -0.102850 
#    y 0.000000 3.758250 0.000000 
#    z -0.102850 0.000000 3.808240 
# 
# 
# High freq. dielectric constant tensor:
#      x y z
#    x 1.773970 0.000000 -0.007500 
#    y 0.000000 1.792210 0.000000 
#    z -0.007500 0.000000 1.792290 
# 
# From -- ./inp_files/172338.got.cif
#   From: 2010.06.25/outbox.cif.g09.slc.cpg/sg15_87_cif.got.tgz:172338.got - 2010.06.28 07:06:18.
