data_PCOD8132346
_publ_section_title
;
Structure prediction by ZEFSAII (Michael W. Deem and Ramdas Pophale) SiO2 
 PCOD8132346
Probable space group: C 2/C
;
_chemical_formula_sum "Si O2"
_cell_formula_units_Z 52
_cell_length_a 17.213391
_cell_length_b 15.710013
_cell_length_c 10.763920
_cell_angle_alpha 90.000000
_cell_angle_beta 64.111281
_cell_angle_gamma 90.000000
_cell_volume 2618.689539
_symmetry_space_group_name_H-M "C 2/C"
_symmetry_group_IT_number 15
_symmetry_cell_setting 'monoclinic'
loop_
_space_group_symop_operation_xyz
x,y,z
-x,y,1/2-z
-x,-y,-z
x,-y,1/2+z
1/2+x,1/2+y,z
1/2-x,1/2+y,1/2-z
1/2-x,1/2-y,-z
1/2+x,1/2-y,1/2+z
loop_
_atom_site_type_symbol
_atom_site_label
_atom_site_fract_x
_atom_site_fract_y
_atom_site_fract_z
Si Si1 0.397631 0.738949 0.101746
Si Si2 0.957943 0.605843 0.412754
Si Si3 0.000000 0.311947 0.250000
Si Si4 0.411459 0.549008 0.046766
Si Si5 0.727474 0.683508 0.119600
Si Si6 0.102805 0.952542 0.675151
Si Si7 0.894571 0.576796 0.990007
O O1 0.468397 0.754742 0.158755
O O2 0.424843 0.649832 0.020038
O O3 0.301857 0.729772 0.230921
O O4 0.400203 0.813271 0.996543
O O5 0.894030 0.524027 0.458482
O O6 0.000000 0.623182 0.250000
O O7 0.037478 0.593213 0.449118
O O8 0.921587 0.373100 0.346686
O O9 0.360673 0.525989 0.210638
O O10 0.500000 0.500000 0.000000
O O11 0.364087 0.517783 0.953815
O O12 0.643597 0.638779 0.116787
O O13 0.801531 0.613359 0.095932
O O14 0.750000 0.750000 0.000000
O O15 0.000000 0.945628 0.750000
#
# Coordination Sequence:
#
# PCOD8132346 Si02
#       7
#     8   8   4   8   8   8   8
#     4  10  22  37  61  94 125 162 215 259 325 386
#     4  10  22  42  67  92 126 174 216 270 331 392
#     4  10  18  36  66  88 118 164 218 272 298 396
#     4   9  19  34  58  84 118 159 205 250 314 382
#     4  11  22  37  62  96 124 162 217 270 316 375
#     4   9  20  38  58  87 122 164 205 251 318 390
#     4  10  21  39  65  94 121 166 224 266 324 382
#
# _framework density 19.85726
#
# number of rings (size 3 to 8) (size 9 to 14) (size 15 to 20)
#    0.000    2.154    2.308    0.000    8.615    1.846 
#   11.077    0.769    0.000    0.000    0.000    0.000 
#    0.000    0.000    0.000    0.000    0.000    0.000 
#
# Total GULP energy -322117.972812 kJ/mol
# GULP energy per Si atom -12389.152800 kJ/mol
# Density = 1.981206 g / cm^3
# Si number density = 19.857260 Si / 1000 Ang^3
#
#
#
# Elastic Constant Matrix: (Units=GPa)
#
#
# Indices 1 2 3 4 5 6 
#
# 1 41.7961 29.2705 35.0657 0.0000 -3.8555 0.0000
# 2 29.2705 151.0097 91.4527 0.0000 5.0122 0.0000
# 3 35.0657 91.4527 147.9699 0.0000 1.6458 0.0000
# 4 0.0000 0.0000 0.0000 44.9248 0.0000 -7.0388
# 5 -3.8555 5.0122 1.6458 0.0000 34.3924 0.0000
# 6 0.0000 0.0000 0.0000 -7.0388 0.0000 29.1191
#
#
#
# Elastic Compliance Matrix: (Units=1/GPa)
#
#
# Indices 1 2 3 4 5 6 
#
# 1 0.030993 -0.002667 -0.005742 0.000000 0.004138 0.000000
# 2 -0.002667 0.010865 -0.006065 0.000000 -0.001592 0.000000
# 3 -0.005742 -0.006065 0.011871 0.000000 -0.000328 0.000000
# 4 0.000000 0.000000 0.000000 0.023136 0.000000 0.005592
# 5 0.004138 -0.001592 -0.000328 0.000000 0.029788 0.000000
# 6 0.000000 0.000000 0.000000 0.005592 0.000000 0.035693
#
#
# Mechanical properties :
#
#
# Convention : Reuss Voigt Hill
#
# Bulk Modulus (GPa) = 40.35576 72.48370 56.41973
# Shear Modulus (GPa) = 27.84650 34.01973 30.93311
#
# Velocity S-wave (km/s) = 3.74884 4.14359 3.95115
# Velocity P-wave (km/s) = 6.25343 7.71194 7.02066
#
# Compressibility (1/GPa) = 0.02477961
#
# Stress axis : x y z
#
# Youngs Moduli (GPa) = 32.26555 92.03686 84.23679
#
# Poissons Ratio (x) = 0.24548 0.48370
# Poissons Ratio (y) = 0.08606 0.51093
# Poissons Ratio (z) = 0.18527 0.55825
#
# Static dielectric constant tensor:
#      x y z
#    x 3.291970 0.000000 0.235850 
#    y 0.000000 3.880320 0.000000 
#    z 0.235850 0.000000 4.469740 
# 
# 
# High freq. dielectric constant tensor:
#      x y z
#    x 1.735510 0.000000 0.000540 
#    y 0.000000 1.783280 0.000000 
#    z 0.000540 0.000000 1.787160 
# 
# From -- ./inp_files/105205.got.cif
#   From: 2010.06.25/outbox.cif.g09.slc.cpg/sg15_53_cif.got.tgz:105205.got - 2010.06.28 07:06:18.
