data_PCOD8132999
_publ_section_title
;
Structure prediction by ZEFSAII (Michael W. Deem and Ramdas Pophale) SiO2 
 PCOD8132999
Probable space group: C 2/C
;
_chemical_formula_sum "Si O2"
_cell_formula_units_Z 56
_cell_length_a 15.296926
_cell_length_b 12.243300
_cell_length_c 16.576981
_cell_angle_alpha 90.000000
_cell_angle_beta 86.575260
_cell_angle_gamma 90.000000
_cell_volume 3099.073014
_symmetry_space_group_name_H-M "C 2/C"
_symmetry_group_IT_number 15
_symmetry_cell_setting 'monoclinic'
loop_
_space_group_symop_operation_xyz
x,y,z
-x,y,1/2-z
-x,-y,-z
x,-y,1/2+z
1/2+x,1/2+y,z
1/2-x,1/2+y,1/2-z
1/2-x,1/2-y,-z
1/2+x,1/2-y,1/2+z
loop_
_atom_site_type_symbol
_atom_site_label
_atom_site_fract_x
_atom_site_fract_y
_atom_site_fract_z
Si Si1 0.617618 0.906777 0.473449
Si Si2 0.500000 0.403913 0.750000
Si Si3 0.920021 0.813977 0.604231
Si Si4 0.065537 0.907754 0.142832
Si Si5 0.045413 0.622514 0.408096
Si Si6 0.311476 0.460230 0.503134
Si Si7 0.925184 0.842054 0.024381
Si Si8 0.500000 0.224303 0.250000
O O1 0.620513 0.804398 0.413024
O O2 0.553012 0.878841 0.550771
O O3 0.708678 0.940382 0.508504
O O4 0.588789 0.006866 0.419619
O O5 0.437960 0.326826 0.698637
O O6 0.436631 0.480540 0.806851
O O7 0.848679 0.901801 0.580273
O O8 0.012689 0.837363 0.556580
O O9 0.976788 0.900182 0.094909
O O10 0.071163 0.802907 0.201885
O O11 0.149401 0.905645 0.080094
O O12 0.100863 0.718710 0.449003
O O13 0.045282 0.645567 0.312716
O O14 0.338519 0.588292 0.507274
#
# Coordination Sequence:
#
# PCOD8132999 Si02
#       8
#     8   4   8   8   8   8   8   4
#     4  10  22  36  54  76 110 148 188 224 256 333
#     4  11  16  29  52  78 106 141 169 220 276 346
#     4  10  19  31  52  80 107 138 175 222 280 327
#     4   9  17  30  54  85 102 134 177 223 275 323
#     4   9  20  39  56  77 100 153 197 210 264 332
#     4  11  18  34  55  83 110 136 178 237 276 308
#     4   9  16  33  57  77 102 136 183 223 261 325
#     4   9  18  33  62  72 104 141 181 218 258 330
#
# _framework density 18.06992
#
# number of rings (size 3 to 8) (size 9 to 14) (size 15 to 20)
#    0.000    2.286    2.857    2.143    0.000    1.143 
#    0.000    2.857    0.000    0.000    0.000    0.000 
#    0.000    0.000    0.000    0.000    0.000    0.000 
#
# Total GULP energy -347123.395651 kJ/mol
# GULP energy per Si atom -12397.264130 kJ/mol
# Density = 1.802879 g / cm^3
# Si number density = 18.069920 Si / 1000 Ang^3
#
#
#
# Elastic Constant Matrix: (Units=GPa)
#
#
# Indices 1 2 3 4 5 6 
#
# 1 73.2437 34.2502 24.3727 0.0000 5.3468 0.0000
# 2 34.2502 105.7640 26.0911 0.0000 7.1264 0.0000
# 3 24.3727 26.0911 86.1386 0.0000 19.4576 0.0000
# 4 0.0000 0.0000 0.0000 23.6624 0.0000 14.4077
# 5 5.3468 7.1264 19.4576 0.0000 15.6242 0.0000
# 6 0.0000 0.0000 0.0000 14.4077 0.0000 10.0688
#
#
#
# Elastic Compliance Matrix: (Units=1/GPa)
#
#
# Indices 1 2 3 4 5 6 
#
# 1 0.016964 -0.004667 -0.003556 0.000000 0.000752 0.000000
# 2 -0.004667 0.011517 -0.001867 0.000000 -0.001330 0.000000
# 3 -0.003556 -0.001867 0.017690 0.000000 -0.019962 0.000000
# 4 0.000000 0.000000 0.000000 0.328304 0.000000 -0.469780
# 5 0.000752 -0.001330 -0.019962 0.000000 0.089212 0.000000
# 6 0.000000 0.000000 0.000000 -0.469780 0.000000 0.771538
#
#
# Mechanical properties :
#
#
# Convention : Reuss Voigt Hill
#
# Bulk Modulus (GPa) = 38.47676 48.28604 43.38140
# Shear Modulus (GPa) = 3.95548 21.89991 12.92769
#
# Velocity S-wave (km/s) = 1.48113 3.48509 2.67765
# Velocity P-wave (km/s) = 4.92590 6.55547 5.79822
#
# Compressibility (1/GPa) = 0.02598972
#
# Stress axis : x y z
#
# Youngs Moduli (GPa) = 58.94890 86.83105 56.52869
#
# Poissons Ratio (x) = 0.40523 0.20103
# Poissons Ratio (y) = 0.27511 0.10556
# Poissons Ratio (z) = 0.20963 0.16215
#
# Static dielectric constant tensor:
#      x y z
#    x 2.944630 0.000000 0.105280 
#    y 0.000000 3.531280 0.000000 
#    z 0.105280 0.000000 3.376990 
# 
# 
# High freq. dielectric constant tensor:
#      x y z
#    x 1.656430 0.000000 0.013330 
#    y 0.000000 1.714280 0.000000 
#    z 0.013330 0.000000 1.694660 
# 
# From -- ./inp_files/203983.got.cif
#   From: 2010.06.25/outbox.cif.g09.slc.cpg/sg15_102_cif.got.tgz:203983.got - 2010.06.28 07:06:18.
