data_PCOD8132939
_publ_section_title
;
Structure prediction by ZEFSAII (Michael W. Deem and Ramdas Pophale) SiO2 
 PCOD8132939
Probable space group: C 2/C
;
_chemical_formula_sum "Si O2"
_cell_formula_units_Z 44
_cell_length_a 19.797765
_cell_length_b 25.980146
_cell_length_c 5.140887
_cell_angle_alpha 90.000000
_cell_angle_beta 104.969304
_cell_angle_gamma 90.000000
_cell_volume 2554.476229
_symmetry_space_group_name_H-M "C 2/C"
_symmetry_group_IT_number 15
_symmetry_cell_setting 'monoclinic'
loop_
_space_group_symop_operation_xyz
x,y,z
-x,y,1/2-z
-x,-y,-z
x,-y,1/2+z
1/2+x,1/2+y,z
1/2-x,1/2+y,1/2-z
1/2-x,1/2-y,-z
1/2+x,1/2-y,1/2+z
loop_
_atom_site_type_symbol
_atom_site_label
_atom_site_fract_x
_atom_site_fract_y
_atom_site_fract_z
Si Si1 0.723693 0.308813 0.498278
Si Si2 0.847754 0.535190 0.572294
Si Si3 0.000000 0.534483 0.750000
Si Si4 0.077704 0.229000 0.826343
Si Si5 0.786951 0.359328 0.061606
Si Si6 0.422819 0.201320 0.673961
O O1 0.750000 0.250000 0.500000
O O2 0.639437 0.313035 0.385588
O O3 0.757840 0.344282 0.313687
O O4 0.741322 0.331464 0.797330
O O5 0.837852 0.506678 0.288591
O O6 0.924779 0.563620 0.669995
O O7 0.787764 0.578851 0.533952
O O8 0.000000 0.500000 0.500000
O O9 0.087819 0.263947 0.586915
O O10 0.000000 0.203157 0.750000
O O11 0.088668 0.263816 0.087620
O O12 0.867325 0.343634 0.115291
O O13 0.500000 0.175962 0.750000
#
# Coordination Sequence:
#
# PCOD8132939 Si02
#       6
#     8   8   4   8   8   8
#     4  12  21  35  52  77 109 134 174 212 254 307
#     4  10  21  37  51  72 102 132 177 221 256 297
#     4   8  16  32  52  68  94 136 170 218 262 280
#     4  10  20  34  50  70 105 141 168 208 249 297
#     4  12  22  33  55  76 100 145 173 215 259 300
#     4  10  19  31  47  73 102 138 178 206 245 296
#
# _framework density 17.224668000000001
#
# number of rings (size 3 to 8) (size 9 to 14) (size 15 to 20)
#    0.000    1.455    3.636    2.727    1.273    0.000 
#    0.000    0.000    0.000    0.000    0.000    0.000 
#    0.000   14.545    0.000    0.000    0.000    0.000 
#
# Total GULP energy -272649.797842 kJ/mol
# GULP energy per Si atom -12393.172629 kJ/mol
# Density = 1.718546 g / cm^3
# Si number density = 17.224668 Si / 1000 Ang^3
#
#
#
# Elastic Constant Matrix: (Units=GPa)
#
#
# Indices 1 2 3 4 5 6 
#
# 1 99.5649 27.0434 10.8363 0.0000 9.4718 0.0000
# 2 27.0434 50.7904 3.8519 0.0000 5.9357 0.0000
# 3 10.8363 3.8519 92.5663 0.0000 -5.7479 0.0000
# 4 0.0000 0.0000 0.0000 18.9738 0.0000 -1.4101
# 5 9.4718 5.9357 -5.7479 0.0000 33.4990 0.0000
# 6 0.0000 0.0000 0.0000 -1.4101 0.0000 23.7711
#
#
#
# Elastic Compliance Matrix: (Units=1/GPa)
#
#
# Indices 1 2 3 4 5 6 
#
# 1 0.012069 -0.006025 -0.001322 0.000000 -0.002572 0.000000
# 2 -0.006025 0.023218 -0.000415 0.000000 -0.002482 0.000000
# 3 -0.001322 -0.000415 0.011121 0.000000 0.002356 0.000000
# 4 0.000000 0.000000 0.000000 0.052938 0.000000 0.003140
# 5 -0.002572 -0.002482 0.002356 0.000000 0.031423 0.000000
# 6 0.000000 0.000000 0.000000 0.003140 0.000000 0.042254
#
#
# Mechanical properties :
#
#
# Convention : Reuss Voigt Hill
#
# Bulk Modulus (GPa) = 32.37863 36.26497 34.32180
# Shear Modulus (GPa) = 25.14563 28.66145 26.90354
#
# Velocity S-wave (km/s) = 3.82496 4.08361 3.95640
# Velocity P-wave (km/s) = 6.19239 6.58288 6.39062
#
# Compressibility (1/GPa) = 0.03088456
#
# Stress axis : x y z
#
# Youngs Moduli (GPa) = 82.85857 43.06935 89.91731
#
# Poissons Ratio (x) = 0.25950 0.11885
# Poissons Ratio (y) = 0.49924 0.03731
# Poissons Ratio (z) = 0.10952 0.01787
#
# Static dielectric constant tensor:
#      x y z
#    x 3.593590 0.000000 0.041240 
#    y 0.000000 2.789850 0.000000 
#    z 0.041240 0.000000 3.429590 
# 
# 
# High freq. dielectric constant tensor:
#      x y z
#    x 1.666380 0.000000 -0.007330 
#    y 0.000000 1.617630 0.000000 
#    z -0.007330 0.000000 1.692560 
# 
# From -- ./inp_files/10302.got.cif
#   From: 2010.06.25/outbox.cif.g09.slc.cpg/sg15_6_cif.got.tgz:10302.got - 2010.06.28 07:06:18.
