data_PCOD8132542
_publ_section_title
;
Structure prediction by ZEFSAII (Michael W. Deem and Ramdas Pophale) SiO2 
 PCOD8132542
Probable space group: C 2/C
;
_chemical_formula_sum "Si O2"
_cell_formula_units_Z 60
_cell_length_a 11.960485
_cell_length_b 11.031486
_cell_length_c 21.427867
_cell_angle_alpha 90.000000
_cell_angle_beta 106.763303
_cell_angle_gamma 90.000000
_cell_volume 2707.089030
_symmetry_space_group_name_H-M "C 2/C"
_symmetry_group_IT_number 15
_symmetry_cell_setting 'monoclinic'
loop_
_space_group_symop_operation_xyz
x,y,z
-x,y,1/2-z
-x,-y,-z
x,-y,1/2+z
1/2+x,1/2+y,z
1/2-x,1/2+y,1/2-z
1/2-x,1/2-y,-z
1/2+x,1/2-y,1/2+z
loop_
_atom_site_type_symbol
_atom_site_label
_atom_site_fract_x
_atom_site_fract_y
_atom_site_fract_z
Si Si1 0.162738 0.638888 0.971768
Si Si2 0.577517 0.770382 0.095399
Si Si3 0.000000 0.057577 0.250000
Si Si4 0.986918 0.992998 0.385168
Si Si5 0.733525 0.650764 0.637527
Si Si6 0.740051 0.568911 0.929654
Si Si7 0.386450 0.919578 0.273025
Si Si8 0.248528 0.099327 0.319395
O O1 0.173848 0.610227 0.899614
O O2 0.028576 0.672849 0.961115
O O3 0.250000 0.750000 0.000000
O O4 0.184929 0.517107 0.013674
O O5 0.543519 0.630351 0.099544
O O6 0.693700 0.800393 0.070862
O O7 0.590254 0.830377 0.165538
O O8 0.010929 0.976962 0.189435
O O9 0.119204 0.138438 0.272176
O O10 0.106275 0.935097 0.433567
O O11 0.885857 0.914270 0.398421
O O12 0.779145 0.629478 0.714615
O O13 0.703703 0.793716 0.629360
O O14 0.729890 0.517540 0.858671
O O15 0.500000 0.935218 0.250000
O O16 0.344302 0.056448 0.284440
#
# Coordination Sequence:
#
# PCOD8132542 Si02
#       8
#     8   8   4   8   8   8   8   8
#     4  12  21  43  71  93 127 171 223 273 321 393
#     4  11  23  42  70  94 130 169 222 273 320 397
#     4  10  18  38  62  84 122 162 208 248 314 386
#     4  11  23  41  63  95 131 172 209 265 332 392
#     4  12  24  40  66  95 128 171 213 268 331 394
#     4  10  23  42  66  96 123 171 220 263 323 382
#     4  11  23  40  62  95 126 165 215 270 331 388
#     4  10  21  39  61  91 124 159 214 264 315 388
#
# _framework density 22.164028999999999
#
# number of rings (size 3 to 8) (size 9 to 14) (size 15 to 20)
#    0.000    1.067    5.333    2.000    1.867    0.533 
#    3.600    0.667    0.000    0.000    0.000    0.000 
#    0.000    0.000    0.000    0.000    0.000    0.000 
#
# Total GULP energy -371677.947439 kJ/mol
# GULP energy per Si atom -12389.264915 kJ/mol
# Density = 2.211358 g / cm^3
# Si number density = 22.164029 Si / 1000 Ang^3
#
#
#
# Elastic Constant Matrix: (Units=GPa)
#
#
# Indices 1 2 3 4 5 6 
#
# 1 131.1243 57.5228 2.1812 0.0000 22.7901 0.0000
# 2 57.5228 50.7140 -3.9259 0.0000 7.2852 0.0000
# 3 2.1812 -3.9259 46.1328 0.0000 17.8467 0.0000
# 4 0.0000 0.0000 0.0000 10.7950 0.0000 3.9966
# 5 22.7901 7.2852 17.8467 0.0000 33.9532 0.0000
# 6 0.0000 0.0000 0.0000 3.9966 0.0000 31.3920
#
#
#
# Elastic Compliance Matrix: (Units=1/GPa)
#
#
# Indices 1 2 3 4 5 6 
#
# 1 0.016834 -0.017915 0.000708 0.000000 -0.007827 0.000000
# 2 -0.017915 0.040112 0.003688 0.000000 0.001480 0.000000
# 3 0.000708 0.003688 0.028176 0.000000 -0.016076 0.000000
# 4 0.000000 0.000000 0.000000 0.097217 0.000000 -0.012377
# 5 -0.007827 0.001480 -0.016076 0.000000 0.042839 0.000000
# 6 0.000000 0.000000 0.000000 -0.012377 0.000000 0.033431
#
#
# Mechanical properties :
#
#
# Convention : Reuss Voigt Hill
#
# Bulk Modulus (GPa) = 17.21670 37.72527 27.47098
# Shear Modulus (GPa) = 16.39293 26.70758 21.55026
#
# Velocity S-wave (km/s) = 2.72254 3.47507 3.12157
# Velocity P-wave (km/s) = 4.20330 5.75842 5.04119
#
# Compressibility (1/GPa) = 0.05808314
#
# Stress axis : x y z
#
# Youngs Moduli (GPa) = 59.40290 24.93037 35.49091
#
# Poissons Ratio (x) = 0.44663 -0.02511
# Poissons Ratio (y) = 1.06421 -0.13089
# Poissons Ratio (z) = -0.04203 -0.09195
#
# Static dielectric constant tensor:
#      x y z
#    x 4.407270 0.000000 0.089500 
#    y 0.000000 3.771880 0.000000 
#    z 0.089500 0.000000 4.073610 
# 
# 
# High freq. dielectric constant tensor:
#      x y z
#    x 1.879910 0.000000 0.007990 
#    y 0.000000 1.843870 0.000000 
#    z 0.007990 0.000000 1.879750 
# 
# From -- ./inp_files/268970.got.cif
#   From: 2010.06.25/outbox.cif.g09.slc.cpg/sg15_135_cif.got.tgz:268970.got - 2010.06.28 07:06:18.
