data_PCOD8132716
_publ_section_title
;
Structure prediction by ZEFSAII (Michael W. Deem and Ramdas Pophale) SiO2 
 PCOD8132716
Probable space group: C 2/C
;
_chemical_formula_sum "Si O2"
_cell_formula_units_Z 56
_cell_length_a 29.911362
_cell_length_b 7.755470
_cell_length_c 17.980469
_cell_angle_alpha 90.000000
_cell_angle_beta 43.872821
_cell_angle_gamma 90.000000
_cell_volume 2890.787233
_symmetry_space_group_name_H-M "C 2/C"
_symmetry_group_IT_number 15
_symmetry_cell_setting 'monoclinic'
loop_
_space_group_symop_operation_xyz
x,y,z
-x,y,1/2-z
-x,-y,-z
x,-y,1/2+z
1/2+x,1/2+y,z
1/2-x,1/2+y,1/2-z
1/2-x,1/2-y,-z
1/2+x,1/2-y,1/2+z
loop_
_atom_site_type_symbol
_atom_site_label
_atom_site_fract_x
_atom_site_fract_y
_atom_site_fract_z
Si Si1 0.439197 0.622152 0.072188
Si Si2 0.068192 0.694187 0.770185
Si Si3 0.214506 0.317608 0.114194
Si Si4 0.702358 0.508541 0.241506
Si Si5 0.768008 0.857820 0.634342
Si Si6 0.584140 0.699439 0.562223
Si Si7 0.000000 0.054895 0.250000
Si Si8 0.000000 0.554725 0.250000
O O1 0.449590 0.761945 0.123967
O O2 0.375545 0.503661 0.160870
O O3 0.500000 0.500000 0.000000
O O4 0.432319 0.731942 0.004609
O O5 0.142075 0.643699 0.676968
O O6 0.055514 0.847646 0.728054
O O7 0.022253 0.542808 0.797171
O O8 0.239416 0.502735 0.112024
O O9 0.222949 0.165784 0.164025
O O10 0.250000 0.250000 0.000000
O O11 0.727847 0.322211 0.182618
O O12 0.733692 0.552542 0.283193
O O13 0.839798 0.821016 0.519356
O O14 0.541251 0.537928 0.637397
O O15 0.562419 0.846006 0.645440
#
# Coordination Sequence:
#
# PCOD8132716 Si02
#       8
#     8   8   8   8   8   8   4   4
#     4  10  20  40  63  93 118 162 211 254 314 366
#     4  10  22  40  60  90 126 157 208 257 307 373
#     4  11  24  41  64  96 129 164 212 261 314 373
#     4  10  23  41  66  93 126 167 212 256 311 385
#     4  11  22  44  64  93 127 171 210 256 315 379
#     4  10  22  38  64  88 123 162 210 248 315 381
#     4  10  18  40  64  84 124 168 194 256 312 374
#     4  10  24  42  58  92 126 162 204 260 314 376
#
# _framework density 19.371884999999999
#
# number of rings (size 3 to 8) (size 9 to 14) (size 15 to 20)
#    0.000    1.714    2.857    0.857    2.000    2.286 
#    5.143    0.000    0.000    0.000    0.000    0.000 
#    0.000    0.000    0.000    0.000    0.000    0.000 
#
# Total GULP energy -347023.394107 kJ/mol
# GULP energy per Si atom -12393.692647 kJ/mol
# Density = 1.932779 g / cm^3
# Si number density = 19.371885 Si / 1000 Ang^3
#
#
#
# Elastic Constant Matrix: (Units=GPa)
#
#
# Indices 1 2 3 4 5 6 
#
# 1 126.6106 56.4215 57.1539 -0.0019 -1.5351 0.0235
# 2 56.4215 125.8313 54.6081 0.0086 -5.0576 0.1290
# 3 57.1539 54.6081 134.1738 -0.0050 -3.7707 0.0168
# 4 -0.0019 0.0086 -0.0050 -42.6410 -0.0093 -94.6745
# 5 -1.5351 -5.0576 -3.7707 -0.0093 34.9662 0.0034
# 6 0.0235 0.1290 0.0168 -94.6745 0.0034 106.6858
#
#
#
# Elastic Compliance Matrix: (Units=1/GPa)
#
#
# Indices 1 2 3 4 5 6 
#
# 1 0.010916 -0.003507 -0.003233 -0.000002 -0.000377 0.000001
# 2 -0.003507 0.010812 -0.002876 0.000010 0.001100 -0.000003
# 3 -0.003233 -0.002876 0.010015 -0.000003 0.000522 0.000000
# 4 -0.000002 0.000010 -0.000003 -0.007895 0.000000 -0.007006
# 5 -0.000377 0.001100 0.000522 0.000000 0.028798 -0.000003
# 6 0.000001 -0.000003 0.000000 -0.007006 -0.000003 0.003156
#
#
# Mechanical properties :
#
#
# Convention : Reuss Voigt Hill
#
# Bulk Modulus (GPa) = 79.92419 80.33142 80.12780
# Shear Modulus (GPa) = 63.12925 34.36434 48.74680
#
# Velocity S-wave (km/s) = 5.71479 4.21637 5.02178
# Velocity P-wave (km/s) = 9.21371 8.07848 8.66471
#
# Compressibility (1/GPa) = 0.01251186
#
# Stress axis : x y z
#
# Youngs Moduli (GPa) = 91.61023 92.49291 99.84672
#
# Poissons Ratio (x) = 0.32433 0.32283
# Poissons Ratio (y) = 0.32123 0.28713
# Poissons Ratio (z) = 0.29620 0.26598
#
# Static dielectric constant tensor:
#      x y z
#    x 3.671470 -0.000010 0.128430 
#    y -0.000010 3.515290 0.000060 
#    z 0.128430 0.000060 3.478730 
# 
# 
# High freq. dielectric constant tensor:
#      x y z
#    x 1.769300 0.000000 0.003100 
#    y 0.000000 1.746130 0.000000 
#    z 0.003100 0.000000 1.766600 
# 
# From -- ./inp_files/218550.got.cif
#   From: 2010.06.25/outbox.cif.g09.slc.cpg/sg15_110_cif.got.tgz:218550.got - 2010.06.28 07:06:18.
