data_PCOD8132479
_publ_section_title
;
Structure prediction by ZEFSAII (Michael W. Deem and Ramdas Pophale) SiO2 
 PCOD8132479
Probable space group: C 2/C
;
_chemical_formula_sum "Si O2"
_cell_formula_units_Z 48
_cell_length_a 9.015131
_cell_length_b 15.951816
_cell_length_c 27.168792
_cell_angle_alpha 90.000000
_cell_angle_beta 143.513172
_cell_angle_gamma 90.000000
_cell_volume 2323.299176
_symmetry_space_group_name_H-M "C 2/C"
_symmetry_group_IT_number 15
_symmetry_cell_setting 'monoclinic'
loop_
_space_group_symop_operation_xyz
x,y,z
-x,y,1/2-z
-x,-y,-z
x,-y,1/2+z
1/2+x,1/2+y,z
1/2-x,1/2+y,1/2-z
1/2-x,1/2-y,-z
1/2+x,1/2-y,1/2+z
loop_
_atom_site_type_symbol
_atom_site_label
_atom_site_fract_x
_atom_site_fract_y
_atom_site_fract_z
Si Si1 0.432942 0.893583 0.093145
Si Si2 0.312668 0.927280 0.540617
Si Si3 0.291133 0.858075 0.234808
Si Si4 0.768151 0.688121 0.323581
Si Si5 0.954591 0.216314 0.968383
Si Si6 0.271206 0.874625 0.426960
O O1 0.618230 0.889835 0.188414
O O2 0.596507 0.897460 0.088097
O O3 0.245345 0.813741 0.043704
O O4 0.272339 0.979872 0.051044
O O5 0.527229 0.883019 0.630684
O O6 0.066048 0.870169 0.477018
O O7 0.391334 0.928402 0.503754
O O8 0.500000 0.883685 0.250000
O O9 0.241613 0.757864 0.222144
O O10 0.020508 0.898695 0.152830
O O11 0.500000 0.642024 0.250000
O O12 0.808652 0.737741 0.385761
O O13 0.174745 0.275099 0.048297
#
# Coordination Sequence:
#
# PCOD8132479 Si02
#       6
#     8   8   8   8   8   8
#     4  12  24  36  61  95 128 150 194 261 311 335
#     4  11  22  39  63  91 118 161 202 248 298 358
#     4  11  20  40  65  83 114 168 203 236 296 368
#     4  10  18  37  67  82 109 161 216 231 280 362
#     4  11  20  39  65  86 117 169 201 237 292 367
#     4  11  22  40  62  90 122 157 202 245 299 364
#
# _framework density 20.660274000000001
#
# number of rings (size 3 to 8) (size 9 to 14) (size 15 to 20)
#    0.000    1.000    6.667    3.000    0.000    1.333 
#    0.000    0.000    3.667    0.000    0.000    0.000 
#    0.000    0.000    0.000    0.000    0.000    0.000 
#
# Total GULP energy -297448.877652 kJ/mol
# GULP energy per Si atom -12393.703235 kJ/mol
# Density = 2.061325 g / cm^3
# Si number density = 20.660274 Si / 1000 Ang^3
#
#
#
# Elastic Constant Matrix: (Units=GPa)
#
#
# Indices 1 2 3 4 5 6 
#
# 1 78.5834 15.4454 35.6936 -0.0003 2.7246 -0.0001
# 2 15.4454 75.5769 30.6597 -0.0001 -6.6868 0.0000
# 3 35.6936 30.6597 110.3135 -0.0007 3.1095 -0.0003
# 4 -0.0003 -0.0001 -0.0007 27.4301 -0.0004 2.1565
# 5 2.7246 -6.6868 3.1095 -0.0004 36.7371 -0.0002
# 6 -0.0001 0.0000 -0.0003 2.1565 -0.0002 27.0667
#
#
#
# Elastic Compliance Matrix: (Units=1/GPa)
#
#
# Indices 1 2 3 4 5 6 
#
# 1 0.015054 -0.001351 -0.004468 0.000000 -0.000984 0.000000
# 2 -0.001351 0.015389 -0.003931 0.000000 0.003234 0.000000
# 3 -0.004468 -0.003931 0.011642 0.000000 -0.001370 0.000000
# 4 0.000000 0.000000 0.000000 0.036686 0.000000 -0.002923
# 5 -0.000984 0.003234 -0.001370 0.000000 0.027998 0.000000
# 6 0.000000 0.000000 0.000000 -0.002923 0.000000 0.037179
#
#
# Mechanical properties :
#
#
# Convention : Reuss Voigt Hill
#
# Bulk Modulus (GPa) = 44.27745 47.56346 45.92045
# Shear Modulus (GPa) = 29.24393 30.42511 29.83452
#
# Velocity S-wave (km/s) = 3.76635 3.84166 3.80419
# Velocity P-wave (km/s) = 6.35544 6.53831 6.44752
#
# Compressibility (1/GPa) = 0.02258486
#
# Stress axis : x y z
#
# Youngs Moduli (GPa) = 66.42599 64.98352 85.89725
#
# Poissons Ratio (x) = 0.08781 0.38377
# Poissons Ratio (y) = 0.08976 0.33765
# Poissons Ratio (z) = 0.29678 0.25544
#
# Static dielectric constant tensor:
#      x y z
#    x 3.694990 0.000000 0.115240 
#    y 0.000000 3.642300 0.000000 
#    z 0.115240 0.000000 3.889410 
# 
# 
# High freq. dielectric constant tensor:
#      x y z
#    x 1.798210 0.000000 0.013630 
#    y 0.000000 1.787240 0.000000 
#    z 0.013630 0.000000 1.817920 
# 
# From -- ./inp_files/289094.got.cif
#   From: 2010.06.25/outbox.cif.g09.slc.cpg/sg15_145_cif.got.tgz:289094.got - 2010.06.28 07:06:18.
