data_PCOD8132184
_publ_section_title
;
Structure prediction by ZEFSAII (Michael W. Deem and Ramdas Pophale) SiO2 
 PCOD8132184
Probable space group: C 2/C
;
_chemical_formula_sum "Si O2"
_cell_formula_units_Z 52
_cell_length_a 17.644733
_cell_length_b 13.947778
_cell_length_c 15.695757
_cell_angle_alpha 90.000000
_cell_angle_beta 41.080829
_cell_angle_gamma 90.000000
_cell_volume 2538.335931
_symmetry_space_group_name_H-M "C 2/C"
_symmetry_group_IT_number 15
_symmetry_cell_setting 'monoclinic'
loop_
_space_group_symop_operation_xyz
x,y,z
-x,y,1/2-z
-x,-y,-z
x,-y,1/2+z
1/2+x,1/2+y,z
1/2-x,1/2+y,1/2-z
1/2-x,1/2-y,-z
1/2+x,1/2-y,1/2+z
loop_
_atom_site_type_symbol
_atom_site_label
_atom_site_fract_x
_atom_site_fract_y
_atom_site_fract_z
Si Si1 0.280735 0.432085 0.439317
Si Si2 0.043428 0.605917 0.446973
Si Si3 0.298368 0.184283 0.645917
Si Si4 0.793415 0.746298 0.100712
Si Si5 0.345164 0.164489 0.308833
Si Si6 0.869173 0.138881 0.379894
Si Si7 0.500000 0.682849 0.750000
O O1 0.254003 0.405886 0.363281
O O2 0.174428 0.392510 0.586735
O O3 0.288541 0.545323 0.444338
O O4 0.399196 0.384345 0.373081
O O5 0.130790 0.651822 0.441602
O O6 0.111046 0.593100 0.300716
O O7 0.000000 0.500000 0.500000
O O8 0.935018 0.676901 0.537216
O O9 0.238052 0.190817 0.789571
O O10 0.274036 0.282921 0.615695
O O11 0.676576 0.712976 0.152473
O O12 0.864357 0.815176 0.977675
O O13 0.442741 0.247219 0.229061
O O14 0.000000 0.110455 0.250000
#
# Coordination Sequence:
#
# PCOD8132184 Si02
#       7
#     8   8   8   8   8   8   4
#     4  11  21  37  63  93 120 159 205 255 298 373
#     4  11  22  38  61  92 124 158 210 253 299 365
#     4  10  21  39  61  88 124 155 202 252 312 355
#     4  10  24  42  65  86 124 168 197 253 312 362
#     4  10  21  35  60  89 124 161 199 250 316 355
#     4  11  23  44  63  89 123 161 209 244 305 373
#     4  10  18  36  58  86 120 156 196 254 308 358
#
# _framework density 20.485862000000001
#
# number of rings (size 3 to 8) (size 9 to 14) (size 15 to 20)
#    0.000    1.538    0.769    5.538    2.154    0.000 
#    0.000    0.769    0.000    0.000    0.000    0.000 
#    0.000    0.000    0.000    0.000    0.000    0.000 
#
# Total GULP energy -322332.727110 kJ/mol
# GULP energy per Si atom -12397.412581 kJ/mol
# Density = 2.043924 g / cm^3
# Si number density = 20.485862 Si / 1000 Ang^3
#
#
#
# Elastic Constant Matrix: (Units=GPa)
#
#
# Indices 1 2 3 4 5 6 
#
# 1 91.2195 24.8209 49.5994 0.0000 11.5903 0.0000
# 2 24.8209 94.7517 47.5557 0.0000 19.6645 0.0000
# 3 49.5994 47.5557 97.0959 0.0000 16.8933 0.0000
# 4 0.0000 0.0000 0.0000 26.8024 0.0000 -0.7148
# 5 11.5903 19.6645 16.8933 0.0000 39.5436 0.0000
# 6 0.0000 0.0000 0.0000 -0.7148 0.0000 22.3250
#
#
#
# Elastic Compliance Matrix: (Units=1/GPa)
#
#
# Indices 1 2 3 4 5 6 
#
# 1 0.015234 0.000088 -0.007606 0.000000 -0.001260 0.000000
# 2 0.000088 0.014725 -0.006458 0.000000 -0.004589 0.000000
# 3 -0.007606 -0.006458 0.017718 0.000000 -0.002128 0.000000
# 4 0.000000 0.000000 0.000000 0.037342 0.000000 0.001196
# 5 -0.001260 -0.004589 -0.002128 0.000000 0.028849 0.000000
# 6 0.000000 0.000000 0.000000 0.001196 0.000000 0.044831
#
#
# Mechanical properties :
#
#
# Convention : Reuss Voigt Hill
#
# Bulk Modulus (GPa) = 50.69913 58.55765 54.62839
# Shear Modulus (GPa) = 25.87630 28.47362 27.17496
#
# Velocity S-wave (km/s) = 3.55791 3.73220 3.64610
# Velocity P-wave (km/s) = 6.45603 6.87160 6.66706
#
# Compressibility (1/GPa) = 0.01972421
#
# Stress axis : x y z
#
# Youngs Moduli (GPa) = 65.64098 67.91307 56.43954
#
# Poissons Ratio (x) = -0.00599 0.42929
# Poissons Ratio (y) = -0.00579 0.36451
# Poissons Ratio (z) = 0.49928 0.43862
#
# Static dielectric constant tensor:
#      x y z
#    x 3.955360 0.000000 -0.092100 
#    y 0.000000 3.524480 0.000000 
#    z -0.092100 0.000000 3.660120 
# 
# 
# High freq. dielectric constant tensor:
#      x y z
#    x 1.806690 0.000000 -0.004810 
#    y 0.000000 1.790660 0.000000 
#    z -0.004810 0.000000 1.800730 
# 
# From -- ./inp_files/162495.got.cif
#   From: 2010.06.25/outbox.cif.g09.slc.cpg/sg15_82_cif.got.tgz:162495.got - 2010.06.28 07:06:18.
