data_PCOD8132133
_publ_section_title
;
Structure prediction by ZEFSAII (Michael W. Deem and Ramdas Pophale) SiO2 
 PCOD8132133
Probable space group: C 2/C
;
_chemical_formula_sum "Si O2"
_cell_formula_units_Z 44
_cell_length_a 11.589470
_cell_length_b 20.060980
_cell_length_c 10.550100
_cell_angle_alpha 90.000000
_cell_angle_beta 75.618528
_cell_angle_gamma 90.000000
_cell_volume 2375.993487
_symmetry_space_group_name_H-M "C 2/C"
_symmetry_group_IT_number 15
_symmetry_cell_setting 'monoclinic'
loop_
_space_group_symop_operation_xyz
x,y,z
-x,y,1/2-z
-x,-y,-z
x,-y,1/2+z
1/2+x,1/2+y,z
1/2-x,1/2+y,1/2-z
1/2-x,1/2-y,-z
1/2+x,1/2-y,1/2+z
loop_
_atom_site_type_symbol
_atom_site_label
_atom_site_fract_x
_atom_site_fract_y
_atom_site_fract_z
Si Si1 0.375875 0.036192 0.015951
Si Si2 0.000000 0.352079 0.750000
Si Si3 0.631426 0.814895 0.941967
Si Si4 0.478563 0.555921 0.110797
Si Si5 0.289459 0.048677 0.315757
Si Si6 0.099762 0.187583 0.120104
O O1 0.399371 0.114649 0.983421
O O2 0.304453 0.023520 0.166665
O O3 0.500000 0.000000 0.000000
O O4 0.302366 0.010730 0.914552
O O5 0.956451 0.303965 0.651468
O O6 0.889479 0.397558 0.824221
O O7 0.768406 0.819916 0.857151
O O8 0.603259 0.751923 0.032997
O O9 0.500000 0.530257 0.250000
O O10 0.341894 0.579856 0.136297
O O11 0.564179 0.619210 0.056954
O O12 0.500000 0.500000 0.000000
O O13 0.000000 0.201675 0.250000
#
# Coordination Sequence:
#
# PCOD8132133 Si02
#       6
#     8   4   8   8   8   8
#     4  11  19  35  57  89 117 147 184 240 283 336
#     4  10  18  36  56  84 116 146 178 240 290 322
#     4  10  21  37  58  83 114 146 191 234 278 336
#     4  11  22  40  60  83 116 153 193 231 280 344
#     4  11  20  34  58  86 116 150 190 230 291 333
#     4  10  21  40  59  80 111 155 188 225 284 341
#
# _framework density 18.51857
#
# number of rings (size 3 to 8) (size 9 to 14) (size 15 to 20)
#    0.000    1.455    3.636    6.545    0.000    1.455 
#    1.636    3.636    0.000    0.000    0.000    0.000 
#    0.000    0.000    0.000    0.000    0.000    0.000 
#
# Total GULP energy -272616.463270 kJ/mol
# GULP energy per Si atom -12391.657421 kJ/mol
# Density = 1.847642 g / cm^3
# Si number density = 18.518570 Si / 1000 Ang^3
#
#
#
# Elastic Constant Matrix: (Units=GPa)
#
#
# Indices 1 2 3 4 5 6 
#
# 1 134.4106 51.8803 40.6166 0.0000 -6.1381 0.0000
# 2 51.8803 104.9293 61.8120 0.0000 1.4999 0.0000
# 3 40.6166 61.8120 90.5540 0.0000 4.9917 0.0000
# 4 0.0000 0.0000 0.0000 25.8419 0.0000 -2.5864
# 5 -6.1381 1.4999 4.9917 0.0000 36.6755 0.0000
# 6 0.0000 0.0000 0.0000 -2.5864 0.0000 23.9963
#
#
#
# Elastic Compliance Matrix: (Units=1/GPa)
#
#
# Indices 1 2 3 4 5 6 
#
# 1 0.009498 -0.003596 -0.001915 0.000000 0.001997 0.000000
# 2 -0.003596 0.017327 -0.010219 0.000000 0.000080 0.000000
# 3 -0.001915 -0.010219 0.019015 0.000000 -0.002491 0.000000
# 4 0.000000 0.000000 0.000000 0.039119 0.000000 0.004216
# 5 0.001997 0.000080 -0.002491 0.000000 0.027936 0.000000
# 6 0.000000 0.000000 0.000000 0.004216 0.000000 0.042128
#
#
# Mechanical properties :
#
#
# Convention : Reuss Voigt Hill
#
# Bulk Modulus (GPa) = 69.54651 70.94574 70.24612
# Shear Modulus (GPa) = 26.14025 29.00841 27.57433
#
# Velocity S-wave (km/s) = 3.76116 3.96213 3.86296
# Velocity P-wave (km/s) = 7.51654 7.70228 7.60997
#
# Compressibility (1/GPa) = 0.01437887
#
# Stress axis : x y z
#
# Youngs Moduli (GPa) = 105.28484 57.71406 52.59067
#
# Poissons Ratio (x) = 0.20756 0.10074
# Poissons Ratio (y) = 0.37864 0.53740
# Poissons Ratio (z) = 0.20167 0.58976
#
# Static dielectric constant tensor:
#      x y z
#    x 3.849100 0.000000 0.084900 
#    y 0.000000 3.491430 0.000000 
#    z 0.084900 0.000000 3.530580 
# 
# 
# High freq. dielectric constant tensor:
#      x y z
#    x 1.748070 0.000000 -0.000960 
#    y 0.000000 1.708970 0.000000 
#    z -0.000960 0.000000 1.705490 
# 
# From -- ./inp_files/87202.got.cif
#   From: 2010.06.25/outbox.cif.g09.slc.cpg/sg15_44_cif.got.tgz:87202.got - 2010.06.28 07:06:18.
