data_PCOD8132740
_publ_section_title
;
Structure prediction by ZEFSAII (Michael W. Deem and Ramdas Pophale) SiO2 
 PCOD8132740
Probable space group: C 2/C
;
_chemical_formula_sum "Si O2"
_cell_formula_units_Z 40
_cell_length_a 26.452141
_cell_length_b 7.851139
_cell_length_c 14.590308
_cell_angle_alpha 90.000000
_cell_angle_beta 34.895413
_cell_angle_gamma 90.000000
_cell_volume 1733.464216
_symmetry_space_group_name_H-M "C 2/C"
_symmetry_group_IT_number 15
_symmetry_cell_setting 'monoclinic'
loop_
_space_group_symop_operation_xyz
x,y,z
-x,y,1/2-z
-x,-y,-z
x,-y,1/2+z
1/2+x,1/2+y,z
1/2-x,1/2+y,1/2-z
1/2-x,1/2-y,-z
1/2+x,1/2-y,1/2+z
loop_
_atom_site_type_symbol
_atom_site_label
_atom_site_fract_x
_atom_site_fract_y
_atom_site_fract_z
Si Si1 0.413899 0.026397 0.828199
Si Si2 0.971950 0.149630 0.131646
Si Si3 0.378236 0.430849 0.594378
Si Si4 0.412033 0.891154 0.641889
Si Si5 0.303644 0.928516 0.155439
O O1 0.500000 0.950780 0.750000
O O2 0.437029 0.217758 0.758559
O O3 0.385507 0.898893 0.788425
O O4 0.335736 0.033243 0.017986
O O5 0.891101 0.105952 0.184443
O O6 0.056513 0.209336 0.941854
O O7 0.026718 0.988677 0.092873
O O8 0.344158 0.260284 0.594746
O O9 0.302550 0.574572 0.692042
O O10 0.500000 0.000000 0.500000
O O11 0.331951 0.969994 0.703952
#
# Coordination Sequence:
#
# PCOD8132740 Si02
#       5
#     8   8   8   8   8
#     4  11  20  38  73 100 129 180 226 274 340 403
#     4  10  21  44  67  95 135 180 225 281 345 406
#     4  11  24  42  68  99 139 181 223 283 346 399
#     4  10  18  40  67  91 132 173 219 273 338 401
#     4  12  23  41  69  99 137 179 227 280 336 403
#
# _framework density 23.075181000000001
#
# number of rings (size 3 to 8) (size 9 to 14) (size 15 to 20)
#    0.000    1.200    8.000    1.200    0.000    0.800 
#    0.000    9.000    0.000    0.000    0.000    0.000 
#    0.000    0.000    0.000    0.000    0.000    0.000 
#
# Total GULP energy -247796.530715 kJ/mol
# GULP energy per Si atom -12389.826536 kJ/mol
# Density = 2.302266 g / cm^3
# Si number density = 23.075181 Si / 1000 Ang^3
#
#
#
# Elastic Constant Matrix: (Units=GPa)
#
#
# Indices 1 2 3 4 5 6 
#
# 1 146.7432 32.0218 54.1601 0.0002 -8.0037 0.0002
# 2 32.0218 89.4088 18.6198 0.0044 -4.9462 -0.0003
# 3 54.1601 18.6198 62.1929 0.0026 -2.6173 -0.0005
# 4 0.0002 0.0044 0.0026 31.1001 -0.0005 -9.5028
# 5 -8.0037 -4.9462 -2.6173 -0.0005 47.1561 -0.0001
# 6 0.0002 -0.0003 -0.0005 -9.5028 -0.0001 33.5354
#
#
#
# Elastic Compliance Matrix: (Units=1/GPa)
#
#
# Indices 1 2 3 4 5 6 
#
# 1 0.010408 -0.001908 -0.008447 0.000001 0.001098 0.000000
# 2 -0.001908 0.012331 -0.001994 -0.000002 0.000859 0.000000
# 3 -0.008447 -0.001994 0.024019 -0.000002 -0.000310 0.000000
# 4 0.000001 -0.000002 -0.000002 0.035202 0.000000 0.009975
# 5 0.001098 0.000859 -0.000310 0.000000 0.021465 0.000000
# 6 0.000000 0.000000 0.000000 0.009975 0.000000 0.032646
#
#
# Mechanical properties :
#
#
# Convention : Reuss Voigt Hill
#
# Bulk Modulus (GPa) = 45.32985 56.43870 50.88428
# Shear Modulus (GPa) = 29.74040 35.26119 32.50079
#
# Velocity S-wave (km/s) = 3.59395 3.91333 3.75704
# Velocity P-wave (km/s) = 6.07528 6.70303 6.39686
#
# Compressibility (1/GPa) = 0.02206052
#
# Stress axis : x y z
#
# Youngs Moduli (GPa) = 96.07714 81.09846 41.63454
#
# Poissons Ratio (x) = 0.15473 0.35167
# Poissons Ratio (y) = 0.18331 0.08302
# Poissons Ratio (z) = 0.81152 0.16171
#
# Static dielectric constant tensor:
#      x y z
#    x 4.877290 -0.000030 0.238300 
#    y -0.000030 5.652100 -0.000020 
#    z 0.238300 -0.000020 4.018640 
# 
# 
# High freq. dielectric constant tensor:
#      x y z
#    x 1.931050 0.000000 -0.016100 
#    y 0.000000 1.916470 0.000000 
#    z -0.016100 0.000000 1.865900 
# 
# From -- ./inp_files/171664.got.cif
#   From: 2010.06.25/outbox.cif.g09.slc.cpg/sg15_86_cif.got.tgz:171664.got - 2010.06.28 07:06:18.
