data_PCOD8132278
_publ_section_title
;
Structure prediction by ZEFSAII (Michael W. Deem and Ramdas Pophale) SiO2 
 PCOD8132278
Probable space group: C 2/C
;
_chemical_formula_sum "Si O2"
_cell_formula_units_Z 52
_cell_length_a 14.132938
_cell_length_b 11.967808
_cell_length_c 25.715506
_cell_angle_alpha 90.000000
_cell_angle_beta 38.455175
_cell_angle_gamma 90.000000
_cell_volume 2704.980998
_symmetry_space_group_name_H-M "C 2/C"
_symmetry_group_IT_number 15
_symmetry_cell_setting 'monoclinic'
loop_
_space_group_symop_operation_xyz
x,y,z
-x,y,1/2-z
-x,-y,-z
x,-y,1/2+z
1/2+x,1/2+y,z
1/2-x,1/2+y,1/2-z
1/2-x,1/2-y,-z
1/2+x,1/2-y,1/2+z
loop_
_atom_site_type_symbol
_atom_site_label
_atom_site_fract_x
_atom_site_fract_y
_atom_site_fract_z
Si Si1 0.943266 0.478209 0.145920
Si Si2 0.886570 0.353092 0.994133
Si Si3 0.319871 0.966647 0.878159
Si Si4 0.687606 0.532722 0.329878
Si Si5 0.903652 0.117465 0.944447
Si Si6 0.681315 0.783381 0.362307
Si Si7 0.000000 0.723539 0.250000
O O1 0.805912 0.545746 0.231989
O O2 0.885935 0.356482 0.154866
O O3 0.079302 0.453852 0.128543
O O4 0.999851 0.547081 0.071111
O O5 0.714457 0.388532 0.052652
O O6 0.892936 0.327562 0.052331
O O7 0.944494 0.246568 0.936370
O O8 0.275685 0.022837 0.841901
O O9 0.418117 0.853078 0.828601
O O10 0.165579 0.933040 0.973102
O O11 0.551685 0.455513 0.368035
O O12 0.633178 0.655221 0.372170
O O13 0.865863 0.797806 0.282412
#
# Coordination Sequence:
#
# PCOD8132278 Si02
#       7
#     8   8   8   8   8   8   4
#     4  11  23  36  60  86 126 157 191 245 311 354
#     4  10  22  39  60  91 122 157 197 248 302 348
#     4  10  18  38  58  88 118 150 198 251 292 338
#     4  11  22  37  63  92 114 155 208 248 291 351
#     4  10  21  35  66  90 116 152 207 247 289 355
#     4  11  23  38  61  88 125 153 200 246 301 356
#     4  10  18  36  62  86 114 148 204 252 282 338
#
# _framework density 19.223794999999999
#
# number of rings (size 3 to 8) (size 9 to 14) (size 15 to 20)
#    0.000    1.538    6.154    0.923    4.308    0.000 
#    0.000    3.077    3.385    0.000    0.000    0.000 
#    0.000    0.000    0.000    0.000    0.000    0.000 
#
# Total GULP energy -322304.001676 kJ/mol
# GULP energy per Si atom -12396.307757 kJ/mol
# Density = 1.918004 g / cm^3
# Si number density = 19.223795 Si / 1000 Ang^3
#
#
#
# Elastic Constant Matrix: (Units=GPa)
#
#
# Indices 1 2 3 4 5 6 
#
# 1 94.9476 58.5216 23.2607 0.0000 -3.4886 0.0000
# 2 58.5216 74.4844 13.7079 0.0000 -11.8540 0.0000
# 3 23.2607 13.7079 61.4838 0.0001 -7.2150 0.0000
# 4 0.0000 0.0000 0.0001 27.4077 0.0000 -9.5520
# 5 -3.4886 -11.8540 -7.2150 0.0000 31.5677 0.0000
# 6 0.0000 0.0000 0.0000 -9.5520 0.0000 38.0482
#
#
#
# Elastic Compliance Matrix: (Units=1/GPa)
#
#
# Indices 1 2 3 4 5 6 
#
# 1 0.022372 -0.017461 -0.005189 0.000000 -0.005271 0.000000
# 2 -0.017461 0.028332 0.001348 0.000000 0.009017 0.000000
# 3 -0.005189 0.001348 0.018413 0.000000 0.004141 0.000000
# 4 0.000000 0.000000 0.000000 0.039984 0.000000 0.010038
# 5 -0.005271 0.009017 0.004141 0.000000 0.035428 0.000000
# 6 0.000000 0.000000 0.000000 0.010038 0.000000 0.028803
#
#
# Mechanical properties :
#
#
# Convention : Reuss Voigt Hill
#
# Bulk Modulus (GPa) = 37.72027 46.87735 42.29881
# Shear Modulus (GPa) = 22.24439 28.43309 25.33874
#
# Velocity S-wave (km/s) = 3.40535 3.85002 3.63449
# Velocity P-wave (km/s) = 5.92673 6.64843 6.29792
#
# Compressibility (1/GPa) = 0.02651095
#
# Stress axis : x y z
#
# Youngs Moduli (GPa) = 44.69830 35.29588 54.30881
#
# Poissons Ratio (x) = 0.61631 0.28183
# Poissons Ratio (y) = 0.78049 -0.07318
# Poissons Ratio (z) = 0.23196 -0.04756
#
# Static dielectric constant tensor:
#      x y z
#    x 3.556900 0.000000 -0.075440 
#    y 0.000000 3.241160 0.000000 
#    z -0.075440 0.000000 3.623770 
# 
# 
# High freq. dielectric constant tensor:
#      x y z
#    x 1.741150 0.000000 0.003700 
#    y 0.000000 1.713870 0.000000 
#    z 0.003700 0.000000 1.758010 
# 
# From -- ./inp_files/273793.got.cif
#   From: 2010.06.25/outbox.cif.g09.slc.cpg/sg15_137_cif.got.tgz:273793.got - 2010.06.28 07:06:18.
