data_PCOD8132913
_publ_section_title
;
Structure prediction by ZEFSAII (Michael W. Deem and Ramdas Pophale) SiO2 
 PCOD8132913
Probable space group: C 2/C
;
_chemical_formula_sum "Si O2"
_cell_formula_units_Z 64
_cell_length_a 18.632288
_cell_length_b 14.676988
_cell_length_c 15.786917
_cell_angle_alpha 90.000000
_cell_angle_beta 131.451917
_cell_angle_gamma 90.000000
_cell_volume 3235.778408
_symmetry_space_group_name_H-M "C 2/C"
_symmetry_group_IT_number 15
_symmetry_cell_setting 'monoclinic'
loop_
_space_group_symop_operation_xyz
x,y,z
-x,y,1/2-z
-x,-y,-z
x,-y,1/2+z
1/2+x,1/2+y,z
1/2-x,1/2+y,1/2-z
1/2-x,1/2-y,-z
1/2+x,1/2-y,1/2+z
loop_
_atom_site_type_symbol
_atom_site_label
_atom_site_fract_x
_atom_site_fract_y
_atom_site_fract_z
Si Si1 0.552384 0.067022 0.207077
Si Si2 0.491887 0.726756 0.838247
Si Si3 0.818166 0.203414 0.799205
Si Si4 0.334210 0.086343 0.753877
Si Si5 0.694345 0.216223 0.538043
Si Si6 0.623358 0.965402 0.029325
Si Si7 0.703772 0.837297 0.569993
Si Si8 0.608782 0.761587 0.328470
O O1 0.500000 0.034618 0.250000
O O2 0.562768 0.175328 0.211177
O O3 0.654975 0.014486 0.280112
O O4 0.487956 0.023617 0.081495
O O5 0.500000 0.685205 0.750000
O O6 0.419566 0.668582 0.840194
O O7 0.593474 0.730124 0.963601
O O8 0.775956 0.118988 0.821566
O O9 0.749754 0.234292 0.668476
O O10 0.831714 0.288570 0.872166
O O11 0.378184 0.082760 0.881282
O O12 0.391258 0.159740 0.742452
O O13 0.750000 0.250000 0.500000
O O14 0.672065 0.109167 0.504375
O O15 0.686637 0.056081 0.072494
O O16 0.640114 0.803112 0.442489
O O17 0.816782 0.818458 0.640227
O O18 0.500000 0.722905 0.250000
#
# Coordination Sequence:
#
# PCOD8132913 Si02
#       8
#     8   8   8   8   8   8   8   8
#     4  10  19  30  52  84 112 142 182 241 292 336
#     4  10  19  33  56  84 115 147 191 232 284 346
#     4  10  21  34  53  82 114 153 185 230 285 342
#     4  10  19  32  51  78 111 146 181 229 286 331
#     4  10  20  36  57  83 118 150 186 236 290 344
#     4  10  20  33  54  82 117 143 191 236 289 343
#     4  10  21  37  56  85 114 153 194 238 288 343
#     4  10  21  37  59  81 116 153 195 239 288 345
#
# _framework density 19.778858
#
# number of rings (size 3 to 8) (size 9 to 14) (size 15 to 20)
#    0.000    2.000    1.250    3.000    0.000    6.000 
#    2.250    0.000    5.500    0.000    0.000   13.125 
#    0.000    0.000    0.000    0.000    0.000    0.000 
#
# Total GULP energy -396572.592977 kJ/mol
# GULP energy per Si atom -12392.893531 kJ/mol
# Density = 1.973384 g / cm^3
# Si number density = 19.778858 Si / 1000 Ang^3
#
#
#
# Elastic Constant Matrix: (Units=GPa)
#
#
# Indices 1 2 3 4 5 6 
#
# 1 124.4156 19.4504 32.5428 0.0000 7.1593 0.0000
# 2 19.4504 48.7632 12.0097 0.0000 -0.7283 0.0000
# 3 32.5428 12.0097 86.7339 0.0000 -0.1445 0.0000
# 4 0.0000 0.0000 0.0000 17.7354 0.0000 3.3249
# 5 7.1593 -0.7283 -0.1445 0.0000 36.7681 0.0000
# 6 0.0000 0.0000 0.0000 3.3249 0.0000 25.2658
#
#
#
# Elastic Compliance Matrix: (Units=1/GPa)
#
#
# Indices 1 2 3 4 5 6 
#
# 1 0.009438 -0.003023 -0.003126 0.000000 -0.001910 0.000000
# 2 -0.003023 0.022206 -0.001939 0.000000 0.001021 0.000000
# 3 -0.003126 -0.001939 0.012972 0.000000 0.000621 0.000000
# 4 0.000000 0.000000 0.000000 0.057811 0.000000 -0.007608
# 5 -0.001910 0.001021 0.000621 0.000000 0.027592 0.000000
# 6 0.000000 0.000000 0.000000 -0.007608 0.000000 0.040580
#
#
# Mechanical properties :
#
#
# Convention : Reuss Voigt Hill
#
# Bulk Modulus (GPa) = 35.16151 43.10205 39.13178
# Shear Modulus (GPa) = 25.47729 29.01453 27.24591
#
# Velocity S-wave (km/s) = 3.59291 3.83423 3.71553
# Velocity P-wave (km/s) = 5.91844 6.43747 6.18341
#
# Compressibility (1/GPa) = 0.02844019
#
# Stress axis : x y z
#
# Youngs Moduli (GPa) = 105.95856 45.03319 77.09066
#
# Poissons Ratio (x) = 0.13614 0.24096
# Poissons Ratio (y) = 0.32033 0.14946
# Poissons Ratio (z) = 0.33119 0.08731
#
# Static dielectric constant tensor:
#      x y z
#    x 3.940170 0.000000 -0.125080 
#    y 0.000000 3.491560 0.000000 
#    z -0.125080 0.000000 3.711070 
# 
# 
# High freq. dielectric constant tensor:
#      x y z
#    x 1.788820 0.000000 -0.017380 
#    y 0.000000 1.733900 0.000000 
#    z -0.017380 0.000000 1.770890 
# 
# From -- ./inp_files/162577.got.cif
#   From: 2010.06.25/outbox.cif.g09.slc.cpg/sg15_82_cif.got.tgz:162577.got - 2010.06.28 07:06:18.
