data_PCOD8132686
_publ_section_title
;
Structure prediction by ZEFSAII (Michael W. Deem and Ramdas Pophale) SiO2 
 PCOD8132686
Probable space group: C 2/C
;
_chemical_formula_sum "Si O2"
_cell_formula_units_Z 52
_cell_length_a 20.193142
_cell_length_b 29.954350
_cell_length_c 8.274471
_cell_angle_alpha 90.000000
_cell_angle_beta 33.544629
_cell_angle_gamma 90.000000
_cell_volume 2765.694403
_symmetry_space_group_name_H-M "C 2/C"
_symmetry_group_IT_number 15
_symmetry_cell_setting 'monoclinic'
loop_
_space_group_symop_operation_xyz
x,y,z
-x,y,1/2-z
-x,-y,-z
x,-y,1/2+z
1/2+x,1/2+y,z
1/2-x,1/2+y,1/2-z
1/2-x,1/2-y,-z
1/2+x,1/2-y,1/2+z
loop_
_atom_site_type_symbol
_atom_site_label
_atom_site_fract_x
_atom_site_fract_y
_atom_site_fract_z
Si Si1 0.774642 0.561402 0.938531
Si Si2 0.366307 0.136687 0.553767
Si Si3 0.864252 0.875445 0.579352
Si Si4 0.713123 0.799557 0.032759
Si Si5 0.630377 0.984799 0.941016
Si Si6 0.000000 0.669653 0.750000
Si Si7 0.330117 0.895145 0.784162
O O1 0.867563 0.598758 0.689423
O O2 0.770945 0.522492 0.809970
O O3 0.652452 0.587605 0.240279
O O4 0.828460 0.539369 0.984388
O O5 0.301733 0.179685 0.758539
O O6 0.298887 0.118362 0.531725
O O7 0.500000 0.151354 0.250000
O O8 0.790805 0.891643 0.573106
O O9 0.818611 0.826620 0.726857
O O10 0.000000 0.872019 0.250000
O O11 0.592272 0.800388 0.168077
O O12 0.750000 0.750000 0.000000
O O13 0.621902 0.946456 0.819295
O O14 0.500000 0.005790 0.250000
O O15 0.069777 0.638495 0.483477
#
# Coordination Sequence:
#
# PCOD8132686 Si02
#       7
#     8   8   8   8   8   4   8
#     4  10  21  32  51  82 115 151 191 240 279 337
#     4  11  19  34  57  85 116 146 185 231 298 342
#     4   9  21  42  58  74 116 160 197 230 289 337
#     4  10  22  39  60  87 113 146 188 242 286 348
#     4  11  18  30  51  85 120 145 189 236 292 336
#     4  10  18  40  58  84 120 148 178 234 292 340
#     4  10  19  34  60  84 114 157 185 227 292 342
#
# _framework density 18.801787999999998
#
# number of rings (size 3 to 8) (size 9 to 14) (size 15 to 20)
#    0.000    1.846    2.308    3.692    0.000    0.615 
#    2.769    6.923    0.000    0.000    0.000    0.000 
#    0.000    0.000    0.000    0.000    0.000    0.000 
#
# Total GULP energy -322153.535100 kJ/mol
# GULP energy per Si atom -12390.520581 kJ/mol
# Density = 1.875899 g / cm^3
# Si number density = 18.801788 Si / 1000 Ang^3
#
#
#
# Elastic Constant Matrix: (Units=GPa)
#
#
# Indices 1 2 3 4 5 6 
#
# 1 70.8990 43.1683 49.5317 0.0000 11.1165 0.0000
# 2 43.1683 141.3342 63.5678 0.0000 5.9967 0.0000
# 3 49.5317 63.5678 134.1541 0.0000 -0.5437 0.0000
# 4 0.0000 0.0000 0.0000 19.1591 0.0000 2.4730
# 5 11.1165 5.9967 -0.5437 0.0000 31.1796 0.0000
# 6 0.0000 0.0000 0.0000 2.4730 0.0000 27.6886
#
#
#
# Elastic Compliance Matrix: (Units=1/GPa)
#
#
# Indices 1 2 3 4 5 6 
#
# 1 0.021862 -0.003465 -0.006459 0.000000 -0.007241 0.000000
# 2 -0.003465 0.009644 -0.003293 0.000000 -0.000677 0.000000
# 3 -0.006459 -0.003293 0.011412 0.000000 0.003135 0.000000
# 4 0.000000 0.000000 0.000000 0.052803 0.000000 -0.004716
# 5 -0.007241 -0.000677 0.003135 0.000000 0.034839 0.000000
# 6 0.000000 0.000000 0.000000 -0.004716 0.000000 0.036537
#
#
# Mechanical properties :
#
#
# Convention : Reuss Voigt Hill
#
# Bulk Modulus (GPa) = 60.66764 73.21365 66.94064
# Shear Modulus (GPa) = 25.12236 28.28009 26.70123
#
# Velocity S-wave (km/s) = 3.65933 3.88250 3.77257
# Velocity P-wave (km/s) = 7.08458 7.68913 7.39304
#
# Compressibility (1/GPa) = 0.01648325
#
# Stress axis : x y z
#
# Youngs Moduli (GPa) = 45.74083 103.69647 87.62692
#
# Poissons Ratio (x) = 0.35931 0.56601
# Poissons Ratio (y) = 0.15849 0.28855
# Poissons Ratio (z) = 0.29546 0.34146
#
# Static dielectric constant tensor:
#      x y z
#    x 3.570410 0.000000 0.430770 
#    y 0.000000 3.812930 0.000000 
#    z 0.430770 0.000000 3.572000 
# 
# 
# High freq. dielectric constant tensor:
#      x y z
#    x 1.721340 0.000000 0.031510 
#    y 0.000000 1.728120 0.000000 
#    z 0.031510 0.000000 1.717860 
# 
# From -- ./inp_files/33620.got.cif
#   From: 2010.06.25/outbox.cif.g09.slc.cpg/sg15_17_cif.got.tgz:33620.got - 2010.06.28 07:06:18.
