data_PCOD8132726
_publ_section_title
;
Structure prediction by ZEFSAII (Michael W. Deem and Ramdas Pophale) SiO2 
 PCOD8132726
Probable space group: C 2/C
;
_chemical_formula_sum "Si O2"
_cell_formula_units_Z 56
_cell_length_a 11.384525
_cell_length_b 17.852824
_cell_length_c 15.030020
_cell_angle_alpha 90.000000
_cell_angle_beta 107.962077
_cell_angle_gamma 90.000000
_cell_volume 2905.902350
_symmetry_space_group_name_H-M "C 2/C"
_symmetry_group_IT_number 15
_symmetry_cell_setting 'monoclinic'
loop_
_space_group_symop_operation_xyz
x,y,z
-x,y,1/2-z
-x,-y,-z
x,-y,1/2+z
1/2+x,1/2+y,z
1/2-x,1/2+y,1/2-z
1/2-x,1/2-y,-z
1/2+x,1/2-y,1/2+z
loop_
_atom_site_type_symbol
_atom_site_label
_atom_site_fract_x
_atom_site_fract_y
_atom_site_fract_z
Si Si1 0.594136 0.836960 0.693182
Si Si2 0.269649 0.419800 0.138497
Si Si3 0.111771 0.592777 0.843353
Si Si4 0.752422 0.528500 0.216763
Si Si5 0.010786 0.035571 0.598163
Si Si6 0.666435 0.671049 0.683646
Si Si7 0.484891 0.087590 0.994592
O O1 0.500000 0.822577 0.750000
O O2 0.707686 0.885832 0.759690
O O3 0.640785 0.758112 0.668147
O O4 0.529314 0.877912 0.596802
O O5 0.204184 0.480404 0.187675
O O6 0.375066 0.462420 0.108089
O O7 0.328587 0.352668 0.210842
O O8 0.159363 0.388882 0.050651
O O9 0.180543 0.510799 0.853250
O O10 0.203602 0.658120 0.834074
O O11 0.000000 0.590545 0.750000
O O12 0.068848 0.615295 0.931974
O O13 0.603829 0.519061 0.174647
O O14 0.063214 0.120597 0.609348
O O15 0.000000 0.000000 0.500000
O O16 0.500000 0.000000 0.000000
#
# Coordination Sequence:
#
# PCOD8132726 Si02
#       7
#     8   8   8   8   8   8   8
#     4  12  25  40  60  93 132 167 213 263 319 380
#     4  10  20  40  64  88 121 166 205 254 321 371
#     4  10  18  40  65  93 119 159 210 255 319 372
#     4  10  20  37  65  89 122 162 204 267 313 373
#     4  10  22  38  63  89 120 161 215 256 308 381
#     4  10  23  43  63  84 132 169 200 265 321 376
#     4  12  22  36  69  98 122 160 212 266 313 379
#
# _framework density 19.271124
#
# number of rings (size 3 to 8) (size 9 to 14) (size 15 to 20)
#    0.000    1.714    4.286    3.857    6.000    0.571 
#    2.571    2.857    0.000    0.000    0.000    0.000 
#    0.000    0.000    0.000    0.000    0.000    0.000 
#
# Total GULP energy -347104.665979 kJ/mol
# GULP energy per Si atom -12396.595214 kJ/mol
# Density = 1.922726 g / cm^3
# Si number density = 19.271124 Si / 1000 Ang^3
#
#
#
# Elastic Constant Matrix: (Units=GPa)
#
#
# Indices 1 2 3 4 5 6 
#
# 1 128.4709 35.3587 46.3131 0.0000 -0.9867 0.0000
# 2 35.3587 132.1229 36.7118 0.0000 14.7840 0.0000
# 3 46.3131 36.7118 98.4586 0.0000 1.0110 0.0000
# 4 0.0000 0.0000 0.0000 15.9849 0.0000 -2.5818
# 5 -0.9867 14.7840 1.0110 0.0000 26.5481 0.0000
# 6 0.0000 0.0000 0.0000 -2.5818 0.0000 20.7654
#
#
#
# Elastic Compliance Matrix: (Units=1/GPa)
#
#
# Indices 1 2 3 4 5 6 
#
# 1 0.009673 -0.001651 -0.003949 0.000000 0.001430 0.000000
# 2 -0.001651 0.009322 -0.002646 0.000000 -0.005152 0.000000
# 3 -0.003949 -0.002646 0.012992 0.000000 0.000832 0.000000
# 4 0.000000 0.000000 0.000000 0.063841 0.000000 0.007937
# 5 0.001430 -0.005152 0.000832 0.000000 0.040558 0.000000
# 6 0.000000 0.000000 0.000000 0.007937 0.000000 0.049144
#
#
# Mechanical properties :
#
#
# Convention : Reuss Voigt Hill
#
# Bulk Modulus (GPa) = 64.53957 66.20216 65.37087
# Shear Modulus (GPa) = 24.13262 28.70427 26.41845
#
# Velocity S-wave (km/s) = 3.54258 3.86359 3.70656
# Velocity P-wave (km/s) = 7.09198 7.37094 7.23280
#
# Compressibility (1/GPa) = 0.01549437
#
# Stress axis : x y z
#
# Youngs Moduli (GPa) = 103.38160 107.26781 76.96915
#
# Poissons Ratio (x) = 0.17714 0.30394
# Poissons Ratio (y) = 0.17072 0.20369
# Poissons Ratio (z) = 0.40824 0.28387
#
# Static dielectric constant tensor:
#      x y z
#    x 5.148010 0.000000 -0.194410 
#    y 0.000000 3.320700 0.000000 
#    z -0.194410 0.000000 3.823430 
# 
# 
# High freq. dielectric constant tensor:
#      x y z
#    x 1.766060 0.000000 0.000630 
#    y 0.000000 1.717690 0.000000 
#    z 0.000630 0.000000 1.751620 
# 
# From -- ./inp_files/145758.got.cif
#   From: 2010.06.25/outbox.cif.g09.slc.cpg/sg15_73_cif.got.tgz:145758.got - 2010.06.28 07:06:18.
