data_PCOD8132147
_publ_section_title
;
Structure prediction by ZEFSAII (Michael W. Deem and Ramdas Pophale) SiO2 
 PCOD8132147
Probable space group: C 2/C
;
_chemical_formula_sum "Si O2"
_cell_formula_units_Z 48
_cell_length_a 6.434306
_cell_length_b 23.767708
_cell_length_c 16.190951
_cell_angle_alpha 90.000000
_cell_angle_beta 90.401042
_cell_angle_gamma 90.000000
_cell_volume 2476.000534
_symmetry_space_group_name_H-M "C 2/C"
_symmetry_group_IT_number 15
_symmetry_cell_setting 'monoclinic'
loop_
_space_group_symop_operation_xyz
x,y,z
-x,y,1/2-z
-x,-y,-z
x,-y,1/2+z
1/2+x,1/2+y,z
1/2-x,1/2+y,1/2-z
1/2-x,1/2-y,-z
1/2+x,1/2-y,1/2+z
loop_
_atom_site_type_symbol
_atom_site_label
_atom_site_fract_x
_atom_site_fract_y
_atom_site_fract_z
Si Si1 0.128941 0.883422 0.006598
Si Si2 0.106815 0.944856 0.171331
Si Si3 0.828731 0.200155 0.406065
Si Si4 0.000000 0.147539 0.250000
Si Si5 0.942358 0.708639 0.509104
Si Si6 0.827784 0.950173 0.648996
Si Si7 0.000000 0.515201 0.750000
O O1 0.043778 0.909341 0.091257
O O2 0.342633 0.851311 0.030628
O O3 0.190457 0.935553 0.947786
O O4 0.951644 0.843846 0.965904
O O5 0.000000 0.915305 0.250000
O O6 0.351496 0.946824 0.192145
O O7 0.025988 0.009365 0.162999
O O8 0.859206 0.185779 0.310007
O O9 0.583124 0.200010 0.426956
O O10 0.911111 0.264124 0.420032
O O11 0.849544 0.109263 0.195157
O O12 0.750000 0.750000 0.500000
O O13 0.620990 0.978324 0.683016
#
# Coordination Sequence:
#
# PCOD8132147 Si02
#       7
#     8   8   8   4   8   8   4
#     4  10  21  34  58  82 108 155 195 231 297 353
#     4  10  21  38  51  78 116 151 193 241 286 343
#     4   9  20  37  59  81 120 146 190 250 289 346
#     4  10  18  36  57  86 110 155 190 234 302 338
#     4   9  19  38  54  82 111 147 191 243 289 348
#     4  10  20  34  54  82 115 144 193 241 284 346
#     4  10  20  34  53  74 116 149 178 244 282 334
#
# _framework density 19.386102000000001
#
# number of rings (size 3 to 8) (size 9 to 14) (size 15 to 20)
#    0.000    2.333    2.500    0.500    2.333    3.333 
#    0.000    5.833    0.000    0.000    0.000    0.000 
#    0.000    0.000    0.000    0.000    0.000    0.000 
#
# Total GULP energy -297427.460025 kJ/mol
# GULP energy per Si atom -12392.810834 kJ/mol
# Density = 1.934198 g / cm^3
# Si number density = 19.386102 Si / 1000 Ang^3
#
#
#
# Elastic Constant Matrix: (Units=GPa)
#
#
# Indices 1 2 3 4 5 6 
#
# 1 111.1368 29.1667 39.3013 0.0000 -18.3563 0.0000
# 2 29.1667 53.2072 47.5273 0.0000 -7.3438 0.0000
# 3 39.3013 47.5273 146.5221 0.0000 -22.7710 0.0000
# 4 0.0000 0.0000 0.0000 30.9610 0.0000 -5.0617
# 5 -18.3563 -7.3438 -22.7710 0.0000 27.8364 0.0000
# 6 0.0000 0.0000 0.0000 -5.0617 0.0000 10.8266
#
#
#
# Elastic Compliance Matrix: (Units=1/GPa)
#
#
# Indices 1 2 3 4 5 6 
#
# 1 0.011459 -0.004985 -0.000558 0.000000 0.005785 0.000000
# 2 -0.004985 0.028630 -0.008348 0.000000 -0.002563 0.000000
# 3 -0.000558 -0.008348 0.010635 0.000000 0.006130 0.000000
# 4 0.000000 0.000000 0.000000 0.034972 0.000000 0.016350
# 5 0.005785 -0.002563 0.006130 0.000000 0.044077 0.000000
# 6 0.000000 0.000000 0.000000 0.016350 0.000000 0.100009
#
#
# Mechanical properties :
#
#
# Convention : Reuss Voigt Hill
#
# Bulk Modulus (GPa) = 43.58622 60.31740 51.95181
# Shear Modulus (GPa) = 18.85295 26.91619 22.88457
#
# Velocity S-wave (km/s) = 3.12187 3.73020 3.43951
# Velocity P-wave (km/s) = 5.96044 7.05222 6.52919
#
# Compressibility (1/GPa) = 0.02294303
#
# Stress axis : x y z
#
# Youngs Moduli (GPa) = 87.26883 34.92838 94.03021
#
# Poissons Ratio (x) = 0.17411 0.05243
# Poissons Ratio (y) = 0.43502 0.78496
# Poissons Ratio (z) = 0.04866 0.29158
#
# Static dielectric constant tensor:
#      x y z
#    x 3.604230 0.000000 -0.142530 
#    y 0.000000 3.572760 0.000000 
#    z -0.142530 0.000000 3.557550 
# 
# 
# High freq. dielectric constant tensor:
#      x y z
#    x 1.753690 0.000000 -0.013960 
#    y 0.000000 1.742530 0.000000 
#    z -0.013960 0.000000 1.747750 
# 
# From -- ./inp_files/130076.got.cif
#   From: 2010.06.25/outbox.cif.g09.slc.cpg/sg15_66_cif.got.tgz:130076.got - 2010.06.28 07:06:18.
