data_PCOD8132485
_publ_section_title
;
Structure prediction by ZEFSAII (Michael W. Deem and Ramdas Pophale) SiO2 
 PCOD8132485
Probable space group: C 2/C
;
_chemical_formula_sum "Si O2"
_cell_formula_units_Z 64
_cell_length_a 15.826808
_cell_length_b 11.908272
_cell_length_c 26.591885
_cell_angle_alpha 90.000000
_cell_angle_beta 139.481404
_cell_angle_gamma 90.000000
_cell_volume 3256.121507
_symmetry_space_group_name_H-M "C 2/C"
_symmetry_group_IT_number 15
_symmetry_cell_setting 'monoclinic'
loop_
_space_group_symop_operation_xyz
x,y,z
-x,y,1/2-z
-x,-y,-z
x,-y,1/2+z
1/2+x,1/2+y,z
1/2-x,1/2+y,1/2-z
1/2-x,1/2-y,-z
1/2+x,1/2-y,1/2+z
loop_
_atom_site_type_symbol
_atom_site_label
_atom_site_fract_x
_atom_site_fract_y
_atom_site_fract_z
Si Si1 0.777221 0.107289 0.569706
Si Si2 0.145725 0.663331 0.178545
Si Si3 0.591246 0.031437 0.399820
Si Si4 0.114698 0.703477 0.957649
Si Si5 0.217638 0.150689 0.078177
Si Si6 0.865121 0.564961 0.436112
Si Si7 0.122977 0.869592 0.645313
Si Si8 0.995714 0.106797 0.901022
O O1 0.658853 0.094963 0.477063
O O2 0.783397 0.234292 0.590389
O O3 0.912753 0.077382 0.604794
O O4 0.752256 0.021267 0.604175
O O5 0.161218 0.612413 0.130403
O O6 0.286557 0.662544 0.267233
O O7 0.050412 0.586948 0.169633
O O8 0.096629 0.790059 0.153669
O O9 0.679794 0.051948 0.390185
O O10 0.574858 0.899701 0.403453
O O11 0.009085 0.800893 0.907272
O O12 0.250000 0.750000 0.000000
O O13 0.130696 0.666611 0.022566
O O14 0.197519 0.160969 0.128082
O O15 0.079497 0.131798 0.988772
O O16 0.000000 0.500000 0.500000
O O17 0.095526 0.001297 0.630394
#
# Coordination Sequence:
#
# PCOD8132485 Si02
#       8
#     8   8   8   8   8   8   8   8
#     4  10  18  37  69  95 112 159 224 262 286 357
#     4  12  24  41  61  96 130 164 205 265 322 362
#     4  10  20  38  66  91 128 160 205 265 313 360
#     4  11  23  43  67  95 123 165 215 259 309 383
#     4  11  20  40  66  96 118 166 217 253 304 373
#     4  11  20  38  71  91 120 168 218 255 301 371
#     4  12  28  38  63  95 132 163 206 260 321 376
#     4  11  22  43  63  89 127 162 207 261 307 373
#
# _framework density 19.655284999999999
#
# number of rings (size 3 to 8) (size 9 to 14) (size 15 to 20)
#    0.000    1.000    5.000    4.875    1.750    1.500 
#    0.000    3.750    2.750    0.000    0.000    0.000 
#    0.000    0.000    0.000    0.000    0.000    0.000 
#
# Total GULP energy -396944.754952 kJ/mol
# GULP energy per Si atom -12404.523592 kJ/mol
# Density = 1.961055 g / cm^3
# Si number density = 19.655285 Si / 1000 Ang^3
#
#
#
# Elastic Constant Matrix: (Units=GPa)
#
#
# Indices 1 2 3 4 5 6 
#
# 1 108.0911 25.6451 42.6073 0.0000 -4.1884 0.0000
# 2 25.6451 101.1282 27.6460 0.0000 -2.1217 0.0000
# 3 42.6073 27.6460 86.9985 0.0000 -5.4781 0.0000
# 4 0.0000 0.0000 0.0000 5.7110 0.0000 8.9983
# 5 -4.1884 -2.1217 -5.4781 0.0000 16.9591 0.0000
# 6 0.0000 0.0000 0.0000 8.9983 0.0000 46.9623
#
#
#
# Elastic Compliance Matrix: (Units=1/GPa)
#
#
# Indices 1 2 3 4 5 6 
#
# 1 0.011695 -0.001529 -0.005177 0.000000 0.001025 0.000000
# 2 -0.001529 0.011030 -0.002749 0.000000 0.000114 0.000000
# 3 -0.005177 -0.002749 0.015109 0.000000 0.003258 0.000000
# 4 0.000000 0.000000 0.000000 0.250825 0.000000 -0.048060
# 5 0.001025 0.000114 0.003258 0.000000 0.060285 0.000000
# 6 0.000000 0.000000 0.000000 -0.048060 0.000000 0.030502
#
#
# Mechanical properties :
#
#
# Convention : Reuss Voigt Hill
#
# Bulk Modulus (GPa) = 52.84506 54.22384 53.53445
# Shear Modulus (GPa) = 12.35594 27.28112 19.81853
#
# Velocity S-wave (km/s) = 2.50997 3.72960 3.17883
# Velocity P-wave (km/s) = 5.94510 6.79661 6.38507
#
# Compressibility (1/GPa) = 0.01892324
#
# Stress axis : x y z
#
# Youngs Moduli (GPa) = 85.50987 90.66116 66.18736
#
# Poissons Ratio (x) = 0.13861 0.34265
# Poissons Ratio (y) = 0.13073 0.18196
# Poissons Ratio (z) = 0.44269 0.24924
#
# Static dielectric constant tensor:
#      x y z
#    x 4.636710 0.000000 -0.257380 
#    y 0.000000 3.616220 0.000000 
#    z -0.257380 0.000000 3.401030 
# 
# 
# High freq. dielectric constant tensor:
#      x y z
#    x 1.782170 0.000000 0.008320 
#    y 0.000000 1.778750 0.000000 
#    z 0.008320 0.000000 1.732480 
# 
# From -- ./inp_files/296151.got.cif
#   From: 2010.06.25/outbox.cif.g09.slc.cpg/sg15_149_cif.got.tgz:296151.got - 2010.06.28 07:06:18.
