data_PCOD8132392
_publ_section_title
;
Structure prediction by ZEFSAII (Michael W. Deem and Ramdas Pophale) SiO2 
 PCOD8132392
Probable space group: C 2/C
;
_chemical_formula_sum "Si O2"
_cell_formula_units_Z 44
_cell_length_a 16.866257
_cell_length_b 9.063468
_cell_length_c 14.891542
_cell_angle_alpha 90.000000
_cell_angle_beta 79.891740
_cell_angle_gamma 90.000000
_cell_volume 2241.087205
_symmetry_space_group_name_H-M "C 2/C"
_symmetry_group_IT_number 15
_symmetry_cell_setting 'monoclinic'
loop_
_space_group_symop_operation_xyz
x,y,z
-x,y,1/2-z
-x,-y,-z
x,-y,1/2+z
1/2+x,1/2+y,z
1/2-x,1/2+y,1/2-z
1/2-x,1/2-y,-z
1/2+x,1/2-y,1/2+z
loop_
_atom_site_type_symbol
_atom_site_label
_atom_site_fract_x
_atom_site_fract_y
_atom_site_fract_z
Si Si1 0.722746 0.523974 0.782097
Si Si2 0.881984 0.073522 0.863800
Si Si3 0.647759 0.779481 0.312441
Si Si4 0.837398 0.323123 0.987387
Si Si5 0.263391 0.584284 0.522772
Si Si6 0.000000 0.874245 0.750000
O O1 0.659856 0.594027 0.724529
O O2 0.715876 0.346474 0.784697
O O3 0.813802 0.572178 0.737738
O O4 0.698950 0.580337 0.885519
O O5 0.895851 0.235758 0.905831
O O6 0.964530 0.982274 0.834414
O O7 0.825503 0.979878 0.939688
O O8 0.626181 0.807986 0.420473
O O9 0.566725 0.733066 0.278266
O O10 0.822216 0.494198 0.963437
O O11 0.750000 0.250000 0.000000
O O12 0.250000 0.750000 0.500000
#
# Coordination Sequence:
#
# PCOD8132392 Si02
#       6
#     8   8   8   8   8   4
#     4  11  19  34  62  87 117 157 204 254 292 356
#     4  10  20  39  57  89 122 157 209 244 305 365
#     4  11  21  38  61  91 122 159 202 253 304 364
#     4  10  18  37  58  87 119 156 203 259 292 349
#     4  11  20  33  60  94 117 150 206 263 299 351
#     4  10  24  36  60  96 126 164 198 246 318 374
#
# _framework density 19.633329
#
# number of rings (size 3 to 8) (size 9 to 14) (size 15 to 20)
#    0.000    1.455    7.273    2.182    0.000    0.727 
#    0.000    0.000    0.000   21.818    0.000    0.000 
#    0.000    0.000    0.000    0.000    0.000    0.000 
#
# Total GULP energy -272681.202707 kJ/mol
# GULP energy per Si atom -12394.600123 kJ/mol
# Density = 1.958864 g / cm^3
# Si number density = 19.633329 Si / 1000 Ang^3
#
#
#
# Elastic Constant Matrix: (Units=GPa)
#
#
# Indices 1 2 3 4 5 6 
#
# 1 77.3037 33.3028 37.7899 0.0000 3.2264 0.0000
# 2 33.3028 111.9506 50.6575 0.0000 5.7419 0.0000
# 3 37.7899 50.6575 130.5714 0.0000 20.6962 0.0000
# 4 0.0000 0.0000 0.0000 24.2609 0.0000 -3.5097
# 5 3.2264 5.7419 20.6962 0.0000 23.4708 0.0000
# 6 0.0000 0.0000 0.0000 -3.5097 0.0000 30.7156
#
#
#
# Elastic Compliance Matrix: (Units=1/GPa)
#
#
# Indices 1 2 3 4 5 6 
#
# 1 0.016041 -0.003195 -0.003694 0.000000 0.001834 0.000000
# 2 -0.003195 0.011501 -0.003675 0.000000 0.000866 0.000000
# 3 -0.003694 -0.003675 0.011544 0.000000 -0.008772 0.000000
# 4 0.000000 0.000000 0.000000 0.041911 0.000000 0.004789
# 5 0.001834 0.000866 -0.008772 0.000000 0.049878 0.000000
# 6 0.000000 0.000000 0.000000 0.004789 0.000000 0.033104
#
#
# Mechanical properties :
#
#
# Convention : Reuss Voigt Hill
#
# Bulk Modulus (GPa) = 55.67911 62.59180 59.13545
# Shear Modulus (GPa) = 26.16528 28.89449 27.52989
#
# Velocity S-wave (km/s) = 3.65457 3.84044 3.74866
# Velocity P-wave (km/s) = 6.79919 7.18435 6.99442
#
# Compressibility (1/GPa) = 0.01796006
#
# Stress axis : x y z
#
# Youngs Moduli (GPa) = 62.33835 86.94719 86.62553
#
# Poissons Ratio (x) = 0.27775 0.32000
# Poissons Ratio (y) = 0.19914 0.31833
# Poissons Ratio (z) = 0.23028 0.31951
#
# Static dielectric constant tensor:
#      x y z
#    x 3.224250 0.000000 0.029950 
#    y 0.000000 3.920510 0.000000 
#    z 0.029950 0.000000 3.946100 
# 
# 
# High freq. dielectric constant tensor:
#      x y z
#    x 1.714890 0.000000 0.015200 
#    y 0.000000 1.767460 0.000000 
#    z 0.015200 0.000000 1.784760 
# 
# From -- ./inp_files/159189.got.cif
#   From: 2010.06.25/outbox.cif.g09.slc.cpg/sg15_80_cif.got.tgz:159189.got - 2010.06.28 07:06:18.
