data_PCOD8132584
_publ_section_title
;
Structure prediction by ZEFSAII (Michael W. Deem and Ramdas Pophale) SiO2 
 PCOD8132584
Probable space group: C 2/C
;
_chemical_formula_sum "Si O2"
_cell_formula_units_Z 60
_cell_length_a 12.153927
_cell_length_b 13.868971
_cell_length_c 20.472539
_cell_angle_alpha 90.000000
_cell_angle_beta 62.790602
_cell_angle_gamma 90.000000
_cell_volume 3069.029573
_symmetry_space_group_name_H-M "C 2/C"
_symmetry_group_IT_number 15
_symmetry_cell_setting 'monoclinic'
loop_
_space_group_symop_operation_xyz
x,y,z
-x,y,1/2-z
-x,-y,-z
x,-y,1/2+z
1/2+x,1/2+y,z
1/2-x,1/2+y,1/2-z
1/2-x,1/2-y,-z
1/2+x,1/2-y,1/2+z
loop_
_atom_site_type_symbol
_atom_site_label
_atom_site_fract_x
_atom_site_fract_y
_atom_site_fract_z
Si Si1 0.597580 0.744605 0.472587
Si Si2 0.426627 0.826515 0.152979
Si Si3 0.942838 0.890459 0.694175
Si Si4 0.500000 0.870067 0.750000
Si Si5 0.794842 0.487637 0.266735
Si Si6 0.174057 0.558383 0.596785
Si Si7 0.565357 0.420570 0.527249
Si Si8 0.136861 0.342825 0.592760
O O1 0.611382 0.825755 0.413107
O O2 0.478418 0.682590 0.487074
O O3 0.717431 0.676411 0.442856
O O4 0.573082 0.792532 0.548864
O O5 0.409644 0.720515 0.188341
O O6 0.328702 0.896866 0.212968
O O7 0.568823 0.859964 0.122878
O O8 0.000000 0.899322 0.750000
O O9 0.031782 0.932372 0.612951
O O10 0.822383 0.956839 0.729218
O O11 0.571628 0.804365 0.677197
O O12 0.592520 0.938066 0.764712
O O13 0.768609 0.448365 0.346438
O O14 0.286229 0.580187 0.517138
O O15 0.113702 0.456682 0.593124
O O16 0.500000 0.500000 0.500000
#
# Coordination Sequence:
#
# PCOD8132584 Si02
#       8
#     8   8   8   4   8   8   8   8
#     4  10  23  39  60  90 127 164 208 267 308 374
#     4  11  22  42  64  94 126 164 214 260 317 374
#     4  11  25  42  63  96 130 161 211 269 312 374
#     4  10  18  38  64  90 108 166 214 250 308 376
#     4  11  20  40  66  90 125 168 208 255 319 372
#     4  11  20  38  68  86 121 170 208 252 316 384
#     4  11  20  42  65  85 125 173 205 250 323 378
#     4  10  20  40  60  86 123 163 212 258 310 368
#
# _framework density 19.550153000000002
#
# number of rings (size 3 to 8) (size 9 to 14) (size 15 to 20)
#    0.000    1.333    5.333    3.200    0.000    3.733 
#    9.600    0.000    1.467    0.000    0.000    0.000 
#    0.000    0.000    0.000    0.000    0.000    0.000 
#
# Total GULP energy -371996.096880 kJ/mol
# GULP energy per Si atom -12399.869896 kJ/mol
# Density = 1.950566 g / cm^3
# Si number density = 19.550153 Si / 1000 Ang^3
#
#
#
# Elastic Constant Matrix: (Units=GPa)
#
#
# Indices 1 2 3 4 5 6 
#
# 1 83.5707 37.7623 49.8598 0.0000 4.1987 0.0000
# 2 37.7623 84.0761 66.1562 0.0000 4.6897 0.0000
# 3 49.8598 66.1562 153.3586 0.0000 6.7173 0.0000
# 4 0.0000 0.0000 0.0000 38.0937 0.0000 -1.8029
# 5 4.1987 4.6897 6.7173 0.0000 41.6319 0.0000
# 6 0.0000 0.0000 0.0000 -1.8029 0.0000 22.3310
#
#
#
# Elastic Compliance Matrix: (Units=1/GPa)
#
#
# Indices 1 2 3 4 5 6 
#
# 1 0.015987 -0.004660 -0.003162 0.000000 -0.000577 0.000000
# 2 -0.004660 0.019390 -0.006822 0.000000 -0.000613 0.000000
# 3 -0.003162 -0.006822 0.010518 0.000000 -0.000610 0.000000
# 4 0.000000 0.000000 0.000000 0.026352 0.000000 0.002127
# 5 -0.000577 -0.000613 -0.000610 0.000000 0.024246 0.000000
# 6 0.000000 0.000000 0.000000 0.002127 0.000000 0.044953
#
#
# Mechanical properties :
#
#
# Convention : Reuss Voigt Hill
#
# Bulk Modulus (GPa) = 60.21948 69.84022 65.02985
# Shear Modulus (GPa) = 28.36558 31.55980 29.96269
#
# Velocity S-wave (km/s) = 3.81322 4.02219 3.91910
# Velocity P-wave (km/s) = 7.08921 7.57442 7.33583
#
# Compressibility (1/GPa) = 0.01660592
#
# Stress axis : x y z
#
# Youngs Moduli (GPa) = 62.54967 51.57421 95.07080
#
# Poissons Ratio (x) = 0.24035 0.30063
# Poissons Ratio (y) = 0.29150 0.64860
# Poissons Ratio (z) = 0.19779 0.35186
#
# Static dielectric constant tensor:
#      x y z
#    x 3.569070 0.000000 -0.170710 
#    y 0.000000 3.542410 0.000000 
#    z -0.170710 0.000000 4.157870 
# 
# 
# High freq. dielectric constant tensor:
#      x y z
#    x 1.752840 0.000000 -0.002050 
#    y 0.000000 1.753360 0.000000 
#    z -0.002050 0.000000 1.776810 
# 
# From -- ./inp_files/238687.got.cif
#   From: 2010.06.25/outbox.cif.g09.slc.cpg/sg15_120_cif.got.tgz:238687.got - 2010.06.28 07:06:18.
