data_PCOD8132860
_publ_section_title
;
Structure prediction by ZEFSAII (Michael W. Deem and Ramdas Pophale) SiO2 
 PCOD8132860
Probable space group: C 2/C
;
_chemical_formula_sum "Si O2"
_cell_formula_units_Z 48
_cell_length_a 21.609886
_cell_length_b 12.582828
_cell_length_c 9.890719
_cell_angle_alpha 90.000000
_cell_angle_beta 100.012109
_cell_angle_gamma 90.000000
_cell_volume 2648.462721
_symmetry_space_group_name_H-M "C 2/C"
_symmetry_group_IT_number 15
_symmetry_cell_setting 'monoclinic'
loop_
_space_group_symop_operation_xyz
x,y,z
-x,y,1/2-z
-x,-y,-z
x,-y,1/2+z
1/2+x,1/2+y,z
1/2-x,1/2+y,1/2-z
1/2-x,1/2-y,-z
1/2+x,1/2-y,1/2+z
loop_
_atom_site_type_symbol
_atom_site_label
_atom_site_fract_x
_atom_site_fract_y
_atom_site_fract_z
Si Si1 0.006223 0.400344 0.098491
Si Si2 0.174101 0.099164 0.160140
Si Si3 0.144007 0.666997 0.674822
Si Si4 0.622649 0.200424 0.975653
Si Si5 0.835237 0.072525 0.048759
Si Si6 0.787749 0.454147 0.860866
O O1 0.072812 0.345751 0.097572
O O2 0.000000 0.441189 0.250000
O O3 0.952480 0.313358 0.045850
O O4 0.000000 0.500000 0.000000
O O5 0.168232 0.222734 0.120960
O O6 0.248364 0.071693 0.208984
O O7 0.136951 0.072127 0.287225
O O8 0.142617 0.028882 0.030005
O O9 0.148787 0.667757 0.838674
O O10 0.187940 0.574633 0.632824
O O11 0.641858 0.321020 0.018266
O O12 0.653337 0.124727 0.100874
O O13 0.759107 0.066220 0.029908
#
# Coordination Sequence:
#
# PCOD8132860 Si02
#       6
#     8   8   8   8   8   8
#     4  10  20  37  56  79 106 138 184 222 270 314
#     4   9  21  34  53  78 112 141 180 218 269 327
#     4  10  20  35  54  82 108 141 179 228 269 317
#     4  10  19  35  56  76 108 149 176 216 270 334
#     4   9  20  35  52  78 108 146 177 213 270 325
#     4  10  19  29  57  77 113 129 186 209 277 315
#
# _framework density 18.123719999999999
#
# number of rings (size 3 to 8) (size 9 to 14) (size 15 to 20)
#    1.000    1.333    1.667    1.500    2.333    0.667 
#    0.000    4.167    0.000    0.000    0.000    0.000 
#    0.000    0.000    0.000    0.000    0.000    0.000 
#
# Total GULP energy -297429.919802 kJ/mol
# GULP energy per Si atom -12392.913325 kJ/mol
# Density = 1.808247 g / cm^3
# Si number density = 18.123720 Si / 1000 Ang^3
#
#
#
# Elastic Constant Matrix: (Units=GPa)
#
#
# Indices 1 2 3 4 5 6 
#
# 1 82.6629 76.4137 26.0260 0.0000 6.4559 0.0000
# 2 76.4137 166.4701 41.6246 0.0000 8.2786 0.0000
# 3 26.0260 41.6246 45.9314 0.0000 7.9938 0.0000
# 4 0.0000 0.0000 0.0000 32.6545 0.0000 -1.4414
# 5 6.4559 8.2786 7.9938 0.0000 11.7606 0.0000
# 6 0.0000 0.0000 0.0000 -1.4414 0.0000 20.8184
#
#
#
# Elastic Compliance Matrix: (Units=1/GPa)
#
#
# Indices 1 2 3 4 5 6 
#
# 1 0.021729 -0.008890 -0.003707 0.000000 -0.003150 0.000000
# 2 -0.008890 0.011411 -0.005393 0.000000 0.000513 0.000000
# 3 -0.003707 -0.005393 0.031467 0.000000 -0.015557 0.000000
# 4 0.000000 0.000000 0.000000 0.030718 0.000000 0.002127
# 5 -0.003150 0.000513 -0.015557 0.000000 0.096972 0.000000
# 6 0.000000 0.000000 0.000000 0.002127 0.000000 0.048182
#
#
# Mechanical properties :
#
#
# Convention : Reuss Voigt Hill
#
# Bulk Modulus (GPa) = 34.93334 64.79922 49.86628
# Shear Modulus (GPa) = 17.48249 23.11336 20.29792
#
# Velocity S-wave (km/s) = 3.10920 3.57502 3.35022
# Velocity P-wave (km/s) = 5.67506 7.27135 6.52222
#
# Compressibility (1/GPa) = 0.02862595
#
# Stress axis : x y z
#
# Youngs Moduli (GPa) = 46.02172 87.63543 31.77954
#
# Poissons Ratio (x) = 0.77912 0.11781
# Poissons Ratio (y) = 0.40916 0.17138
# Poissons Ratio (z) = 0.17061 0.47260
#
# Static dielectric constant tensor:
#      x y z
#    x 3.263710 0.000000 0.121100 
#    y 0.000000 3.296310 0.000000 
#    z 0.121100 0.000000 3.172930 
# 
# 
# High freq. dielectric constant tensor:
#      x y z
#    x 1.680510 0.000000 0.010470 
#    y 0.000000 1.701770 0.000000 
#    z 0.010470 0.000000 1.685440 
# 
# From -- ./inp_files/116441.got.cif
#   From: 2010.06.25/outbox.cif.g09.slc.cpg/sg15_59_cif.got.tgz:116441.got - 2010.06.28 07:06:18.
