data_PCOD8132309
_publ_section_title
;
Structure prediction by ZEFSAII (Michael W. Deem and Ramdas Pophale) SiO2 
 PCOD8132309
Probable space group: C 2/C
;
_chemical_formula_sum "Si O2"
_cell_formula_units_Z 44
_cell_length_a 12.055476
_cell_length_b 14.397943
_cell_length_c 22.494620
_cell_angle_alpha 90.000000
_cell_angle_beta 36.210266
_cell_angle_gamma 90.000000
_cell_volume 2306.573959
_symmetry_space_group_name_H-M "C 2/C"
_symmetry_group_IT_number 15
_symmetry_cell_setting 'monoclinic'
loop_
_space_group_symop_operation_xyz
x,y,z
-x,y,1/2-z
-x,-y,-z
x,-y,1/2+z
1/2+x,1/2+y,z
1/2-x,1/2+y,1/2-z
1/2-x,1/2-y,-z
1/2+x,1/2-y,1/2+z
loop_
_atom_site_type_symbol
_atom_site_label
_atom_site_fract_x
_atom_site_fract_y
_atom_site_fract_z
Si Si1 0.677900 0.641193 0.578657
Si Si2 0.692810 0.693799 0.297909
Si Si3 0.533513 0.248895 0.419529
Si Si4 0.500000 0.778168 0.750000
Si Si5 0.411742 0.567909 0.353047
Si Si6 0.383653 0.789676 0.491412
O O1 0.587160 0.664918 0.553716
O O2 0.603047 0.715104 0.657759
O O3 0.615020 0.540055 0.624937
O O4 0.903126 0.655228 0.478119
O O5 0.783744 0.729395 0.198227
O O6 0.549392 0.610664 0.344070
O O7 0.589525 0.785043 0.371771
O O8 0.848824 0.659223 0.278760
O O9 0.605013 0.274963 0.454575
O O10 0.500000 0.586652 0.250000
O O11 0.201715 0.611528 0.450433
O O12 0.250000 0.750000 0.500000
#
# Coordination Sequence:
#
# PCOD8132309 Si02
#       6
#     8   8   8   4   8   8
#     4  10  21  36  61  89 117 155 201 254 289 359
#     4  10  21  38  61  86 122 160 198 246 297 366
#     4  10  20  39  60  86 119 163 203 234 310 358
#     4  10  18  36  64  82 116 162 198 234 306 352
#     4  11  21  38  60  95 124 151 200 256 303 345
#     4  10  21  37  61  87 122 163 195 240 305 365
#
# _framework density 19.075911000000001
#
# number of rings (size 3 to 8) (size 9 to 14) (size 15 to 20)
#    0.000    1.818    4.545    0.000    0.000    0.727 
#    6.545    3.636    0.000    0.000    0.000    0.000 
#    0.000    0.000    0.000    0.000    0.000    0.000 
#
# Total GULP energy -272537.796186 kJ/mol
# GULP energy per Si atom -12388.081645 kJ/mol
# Density = 1.903249 g / cm^3
# Si number density = 19.075911 Si / 1000 Ang^3
#
#
#
# Elastic Constant Matrix: (Units=GPa)
#
#
# Indices 1 2 3 4 5 6 
#
# 1 147.9660 25.7174 39.4025 0.0008 16.2405 -0.0003
# 2 25.7174 57.5087 23.6215 0.0007 2.3212 -0.0005
# 3 39.4025 23.6215 124.6977 -0.0013 2.4833 -0.0006
# 4 0.0008 0.0007 -0.0013 27.1613 -0.0007 -0.1678
# 5 16.2405 2.3212 2.4833 -0.0007 31.3521 0.0006
# 6 -0.0003 -0.0005 -0.0006 -0.1678 0.0006 16.9345
#
#
#
# Elastic Compliance Matrix: (Units=1/GPa)
#
#
# Indices 1 2 3 4 5 6 
#
# 1 0.008183 -0.002681 -0.002001 0.000000 -0.003882 0.000000
# 2 -0.002681 0.019773 -0.002902 -0.000001 0.000155 0.000000
# 3 -0.002001 -0.002902 0.009191 0.000001 0.000523 0.000000
# 4 0.000000 -0.000001 0.000001 0.036819 0.000001 0.000365
# 5 -0.003882 0.000155 0.000523 0.000001 0.033854 -0.000001
# 6 0.000000 0.000000 0.000000 0.000365 -0.000001 0.059055
#
#
# Mechanical properties :
#
#
# Convention : Reuss Voigt Hill
#
# Bulk Modulus (GPa) = 45.49431 56.40615 50.95023
# Shear Modulus (GPa) = 26.40362 31.18497 28.79430
#
# Velocity S-wave (km/s) = 3.72443 4.04763 3.88939
# Velocity P-wave (km/s) = 6.51122 7.17481 6.85106
#
# Compressibility (1/GPa) = 0.02198077
#
# Stress axis : x y z
#
# Youngs Moduli (GPa) = 122.20310 50.57360 108.80488
#
# Poissons Ratio (x) = 0.13559 0.21767
# Poissons Ratio (y) = 0.32763 0.31570
# Poissons Ratio (z) = 0.24447 0.14674
#
# Static dielectric constant tensor:
#      x y z
#    x 4.185640 -0.000020 -0.287390 
#    y -0.000020 3.071900 0.000040 
#    z -0.287390 0.000040 4.510910 
# 
# 
# High freq. dielectric constant tensor:
#      x y z
#    x 1.767400 0.000000 0.001580 
#    y 0.000000 1.679250 0.000000 
#    z 0.001580 0.000000 1.766170 
# 
# From -- ./inp_files/143330.got.cif
#   From: 2010.06.25/outbox.cif.g09.slc.cpg/sg15_72_cif.got.tgz:143330.got - 2010.06.28 07:06:18.
