data_PCOD8132902
_publ_section_title
;
Structure prediction by ZEFSAII (Michael W. Deem and Ramdas Pophale) SiO2 
 PCOD8132902
Probable space group: C 2/C
;
_chemical_formula_sum "Si O2"
_cell_formula_units_Z 44
_cell_length_a 20.111483
_cell_length_b 21.386267
_cell_length_c 5.299152
_cell_angle_alpha 90.000000
_cell_angle_beta 98.542203
_cell_angle_gamma 90.000000
_cell_volume 2253.931880
_symmetry_space_group_name_H-M "C 2/C"
_symmetry_group_IT_number 15
_symmetry_cell_setting 'monoclinic'
loop_
_space_group_symop_operation_xyz
x,y,z
-x,y,1/2-z
-x,-y,-z
x,-y,1/2+z
1/2+x,1/2+y,z
1/2-x,1/2+y,1/2-z
1/2-x,1/2-y,-z
1/2+x,1/2-y,1/2+z
loop_
_atom_site_type_symbol
_atom_site_label
_atom_site_fract_x
_atom_site_fract_y
_atom_site_fract_z
Si Si1 0.375328 0.828418 0.092953
Si Si2 0.673159 0.234740 0.417869
Si Si3 0.567769 0.668104 0.941478
Si Si4 0.575982 0.473275 0.546742
Si Si5 0.421814 0.962556 0.203523
Si Si6 0.500000 0.761783 0.250000
O O1 0.352521 0.800473 0.347900
O O2 0.375539 0.902607 0.126528
O O3 0.451137 0.805710 0.056358
O O4 0.329041 0.809202 0.831230
O O5 0.750000 0.250000 0.500000
O O6 0.630989 0.299452 0.333897
O O7 0.500000 0.657547 0.750000
O O8 0.584810 0.601118 0.070290
O O9 0.552926 0.718106 0.144225
O O10 0.500000 0.500000 0.500000
O O11 0.612515 0.498072 0.313839
O O12 0.500000 0.943738 0.250000
O O13 0.404029 0.989545 0.468936
#
# Coordination Sequence:
#
# PCOD8132902 Si02
#       6
#     8   8   8   8   8   4
#     4  11  21  38  62  83 123 151 204 242 302 354
#     4  11  25  40  59  87 121 161 196 246 305 363
#     4  11  20  34  58  84 116 145 191 242 289 356
#     4  10  19  30  50  79 114 138 176 229 292 334
#     4  10  20  34  56  91 123 153 194 249 309 356
#     4  10  20  32  54  94 110 148 190 252 294 344
#
# _framework density 19.521440999999999
#
# number of rings (size 3 to 8) (size 9 to 14) (size 15 to 20)
#    0.000    1.455    4.545    2.727    0.000    0.000 
#    0.000    0.000    0.000    6.545    0.000    0.000 
#    0.000    0.000    0.000    0.000    0.000    0.000 
#
# Total GULP energy -272565.667465 kJ/mol
# GULP energy per Si atom -12389.348521 kJ/mol
# Density = 1.947701 g / cm^3
# Si number density = 19.521441 Si / 1000 Ang^3
#
#
#
# Elastic Constant Matrix: (Units=GPa)
#
#
# Indices 1 2 3 4 5 6 
#
# 1 53.9038 34.9494 17.4711 0.0000 13.2101 0.0000
# 2 34.9494 120.8639 40.2580 0.0000 1.4859 0.0000
# 3 17.4711 40.2580 141.9479 0.0000 -0.3827 0.0000
# 4 0.0000 0.0000 0.0000 32.5657 0.0000 -1.2400
# 5 13.2101 1.4859 -0.3827 0.0000 23.8402 0.0000
# 6 0.0000 0.0000 0.0000 -1.2400 0.0000 12.4554
#
#
#
# Elastic Compliance Matrix: (Units=1/GPa)
#
#
# Indices 1 2 3 4 5 6 
#
# 1 0.027298 -0.007267 -0.001338 0.000000 -0.014695 0.000000
# 2 -0.007267 0.011080 -0.002239 0.000000 0.003300 0.000000
# 3 -0.001338 -0.002239 0.007847 0.000000 0.001007 0.000000
# 4 0.000000 0.000000 0.000000 0.030824 0.000000 0.003069
# 5 -0.014695 0.003300 0.001007 0.000000 0.049899 0.000000
# 6 0.000000 0.000000 0.000000 0.003069 0.000000 0.080592
#
#
# Mechanical properties :
#
#
# Convention : Reuss Voigt Hill
#
# Bulk Modulus (GPa) = 40.75559 55.78583 48.27071
# Shear Modulus (GPa) = 21.06064 28.70809 24.88436
#
# Velocity S-wave (km/s) = 3.28814 3.83899 3.57419
# Velocity P-wave (km/s) = 5.94462 6.94904 6.46636
#
# Compressibility (1/GPa) = 0.02453651
#
# Stress axis : x y z
#
# Youngs Moduli (GPa) = 36.63207 90.24910 127.43161
#
# Poissons Ratio (x) = 0.65586 0.17056
# Poissons Ratio (y) = 0.26621 0.28534
# Poissons Ratio (z) = 0.04903 0.20208
#
# Static dielectric constant tensor:
#      x y z
#    x 3.495890 0.000000 -0.149910 
#    y 0.000000 3.738390 0.000000 
#    z -0.149910 0.000000 4.279380 
# 
# 
# High freq. dielectric constant tensor:
#      x y z
#    x 1.711760 0.000000 -0.007200 
#    y 0.000000 1.771570 0.000000 
#    z -0.007200 0.000000 1.770400 
# 
# From -- ./inp_files/10396.got.cif
#   From: 2010.06.25/outbox.cif.g09.slc.cpg/sg15_6_cif.got.tgz:10396.got - 2010.06.28 07:06:18.
