data_PCOD8132586
_publ_section_title
;
Structure prediction by ZEFSAII (Michael W. Deem and Ramdas Pophale) SiO2 
 PCOD8132586
Probable space group: C 2/C
;
_chemical_formula_sum "Si O2"
_cell_formula_units_Z 40
_cell_length_a 15.657441
_cell_length_b 10.479817
_cell_length_c 13.697215
_cell_angle_alpha 90.000000
_cell_angle_beta 123.457314
_cell_angle_gamma 90.000000
_cell_volume 1875.112497
_symmetry_space_group_name_H-M "C 2/C"
_symmetry_group_IT_number 15
_symmetry_cell_setting 'monoclinic'
loop_
_space_group_symop_operation_xyz
x,y,z
-x,y,1/2-z
-x,-y,-z
x,-y,1/2+z
1/2+x,1/2+y,z
1/2-x,1/2+y,1/2-z
1/2-x,1/2-y,-z
1/2+x,1/2-y,1/2+z
loop_
_atom_site_type_symbol
_atom_site_label
_atom_site_fract_x
_atom_site_fract_y
_atom_site_fract_z
Si Si1 0.632754 0.720667 0.538158
Si Si2 0.222025 0.061907 0.436861
Si Si3 0.212631 0.849995 0.285578
Si Si4 0.668226 0.844532 0.901652
Si Si5 0.552629 0.865521 0.011594
O O1 0.701005 0.847665 0.573963
O O2 0.635566 0.643100 0.438176
O O3 0.677503 0.631782 0.652693
O O4 0.515205 0.753544 0.485027
O O5 0.169844 0.965568 0.326376
O O6 0.286651 0.987476 0.561855
O O7 0.160130 0.713554 0.287166
O O8 0.335875 0.854725 0.369026
O O9 0.750000 0.750000 0.000000
O O10 0.563855 0.843515 0.900919
O O11 0.500000 0.000000 0.000000
#
# Coordination Sequence:
#
# PCOD8132586 Si02
#       5
#     8   8   8   8   8
#     4  11  21  36  68  87 125 161 202 256 311 351
#     4   9  20  38  56  93 125 151 203 258 297 360
#     4  10  22  39  63  91 123 166 199 247 324 355
#     4   8  17  36  59  81 124 150 194 253 299 350
#     4  10  18  38  64  91 115 155 214 253 282 375
#
# _framework density 21.332053999999999
#
# number of rings (size 3 to 8) (size 9 to 14) (size 15 to 20)
#    0.000    2.800    4.000    0.000    2.800    0.800 
#    0.000   15.000   13.200    0.000    0.000    0.000 
#    0.000    0.000    0.000    0.000    0.000    0.000 
#
# Total GULP energy -247774.872897 kJ/mol
# GULP energy per Si atom -12388.743645 kJ/mol
# Density = 2.128350 g / cm^3
# Si number density = 21.332054 Si / 1000 Ang^3
#
#
#
# Elastic Constant Matrix: (Units=GPa)
#
#
# Indices 1 2 3 4 5 6 
#
# 1 154.6277 48.3527 26.7149 0.0000 -9.6039 0.0000
# 2 48.3527 100.8240 25.4096 0.0000 -11.6971 0.0000
# 3 26.7149 25.4096 58.2177 0.0000 -7.5092 0.0000
# 4 0.0000 0.0000 0.0000 25.1138 0.0000 -14.5156
# 5 -9.6039 -11.6971 -7.5092 0.0000 22.5727 0.0000
# 6 0.0000 0.0000 0.0000 -14.5156 0.0000 44.6075
#
#
#
# Elastic Compliance Matrix: (Units=1/GPa)
#
#
# Indices 1 2 3 4 5 6 
#
# 1 0.007873 -0.003123 -0.002117 0.000000 0.001027 0.000000
# 2 -0.003123 0.012806 -0.003627 0.000000 0.004101 0.000000
# 3 -0.002117 -0.003627 0.020242 0.000000 0.003953 0.000000
# 4 0.000000 0.000000 0.000000 0.049043 0.000000 0.015959
# 5 0.001027 0.004101 0.003953 0.000000 0.048178 0.000000
# 6 0.000000 0.000000 0.000000 0.015959 0.000000 0.027611
#
#
# Mechanical properties :
#
#
# Convention : Reuss Voigt Hill
#
# Bulk Modulus (GPa) = 43.13038 57.18042 50.15540
# Shear Modulus (GPa) = 26.14839 32.67163 29.41001
#
# Velocity S-wave (km/s) = 3.50491 3.91778 3.71708
# Velocity P-wave (km/s) = 6.05324 6.87957 6.47959
#
# Compressibility (1/GPa) = 0.02318551
#
# Stress axis : x y z
#
# Youngs Moduli (GPa) = 127.01066 78.08914 49.40335
#
# Poissons Ratio (x) = 0.24388 0.10460
# Poissons Ratio (y) = 0.39667 0.17920
# Poissons Ratio (z) = 0.26893 0.28324
#
# Static dielectric constant tensor:
#      x y z
#    x 4.211930 0.000000 -0.581560 
#    y 0.000000 4.196280 0.000000 
#    z -0.581560 0.000000 3.875960 
# 
# 
# High freq. dielectric constant tensor:
#      x y z
#    x 1.843990 0.000000 -0.028300 
#    y 0.000000 1.840230 0.000000 
#    z -0.028300 0.000000 1.797440 
# 
# From -- ./inp_files/151460.got.cif
#   From: 2010.06.25/outbox.cif.g09.slc.cpg/sg15_76_cif.got.tgz:151460.got - 2010.06.28 07:06:18.
