data_PCOD8132877
_publ_section_title
;
Structure prediction by ZEFSAII (Michael W. Deem and Ramdas Pophale) SiO2 
 PCOD8132877
Probable space group: C 2/C
;
_chemical_formula_sum "Si O2"
_cell_formula_units_Z 48
_cell_length_a 9.028880
_cell_length_b 16.286887
_cell_length_c 17.520930
_cell_angle_alpha 90.000000
_cell_angle_beta 99.137741
_cell_angle_gamma 90.000000
_cell_volume 2543.796681
_symmetry_space_group_name_H-M "C 2/C"
_symmetry_group_IT_number 15
_symmetry_cell_setting 'monoclinic'
loop_
_space_group_symop_operation_xyz
x,y,z
-x,y,1/2-z
-x,-y,-z
x,-y,1/2+z
1/2+x,1/2+y,z
1/2-x,1/2+y,1/2-z
1/2-x,1/2-y,-z
1/2+x,1/2-y,1/2+z
loop_
_atom_site_type_symbol
_atom_site_label
_atom_site_fract_x
_atom_site_fract_y
_atom_site_fract_z
Si Si1 0.976444 0.066276 0.662440
Si Si2 0.116430 0.804310 0.909118
Si Si3 0.090438 0.780944 0.080986
Si Si4 0.458215 0.863504 0.662170
Si Si5 0.637767 0.602005 0.182972
Si Si6 0.239799 0.553013 0.145798
O O1 0.032689 0.132754 0.607803
O O2 0.000000 0.099723 0.750000
O O3 0.064139 0.982925 0.650542
O O4 0.798635 0.040582 0.638959
O O5 0.232193 0.734908 0.885323
O O6 0.215674 0.888653 0.921740
O O7 0.968576 0.819485 0.845016
O O8 0.063415 0.779362 0.988589
O O9 0.985247 0.710868 0.107083
O O10 0.500000 0.832274 0.750000
O O11 0.286887 0.890519 0.644257
O O12 0.561946 0.942734 0.647810
O O13 0.670283 0.596793 0.275850
#
# Coordination Sequence:
#
# PCOD8132877 Si02
#       6
#     8   8   8   8   8   8
#     4   9  17  31  50  71  92 118 156 197 233 273
#     4   9  18  31  47  67  95 128 158 185 229 287
#     4  10  19  30  47  70  96 124 156 195 231 272
#     4   9  17  31  50  69  92 124 157 192 237 285
#     4   9  17  31  51  69  90 123 159 193 233 285
#     4   8  16  31  50  68  90 123 161 191 231 288
#
# _framework density 18.869433000000001
#
# number of rings (size 3 to 8) (size 9 to 14) (size 15 to 20)
#    0.000    3.000    0.000    2.000    0.000    3.333 
#    0.000    1.667    0.000   24.000    0.000    0.000 
#    0.000    0.000    0.000    0.000    0.000    0.000 
#
# Total GULP energy -297333.093071 kJ/mol
# GULP energy per Si atom -12388.878878 kJ/mol
# Density = 1.882649 g / cm^3
# Si number density = 18.869433 Si / 1000 Ang^3
#
#
#
# Elastic Constant Matrix: (Units=GPa)
#
#
# Indices 1 2 3 4 5 6 
#
# 1 131.0745 49.5328 29.5439 0.0000 -14.8478 0.0000
# 2 49.5328 84.4588 29.7256 0.0000 -15.4670 0.0000
# 3 29.5439 29.7256 47.7792 0.0000 -22.6212 0.0000
# 4 0.0000 0.0000 0.0000 18.8323 0.0000 -13.2758
# 5 -14.8478 -15.4670 -22.6212 0.0000 28.9090 0.0000
# 6 0.0000 0.0000 0.0000 -13.2758 0.0000 34.7126
#
#
#
# Elastic Compliance Matrix: (Units=1/GPa)
#
#
# Indices 1 2 3 4 5 6 
#
# 1 0.010194 -0.004812 -0.003256 0.000000 0.000113 0.000000
# 2 -0.004812 0.017455 -0.007359 0.000000 0.001109 0.000000
# 3 -0.003256 -0.007359 0.039499 0.000000 0.025298 0.000000
# 4 0.000000 0.000000 0.000000 0.072701 0.000000 0.027805
# 5 0.000113 0.001109 0.025298 0.000000 0.055039 0.000000
# 6 0.000000 0.000000 0.000000 0.027805 0.000000 0.039442
#
#
# Mechanical properties :
#
#
# Convention : Reuss Voigt Hill
#
# Bulk Modulus (GPa) = 27.55274 53.43522 40.49398
# Shear Modulus (GPa) = 18.03206 26.79145 22.41176
#
# Velocity S-wave (km/s) = 3.09467 3.77216 3.45008
# Velocity P-wave (km/s) = 5.23477 6.88129 6.11371
#
# Compressibility (1/GPa) = 0.03629403
#
# Stress axis : x y z
#
# Youngs Moduli (GPa) = 98.09232 57.28886 25.31697
#
# Poissons Ratio (x) = 0.27567 0.08244
# Poissons Ratio (y) = 0.47202 0.18632
# Poissons Ratio (z) = 0.31941 0.42161
#
# Static dielectric constant tensor:
#      x y z
#    x 3.837660 0.000000 -0.204080 
#    y 0.000000 3.208670 0.000000 
#    z -0.204080 0.000000 3.286350 
# 
# 
# High freq. dielectric constant tensor:
#      x y z
#    x 1.743320 0.000000 -0.027890 
#    y 0.000000 1.700660 0.000000 
#    z -0.027890 0.000000 1.715640 
# 
# From -- ./inp_files/189263.got.cif
#   From: 2010.06.25/outbox.cif.g09.slc.cpg/sg15_95_cif.got.tgz:189263.got - 2010.06.28 07:06:18.
