data_PCOD8132641
_publ_section_title
;
Structure prediction by ZEFSAII (Michael W. Deem and Ramdas Pophale) SiO2 
 PCOD8132641
Probable space group: C 2/C
;
_chemical_formula_sum "Si O2"
_cell_formula_units_Z 60
_cell_length_a 28.906372
_cell_length_b 20.555851
_cell_length_c 13.498307
_cell_angle_alpha 90.000000
_cell_angle_beta 156.941168
_cell_angle_gamma 90.000000
_cell_volume 3141.488182
_symmetry_space_group_name_H-M "C 2/C"
_symmetry_group_IT_number 15
_symmetry_cell_setting 'monoclinic'
loop_
_space_group_symop_operation_xyz
x,y,z
-x,y,1/2-z
-x,-y,-z
x,-y,1/2+z
1/2+x,1/2+y,z
1/2-x,1/2+y,1/2-z
1/2-x,1/2-y,-z
1/2+x,1/2-y,1/2+z
loop_
_atom_site_type_symbol
_atom_site_label
_atom_site_fract_x
_atom_site_fract_y
_atom_site_fract_z
Si Si1 0.323220 0.486942 0.584175
Si Si2 0.769590 0.348142 0.873728
Si Si3 0.370949 0.535645 0.477624
Si Si4 0.574709 0.245501 0.495793
Si Si5 0.000000 0.298310 0.250000
Si Si6 0.515684 0.294655 0.595200
Si Si7 0.420521 0.429834 0.431062
Si Si8 0.228018 0.352371 0.400603
O O1 0.303221 0.528959 0.446639
O O2 0.316563 0.540671 0.657118
O O3 0.224416 0.430820 0.390877
O O4 0.449792 0.452416 0.846747
O O5 0.707861 0.419429 0.749589
O O6 0.671735 0.296417 0.649195
O O7 0.810684 0.330609 0.065738
O O8 0.883566 0.343697 0.027564
O O9 0.390887 0.461529 0.478890
O O10 0.500000 0.568599 0.750000
O O11 0.506680 0.270448 0.462182
O O12 0.634167 0.176266 0.638700
O O13 0.500000 0.233054 0.250000
O O14 0.986265 0.257984 0.121272
O O15 0.418313 0.351697 0.422047
O O16 0.644993 0.322133 0.873947
#
# Coordination Sequence:
#
# PCOD8132641 Si02
#       8
#     8   8   8   8   4   8   8   8
#     4   9  18  30  55  83 115 146 186 234 297 345
#     4  11  21  37  60  83 117 159 203 236 293 360
#     4  10  20  32  56  92 115 149 190 249 305 342
#     4  11  22  37  60  88 118 160 199 244 291 354
#     4  12  22  38  62  84 122 162 198 238 286 358
#     4  10  21  34  58  90 120 154 196 241 304 351
#     4   9  18  30  50  89 122 141 175 247 303 345
#     4  10  18  39  59  83 116 159 200 235 289 374
#
# _framework density 19.099229000000001
#
# number of rings (size 3 to 8) (size 9 to 14) (size 15 to 20)
#    0.000    1.867    4.000    1.200   12.133    0.000 
#    0.000    0.667    4.400    0.800    0.000    0.000 
#    0.000    0.000    0.000    0.000    0.000    0.000 
#
# Total GULP energy -371736.142967 kJ/mol
# GULP energy per Si atom -12391.204766 kJ/mol
# Density = 1.905576 g / cm^3
# Si number density = 19.099229 Si / 1000 Ang^3
#
#
#
# Elastic Constant Matrix: (Units=GPa)
#
#
# Indices 1 2 3 4 5 6 
#
# 1 88.3777 27.6351 49.7356 0.0000 -9.9582 0.0000
# 2 27.6351 91.3111 48.4516 0.0000 -4.1965 0.0000
# 3 49.7356 48.4516 76.6982 0.0000 -14.2200 0.0000
# 4 0.0000 0.0000 0.0000 26.0025 0.0000 -0.3637
# 5 -9.9582 -4.1965 -14.2200 0.0000 36.6262 0.0000
# 6 0.0000 0.0000 0.0000 -0.3637 0.0000 19.1399
#
#
#
# Elastic Compliance Matrix: (Units=1/GPa)
#
#
# Indices 1 2 3 4 5 6 
#
# 1 0.017894 0.001097 -0.012253 0.000000 0.000234 0.000000
# 2 0.001097 0.016726 -0.011710 0.000000 -0.002332 0.000000
# 3 -0.012253 -0.011710 0.029649 0.000000 0.006838 0.000000
# 4 0.000000 0.000000 0.000000 0.038468 0.000000 0.000731
# 5 0.000234 -0.002332 0.006838 0.000000 0.029754 0.000000
# 6 0.000000 0.000000 0.000000 0.000731 0.000000 0.052261
#
#
# Mechanical properties :
#
#
# Convention : Reuss Voigt Hill
#
# Bulk Modulus (GPa) = 53.94654 56.44796 55.19725
# Shear Modulus (GPa) = 21.12716 25.05802 23.09259
#
# Velocity S-wave (km/s) = 3.32953 3.62607 3.48096
# Velocity P-wave (km/s) = 6.56413 6.86662 6.71708
#
# Compressibility (1/GPa) = 0.01853687
#
# Stress axis : x y z
#
# Youngs Moduli (GPa) = 55.88459 59.78791 33.72821
#
# Poissons Ratio (x) = -0.06559 0.41328
# Poissons Ratio (y) = -0.06130 0.39494
# Poissons Ratio (z) = 0.68477 0.70009
#
# Static dielectric constant tensor:
#      x y z
#    x 3.512020 0.000000 -0.078480 
#    y 0.000000 3.557190 0.000000 
#    z -0.078480 0.000000 3.135730 
# 
# 
# High freq. dielectric constant tensor:
#      x y z
#    x 1.748440 0.000000 -0.018040 
#    y 0.000000 1.738310 0.000000 
#    z -0.018040 0.000000 1.690340 
# 
# From -- ./inp_files/183096.got.cif
#   From: 2010.06.25/outbox.cif.g09.slc.cpg/sg15_92_cif.got.tgz:183096.got - 2010.06.28 07:06:18.
