data_PCOD8132450
_publ_section_title
;
Structure prediction by ZEFSAII (Michael W. Deem and Ramdas Pophale) SiO2 
 PCOD8132450
Probable space group: C 2/C
;
_chemical_formula_sum "Si O2"
_cell_formula_units_Z 40
_cell_length_a 12.444279
_cell_length_b 19.959601
_cell_length_c 7.450404
_cell_angle_alpha 90.000000
_cell_angle_beta 124.163092
_cell_angle_gamma 90.000000
_cell_volume 1531.225772
_symmetry_space_group_name_H-M "C 2/C"
_symmetry_group_IT_number 15
_symmetry_cell_setting 'monoclinic'
loop_
_space_group_symop_operation_xyz
x,y,z
-x,y,1/2-z
-x,-y,-z
x,-y,1/2+z
1/2+x,1/2+y,z
1/2-x,1/2+y,1/2-z
1/2-x,1/2-y,-z
1/2+x,1/2-y,1/2+z
loop_
_atom_site_type_symbol
_atom_site_label
_atom_site_fract_x
_atom_site_fract_y
_atom_site_fract_z
Si Si1 0.344948 0.927221 0.605814
Si Si2 0.158787 0.705997 0.603803
Si Si3 0.767614 0.428207 0.932154
Si Si4 0.000000 0.340629 0.250000
Si Si5 0.000000 0.193208 0.750000
Si Si6 0.101245 0.831235 0.981007
O O1 0.500000 0.937699 0.750000
O O2 0.304969 0.865392 0.446157
O O3 0.282501 0.910590 0.738193
O O4 0.275654 0.992299 0.460688
O O5 0.021691 0.702530 0.587244
O O6 0.128054 0.761277 0.421280
O O7 0.278261 0.719720 0.856439
O O8 0.638026 0.398130 0.902064
O O9 0.879421 0.390288 0.142643
O O10 0.033608 0.148499 0.607643
O O11 0.000000 0.793523 0.750000
#
# Coordination Sequence:
#
# PCOD8132450 Si02
#       6
#     8   8   8   4   4   8
#     4  12  21  41  76 114 149 179 243 320 382 429
#     4  11  24  45  76 111 144 188 251 315 374 436
#     4  11  22  40  70 109 149 190 236 304 377 439
#     4  10  18  37  64 106 146 173 232 304 376 430
#     4  12  26  51  78 106 144 201 254 314 366 430
#     4  11  29  50  71 107 153 206 250 298 363 454
#
# _framework density 26.122862999999999
#
# number of rings (size 3 to 8) (size 9 to 14) (size 15 to 20)
#    0.000    0.800    4.000    3.600    4.200    0.800 
#    3.600    4.000    0.000    0.000    0.000    0.000 
#    0.000    0.000    0.000    0.000    0.000    0.000 
#
# Total GULP energy -247899.883065 kJ/mol
# GULP energy per Si atom -12394.994153 kJ/mol
# Density = 2.606341 g / cm^3
# Si number density = 26.122863 Si / 1000 Ang^3
#
#
#
# Elastic Constant Matrix: (Units=GPa)
#
#
# Indices 1 2 3 4 5 6 
#
# 1 164.8168 44.8230 73.1880 0.0000 -42.0000 0.0000
# 2 44.8230 91.1268 44.2932 0.0000 -16.5326 0.0000
# 3 73.1880 44.2932 152.4525 0.0000 -9.2569 0.0000
# 4 0.0000 0.0000 0.0000 -2.3171 0.0000 -23.6451
# 5 -42.0000 -16.5326 -9.2569 0.0000 66.8634 0.0000
# 6 0.0000 0.0000 0.0000 -23.6451 0.0000 16.8769
#
#
#
# Elastic Compliance Matrix: (Units=1/GPa)
#
#
# Indices 1 2 3 4 5 6 
#
# 1 0.009512 -0.001984 -0.003688 0.000000 0.004974 0.000000
# 2 -0.001984 0.013682 -0.002918 0.000000 0.001733 0.000000
# 3 -0.003688 -0.002918 0.009069 0.000000 -0.001782 0.000000
# 4 0.000000 0.000000 0.000000 -0.028213 0.000000 -0.039527
# 5 0.004974 0.001733 -0.001782 0.000000 0.018262 0.000000
# 6 0.000000 0.000000 0.000000 -0.039527 0.000000 0.003873
#
#
# Mechanical properties :
#
#
# Convention : Reuss Voigt Hill
#
# Bulk Modulus (GPa) = 66.29253 81.44492 73.86872
# Shear Modulus (GPa) = 103.32080 32.69075 68.00578
#
# Velocity S-wave (km/s) = 6.29585 3.54138 5.10779
# Velocity P-wave (km/s) = 8.84775 6.92583 7.94512
#
# Compressibility (1/GPa) = 0.01508466
#
# Stress axis : x y z
#
# Youngs Moduli (GPa) = 105.12998 73.08873 110.26082
#
# Poissons Ratio (x) = 0.14499 0.40665
# Poissons Ratio (y) = 0.20855 0.32169
# Poissons Ratio (z) = 0.38773 0.21324
#
# Static dielectric constant tensor:
#      x y z
#    x 5.424390 0.000000 -0.104900 
#    y 0.000000 4.398650 0.000000 
#    z -0.104900 0.000000 4.988820 
# 
# 
# High freq. dielectric constant tensor:
#      x y z
#    x 2.072160 0.000000 -0.020360 
#    y 0.000000 2.019650 0.000000 
#    z -0.020360 0.000000 2.053420 
# 
# From -- ./inp_files/41080.got.cif
#   From: 2010.06.25/outbox.cif.g09.slc.cpg/sg15_21_cif.got.tgz:41080.got - 2010.06.28 07:06:18.
