data_PCOD8132148
_publ_section_title
;
Structure prediction by ZEFSAII (Michael W. Deem and Ramdas Pophale) SiO2 
 PCOD8132148
Probable space group: C 2/C
;
_chemical_formula_sum "Si O2"
_cell_formula_units_Z 56
_cell_length_a 12.802452
_cell_length_b 19.450950
_cell_length_c 12.388604
_cell_angle_alpha 90.000000
_cell_angle_beta 72.931780
_cell_angle_gamma 90.000000
_cell_volume 2949.132130
_symmetry_space_group_name_H-M "C 2/C"
_symmetry_group_IT_number 15
_symmetry_cell_setting 'monoclinic'
loop_
_space_group_symop_operation_xyz
x,y,z
-x,y,1/2-z
-x,-y,-z
x,-y,1/2+z
1/2+x,1/2+y,z
1/2-x,1/2+y,1/2-z
1/2-x,1/2-y,-z
1/2+x,1/2-y,1/2+z
loop_
_atom_site_type_symbol
_atom_site_label
_atom_site_fract_x
_atom_site_fract_y
_atom_site_fract_z
Si Si1 0.821310 0.376185 0.067005
Si Si2 0.999406 0.733255 0.506399
Si Si3 0.672837 0.195862 0.279845
Si Si4 0.908471 0.814267 0.352634
Si Si5 0.123832 0.565100 0.173497
Si Si6 0.828007 0.730344 0.879916
Si Si7 0.371526 0.084666 0.779387
O O1 0.692824 0.363025 0.093428
O O2 0.838690 0.422858 0.165340
O O3 0.887550 0.306121 0.063484
O O4 0.870777 0.415758 0.952131
O O5 0.964788 0.801316 0.451846
O O6 0.085697 0.691902 0.404612
O O7 0.050770 0.747789 0.610275
O O8 0.627662 0.243266 0.195787
O O9 0.691509 0.119430 0.226416
O O10 0.789698 0.225149 0.287375
O O11 0.000000 0.851326 0.250000
O O12 0.170922 0.487718 0.160906
O O13 0.000000 0.566370 0.250000
O O14 0.814194 0.649454 0.855362
O O15 0.750000 0.750000 0.000000
O O16 0.500000 0.095215 0.750000
#
# Coordination Sequence:
#
# PCOD8132148 Si02
#       7
#     8   8   8   8   8   8   8
#     4  12  21  36  60  86 119 160 206 254 299 376
#     4  10  19  32  55  90 120 153 201 247 311 353
#     4  10  18  36  57  87 121 157 201 252 299 366
#     4  10  20  34  59  87 117 152 209 258 302 354
#     4  11  23  38  60  91 129 162 201 252 313 376
#     4  10  21  36  58  86 126 161 198 249 301 361
#     4  11  24  38  57  93 131 159 198 251 318 379
#
# _framework density 18.988638000000002
#
# number of rings (size 3 to 8) (size 9 to 14) (size 15 to 20)
#    0.000    1.429    5.714    0.857    0.000    4.571 
#    0.000    0.000    0.000    0.857    0.000    0.000 
#    0.000    0.000    0.000    0.000    0.000    0.000 
#
# Total GULP energy -347027.741860 kJ/mol
# GULP energy per Si atom -12393.847924 kJ/mol
# Density = 1.894542 g / cm^3
# Si number density = 18.988638 Si / 1000 Ang^3
#
#
#
# Elastic Constant Matrix: (Units=GPa)
#
#
# Indices 1 2 3 4 5 6 
#
# 1 107.8549 42.7953 48.3821 0.0000 17.9432 0.0000
# 2 42.7953 102.8498 40.1147 0.0000 8.9694 0.0000
# 3 48.3821 40.1147 79.9704 0.0000 14.2020 0.0000
# 4 0.0000 0.0000 0.0000 9.1170 0.0000 -0.1298
# 5 17.9432 8.9694 14.2020 0.0000 38.0767 0.0000
# 6 0.0000 0.0000 0.0000 -0.1298 0.0000 32.2313
#
#
#
# Elastic Compliance Matrix: (Units=1/GPa)
#
#
# Indices 1 2 3 4 5 6 
#
# 1 0.013853 -0.003024 -0.006245 0.000000 -0.003486 0.000000
# 2 -0.003024 0.012762 -0.004596 0.000000 0.000133 0.000000
# 3 -0.006245 -0.004596 0.019141 0.000000 -0.003114 0.000000
# 4 0.000000 0.000000 0.000000 0.109691 0.000000 0.000442
# 5 -0.003486 0.000133 -0.003114 0.000000 0.029036 0.000000
# 6 0.000000 0.000000 0.000000 0.000442 0.000000 0.031027
#
#
# Mechanical properties :
#
#
# Convention : Reuss Voigt Hill
#
# Bulk Modulus (GPa) = 55.47387 61.47327 58.47357
# Shear Modulus (GPa) = 20.06023 26.51054 23.28539
#
# Velocity S-wave (km/s) = 3.25381 3.74053 3.50563
# Velocity P-wave (km/s) = 6.58741 7.14839 6.87363
#
# Compressibility (1/GPa) = 0.01802651
#
# Stress axis : x y z
#
# Youngs Moduli (GPa) = 72.18569 78.35624 52.24387
#
# Poissons Ratio (x) = 0.23699 0.32625
# Poissons Ratio (y) = 0.21833 0.24009
# Poissons Ratio (z) = 0.45079 0.36009
#
# Static dielectric constant tensor:
#      x y z
#    x 3.883190 0.000000 0.212960 
#    y 0.000000 3.354590 0.000000 
#    z 0.212960 0.000000 3.595830 
# 
# 
# High freq. dielectric constant tensor:
#      x y z
#    x 1.736010 0.000000 0.015140 
#    y 0.000000 1.697480 0.000000 
#    z 0.015140 0.000000 1.750840 
# 
# From -- ./inp_files/89550.got.cif
#   From: 2010.06.25/outbox.cif.g09.slc.cpg/sg15_45_cif.got.tgz:89550.got - 2010.06.28 07:06:18.
