data_PCOD8132668
_publ_section_title
;
Structure prediction by ZEFSAII (Michael W. Deem and Ramdas Pophale) SiO2 
 PCOD8132668
Probable space group: C 2/C
;
_chemical_formula_sum "Si O2"
_cell_formula_units_Z 44
_cell_length_a 7.844858
_cell_length_b 16.754497
_cell_length_c 16.629367
_cell_angle_alpha 90.000000
_cell_angle_beta 89.857667
_cell_angle_gamma 90.000000
_cell_volume 2185.701543
_symmetry_space_group_name_H-M "C 2/C"
_symmetry_group_IT_number 15
_symmetry_cell_setting 'monoclinic'
loop_
_space_group_symop_operation_xyz
x,y,z
-x,y,1/2-z
-x,-y,-z
x,-y,1/2+z
1/2+x,1/2+y,z
1/2-x,1/2+y,1/2-z
1/2-x,1/2-y,-z
1/2+x,1/2-y,1/2+z
loop_
_atom_site_type_symbol
_atom_site_label
_atom_site_fract_x
_atom_site_fract_y
_atom_site_fract_z
Si Si1 0.632989 0.629654 0.099743
Si Si2 0.121813 0.568623 0.528948
Si Si3 0.850002 0.510349 0.307266
Si Si4 0.000000 0.949606 0.750000
Si Si5 0.021987 0.678853 0.335069
Si Si6 0.448328 0.235219 0.499434
O O1 0.494930 0.594929 0.162511
O O2 0.782170 0.653942 0.160091
O O3 0.548279 0.701885 0.052377
O O4 0.713629 0.572119 0.030702
O O5 0.181659 0.549320 0.618654
O O6 0.000000 0.500000 0.500000
O O7 0.010371 0.649014 0.528805
O O8 0.677891 0.503089 0.253901
O O9 0.000000 0.477188 0.250000
O O10 0.899957 0.600023 0.337444
O O11 0.000000 0.723464 0.250000
O O12 0.989311 0.742694 0.404817
O O13 0.250000 0.250000 0.500000
#
# Coordination Sequence:
#
# PCOD8132668 Si02
#       6
#     8   8   8   4   8   8
#     4  11  23  39  69  93 131 179 222 264 336 407
#     4  11  21  42  67  93 132 171 213 282 334 385
#     4  11  21  41  64  96 133 169 222 274 328 393
#     4  12  22  40  68  96 128 182 226 256 340 406
#     4  10  18  39  65  90 129 171 212 267 322 394
#     4  11  24  42  62 100 131 173 224 270 330 403
#
# _framework density 20.130837
#
# number of rings (size 3 to 8) (size 9 to 14) (size 15 to 20)
#    0.000    1.091    7.273    3.273    0.000    0.727 
#    4.909    1.818    2.000    0.000    0.000    0.000 
#    0.000    0.000    0.000    0.000    0.000    0.000 
#
# Total GULP energy -272538.722330 kJ/mol
# GULP energy per Si atom -12388.123742 kJ/mol
# Density = 2.008502 g / cm^3
# Si number density = 20.130837 Si / 1000 Ang^3
#
#
#
# Elastic Constant Matrix: (Units=GPa)
#
#
# Indices 1 2 3 4 5 6 
#
# 1 126.9757 36.5791 47.8532 0.0000 7.8623 0.0000
# 2 36.5791 75.0392 55.3262 0.0000 -1.3800 0.0000
# 3 47.8532 55.3262 180.9460 0.0000 -0.9172 0.0000
# 4 0.0000 0.0000 0.0000 33.2341 0.0000 3.2505
# 5 7.8623 -1.3800 -0.9172 0.0000 44.3967 0.0000
# 6 0.0000 0.0000 0.0000 3.2505 0.0000 20.9179
#
#
#
# Elastic Compliance Matrix: (Units=1/GPa)
#
#
# Indices 1 2 3 4 5 6 
#
# 1 0.009579 -0.003652 -0.001426 0.000000 -0.001839 0.000000
# 2 -0.003652 0.018605 -0.004717 0.000000 0.001128 0.000000
# 3 -0.001426 -0.004717 0.007347 0.000000 0.000258 0.000000
# 4 0.000000 0.000000 0.000000 0.030554 0.000000 -0.004748
# 5 -0.001839 0.001128 0.000258 0.000000 0.022890 0.000000
# 6 0.000000 0.000000 0.000000 -0.004748 0.000000 0.048544
#
#
# Mechanical properties :
#
#
# Convention : Reuss Voigt Hill
#
# Bulk Modulus (GPa) = 62.73032 73.60864 68.16948
# Shear Modulus (GPa) = 30.78378 35.92325 33.35351
#
# Velocity S-wave (km/s) = 3.91472 4.22890 4.07484
# Velocity P-wave (km/s) = 7.18765 7.77749 7.48838
#
# Compressibility (1/GPa) = 0.01594125
#
# Stress axis : x y z
#
# Youngs Moduli (GPa) = 104.39685 53.74820 136.10469
#
# Poissons Ratio (x) = 0.19628 0.19408
# Poissons Ratio (y) = 0.38124 0.64204
# Poissons Ratio (z) = 0.14887 0.25355
#
# Static dielectric constant tensor:
#      x y z
#    x 4.144920 0.000000 -0.588980 
#    y 0.000000 3.012140 0.000000 
#    z -0.588980 0.000000 4.416720 
# 
# 
# High freq. dielectric constant tensor:
#      x y z
#    x 1.802260 0.000000 0.004480 
#    y 0.000000 1.738330 0.000000 
#    z 0.004480 0.000000 1.813350 
# 
# From -- ./inp_files/188918.got.cif
#   From: 2010.06.25/outbox.cif.g09.slc.cpg/sg15_95_cif.got.tgz:188918.got - 2010.06.28 07:06:18.
