data_PCOD8132715
_publ_section_title
;
Structure prediction by ZEFSAII (Michael W. Deem and Ramdas Pophale) SiO2 
 PCOD8132715
Probable space group: C 2/C
;
_chemical_formula_sum "Si O2"
_cell_formula_units_Z 44
_cell_length_a 16.841543
_cell_length_b 8.245564
_cell_length_c 21.424445
_cell_angle_alpha 90.000000
_cell_angle_beta 47.683735
_cell_angle_gamma 90.000000
_cell_volume 2199.959940
_symmetry_space_group_name_H-M "C 2/C"
_symmetry_group_IT_number 15
_symmetry_cell_setting 'monoclinic'
loop_
_space_group_symop_operation_xyz
x,y,z
-x,y,1/2-z
-x,-y,-z
x,-y,1/2+z
1/2+x,1/2+y,z
1/2-x,1/2+y,1/2-z
1/2-x,1/2-y,-z
1/2+x,1/2-y,1/2+z
loop_
_atom_site_type_symbol
_atom_site_label
_atom_site_fract_x
_atom_site_fract_y
_atom_site_fract_z
Si Si1 0.682191 0.641067 0.243288
Si Si2 0.058380 0.932942 0.616446
Si Si3 0.785254 0.783307 0.308000
Si Si4 0.118608 0.645421 0.664387
Si Si5 0.000000 0.172984 0.750000
Si Si6 0.775935 0.126606 0.041867
O O1 0.564881 0.606063 0.334981
O O2 0.761341 0.697608 0.255534
O O3 0.728273 0.475783 0.190300
O O4 0.681907 0.777602 0.189723
O O5 0.117289 0.770193 0.607314
O O6 0.067621 0.058328 0.668427
O O7 0.120337 0.013710 0.525511
O O8 0.908159 0.728059 0.261205
O O9 0.702867 0.725981 0.405570
O O10 0.172612 0.485231 0.608785
O O11 0.000000 0.600256 0.750000
O O12 0.750000 0.250000 0.000000
#
# Coordination Sequence:
#
# PCOD8132715 Si02
#       6
#     8   8   8   8   4   8
#     4  10  21  41  64  87 124 162 210 255 304 369
#     4  10  19  40  63  87 122 164 203 259 311 360
#     4  11  22  38  61  91 120 163 208 252 308 362
#     4  10  20  38  65  90 118 163 211 249 306 369
#     4  10  18  40  64  82 120 162 208 246 310 366
#     4  12  23  34  60  94 126 161 207 256 308 367
#
# _framework density 20.000363
#
# number of rings (size 3 to 8) (size 9 to 14) (size 15 to 20)
#    0.000    1.455    6.364    1.636    1.273    0.727 
#    0.000    0.000    0.000    9.818    0.000    0.000 
#    0.000    0.000    0.000    0.000    0.000    0.000 
#
# Total GULP energy -272748.408278 kJ/mol
# GULP energy per Si atom -12397.654922 kJ/mol
# Density = 1.995484 g / cm^3
# Si number density = 20.000363 Si / 1000 Ang^3
#
#
#
# Elastic Constant Matrix: (Units=GPa)
#
#
# Indices 1 2 3 4 5 6 
#
# 1 122.2502 54.8350 32.7861 0.0001 14.2431 0.0003
# 2 54.8350 109.9069 75.3758 0.0001 3.4026 0.0010
# 3 32.7861 75.3758 103.8193 0.0000 4.3755 0.0000
# 4 0.0001 0.0001 0.0000 51.8204 0.0000 2.6766
# 5 14.2431 3.4026 4.3755 0.0000 24.7121 0.0001
# 6 0.0003 0.0010 0.0000 2.6766 0.0001 16.4335
#
#
#
# Elastic Compliance Matrix: (Units=1/GPa)
#
#
# Indices 1 2 3 4 5 6 
#
# 1 0.011385 -0.006378 0.001284 0.000000 -0.005911 0.000000
# 2 -0.006378 0.021696 -0.013870 0.000000 0.003145 -0.000001
# 3 0.001284 -0.013870 0.019392 0.000000 -0.002264 0.000001
# 4 0.000000 0.000000 0.000000 0.019461 0.000000 -0.003170
# 5 -0.005911 0.003145 -0.002264 0.000000 0.043841 0.000000
# 6 0.000000 -0.000001 0.000001 -0.003170 0.000000 0.061368
#
#
# Mechanical properties :
#
#
# Convention : Reuss Voigt Hill
#
# Bulk Modulus (GPa) = 68.75089 73.55227 71.15158
# Shear Modulus (GPa) = 22.73569 30.12515 26.43042
#
# Velocity S-wave (km/s) = 3.37525 3.88523 3.63918
# Velocity P-wave (km/s) = 7.04551 7.54864 7.30141
#
# Compressibility (1/GPa) = 0.01454527
#
# Stress axis : x y z
#
# Youngs Moduli (GPa) = 87.83433 46.09193 51.56770
#
# Poissons Ratio (x) = 0.29398 -0.06624
# Poissons Ratio (y) = 0.56022 0.71525
# Poissons Ratio (z) = -0.11282 0.63930
#
# Static dielectric constant tensor:
#      x y z
#    x 3.488330 0.000000 0.025550 
#    y 0.000000 3.777450 0.000000 
#    z 0.025550 0.000000 3.908100 
# 
# 
# High freq. dielectric constant tensor:
#      x y z
#    x 1.763550 0.000000 0.004350 
#    y 0.000000 1.795300 0.000000 
#    z 0.004350 0.000000 1.771480 
# 
# From -- ./inp_files/159217.got.cif
#   From: 2010.06.25/outbox.cif.g09.slc.cpg/sg15_80_cif.got.tgz:159217.got - 2010.06.28 07:06:18.
