data_PCOD8132056
_publ_section_title
;
Structure prediction by ZEFSAII (Michael W. Deem and Ramdas Pophale) SiO2 
 PCOD8132056
Probable space group: C 2/C
;
_chemical_formula_sum "Si O2"
_cell_formula_units_Z 64
_cell_length_a 9.618087
_cell_length_b 20.032154
_cell_length_c 16.468894
_cell_angle_alpha 90.000000
_cell_angle_beta 84.865738
_cell_angle_gamma 90.000000
_cell_volume 3160.347028
_symmetry_space_group_name_H-M "C 2/C"
_symmetry_group_IT_number 15
_symmetry_cell_setting 'monoclinic'
loop_
_space_group_symop_operation_xyz
x,y,z
-x,y,1/2-z
-x,-y,-z
x,-y,1/2+z
1/2+x,1/2+y,z
1/2-x,1/2+y,1/2-z
1/2-x,1/2-y,-z
1/2+x,1/2-y,1/2+z
loop_
_atom_site_type_symbol
_atom_site_label
_atom_site_fract_x
_atom_site_fract_y
_atom_site_fract_z
Si Si1 0.779769 0.106610 0.628504
Si Si2 0.834579 0.218173 0.753401
Si Si3 0.346272 0.982250 0.238493
Si Si4 0.052781 0.046105 0.569228
Si Si5 0.619578 0.431133 0.683546
Si Si6 0.584837 0.815026 0.034331
Si Si7 0.726677 0.701027 0.122281
Si Si8 0.299534 0.869532 0.108420
O O1 0.780880 0.164916 0.692518
O O2 0.727146 0.039848 0.674245
O O3 0.679601 0.123033 0.558518
O O4 0.936178 0.101085 0.588998
O O5 0.767924 0.284874 0.715299
O O6 0.774773 0.194327 0.843831
O O7 0.000000 0.224807 0.750000
O O8 0.500000 0.006899 0.250000
O O9 0.354258 0.922034 0.172557
O O10 0.265765 0.048639 0.216393
O O11 0.195459 0.089597 0.552830
O O12 0.063909 0.998540 0.645873
O O13 0.000000 0.000000 0.500000
O O14 0.500000 0.405486 0.750000
O O15 0.653168 0.371062 0.620470
O O16 0.612380 0.752057 0.091778
O O17 0.424041 0.838670 0.047672
O O18 0.631345 0.797166 0.939864
#
# Coordination Sequence:
#
# PCOD8132056 Si02
#       8
#     8   8   8   8   8   8   8   8
#     4  10  18  35  62  87 120 154 200 249 307 355
#     4  10  20  37  64  88 116 156 208 257 291 354
#     4  10  19  35  59  93 119 157 204 255 302 360
#     4  11  22  39  61  92 124 160 200 254 317 367
#     4  11  23  39  59  89 130 165 201 245 309 390
#     4  10  21  42  63  88 120 161 209 257 305 369
#     4  10  24  39  61  86 127 165 199 251 321 363
#     4  10  21  36  65  94 115 154 217 258 297 366
#
# _framework density 20.25094
#
# number of rings (size 3 to 8) (size 9 to 14) (size 15 to 20)
#    0.000    1.750    3.750    0.750    1.750    0.500 
#    2.250    3.750    0.000    0.000    0.000    0.000 
#    0.000    0.000    0.000    0.000    0.000    0.000 
#
# Total GULP energy -396564.333443 kJ/mol
# GULP energy per Si atom -12392.635420 kJ/mol
# Density = 2.020485 g / cm^3
# Si number density = 20.250940 Si / 1000 Ang^3
#
#
#
# Elastic Constant Matrix: (Units=GPa)
#
#
# Indices 1 2 3 4 5 6 
#
# 1 142.6395 36.2949 30.0606 0.0000 -5.8633 0.0000
# 2 36.2949 74.3623 20.3707 0.0000 -7.8023 0.0000
# 3 30.0606 20.3707 53.7902 0.0000 2.2587 0.0000
# 4 0.0000 0.0000 0.0000 20.0286 0.0000 -4.3980
# 5 -5.8633 -7.8023 2.2587 0.0000 27.4780 0.0000
# 6 0.0000 0.0000 0.0000 -4.3980 0.0000 25.6797
#
#
#
# Elastic Compliance Matrix: (Units=1/GPa)
#
#
# Indices 1 2 3 4 5 6 
#
# 1 0.008624 -0.003057 -0.003715 0.000000 0.001277 0.000000
# 2 -0.003057 0.016731 -0.004816 0.000000 0.004494 0.000000
# 3 -0.003715 -0.004816 0.022660 0.000000 -0.004023 0.000000
# 4 0.000000 0.000000 0.000000 0.051880 0.000000 0.008885
# 5 0.001277 0.004494 -0.004023 0.000000 0.038272 0.000000
# 6 0.000000 0.000000 0.000000 0.008885 0.000000 0.040463
#
#
# Mechanical properties :
#
#
# Convention : Reuss Voigt Hill
#
# Bulk Modulus (GPa) = 40.26258 49.36050 44.81154
# Shear Modulus (GPa) = 23.79972 26.90832 25.35402
#
# Velocity S-wave (km/s) = 3.43190 3.64915 3.54219
# Velocity P-wave (km/s) = 5.96899 6.49480 6.23744
#
# Compressibility (1/GPa) = 0.02483696
#
# Stress axis : x y z
#
# Youngs Moduli (GPa) = 115.95319 59.76989 44.13086
#
# Poissons Ratio (x) = 0.18275 0.16396
# Poissons Ratio (y) = 0.35453 0.21254
# Poissons Ratio (z) = 0.43081 0.28786
#
# Static dielectric constant tensor:
#      x y z
#    x 3.601140 0.000000 0.159030 
#    y 0.000000 3.710260 0.000000 
#    z 0.159030 0.000000 3.785020 
# 
# 
# High freq. dielectric constant tensor:
#      x y z
#    x 1.794960 0.000000 0.000730 
#    y 0.000000 1.784450 0.000000 
#    z 0.000730 0.000000 1.769680 
# 
# From -- ./inp_files/192148.got.cif
#   From: 2010.06.25/outbox.cif.g09.slc.cpg/sg15_97_cif.got.tgz:192148.got - 2010.06.28 07:06:18.
