data_PCOD8132683
_publ_section_title
;
Structure prediction by ZEFSAII (Michael W. Deem and Ramdas Pophale) SiO2 
 PCOD8132683
Probable space group: C 2/C
;
_chemical_formula_sum "Si O2"
_cell_formula_units_Z 48
_cell_length_a 20.139713
_cell_length_b 12.145638
_cell_length_c 19.568759
_cell_angle_alpha 90.000000
_cell_angle_beta 149.350076
_cell_angle_gamma 90.000000
_cell_volume 2440.221483
_symmetry_space_group_name_H-M "C 2/C"
_symmetry_group_IT_number 15
_symmetry_cell_setting 'monoclinic'
loop_
_space_group_symop_operation_xyz
x,y,z
-x,y,1/2-z
-x,-y,-z
x,-y,1/2+z
1/2+x,1/2+y,z
1/2-x,1/2+y,1/2-z
1/2-x,1/2-y,-z
1/2+x,1/2-y,1/2+z
loop_
_atom_site_type_symbol
_atom_site_label
_atom_site_fract_x
_atom_site_fract_y
_atom_site_fract_z
Si Si1 0.473875 0.798124 0.869492
Si Si2 0.730425 0.853848 0.176044
Si Si3 0.176891 0.004892 0.859753
Si Si4 0.500000 0.668817 0.250000
Si Si5 0.000000 0.191071 0.750000
Si Si6 0.413439 0.878588 0.114344
Si Si7 0.933138 0.533667 0.870384
O O1 0.359209 0.720163 0.796460
O O2 0.519235 0.765606 0.833737
O O3 0.410944 0.920022 0.809769
O O4 0.603657 0.791084 0.031905
O O5 0.761065 0.961583 0.157350
O O6 0.697228 0.899411 0.222889
O O7 0.065735 0.911792 0.751739
O O8 0.127099 0.114409 0.853926
O O9 0.280666 0.945697 0.000135
O O10 0.397825 0.747941 0.118852
O O11 0.500000 0.935412 0.250000
O O12 0.479917 0.885746 0.098708
O O13 0.000000 0.500000 0.000000
#
# Coordination Sequence:
#
# PCOD8132683 Si02
#       7
#     8   8   8   4   4   8   8
#     4  10  21  38  59  86 116 156 199 237 298 353
#     4  10  22  39  62  84 116 161 194 242 298 353
#     4  10  18  40  55  83 123 150 191 242 298 340
#     4   9  22  33  58  86 116 155 192 239 292 346
#     4   9  22  33  60  86 116 157 188 247 294 344
#     4  10  21  34  58  88 110 149 197 241 287 347
#     4  10  20  39  57  81 116 156 190 237 294 351
#
# _framework density 19.670345999999999
#
# number of rings (size 3 to 8) (size 9 to 14) (size 15 to 20)
#    0.500    1.667    3.333    0.500    1.167    5.333 
#    0.000    0.833    0.000    0.000    0.000    0.000 
#    0.000    0.000    0.000    0.000    0.000    0.000 
#
# Total GULP energy -297314.746968 kJ/mol
# GULP energy per Si atom -12388.114457 kJ/mol
# Density = 1.962558 g / cm^3
# Si number density = 19.670346 Si / 1000 Ang^3
#
#
#
# Elastic Constant Matrix: (Units=GPa)
#
#
# Indices 1 2 3 4 5 6 
#
# 1 113.0691 46.0666 24.1335 0.0000 5.3500 0.0000
# 2 46.0666 114.3857 33.6387 0.0000 2.4086 0.0000
# 3 24.1335 33.6387 72.2564 -0.0002 14.0961 -0.0001
# 4 0.0000 0.0000 -0.0002 27.2122 -0.0001 1.1963
# 5 5.3500 2.4086 14.0961 -0.0001 24.4091 0.0000
# 6 0.0000 0.0000 -0.0001 1.1963 0.0000 36.8438
#
#
#
# Elastic Compliance Matrix: (Units=1/GPa)
#
#
# Indices 1 2 3 4 5 6 
#
# 1 0.010809 -0.003858 -0.001607 0.000000 -0.001060 0.000000
# 2 -0.003858 0.011589 -0.004562 0.000000 0.002337 0.000000
# 3 -0.001607 -0.004562 0.018419 0.000000 -0.009834 0.000000
# 4 0.000000 0.000000 0.000000 0.036801 0.000000 -0.001195
# 5 -0.001060 0.002337 -0.009834 0.000000 0.046649 0.000000
# 6 0.000000 0.000000 0.000000 -0.001195 0.000000 0.027180
#
#
# Mechanical properties :
#
#
# Convention : Reuss Voigt Hill
#
# Bulk Modulus (GPa) = 48.16655 56.37653 52.27154
# Shear Modulus (GPa) = 28.02323 30.75118 29.38721
#
# Velocity S-wave (km/s) = 3.77854 3.95818 3.86940
# Velocity P-wave (km/s) = 6.60125 7.04361 6.82602
#
# Compressibility (1/GPa) = 0.02076130
#
# Stress axis : x y z
#
# Youngs Moduli (GPa) = 92.51295 86.29123 54.29210
#
# Poissons Ratio (x) = 0.33293 0.08726
# Poissons Ratio (y) = 0.35694 0.24770
# Poissons Ratio (z) = 0.14869 0.39369
#
# Static dielectric constant tensor:
#      x y z
#    x 3.922670 0.000000 0.289940 
#    y 0.000000 3.831800 0.000000 
#    z 0.289940 0.000000 3.332760 
# 
# 
# High freq. dielectric constant tensor:
#      x y z
#    x 1.775450 0.000000 0.023250 
#    y 0.000000 1.773840 0.000000 
#    z 0.023250 0.000000 1.733430 
# 
# From -- ./inp_files/252527.got.cif
#   From: 2010.06.25/outbox.cif.g09.slc.cpg/sg15_127_cif.got.tgz:252527.got - 2010.06.28 07:06:18.
