data_PCOD8132143
_publ_section_title
;
Structure prediction by ZEFSAII (Michael W. Deem and Ramdas Pophale) SiO2 
 PCOD8132143
Probable space group: C 2/C
;
_chemical_formula_sum "Si O2"
_cell_formula_units_Z 64
_cell_length_a 9.687924
_cell_length_b 15.173581
_cell_length_c 29.061203
_cell_angle_alpha 90.000000
_cell_angle_beta 130.681295
_cell_angle_gamma 90.000000
_cell_volume 3239.667776
_symmetry_space_group_name_H-M "C 2/C"
_symmetry_group_IT_number 15
_symmetry_cell_setting 'monoclinic'
loop_
_space_group_symop_operation_xyz
x,y,z
-x,y,1/2-z
-x,-y,-z
x,-y,1/2+z
1/2+x,1/2+y,z
1/2-x,1/2+y,1/2-z
1/2-x,1/2-y,-z
1/2+x,1/2-y,1/2+z
loop_
_atom_site_type_symbol
_atom_site_label
_atom_site_fract_x
_atom_site_fract_y
_atom_site_fract_z
Si Si1 0.709751 0.330632 0.790549
Si Si2 0.128582 0.685245 0.074244
Si Si3 0.505855 0.365798 0.485051
Si Si4 0.365410 0.396791 0.552663
Si Si5 0.824834 0.978690 0.369096
Si Si6 0.310704 0.858986 0.234768
Si Si7 0.131850 0.459599 0.957129
Si Si8 0.053822 0.495620 0.674847
O O1 0.500000 0.358081 0.750000
O O2 0.780912 0.309369 0.856634
O O3 0.746556 0.242445 0.767607
O O4 0.818547 0.410520 0.790625
O O5 0.007269 0.772115 0.042227
O O6 0.285850 0.676939 0.069645
O O7 0.996134 0.602327 0.040247
O O8 0.427006 0.352167 0.518739
O O9 0.386260 0.437837 0.431548
O O10 0.712737 0.399312 0.532994
O O11 0.538854 0.442608 0.614843
O O12 0.212297 0.469803 0.509502
O O13 0.834469 0.906938 0.330321
O O14 0.620124 0.015826 0.329377
O O15 0.500000 0.850519 0.250000
O O16 0.334740 0.915998 0.286712
O O17 0.010630 0.506738 0.891623
#
# Coordination Sequence:
#
# PCOD8132143 Si02
#       8
#     8   8   8   8   8   8   8   8
#     4  10  22  38  57  86 116 150 195 245 292 354
#     4  11  23  35  56  87 121 152 187 245 305 338
#     4  11  19  37  59  84 119 150 202 237 280 353
#     4  11  21  34  58  84 121 151 195 236 286 355
#     4  10  18  36  57  84 106 156 198 239 281 343
#     4   9  19  35  60  83 104 149 202 236 284 344
#     4  10  20  38  58  85 118 153 192 236 299 354
#     4  10  19  36  63  83 113 149 199 244 287 338
#
# _framework density 19.755113000000001
#
# number of rings (size 3 to 8) (size 9 to 14) (size 15 to 20)
#    0.000    1.750    3.750    1.875    1.750    0.000 
#    0.000    0.000    0.000    3.750    0.000    0.000 
#    0.000    0.000    0.000    0.000    0.000    0.000 
#
# Total GULP energy -396798.642655 kJ/mol
# GULP energy per Si atom -12399.957583 kJ/mol
# Density = 1.971015 g / cm^3
# Si number density = 19.755113 Si / 1000 Ang^3
#
#
#
# Elastic Constant Matrix: (Units=GPa)
#
#
# Indices 1 2 3 4 5 6 
#
# 1 63.2257 30.0776 23.8434 0.0000 -0.3561 0.0000
# 2 30.0776 96.6979 34.7379 0.0000 5.0045 0.0000
# 3 23.8434 34.7379 69.9656 0.0000 14.1558 0.0000
# 4 0.0000 0.0000 0.0000 28.7334 0.0000 0.2313
# 5 -0.3561 5.0045 14.1558 0.0000 22.5449 0.0000
# 6 0.0000 0.0000 0.0000 0.2313 0.0000 23.6735
#
#
#
# Elastic Compliance Matrix: (Units=1/GPa)
#
#
# Indices 1 2 3 4 5 6 
#
# 1 0.020088 -0.004489 -0.005594 0.000000 0.004826 0.000000
# 2 -0.004489 0.013623 -0.005278 0.000000 0.000219 0.000000
# 3 -0.005594 -0.005278 0.021307 0.000000 -0.012295 0.000000
# 4 0.000000 0.000000 0.000000 0.034805 0.000000 -0.000340
# 5 0.004826 0.000219 -0.012295 0.000000 0.052104 0.000000
# 6 0.000000 0.000000 0.000000 -0.000340 0.000000 0.042245
#
#
# Mechanical properties :
#
#
# Convention : Reuss Voigt Hill
#
# Bulk Modulus (GPa) = 41.15739 45.24521 43.20130
# Shear Modulus (GPa) = 22.42235 24.40572 23.41404
#
# Velocity S-wave (km/s) = 3.37265 3.51866 3.44643
# Velocity P-wave (km/s) = 6.00378 6.28177 6.14435
#
# Compressibility (1/GPa) = 0.02429697
#
# Stress axis : x y z
#
# Youngs Moduli (GPa) = 49.78016 73.40795 46.93240
#
# Poissons Ratio (x) = 0.32951 0.26252
# Poissons Ratio (y) = 0.22345 0.24772
# Poissons Ratio (z) = 0.27845 0.38746
#
# Static dielectric constant tensor:
#      x y z
#    x 3.372280 0.000000 0.202750 
#    y 0.000000 3.704270 0.000000 
#    z 0.202750 0.000000 3.669070 
# 
# 
# High freq. dielectric constant tensor:
#      x y z
#    x 1.744330 0.000000 0.012120 
#    y 0.000000 1.768190 0.000000 
#    z 0.012120 0.000000 1.776550 
# 
# From -- ./inp_files/308038.got.cif
#   From: 2010.06.25/outbox.cif.g09.slc.cpg/sg15_155_cif.got.tgz:308038.got - 2010.06.28 07:06:18.
