data_PCOD8132843
_publ_section_title
;
Structure prediction by ZEFSAII (Michael W. Deem and Ramdas Pophale) SiO2 
 PCOD8132843
Probable space group: C 2/C
;
_chemical_formula_sum "Si O2"
_cell_formula_units_Z 64
_cell_length_a 26.899657
_cell_length_b 16.160791
_cell_length_c 8.975824
_cell_angle_alpha 90.000000
_cell_angle_beta 81.994144
_cell_angle_gamma 90.000000
_cell_volume 3863.938622
_symmetry_space_group_name_H-M "C 2/C"
_symmetry_group_IT_number 15
_symmetry_cell_setting 'monoclinic'
loop_
_space_group_symop_operation_xyz
x,y,z
-x,y,1/2-z
-x,-y,-z
x,-y,1/2+z
1/2+x,1/2+y,z
1/2-x,1/2+y,1/2-z
1/2-x,1/2-y,-z
1/2+x,1/2-y,1/2+z
loop_
_atom_site_type_symbol
_atom_site_label
_atom_site_fract_x
_atom_site_fract_y
_atom_site_fract_z
Si Si1 0.789619 0.311803 0.713109
Si Si2 0.534651 0.964407 0.856590
Si Si3 0.311021 0.061307 0.435414
Si Si4 0.814066 0.112748 0.320302
Si Si5 0.759133 0.653093 0.709593
Si Si6 0.402274 0.934391 0.401784
Si Si7 0.662877 0.784548 0.104595
Si Si8 0.792888 0.982544 0.107258
O O1 0.822020 0.378490 0.791715
O O2 0.743941 0.359962 0.653335
O O3 0.769054 0.237882 0.829413
O O4 0.826151 0.271943 0.574956
O O5 0.500000 0.912283 0.750000
O O6 0.559260 0.035114 0.740985
O O7 0.575857 0.916923 0.939477
O O8 0.500000 0.000000 0.000000
O O9 0.301700 0.121651 0.579108
O O10 0.357773 0.001192 0.442415
O O11 0.260992 0.009319 0.432318
O O12 0.848735 0.195336 0.313566
O O13 0.825346 0.056611 0.460678
O O14 0.823871 0.059712 0.165540
O O15 0.786965 0.674432 0.851204
O O16 0.717043 0.583362 0.756456
O O17 0.383619 0.845863 0.350560
#
# Coordination Sequence:
#
# PCOD8132843 Si02
#       8
#     8   8   8   8   8   8   8   8
#     4  10  19  29  41  58  88 124 161 212 236 254
#     4   9  20  36  52  70  91 119 144 170 231 304
#     4  11  21  27  43  67  88 120 171 202 226 256
#     4  10  19  30  42  58  82 124 164 202 236 263
#     4  11  18  29  39  57  91 123 166 208 234 257
#     4  11  19  31  51  70  92 118 152 194 227 270
#     4  11  19  30  44  65  88 115 159 208 235 260
#     4  11  18  29  43  57  86 129 171 199 226 265
#
# _framework density 16.563410999999999
#
# number of rings (size 3 to 8) (size 9 to 14) (size 15 to 20)
#    0.000    1.500    5.000    2.625    1.750    0.000 
#    0.000    0.000    0.000    0.000    0.000    0.000 
#    0.000    0.000    0.000   14.625    3.750    0.750 
#
# Total GULP energy -396418.526599 kJ/mol
# GULP energy per Si atom -12388.078956 kJ/mol
# Density = 1.652571 g / cm^3
# Si number density = 16.563411 Si / 1000 Ang^3
#
#
#
# Elastic Constant Matrix: (Units=GPa)
#
#
# Indices 1 2 3 4 5 6 
#
# 1 46.0461 31.7715 20.5281 0.0000 9.6129 0.0000
# 2 31.7715 105.3346 35.4722 0.0000 10.5476 0.0000
# 3 20.5281 35.4722 69.9708 0.0000 5.1682 0.0000
# 4 0.0000 0.0000 0.0000 27.2368 0.0000 3.7015
# 5 9.6129 10.5476 5.1682 0.0000 25.0672 0.0000
# 6 0.0000 0.0000 0.0000 3.7015 0.0000 6.5802
#
#
#
# Elastic Compliance Matrix: (Units=1/GPa)
#
#
# Indices 1 2 3 4 5 6 
#
# 1 0.030106 -0.006661 -0.004884 0.000000 -0.007735 0.000000
# 2 -0.006661 0.013266 -0.004617 0.000000 -0.002075 0.000000
# 3 -0.004884 -0.004617 0.018059 0.000000 0.000093 0.000000
# 4 0.000000 0.000000 0.000000 0.039754 0.000000 -0.022363
# 5 -0.007735 -0.002075 0.000093 0.000000 0.043713 0.000000
# 6 0.000000 0.000000 0.000000 -0.022363 0.000000 0.164550
#
#
# Mechanical properties :
#
#
# Convention : Reuss Voigt Hill
#
# Bulk Modulus (GPa) = 34.35935 44.09947 39.22941
# Shear Modulus (GPa) = 14.22577 20.68216 17.45397
#
# Velocity S-wave (km/s) = 2.93382 3.53748 3.24970
# Velocity P-wave (km/s) = 5.68028 6.58540 6.14951
#
# Compressibility (1/GPa) = 0.02910416
#
# Stress axis : x y z
#
# Youngs Moduli (GPa) = 33.21602 75.38316 55.37520
#
# Poissons Ratio (x) = 0.50215 0.27046
# Poissons Ratio (y) = 0.22126 0.25569
# Poissons Ratio (z) = 0.16223 0.34808
#
# Static dielectric constant tensor:
#      x y z
#    x 2.937500 0.000000 0.309640 
#    y 0.000000 3.322640 0.000000 
#    z 0.309640 0.000000 3.349650 
# 
# 
# High freq. dielectric constant tensor:
#      x y z
#    x 1.571610 0.000000 0.017750 
#    y 0.000000 1.634190 0.000000 
#    z 0.017750 0.000000 1.653570 
# 
# From -- ./inp_files/69734.got.cif
#   From: 2010.06.25/outbox.cif.g09.slc.cpg/sg15_35_cif.got.tgz:69734.got - 2010.06.28 07:06:18.
