data_PCOD8132633
_publ_section_title
;
Structure prediction by ZEFSAII (Michael W. Deem and Ramdas Pophale) SiO2 
 PCOD8132633
Probable space group: C 2/C
;
_chemical_formula_sum "Si O2"
_cell_formula_units_Z 44
_cell_length_a 12.378947
_cell_length_b 13.252007
_cell_length_c 12.211541
_cell_angle_alpha 90.000000
_cell_angle_beta 84.446576
_cell_angle_gamma 90.000000
_cell_volume 1993.850664
_symmetry_space_group_name_H-M "C 2/C"
_symmetry_group_IT_number 15
_symmetry_cell_setting 'monoclinic'
loop_
_space_group_symop_operation_xyz
x,y,z
-x,y,1/2-z
-x,-y,-z
x,-y,1/2+z
1/2+x,1/2+y,z
1/2-x,1/2+y,1/2-z
1/2-x,1/2-y,-z
1/2+x,1/2-y,1/2+z
loop_
_atom_site_type_symbol
_atom_site_label
_atom_site_fract_x
_atom_site_fract_y
_atom_site_fract_z
Si Si1 0.887220 0.967800 0.459734
Si Si2 0.682666 0.349839 0.844336
Si Si3 0.389595 0.073906 0.199618
Si Si4 0.500000 0.480436 0.750000
Si Si5 0.119007 0.352120 0.252954
Si Si6 0.209340 0.362718 0.005895
O O1 0.829313 0.870959 0.522981
O O2 0.921429 0.946546 0.330222
O O3 0.808340 0.063836 0.469747
O O4 0.000000 0.000000 0.500000
O O5 0.792430 0.396940 0.789200
O O6 0.578381 0.407101 0.808764
O O7 0.686822 0.231686 0.812628
O O8 0.500000 0.105949 0.250000
O O9 0.381318 0.125919 0.080919
O O10 0.385221 0.954024 0.175702
O O11 0.000000 0.305394 0.250000
O O12 0.163943 0.384392 0.130207
O O13 0.250000 0.250000 0.000000
#
# Coordination Sequence:
#
# PCOD8132633 Si02
#       6
#     8   8   8   4   8   8
#     4  10  22  37  70 105 136 174 240 301 345 408
#     4  11  20  42  69 104 138 185 243 288 351 424
#     4  11  25  43  69 103 145 184 239 292 354 425
#     4  10  18  38  70  98 136 186 236 294 348 416
#     4  11  24  43  73 100 136 189 236 289 358 428
#     4  12  23  44  74 100 139 191 237 288 361 426
#
# _framework density 22.067851000000001
#
# number of rings (size 3 to 8) (size 9 to 14) (size 15 to 20)
#    0.000    1.091    6.364    0.000    2.545    2.909 
#    0.000    2.727   10.000    0.000    0.000    0.000 
#    0.000    0.000    0.000    0.000    0.000    0.000 
#
# Total GULP energy -272646.102483 kJ/mol
# GULP energy per Si atom -12393.004658 kJ/mol
# Density = 2.201762 g / cm^3
# Si number density = 22.067851 Si / 1000 Ang^3
#
#
#
# Elastic Constant Matrix: (Units=GPa)
#
#
# Indices 1 2 3 4 5 6 
#
# 1 107.9146 44.2640 24.6795 0.0000 -1.0854 0.0000
# 2 44.2640 103.4010 60.3058 0.0000 9.2135 0.0000
# 3 24.6795 60.3058 153.4399 0.0000 -15.7231 0.0000
# 4 0.0000 0.0000 0.0000 22.7264 0.0000 0.8701
# 5 -1.0854 9.2135 -15.7231 0.0000 42.5938 0.0000
# 6 0.0000 0.0000 0.0000 0.8701 0.0000 23.7692
#
#
#
# Elastic Compliance Matrix: (Units=1/GPa)
#
#
# Indices 1 2 3 4 5 6 
#
# 1 0.011333 -0.005216 0.000387 0.000000 0.001560 0.000000
# 2 -0.005216 0.015930 -0.006016 0.000000 -0.005799 0.000000
# 3 0.000387 -0.006016 0.009306 0.000000 0.004746 0.000000
# 4 0.000000 0.000000 0.000000 0.044064 0.000000 -0.001613
# 5 0.001560 -0.005799 0.004746 0.000000 0.026524 0.000000
# 6 0.000000 0.000000 0.000000 -0.001613 0.000000 0.042130
#
#
# Mechanical properties :
#
#
# Convention : Reuss Voigt Hill
#
# Bulk Modulus (GPa) = 67.21238 69.25045 68.23142
# Shear Modulus (GPa) = 28.41939 33.51828 30.96884
#
# Velocity S-wave (km/s) = 3.59251 3.90150 3.75019
# Velocity P-wave (km/s) = 6.90880 7.19336 7.05251
#
# Compressibility (1/GPa) = 0.01487821
#
# Stress axis : x y z
#
# Youngs Moduli (GPa) = 88.23485 62.77645 107.46075
#
# Poissons Ratio (x) = 0.32747 -0.04161
# Poissons Ratio (y) = 0.46027 0.64648
# Poissons Ratio (z) = -0.03416 0.37766
#
# Static dielectric constant tensor:
#      x y z
#    x 4.219280 0.000000 0.089840 
#    y 0.000000 3.854740 0.000000 
#    z 0.089840 0.000000 3.266260 
# 
# 
# High freq. dielectric constant tensor:
#      x y z
#    x 1.876330 0.000000 -0.010650 
#    y 0.000000 1.851430 0.000000 
#    z -0.010650 0.000000 1.878180 
# 
# From -- ./inp_files/86114.got.cif
#   From: 2010.06.25/outbox.cif.g09.slc.cpg/sg15_44_cif.got.tgz:86114.got - 2010.06.28 07:06:18.
