data_PCOD8132944
_publ_section_title
;
Structure prediction by ZEFSAII (Michael W. Deem and Ramdas Pophale) SiO2 
 PCOD8132944
Probable space group: C 2/C
;
_chemical_formula_sum "Si O2"
_cell_formula_units_Z 48
_cell_length_a 19.588086
_cell_length_b 27.073971
_cell_length_c 5.078648
_cell_angle_alpha 90.000000
_cell_angle_beta 105.034949
_cell_angle_gamma 90.000000
_cell_volume 2601.146326
_symmetry_space_group_name_H-M "C 2/C"
_symmetry_group_IT_number 15
_symmetry_cell_setting 'monoclinic'
loop_
_space_group_symop_operation_xyz
x,y,z
-x,y,1/2-z
-x,-y,-z
x,-y,1/2+z
1/2+x,1/2+y,z
1/2-x,1/2+y,1/2-z
1/2-x,1/2-y,-z
1/2+x,1/2-y,1/2+z
loop_
_atom_site_type_symbol
_atom_site_label
_atom_site_fract_x
_atom_site_fract_y
_atom_site_fract_z
Si Si1 0.839012 0.887604 0.046670
Si Si2 0.328485 0.728104 0.559712
Si Si3 0.722925 0.033460 0.463073
Si Si4 0.076862 0.885494 0.862026
Si Si5 0.580262 0.730329 0.338813
Si Si6 0.929285 0.468385 0.600392
O O1 0.816934 0.830551 0.027012
O O2 0.772586 0.920209 0.058649
O O3 0.899727 0.897352 0.320556
O O4 0.868057 0.906910 0.795679
O O5 0.250000 0.750000 0.500000
O O6 0.370900 0.749848 0.351615
O O7 0.377551 0.743693 0.854228
O O8 0.644795 0.058142 0.411296
O O9 0.734822 0.009037 0.191165
O O10 0.071694 0.827799 0.796363
O O11 0.000000 0.910078 0.750000
O O12 0.500000 0.753233 0.250000
O O13 0.932118 0.483468 0.297390
O O14 0.000000 0.436547 0.750000
#
# Coordination Sequence:
#
# PCOD8132944 Si02
#       6
#     8   8   8   8   8   8
#     4  10  19  31  49  71  95 124 155 194 240 280
#     4  10  19  31  49  75 101 126 158 199 244 288
#     4  10  19  31  48  69  93 122 155 193 234 278
#     4   9  17  30  49  70  91 120 162 202 230 268
#     4   9  17  30  49  72  96 126 166 203 233 275
#     4   8  14  25  42  63  83 106 142 183 217 255
#
# _framework density 18.453402000000001
#
# number of rings (size 3 to 8) (size 9 to 14) (size 15 to 20)
#    0.000    2.667    0.000    2.500    0.000    4.000 
#    0.000    0.000    0.000   12.000    0.000    9.333 
#    0.000    0.000    0.000    0.000    0.000    0.000 
#
# Total GULP energy -297371.233552 kJ/mol
# GULP energy per Si atom -12390.468065 kJ/mol
# Density = 1.841140 g / cm^3
# Si number density = 18.453402 Si / 1000 Ang^3
#
#
#
# Elastic Constant Matrix: (Units=GPa)
#
#
# Indices 1 2 3 4 5 6 
#
# 1 150.1008 33.2640 40.4495 0.0000 13.5580 0.0000
# 2 33.2640 27.6238 17.7921 0.0000 9.6441 0.0000
# 3 40.4495 17.7921 79.3562 0.0000 -7.0476 0.0000
# 4 0.0000 0.0000 0.0000 10.0665 0.0000 -0.6748
# 5 13.5580 9.6441 -7.0476 0.0000 40.1120 0.0000
# 6 0.0000 0.0000 0.0000 -0.6748 0.0000 17.5445
#
#
#
# Elastic Compliance Matrix: (Units=1/GPa)
#
#
# Indices 1 2 3 4 5 6 
#
# 1 0.009636 -0.009106 -0.003012 0.000000 -0.001597 0.000000
# 2 -0.009106 0.057519 -0.009355 0.000000 -0.012395 0.000000
# 3 -0.003012 -0.009355 0.016786 0.000000 0.006217 0.000000
# 4 0.000000 0.000000 0.000000 0.099596 0.000000 0.003831
# 5 -0.001597 -0.012395 0.006217 0.000000 0.029542 0.000000
# 6 0.000000 0.000000 0.000000 0.003831 0.000000 0.057145
#
#
# Mechanical properties :
#
#
# Convention : Reuss Voigt Hill
#
# Bulk Modulus (GPa) = 24.39333 48.89910 36.64621
# Shear Modulus (GPa) = 15.29815 24.58297 19.94056
#
# Velocity S-wave (km/s) = 2.88239 3.65384 3.29080
# Velocity P-wave (km/s) = 4.93205 6.66010 5.86012
#
# Compressibility (1/GPa) = 0.04099482
#
# Stress axis : x y z
#
# Youngs Moduli (GPa) = 103.77640 17.38548 59.57263
#
# Poissons Ratio (x) = 0.15832 0.17943
# Poissons Ratio (y) = 0.94501 0.55732
# Poissons Ratio (z) = 0.31256 0.16265
#
# Static dielectric constant tensor:
#      x y z
#    x 3.832180 0.000000 0.034710 
#    y 0.000000 2.698090 0.000000 
#    z 0.034710 0.000000 3.637310 
# 
# 
# High freq. dielectric constant tensor:
#      x y z
#    x 1.743780 0.000000 0.000070 
#    y 0.000000 1.631590 0.000000 
#    z 0.000070 0.000000 1.739260 
# 
# From -- ./inp_files/10772.got.cif
#   From: 2010.06.25/outbox.cif.g09.slc.cpg/sg15_6_cif.got.tgz:10772.got - 2010.06.28 07:06:18.
