data_PCOD8132180
_publ_section_title
;
Structure prediction by ZEFSAII (Michael W. Deem and Ramdas Pophale) SiO2 
 PCOD8132180
Probable space group: C 2/C
;
_chemical_formula_sum "Si O2"
_cell_formula_units_Z 56
_cell_length_a 23.075448
_cell_length_b 10.959678
_cell_length_c 25.157983
_cell_angle_alpha 90.000000
_cell_angle_beta 24.095384
_cell_angle_gamma 90.000000
_cell_volume 2597.510472
_symmetry_space_group_name_H-M "C 2/C"
_symmetry_group_IT_number 15
_symmetry_cell_setting 'monoclinic'
loop_
_space_group_symop_operation_xyz
x,y,z
-x,y,1/2-z
-x,-y,-z
x,-y,1/2+z
1/2+x,1/2+y,z
1/2-x,1/2+y,1/2-z
1/2-x,1/2-y,-z
1/2+x,1/2-y,1/2+z
loop_
_atom_site_type_symbol
_atom_site_label
_atom_site_fract_x
_atom_site_fract_y
_atom_site_fract_z
Si Si1 0.459956 0.016655 0.113773
Si Si2 0.833032 0.690702 0.881445
Si Si3 0.270975 0.513807 0.100218
Si Si4 0.144496 0.742391 0.930839
Si Si5 0.218708 0.344845 0.882887
Si Si6 0.439987 0.364254 0.031257
Si Si7 0.784281 0.957165 0.257632
O O1 0.375681 0.982287 0.130252
O O2 0.355424 0.002806 0.251061
O O3 0.586319 0.920262 0.017901
O O4 0.523798 0.153907 0.056420
O O5 0.777493 0.552556 0.914002
O O6 0.808066 0.779849 0.853181
O O7 0.000000 0.683473 0.750000
O O8 0.750000 0.750000 0.000000
O O9 0.309419 0.658125 0.062637
O O10 0.414917 0.442779 0.998687
O O11 0.279989 0.665698 0.796918
O O12 0.094655 0.814130 0.918336
O O13 0.167029 0.248757 0.882197
O O14 0.327372 0.432649 0.760551
O O15 0.398527 0.452216 0.115454
#
# Coordination Sequence:
#
# PCOD8132180 Si02
#       7
#     8   8   8   8   8   8   8
#     4  10  18  36  58  84 130 166 191 234 307 397
#     4  11  25  46  68  88 117 162 220 282 316 358
#     4  10  23  35  56  89 115 159 203 258 317 357
#     4  11  18  32  51  84 127 156 191 231 297 381
#     4  10  19  37  59  86 115 166 204 242 312 367
#     4  10  19  31  50  84 122 156 193 234 287 384
#     4  10  19  30  56  83 127 163 189 232 296 385
#
# _framework density 21.559104999999999
#
# number of rings (size 3 to 8) (size 9 to 14) (size 15 to 20)
#    0.000    1.714    2.857    3.000    2.000    1.143 
#    0.000    0.000    0.000   11.143    0.000    0.000 
#    0.000    0.000    0.000    0.000    0.000    0.000 
#
# Total GULP energy -346950.950318 kJ/mol
# GULP energy per Si atom -12391.105368 kJ/mol
# Density = 2.151004 g / cm^3
# Si number density = 21.559105 Si / 1000 Ang^3
#
#
#
# Elastic Constant Matrix: (Units=GPa)
#
#
# Indices 1 2 3 4 5 6 
#
# 1 92.3863 50.3812 22.5976 -0.0019 -10.3649 -0.0008
# 2 50.3812 139.9987 14.0098 -0.0071 -9.4817 -0.0021
# 3 22.5976 14.0098 50.7102 -0.0076 -5.7851 -0.0043
# 4 -0.0019 -0.0071 -0.0076 28.7347 -0.0006 -2.7245
# 5 -10.3649 -9.4817 -5.7851 -0.0006 28.8938 0.0016
# 6 -0.0008 -0.0021 -0.0043 -2.7245 0.0016 39.6441
#
#
#
# Elastic Compliance Matrix: (Units=1/GPa)
#
#
# Indices 1 2 3 4 5 6 
#
# 1 0.014921 -0.004675 -0.005037 -0.000002 0.002810 -0.000001
# 2 -0.004675 0.008932 -0.000247 0.000002 0.001204 0.000000
# 3 -0.005037 -0.000247 0.022327 0.000006 0.002582 0.000003
# 4 -0.000002 0.000002 0.000006 0.035029 0.000002 0.002407
# 5 0.002810 0.001204 0.002582 0.000002 0.036530 -0.000001
# 6 -0.000001 0.000000 0.000003 0.002407 -0.000001 0.025390
#
#
# Mechanical properties :
#
#
# Convention : Reuss Voigt Hill
#
# Bulk Modulus (GPa) = 38.07781 50.78581 44.43181
# Shear Modulus (GPa) = 29.10349 32.52830 30.81589
#
# Velocity S-wave (km/s) = 3.67814 3.88854 3.78480
# Velocity P-wave (km/s) = 5.97818 6.61579 6.30505
#
# Compressibility (1/GPa) = 0.02626201
#
# Stress axis : x y z
#
# Youngs Moduli (GPa) = 67.02001 111.96123 44.78828
#
# Poissons Ratio (x) = 0.52344 0.22559
# Poissons Ratio (y) = 0.31333 0.01105
# Poissons Ratio (z) = 0.33757 0.02763
#
# Static dielectric constant tensor:
#      x y z
#    x 3.623260 0.000000 -0.125850 
#    y 0.000000 4.454710 0.000010 
#    z -0.125850 0.000010 3.749730 
# 
# 
# High freq. dielectric constant tensor:
#      x y z
#    x 1.789440 0.000000 -0.010580 
#    y 0.000000 1.878400 0.000000 
#    z -0.010580 0.000000 1.849200 
# 
# From -- ./inp_files/279974.got.cif
#   From: 2010.06.25/outbox.cif.g09.slc.cpg/sg15_140_cif.got.tgz:279974.got - 2010.06.28 07:06:18.
