data_PCOD8132328
_publ_section_title
;
Structure prediction by ZEFSAII (Michael W. Deem and Ramdas Pophale) SiO2 
 PCOD8132328
Probable space group: C 2/C
;
_chemical_formula_sum "Si O2"
_cell_formula_units_Z 48
_cell_length_a 12.598754
_cell_length_b 13.860043
_cell_length_c 27.273541
_cell_angle_alpha 90.000000
_cell_angle_beta 149.633255
_cell_angle_gamma 90.000000
_cell_volume 2407.594098
_symmetry_space_group_name_H-M "C 2/C"
_symmetry_group_IT_number 15
_symmetry_cell_setting 'monoclinic'
loop_
_space_group_symop_operation_xyz
x,y,z
-x,y,1/2-z
-x,-y,-z
x,-y,1/2+z
1/2+x,1/2+y,z
1/2-x,1/2+y,1/2-z
1/2-x,1/2-y,-z
1/2+x,1/2-y,1/2+z
loop_
_atom_site_type_symbol
_atom_site_label
_atom_site_fract_x
_atom_site_fract_y
_atom_site_fract_z
Si Si1 0.504846 0.927997 0.659648
Si Si2 0.894866 0.814377 0.523847
Si Si3 0.684716 0.094365 0.856528
Si Si4 0.073481 0.003256 0.132331
Si Si5 0.759436 0.351439 0.477068
Si Si6 0.190681 0.250911 0.856021
O O1 0.445754 0.910300 0.578724
O O2 0.408688 0.843442 0.655429
O O3 0.755365 0.944468 0.764304
O O4 0.407021 0.028380 0.637236
O O5 0.750000 0.750000 0.500000
O O6 0.806488 0.819832 0.432722
O O7 0.895386 0.918614 0.549698
O O8 0.133894 0.778336 0.614138
O O9 0.500000 0.141010 0.750000
O O10 0.831806 0.028453 0.881885
O O11 0.961801 0.909129 0.110384
O O12 0.750000 0.250000 0.500000
O O13 0.796659 0.327652 0.434703
O O14 0.000000 0.202147 0.750000
#
# Coordination Sequence:
#
# PCOD8132328 Si02
#       6
#     8   8   8   8   8   8
#     4  10  18  36  64  95 118 161 211 268 317 368
#     4  12  24  39  62  93 130 165 213 268 316 379
#     4  10  19  35  65  91 116 156 212 265 316 364
#     4  11  20  39  67  89 125 162 213 267 313 379
#     4  10  22  36  62  97 126 159 208 266 320 381
#     4  11  21  40  62  91 129 170 212 262 325 380
#
# _framework density 19.936916
#
# number of rings (size 3 to 8) (size 9 to 14) (size 15 to 20)
#    0.000    1.333    5.000    3.000    0.000    2.667 
#    3.000    0.833    0.000    0.000    0.000    0.000 
#    0.000    0.000    0.000    0.000    0.000    0.000 
#
# Total GULP energy -297399.644805 kJ/mol
# GULP energy per Si atom -12391.651867 kJ/mol
# Density = 1.989154 g / cm^3
# Si number density = 19.936916 Si / 1000 Ang^3
#
#
#
# Elastic Constant Matrix: (Units=GPa)
#
#
# Indices 1 2 3 4 5 6 
#
# 1 59.0760 33.7594 48.9125 0.0000 -9.5438 0.0001
# 2 33.7594 58.3001 53.2340 0.0000 3.6453 0.0001
# 3 48.9125 53.2340 140.1529 -0.0002 -15.0052 -0.0003
# 4 0.0000 0.0000 -0.0002 37.7273 0.0001 -1.8217
# 5 -9.5438 3.6453 -15.0052 0.0001 35.6449 0.0000
# 6 0.0001 0.0001 -0.0003 -1.8217 0.0000 33.7233
#
#
#
# Elastic Compliance Matrix: (Units=1/GPa)
#
#
# Indices 1 2 3 4 5 6 
#
# 1 0.029480 -0.013583 -0.004331 0.000000 0.007459 0.000000
# 2 -0.013583 0.034415 -0.009527 0.000000 -0.011167 0.000000
# 3 -0.004331 -0.009527 0.012823 0.000000 0.005213 0.000000
# 4 0.000000 0.000000 0.000000 0.026575 0.000000 0.001436
# 5 0.007459 -0.011167 0.005213 0.000000 0.033388 0.000000
# 6 0.000000 0.000000 0.000000 0.001436 0.000000 0.029731
#
#
# Mechanical properties :
#
#
# Convention : Reuss Voigt Hill
#
# Bulk Modulus (GPa) = 45.79298 58.81563 52.30431
# Shear Modulus (GPa) = 21.87485 29.52732 25.70108
#
# Velocity S-wave (km/s) = 3.31600 3.85260 3.59433
# Velocity P-wave (km/s) = 6.13840 7.02531 6.59678
#
# Compressibility (1/GPa) = 0.02183741
#
# Stress axis : x y z
#
# Youngs Moduli (GPa) = 33.92136 29.05670 77.98366
#
# Poissons Ratio (x) = 0.39467 0.33771
# Poissons Ratio (y) = 0.46075 0.74296
# Poissons Ratio (z) = 0.14690 0.27683
#
# Static dielectric constant tensor:
#      x y z
#    x 3.482190 0.000000 -0.321440 
#    y 0.000000 3.528740 0.000000 
#    z -0.321440 0.000000 4.561210 
# 
# 
# High freq. dielectric constant tensor:
#      x y z
#    x 1.739820 0.000000 -0.016270 
#    y 0.000000 1.754490 0.000000 
#    z -0.016270 0.000000 1.800610 
# 
# From -- ./inp_files/311240.got.cif
#   From: 2010.06.25/outbox.cif.g09.slc.cpg/sg15_156_cif.got.tgz:311240.got - 2010.06.28 07:06:18.
