data_PCOD8132383
_publ_section_title
;
Structure prediction by ZEFSAII (Michael W. Deem and Ramdas Pophale) SiO2 
 PCOD8132383
Probable space group: C 2/C
;
_chemical_formula_sum "Si O2"
_cell_formula_units_Z 64
_cell_length_a 20.128903
_cell_length_b 12.469560
_cell_length_c 21.111431
_cell_angle_alpha 90.000000
_cell_angle_beta 143.324994
_cell_angle_gamma 90.000000
_cell_volume 3164.925474
_symmetry_space_group_name_H-M "C 2/C"
_symmetry_group_IT_number 15
_symmetry_cell_setting 'monoclinic'
loop_
_space_group_symop_operation_xyz
x,y,z
-x,y,1/2-z
-x,-y,-z
x,-y,1/2+z
1/2+x,1/2+y,z
1/2-x,1/2+y,1/2-z
1/2-x,1/2-y,-z
1/2+x,1/2-y,1/2+z
loop_
_atom_site_type_symbol
_atom_site_label
_atom_site_fract_x
_atom_site_fract_y
_atom_site_fract_z
Si Si1 0.643224 0.574210 0.976461
Si Si2 0.652304 0.081033 0.454082
Si Si3 0.131030 0.594063 0.117484
Si Si4 0.662405 0.150759 0.996492
Si Si5 0.250181 0.328132 0.824973
Si Si6 0.610245 0.865466 0.056641
Si Si7 0.097871 0.852419 0.876101
Si Si8 0.517634 0.742378 0.694883
O O1 0.738077 0.612112 0.000550
O O2 0.699537 0.581465 0.089225
O O3 0.601166 0.455685 0.925277
O O4 0.541656 0.659628 0.899051
O O5 0.681912 0.113530 0.548463
O O6 0.545745 0.144280 0.348020
O O7 0.620081 0.955329 0.427561
O O8 0.152098 0.641103 0.064109
O O9 0.228467 0.617620 0.241001
O O10 0.119232 0.465567 0.110859
O O11 0.019708 0.648990 0.060617
O O12 0.791963 0.164738 0.080801
O O13 0.586812 0.249064 0.913557
O O14 0.342963 0.241379 0.876359
O O15 0.144481 0.265808 0.773675
O O16 0.000000 0.862298 0.750000
O O17 0.500000 0.686628 0.750000
#
# Coordination Sequence:
#
# PCOD8132383 Si02
#       8
#     8   8   8   8   8   8   8   8
#     4  11  22  36  57  89 124 154 196 246 296 370
#     4  10  18  37  57  84 119 149 194 249 292 349
#     4  10  22  39  60  83 115 166 197 242 300 344
#     4   9  22  41  63  87 117 155 207 247 289 359
#     4  12  22  36  59  89 120 158 202 243 300 360
#     4  10  21  39  56  81 123 150 199 252 287 360
#     4  10  22  43  63  89 122 157 197 255 309 344
#     4  12  21  33  57  90 120 155 189 241 313 349
#
# _framework density 20.221644999999999
#
# number of rings (size 3 to 8) (size 9 to 14) (size 15 to 20)
#    0.000    1.500    3.750    1.500    0.000    4.500 
#    2.250    0.000    0.000    3.750    0.000    0.000 
#    0.000    0.000    0.000    0.000    0.000    0.000 
#
# Total GULP energy -396716.659102 kJ/mol
# GULP energy per Si atom -12397.395597 kJ/mol
# Density = 2.017562 g / cm^3
# Si number density = 20.221645 Si / 1000 Ang^3
#
#
#
# Elastic Constant Matrix: (Units=GPa)
#
#
# Indices 1 2 3 4 5 6 
#
# 1 51.0305 21.3307 26.5869 0.0000 -12.8929 0.0000
# 2 21.3307 119.0466 71.4825 0.0000 -5.8814 0.0000
# 3 26.5869 71.4825 133.8016 0.0000 -16.6722 0.0000
# 4 0.0000 0.0000 0.0000 30.8096 0.0000 -0.2287
# 5 -12.8929 -5.8814 -16.6722 0.0000 27.3904 0.0000
# 6 0.0000 0.0000 0.0000 -0.2287 0.0000 23.1239
#
#
#
# Elastic Compliance Matrix: (Units=1/GPa)
#
#
# Indices 1 2 3 4 5 6 
#
# 1 0.024230 -0.002490 -0.002305 0.000000 0.009468 0.000000
# 2 -0.002490 0.012679 -0.006585 0.000000 -0.002458 0.000000
# 3 -0.002305 -0.006585 0.012052 0.000000 0.004837 0.000000
# 4 0.000000 0.000000 0.000000 0.032460 0.000000 0.000321
# 5 0.009468 -0.002458 0.004837 0.000000 0.043382 0.000000
# 6 0.000000 0.000000 0.000000 0.000321 0.000000 0.043248
#
#
# Mechanical properties :
#
#
# Convention : Reuss Voigt Hill
#
# Bulk Modulus (GPa) = 38.16534 60.29764 49.23149
# Shear Modulus (GPa) = 25.05706 28.56336 26.81021
#
# Velocity S-wave (km/s) = 3.52393 3.76242 3.64513
# Velocity P-wave (km/s) = 5.95583 6.98266 6.48959
#
# Compressibility (1/GPa) = 0.02620178
#
# Stress axis : x y z
#
# Youngs Moduli (GPa) = 41.27188 78.87151 82.97048
#
# Poissons Ratio (x) = 0.19638 0.19121
# Poissons Ratio (y) = 0.10276 0.54637
# Poissons Ratio (z) = 0.09512 0.51938
#
# Static dielectric constant tensor:
#      x y z
#    x 3.543040 0.000000 -0.004810 
#    y 0.000000 3.782990 0.000000 
#    z -0.004810 0.000000 3.627770 
# 
# 
# High freq. dielectric constant tensor:
#      x y z
#    x 1.780490 0.000000 -0.002760 
#    y 0.000000 1.790040 0.000000 
#    z -0.002760 0.000000 1.789130 
# 
# From -- ./inp_files/281975.got.cif
#   From: 2010.06.25/outbox.cif.g09.slc.cpg/sg15_141_cif.got.tgz:281975.got - 2010.06.28 07:06:18.
