data_PCOD8132724
_publ_section_title
;
Structure prediction by ZEFSAII (Michael W. Deem and Ramdas Pophale) SiO2 
 PCOD8132724
Probable space group: C 2/C
;
_chemical_formula_sum "Si O2"
_cell_formula_units_Z 48
_cell_length_a 17.874882
_cell_length_b 8.902153
_cell_length_c 15.722169
_cell_angle_alpha 90.000000
_cell_angle_beta 95.546893
_cell_angle_gamma 90.000000
_cell_volume 2490.074287
_symmetry_space_group_name_H-M "C 2/C"
_symmetry_group_IT_number 15
_symmetry_cell_setting 'monoclinic'
loop_
_space_group_symop_operation_xyz
x,y,z
-x,y,1/2-z
-x,-y,-z
x,-y,1/2+z
1/2+x,1/2+y,z
1/2-x,1/2+y,1/2-z
1/2-x,1/2-y,-z
1/2+x,1/2-y,1/2+z
loop_
_atom_site_type_symbol
_atom_site_label
_atom_site_fract_x
_atom_site_fract_y
_atom_site_fract_z
Si Si1 0.950259 0.172409 0.669336
Si Si2 0.222197 0.150281 0.811348
Si Si3 0.532195 0.432836 0.589591
Si Si4 0.721742 0.083078 0.513889
Si Si5 0.050087 0.643457 0.499502
Si Si6 0.794779 0.966371 0.855048
O O1 0.864455 0.189744 0.685414
O O2 0.968329 0.267536 0.587979
O O3 0.000000 0.242487 0.750000
O O4 0.976547 0.997661 0.656689
O O5 0.274087 0.297612 0.824255
O O6 0.235250 0.076955 0.721227
O O7 0.245634 0.034371 0.890071
O O8 0.500000 0.500000 0.500000
O O9 0.534384 0.251767 0.579341
O O10 0.616462 0.487059 0.620950
O O11 0.750000 0.250000 0.500000
O O12 0.633117 0.078083 0.507399
O O13 0.753874 0.984430 0.438999
O O14 0.000000 0.500000 0.500000
#
# Coordination Sequence:
#
# PCOD8132724 Si02
#       6
#     8   8   8   8   8   8
#     4  11  21  39  63  91 127 167 212 259 317 385
#     4  11  22  40  67  90 125 169 209 260 319 376
#     4  10  20  39  65  88 122 169 213 250 311 389
#     4  10  18  40  65  82 123 167 199 247 320 371
#     4  11  22  40  64  94 124 166 208 266 323 369
#     4  11  21  41  67  92 121 168 216 255 314 387
#
# _framework density 19.276533000000001
#
# number of rings (size 3 to 8) (size 9 to 14) (size 15 to 20)
#    0.000    1.333    8.333    1.000    0.000    1.333 
#    3.000    1.667    0.000    0.000    0.000    0.000 
#    0.000    0.000    0.000    0.000    0.000    0.000 
#
# Total GULP energy -297415.126080 kJ/mol
# GULP energy per Si atom -12392.296920 kJ/mol
# Density = 1.923266 g / cm^3
# Si number density = 19.276533 Si / 1000 Ang^3
#
#
#
# Elastic Constant Matrix: (Units=GPa)
#
#
# Indices 1 2 3 4 5 6 
#
# 1 107.4364 26.9369 32.8418 0.0000 16.9372 0.0000
# 2 26.9369 47.7450 22.7912 0.0000 -0.3395 0.0000
# 3 32.8418 22.7912 122.6947 0.0000 21.6283 0.0000
# 4 0.0000 0.0000 0.0000 32.3216 0.0000 1.9151
# 5 16.9372 -0.3395 21.6283 0.0000 32.4857 0.0000
# 6 0.0000 0.0000 0.0000 1.9151 0.0000 29.3093
#
#
#
# Elastic Compliance Matrix: (Units=1/GPa)
#
#
# Indices 1 2 3 4 5 6 
#
# 1 0.012126 -0.006376 -0.001060 0.000000 -0.005684 0.000000
# 2 -0.006376 0.026690 -0.004403 0.000000 0.006535 0.000000
# 3 -0.001060 -0.004403 0.010381 0.000000 -0.006405 0.000000
# 4 0.000000 0.000000 0.000000 0.031059 0.000000 -0.002029
# 5 -0.005684 0.006535 -0.006405 0.000000 0.038079 0.000000
# 6 0.000000 0.000000 0.000000 -0.002029 0.000000 0.034251
#
#
# Mechanical properties :
#
#
# Convention : Reuss Voigt Hill
#
# Bulk Modulus (GPa) = 39.18515 49.22399 44.20457
# Shear Modulus (GPa) = 27.06053 31.84374 29.45213
#
# Velocity S-wave (km/s) = 3.75081 4.06882 3.91304
# Velocity P-wave (km/s) = 6.25540 6.90398 6.58768
#
# Compressibility (1/GPa) = 0.02551987
#
# Stress axis : x y z
#
# Youngs Moduli (GPa) = 82.46473 37.46696 96.33098
#
# Poissons Ratio (x) = 0.23889 0.10207
# Poissons Ratio (y) = 0.52581 0.42415
# Poissons Ratio (z) = 0.08738 0.16497
#
# Static dielectric constant tensor:
#      x y z
#    x 3.180580 0.000000 0.562030 
#    y 0.000000 3.621900 0.000000 
#    z 0.562030 0.000000 3.301050 
# 
# 
# High freq. dielectric constant tensor:
#      x y z
#    x 1.759010 0.000000 0.014420 
#    y 0.000000 1.709150 0.000000 
#    z 0.014420 0.000000 1.770910 
# 
# From -- ./inp_files/208699.got.cif
#   From: 2010.06.25/outbox.cif.g09.slc.cpg/sg15_105_cif.got.tgz:208699.got - 2010.06.28 07:06:18.
