data_PCOD8132991
_publ_section_title
;
Structure prediction by ZEFSAII (Michael W. Deem and Ramdas Pophale) SiO2 
 PCOD8132991
Probable space group: C 2/C
;
_chemical_formula_sum "Si O2"
_cell_formula_units_Z 64
_cell_length_a 11.769220
_cell_length_b 25.533715
_cell_length_c 25.266490
_cell_angle_alpha 90.000000
_cell_angle_beta 152.177076
_cell_angle_gamma 90.000000
_cell_volume 3543.905321
_symmetry_space_group_name_H-M "C 2/C"
_symmetry_group_IT_number 15
_symmetry_cell_setting 'monoclinic'
loop_
_space_group_symop_operation_xyz
x,y,z
-x,y,1/2-z
-x,-y,-z
x,-y,1/2+z
1/2+x,1/2+y,z
1/2-x,1/2+y,1/2-z
1/2-x,1/2-y,-z
1/2+x,1/2-y,1/2+z
loop_
_atom_site_type_symbol
_atom_site_label
_atom_site_fract_x
_atom_site_fract_y
_atom_site_fract_z
Si Si1 0.437531 0.058339 0.852174
Si Si2 0.949844 0.951588 0.517676
Si Si3 0.733058 0.632831 0.319388
Si Si4 0.663015 0.121697 0.364413
Si Si5 0.734552 0.050972 0.253048
Si Si6 0.519527 0.622824 0.818959
Si Si7 0.019718 0.560626 0.512827
Si Si8 0.299027 0.810776 0.516834
O O1 0.536213 0.075200 0.949909
O O2 0.224389 0.100588 0.753530
O O3 0.327136 0.999610 0.807808
O O4 0.660775 0.060981 0.902562
O O5 0.077783 0.898661 0.549925
O O6 0.062932 0.966383 0.621206
O O7 0.000000 0.000000 0.500000
O O8 0.500000 0.660480 0.250000
O O9 0.664446 0.600524 0.238410
O O10 0.822617 0.589207 0.396730
O O11 0.926137 0.678757 0.389294
O O12 0.500000 0.147942 0.250000
O O13 0.517596 0.070443 0.324565
O O14 0.728101 0.163013 0.436783
O O15 0.500000 0.644390 0.750000
O O16 0.710804 0.575492 0.895634
O O17 0.610806 0.667908 0.895804
O O18 0.000000 0.500000 0.500000
O O19 0.250000 0.750000 0.500000
#
# Coordination Sequence:
#
# PCOD8132991 Si02
#       8
#     8   8   8   8   8   8   8   8
#     4  11  21  31  51  79 115 157 180 219 268 334
#     4  11  22  33  49  75 114 156 190 219 265 326
#     4  10  20  34  56  85 113 141 186 233 278 339
#     4   9  20  39  53  79 110 147 192 230 273 338
#     4  10  20  31  50  75 112 153 186 212 268 335
#     4   9  22  37  53  83 117 139 184 229 285 342
#     4  10  19  31  51  79 115 152 176 211 273 341
#     4  10  22  42  64  80 105 148 197 247 287 328
#
# _framework density 18.059173000000001
#
# number of rings (size 3 to 8) (size 9 to 14) (size 15 to 20)
#    0.000    2.000    2.500    0.750    5.250    0.500 
#    0.000    1.250    0.000    0.000    0.000   10.500 
#    0.000    0.000    0.000    0.000    0.000    0.000 
#
# Total GULP energy -396646.267622 kJ/mol
# GULP energy per Si atom -12395.195863 kJ/mol
# Density = 1.801807 g / cm^3
# Si number density = 18.059173 Si / 1000 Ang^3
#
#
#
# Elastic Constant Matrix: (Units=GPa)
#
#
# Indices 1 2 3 4 5 6 
#
# 1 98.9744 48.2928 56.3689 0.0045 16.1503 0.0036
# 2 48.2928 108.8974 52.4953 0.0094 -1.8927 0.0032
# 3 56.3689 52.4953 97.4320 0.0088 1.9655 0.0106
# 4 0.0045 0.0094 0.0088 13.0752 0.0063 -4.7004
# 5 16.1503 -1.8927 1.9655 0.0063 43.8865 0.0036
# 6 0.0036 0.0032 0.0106 -4.7004 0.0036 17.4344
#
#
#
# Elastic Compliance Matrix: (Units=1/GPa)
#
#
# Indices 1 2 3 4 5 6 
#
# 1 0.017617 -0.004148 -0.007830 0.000007 -0.006311 0.000005
# 2 -0.004148 0.013412 -0.004874 -0.000006 0.002323 -0.000001
# 3 -0.007830 -0.004874 0.017381 -0.000010 0.001893 -0.000011
# 4 0.000007 -0.000006 -0.000010 0.084689 -0.000016 0.022833
# 5 -0.006311 0.002323 0.001893 -0.000016 0.025124 -0.000010
# 6 0.000005 -0.000001 -0.000011 0.022833 -0.000010 0.063514
#
#
# Mechanical properties :
#
#
# Convention : Reuss Voigt Hill
#
# Bulk Modulus (GPa) = 67.99231 68.84642 68.41937
# Shear Modulus (GPa) = 19.20557 24.75567 21.98062
#
# Velocity S-wave (km/s) = 3.26464 3.70646 3.49254
# Velocity P-wave (km/s) = 7.20708 7.51815 7.36426
#
# Compressibility (1/GPa) = 0.01470755
#
# Stress axis : x y z
#
# Youngs Moduli (GPa) = 56.76444 74.56007 57.53321
#
# Poissons Ratio (x) = 0.30924 0.45049
# Poissons Ratio (y) = 0.23543 0.28039
# Poissons Ratio (z) = 0.44447 0.36337
#
# Static dielectric constant tensor:
#      x y z
#    x 3.213290 0.000080 0.299720 
#    y 0.000080 2.839320 -0.000110 
#    z 0.299720 -0.000110 3.167220 
# 
# 
# High freq. dielectric constant tensor:
#      x y z
#    x 1.711340 0.000000 -0.004860 
#    y 0.000000 1.651950 0.000000 
#    z -0.004860 0.000000 1.709600 
# 
# From -- ./inp_files/293769.got.cif
#   From: 2010.06.25/outbox.cif.g09.slc.cpg/sg15_147_cif.got.tgz:293769.got - 2010.06.28 07:06:18.
