data_PCOD8132970
_publ_section_title
;
Structure prediction by ZEFSAII (Michael W. Deem and Ramdas Pophale) SiO2 
 PCOD8132970
Probable space group: C 2/C
;
_chemical_formula_sum "Si O2"
_cell_formula_units_Z 56
_cell_length_a 13.002264
_cell_length_b 27.745202
_cell_length_c 15.451252
_cell_angle_alpha 90.000000
_cell_angle_beta 36.528974
_cell_angle_gamma 90.000000
_cell_volume 3317.835007
_symmetry_space_group_name_H-M "C 2/C"
_symmetry_group_IT_number 15
_symmetry_cell_setting 'monoclinic'
loop_
_space_group_symop_operation_xyz
x,y,z
-x,y,1/2-z
-x,-y,-z
x,-y,1/2+z
1/2+x,1/2+y,z
1/2-x,1/2+y,1/2-z
1/2-x,1/2-y,-z
1/2+x,1/2-y,1/2+z
loop_
_atom_site_type_symbol
_atom_site_label
_atom_site_fract_x
_atom_site_fract_y
_atom_site_fract_z
Si Si1 0.201724 0.311024 0.620082
Si Si2 0.309608 0.706616 0.862202
Si Si3 0.623308 0.598035 0.431097
Si Si4 0.628850 0.389424 0.244235
Si Si5 0.695627 0.999672 0.647634
Si Si6 0.684160 0.978901 0.347234
Si Si7 0.993952 0.949648 0.658061
O O1 0.256336 0.321037 0.485108
O O2 0.280808 0.258266 0.596973
O O3 0.279136 0.350850 0.632087
O O4 0.000000 0.316566 0.750000
O O5 0.500000 0.725879 0.750000
O O6 0.295187 0.665406 0.798264
O O7 0.464211 0.597168 0.604135
O O8 0.752899 0.555478 0.369718
O O9 0.553374 0.590789 0.380821
O O10 0.500000 0.391967 0.250000
O O11 0.787178 0.426979 0.125845
O O12 0.500000 0.001158 0.750000
O O13 0.699527 0.028930 0.734299
O O14 0.826572 0.024147 0.490519
O O15 0.500000 0.000000 0.500000
O O16 0.841562 0.011897 0.270970
O O17 0.000000 0.925738 0.750000
#
# Coordination Sequence:
#
# PCOD8132970 Si02
#       7
#     8   8   8   8   8   8   8
#     4  10  19  31  49  80 112 133 168 215 257 327
#     4   9  18  31  50  75 107 140 167 203 269 319
#     4  11  20  35  54  78 106 144 178 215 265 322
#     4  11  19  33  56  77 106 145 177 208 266 324
#     4  11  22  35  52  79 108 142 181 223 264 312
#     4  11  22  34  53  79 108 141 184 219 264 316
#     4  11  22  38  52  75 109 144 183 229 261 304
#
# _framework density 16.878475000000002
#
# number of rings (size 3 to 8) (size 9 to 14) (size 15 to 20)
#    0.000    1.429    5.714    2.571    2.000    2.286 
#    0.000    0.000    0.000    0.000    0.000    2.000 
#    0.000    0.000    0.000    0.000    0.000    0.000 
#
# Total GULP energy -346909.686253 kJ/mol
# GULP energy per Si atom -12389.631652 kJ/mol
# Density = 1.684006 g / cm^3
# Si number density = 16.878475 Si / 1000 Ang^3
#
#
#
# Elastic Constant Matrix: (Units=GPa)
#
#
# Indices 1 2 3 4 5 6 
#
# 1 90.5492 54.9879 43.0002 0.0000 9.4700 0.0001
# 2 54.9879 132.6185 32.4870 0.0000 -2.6787 0.0000
# 3 43.0002 32.4870 103.6939 0.0002 -1.7368 0.0003
# 4 0.0000 0.0000 0.0002 22.4443 0.0000 -0.6197
# 5 9.4700 -2.6787 -1.7368 0.0000 31.5343 -0.0002
# 6 0.0001 0.0000 0.0003 -0.6197 -0.0002 25.2700
#
#
#
# Elastic Compliance Matrix: (Units=1/GPa)
#
#
# Indices 1 2 3 4 5 6 
#
# 1 0.018230 -0.006291 -0.005694 0.000000 -0.006323 0.000000
# 2 -0.006291 0.010348 -0.000587 0.000000 0.002736 0.000000
# 3 -0.005694 -0.000587 0.012228 0.000000 0.002334 0.000000
# 4 0.000000 0.000000 0.000000 0.044585 0.000000 0.001093
# 5 -0.006323 0.002736 0.002334 0.000000 0.033971 0.000000
# 6 0.000000 0.000000 0.000000 0.001093 0.000000 0.039599
#
#
# Mechanical properties :
#
#
# Convention : Reuss Voigt Hill
#
# Bulk Modulus (GPa) = 63.85715 65.31243 64.58479
# Shear Modulus (GPa) = 26.40920 28.94214 27.67567
#
# Velocity S-wave (km/s) = 3.95988 4.14543 4.05372
# Velocity P-wave (km/s) = 7.66962 7.85446 7.76259
#
# Compressibility (1/GPa) = 0.01565995
#
# Stress axis : x y z
#
# Youngs Moduli (GPa) = 54.85546 96.63536 81.77804
#
# Poissons Ratio (x) = 0.60797 0.46568
# Poissons Ratio (y) = 0.34512 0.04803
# Poissons Ratio (z) = 0.31237 0.05675
#
# Static dielectric constant tensor:
#      x y z
#    x 3.111360 0.000000 0.073930 
#    y 0.000000 3.420580 0.000000 
#    z 0.073930 0.000000 3.317950 
# 
# 
# High freq. dielectric constant tensor:
#      x y z
#    x 1.614780 0.000000 0.003270 
#    y 0.000000 1.645990 0.000000 
#    z 0.003270 0.000000 1.671070 
# 
# From -- ./inp_files/148535.got.cif
#   From: 2010.06.25/outbox.cif.g09.slc.cpg/sg15_75_cif.got.tgz:148535.got - 2010.06.28 07:06:18.
