data_PCOD8132139
_publ_section_title
;
Structure prediction by ZEFSAII (Michael W. Deem and Ramdas Pophale) SiO2 
 PCOD8132139
Probable space group: C 2/C
;
_chemical_formula_sum "Si O2"
_cell_formula_units_Z 44
_cell_length_a 15.901970
_cell_length_b 10.766165
_cell_length_c 11.799735
_cell_angle_alpha 90.000000
_cell_angle_beta 99.315309
_cell_angle_gamma 90.000000
_cell_volume 1993.512018
_symmetry_space_group_name_H-M "C 2/C"
_symmetry_group_IT_number 15
_symmetry_cell_setting 'monoclinic'
loop_
_space_group_symop_operation_xyz
x,y,z
-x,y,1/2-z
-x,-y,-z
x,-y,1/2+z
1/2+x,1/2+y,z
1/2-x,1/2+y,1/2-z
1/2-x,1/2-y,-z
1/2+x,1/2-y,1/2+z
loop_
_atom_site_type_symbol
_atom_site_label
_atom_site_fract_x
_atom_site_fract_y
_atom_site_fract_z
Si Si1 0.786646 0.083097 0.316702
Si Si2 0.094012 0.096377 0.765465
Si Si3 0.650102 0.748655 0.992313
Si Si4 0.000000 0.482621 0.750000
Si Si5 0.131565 0.678202 0.147512
Si Si6 0.646236 0.023628 0.936616
O O1 0.859873 0.167527 0.394561
O O2 0.714002 0.167677 0.245921
O O3 0.737097 0.990174 0.392622
O O4 0.834557 0.009876 0.226668
O O5 0.103497 0.178226 0.651927
O O6 0.000000 0.036730 0.750000
O O7 0.104501 0.182784 0.877490
O O8 0.750000 0.750000 0.000000
O O9 0.619683 0.892482 0.992812
O O10 0.948418 0.400296 0.827778
O O11 0.930124 0.563201 0.665727
O O12 0.155392 0.636456 0.026325
#
# Coordination Sequence:
#
# PCOD8132139 Si02
#       6
#     8   8   8   4   8   8
#     4  10  22  36  61  91 121 167 208 251 309 376
#     4  12  23  40  64  90 127 164 209 255 315 374
#     4  10  18  39  61  84 121 167 200 247 313 370
#     4  10  18  36  56  94 118 160 194 256 312 366
#     4  11  20  36  64  92 121 159 210 254 309 375
#     4  10  20  35  63  92 120 159 210 259 312 366
#
# _framework density 22.071598999999999
#
# number of rings (size 3 to 8) (size 9 to 14) (size 15 to 20)
#    0.000    1.455    6.364    2.727    0.000    1.455 
#    0.000    0.000    2.000    0.000    0.000    0.000 
#    0.000    0.000    0.000    0.000    0.000    0.000 
#
# Total GULP energy -272628.971011 kJ/mol
# GULP energy per Si atom -12392.225955 kJ/mol
# Density = 2.202136 g / cm^3
# Si number density = 22.071599 Si / 1000 Ang^3
#
#
#
# Elastic Constant Matrix: (Units=GPa)
#
#
# Indices 1 2 3 4 5 6 
#
# 1 99.2744 16.1723 20.8063 0.0000 3.8202 0.0000
# 2 16.1723 41.5473 12.8567 0.0000 -2.5464 0.0000
# 3 20.8063 12.8567 69.4038 0.0000 12.5659 0.0000
# 4 0.0000 0.0000 0.0000 32.3227 0.0000 -2.0364
# 5 3.8202 -2.5464 12.5659 0.0000 24.4773 0.0000
# 6 0.0000 0.0000 0.0000 -2.0364 0.0000 23.5871
#
#
#
# Elastic Compliance Matrix: (Units=1/GPa)
#
#
# Indices 1 2 3 4 5 6 
#
# 1 0.011230 -0.003635 -0.002544 0.000000 -0.000825 0.000000
# 2 -0.003635 0.027426 -0.005083 0.000000 0.006030 0.000000
# 3 -0.002544 -0.005083 0.017790 0.000000 -0.009265 0.000000
# 4 0.000000 0.000000 0.000000 0.031107 0.000000 0.002686
# 5 -0.000825 0.006030 -0.009265 0.000000 0.046366 0.000000
# 6 0.000000 0.000000 0.000000 0.002686 0.000000 0.042628
#
#
# Mechanical properties :
#
#
# Convention : Reuss Voigt Hill
#
# Bulk Modulus (GPa) = 29.47793 34.43290 31.95541
# Shear Modulus (GPa) = 23.76672 26.77009 25.26841
#
# Velocity S-wave (km/s) = 3.28502 3.48641 3.38722
# Velocity P-wave (km/s) = 5.27002 5.64280 5.45959
#
# Compressibility (1/GPa) = 0.03392368
#
# Stress axis : x y z
#
# Youngs Moduli (GPa) = 89.04626 36.46159 56.21133
#
# Poissons Ratio (x) = 0.13252 0.14300
# Poissons Ratio (y) = 0.32365 0.28570
# Poissons Ratio (z) = 0.22653 0.18532
#
# Static dielectric constant tensor:
#      x y z
#    x 4.249830 0.000000 0.624980 
#    y 0.000000 4.320980 0.000000 
#    z 0.624980 0.000000 5.226840 
# 
# 
# High freq. dielectric constant tensor:
#      x y z
#    x 1.865440 0.000000 0.017390 
#    y 0.000000 1.831210 0.000000 
#    z 0.017390 0.000000 1.860410 
# 
# From -- ./inp_files/95004.got.cif
#   From: 2010.06.25/outbox.cif.g09.slc.cpg/sg15_48_cif.got.tgz:95004.got - 2010.06.28 07:06:18.
