data_PCOD8132265
_publ_section_title
;
Structure prediction by ZEFSAII (Michael W. Deem and Ramdas Pophale) SiO2 
 PCOD8132265
Probable space group: C 2/C
;
_chemical_formula_sum "Si O2"
_cell_formula_units_Z 60
_cell_length_a 10.741947
_cell_length_b 22.539993
_cell_length_c 15.624487
_cell_angle_alpha 90.000000
_cell_angle_beta 130.206555
_cell_angle_gamma 90.000000
_cell_volume 2889.202302
_symmetry_space_group_name_H-M "C 2/C"
_symmetry_group_IT_number 15
_symmetry_cell_setting 'monoclinic'
loop_
_space_group_symop_operation_xyz
x,y,z
-x,y,1/2-z
-x,-y,-z
x,-y,1/2+z
1/2+x,1/2+y,z
1/2-x,1/2+y,1/2-z
1/2-x,1/2-y,-z
1/2+x,1/2-y,1/2+z
loop_
_atom_site_type_symbol
_atom_site_label
_atom_site_fract_x
_atom_site_fract_y
_atom_site_fract_z
Si Si1 0.322352 0.773023 0.209158
Si Si2 0.724746 0.353457 0.738438
Si Si3 0.386729 0.375296 0.117824
Si Si4 0.000000 0.411175 0.750000
Si Si5 0.371198 0.085358 0.448676
Si Si6 0.339145 0.972222 0.526812
Si Si7 0.100653 0.686719 0.579805
Si Si8 0.010963 0.183458 0.502512
O O1 0.500000 0.761261 0.250000
O O2 0.246894 0.710666 0.206406
O O3 0.328636 0.816977 0.292887
O O4 0.205773 0.803928 0.085897
O O5 0.724902 0.402642 0.814856
O O6 0.556432 0.355560 0.607930
O O7 0.882346 0.367053 0.749881
O O8 0.500000 0.375098 0.250000
O O9 0.223281 0.338880 0.064137
O O10 0.475847 0.347315 0.076608
O O11 0.334352 0.442331 0.072307
O O12 0.111097 0.455810 0.854679
O O13 0.521311 0.051557 0.472943
O O14 0.432830 0.149407 0.508219
O O15 0.312190 0.043137 0.500572
O O16 0.079152 0.754188 0.542707
#
# Coordination Sequence:
#
# PCOD8132265 Si02
#       8
#     8   8   8   4   8   8   8   8
#     4  11  24  40  58  86 123 172 212 255 312 400
#     4  10  21  36  63  91 129 160 207 263 317 380
#     4  11  20  35  61  94 128 158 198 269 336 378
#     4  10  18  36  62 100 126 158 206 272 322 368
#     4   9  18  38  58  89 121 171 207 243 306 383
#     4   9  19  34  62  87 126 162 208 252 308 383
#     4  10  21  36  60  90 125 166 207 250 322 393
#     4  11  21  37  60  94 128 160 206 267 327 387
#
# _framework density 20.766978999999999
#
# number of rings (size 3 to 8) (size 9 to 14) (size 15 to 20)
#    0.000    1.867    4.000    0.400    0.000    4.267 
#    1.200    0.667    0.000    0.800    0.000    0.000 
#    0.000    0.000    0.000    0.000    0.000    0.000 
#
# Total GULP energy -371785.182993 kJ/mol
# GULP energy per Si atom -12392.839433 kJ/mol
# Density = 2.071971 g / cm^3
# Si number density = 20.766979 Si / 1000 Ang^3
#
#
#
# Elastic Constant Matrix: (Units=GPa)
#
#
# Indices 1 2 3 4 5 6 
#
# 1 56.3577 35.3006 31.3768 0.0000 5.1172 0.0000
# 2 35.3006 94.7273 58.5118 0.0000 -1.0917 0.0000
# 3 31.3768 58.5118 167.1351 0.0000 3.8689 0.0000
# 4 0.0000 0.0000 0.0000 28.6747 0.0000 -6.3194
# 5 5.1172 -1.0917 3.8689 0.0000 19.8634 0.0000
# 6 0.0000 0.0000 0.0000 -6.3194 0.0000 21.2436
#
#
#
# Elastic Compliance Matrix: (Units=1/GPa)
#
#
# Indices 1 2 3 4 5 6 
#
# 1 0.024311 -0.008173 -0.001554 0.000000 -0.006409 0.000000
# 2 -0.008173 0.016272 -0.004251 0.000000 0.003828 0.000000
# 3 -0.001554 -0.004251 0.007794 0.000000 -0.001351 0.000000
# 4 0.000000 0.000000 0.000000 0.037321 0.000000 0.011102
# 5 -0.006409 0.003828 -0.001351 0.000000 0.052469 0.000000
# 6 0.000000 0.000000 0.000000 0.011102 0.000000 0.050376
#
#
# Mechanical properties :
#
#
# Convention : Reuss Voigt Hill
#
# Bulk Modulus (GPa) = 48.97047 63.17758 56.07403
# Shear Modulus (GPa) = 22.39083 26.82507 24.60795
#
# Velocity S-wave (km/s) = 3.28715 3.59795 3.44605
# Velocity P-wave (km/s) = 6.16760 6.91003 6.54934
#
# Compressibility (1/GPa) = 0.02042047
#
# Stress axis : x y z
#
# Youngs Moduli (GPa) = 41.13440 61.45412 128.29686
#
# Poissons Ratio (x) = 0.50228 0.19939
# Poissons Ratio (y) = 0.33620 0.54538
# Poissons Ratio (z) = 0.06393 0.26124
#
# Static dielectric constant tensor:
#      x y z
#    x 3.458950 0.000000 -0.135120 
#    y 0.000000 3.841620 0.000000 
#    z -0.135120 0.000000 4.154190 
# 
# 
# High freq. dielectric constant tensor:
#      x y z
#    x 1.782740 0.000000 -0.008030 
#    y 0.000000 1.798970 0.000000 
#    z -0.008030 0.000000 1.832270 
# 
# From -- ./inp_files/200955.got.cif
#   From: 2010.06.25/outbox.cif.g09.slc.cpg/sg15_101_cif.got.tgz:200955.got - 2010.06.28 07:06:18.
