data_PCOD8132439
_publ_section_title
;
Structure prediction by ZEFSAII (Michael W. Deem and Ramdas Pophale) SiO2 
 PCOD8132439
Probable space group: C 2/C
;
_chemical_formula_sum "Si O2"
_cell_formula_units_Z 56
_cell_length_a 12.150739
_cell_length_b 13.253582
_cell_length_c 21.152434
_cell_angle_alpha 90.000000
_cell_angle_beta 117.349282
_cell_angle_gamma 90.000000
_cell_volume 3025.645439
_symmetry_space_group_name_H-M "C 2/C"
_symmetry_group_IT_number 15
_symmetry_cell_setting 'monoclinic'
loop_
_space_group_symop_operation_xyz
x,y,z
-x,y,1/2-z
-x,-y,-z
x,-y,1/2+z
1/2+x,1/2+y,z
1/2-x,1/2+y,1/2-z
1/2-x,1/2-y,-z
1/2+x,1/2-y,1/2+z
loop_
_atom_site_type_symbol
_atom_site_label
_atom_site_fract_x
_atom_site_fract_y
_atom_site_fract_z
Si Si1 0.591405 0.980865 0.220822
Si Si2 0.397752 0.110418 0.577904
Si Si3 0.461405 0.803151 0.494468
Si Si4 0.733127 0.969433 0.050757
Si Si5 0.833427 0.376303 0.862170
Si Si6 0.763396 0.842917 0.349211
Si Si7 0.474244 0.412802 0.043352
O O1 0.500000 0.024986 0.250000
O O2 0.518097 0.918968 0.148993
O O3 0.688895 0.905714 0.278150
O O4 0.657476 0.074521 0.204744
O O5 0.441953 0.193323 0.538631
O O6 0.291077 0.153223 0.594445
O O7 0.343720 0.013186 0.528264
O O8 0.337812 0.867206 0.447167
O O9 0.531293 0.849141 0.574097
O O10 0.423707 0.686924 0.494241
O O11 0.873332 0.946697 0.067980
O O12 0.738706 0.047621 0.110211
O O13 0.756426 0.274635 0.829608
O O14 0.901653 0.886540 0.385863
O O15 0.500000 0.500000 0.000000
#
# Coordination Sequence:
#
# PCOD8132439 Si02
#       7
#     8   8   8   8   8   8   8
#     4  10  20  40  60  81 113 150 201 239 273 347
#     4  10  18  37  63  86 106 151 200 241 275 332
#     4  10  20  35  63  87 115 144 198 239 285 333
#     4  11  19  36  62  90 115 146 191 242 285 338
#     4  10  20  38  62  85 111 148 197 241 282 332
#     4  10  23  38  55  85 119 151 190 232 297 343
#     4  11  23  36  52  88 129 151 176 235 298 348
#
# _framework density 18.508448000000001
#
# number of rings (size 3 to 8) (size 9 to 14) (size 15 to 20)
#    0.000    1.714    4.286    1.286    2.000    1.714 
#    2.571    5.000    0.000    0.000    0.000    0.000 
#    0.000    0.000    0.000    0.000    0.000    0.000 
#
# Total GULP energy -347220.882480 kJ/mol
# GULP energy per Si atom -12400.745803 kJ/mol
# Density = 1.846632 g / cm^3
# Si number density = 18.508448 Si / 1000 Ang^3
#
#
#
# Elastic Constant Matrix: (Units=GPa)
#
#
# Indices 1 2 3 4 5 6 
#
# 1 125.4984 68.1910 45.4115 0.0000 -9.5556 0.0000
# 2 68.1910 147.9194 52.2515 0.0000 -15.4711 0.0000
# 3 45.4115 52.2515 92.4319 0.0000 -10.3078 0.0000
# 4 0.0000 0.0000 0.0000 23.0559 0.0000 -3.0955
# 5 -9.5556 -15.4711 -10.3078 0.0000 26.5984 0.0000
# 6 0.0000 0.0000 0.0000 -3.0955 0.0000 22.7807
#
#
#
# Elastic Compliance Matrix: (Units=1/GPa)
#
#
# Indices 1 2 3 4 5 6 
#
# 1 0.011380 -0.004049 -0.003249 0.000000 0.000474 0.000000
# 2 -0.004049 0.010157 -0.003403 0.000000 0.003134 0.000000
# 3 -0.003249 -0.003403 0.014620 0.000000 0.002519 0.000000
# 4 0.000000 0.000000 0.000000 0.044179 0.000000 0.006003
# 5 0.000474 0.003134 0.002519 0.000000 0.040566 0.000000
# 6 0.000000 0.000000 0.000000 0.006003 0.000000 0.044712
#
#
# Mechanical properties :
#
#
# Convention : Reuss Voigt Hill
#
# Bulk Modulus (GPa) = 67.77593 77.50640 72.64116
# Shear Modulus (GPa) = 26.05059 27.82005 26.93532
#
# Velocity S-wave (km/s) = 3.75573 3.88119 3.81898
# Velocity P-wave (km/s) = 7.45022 7.87731 7.66674
#
# Compressibility (1/GPa) = 0.01475450
#
# Stress axis : x y z
#
# Youngs Moduli (GPa) = 87.87288 98.45580 68.40071
#
# Poissons Ratio (x) = 0.39863 0.22226
# Poissons Ratio (y) = 0.35578 0.23276
# Poissons Ratio (z) = 0.28553 0.33504
#
# Static dielectric constant tensor:
#      x y z
#    x 3.525820 0.000000 -0.159050 
#    y 0.000000 3.479540 0.000000 
#    z -0.159050 0.000000 3.292760 
# 
# 
# High freq. dielectric constant tensor:
#      x y z
#    x 1.723730 0.000000 -0.009850 
#    y 0.000000 1.721070 0.000000 
#    z -0.009850 0.000000 1.700590 
# 
# From -- ./inp_files/237620.got.cif
#   From: 2010.06.25/outbox.cif.g09.slc.cpg/sg15_119_cif.got.tgz:237620.got - 2010.06.28 07:06:18.
