data_PCOD8132646
_publ_section_title
;
Structure prediction by ZEFSAII (Michael W. Deem and Ramdas Pophale) SiO2 
 PCOD8132646
Probable space group: C 2/C
;
_chemical_formula_sum "Si O2"
_cell_formula_units_Z 48
_cell_length_a 21.474504
_cell_length_b 12.225313
_cell_length_c 9.837738
_cell_angle_alpha 90.000000
_cell_angle_beta 117.069125
_cell_angle_gamma 90.000000
_cell_volume 2299.809674
_symmetry_space_group_name_H-M "C 2/C"
_symmetry_group_IT_number 15
_symmetry_cell_setting 'monoclinic'
loop_
_space_group_symop_operation_xyz
x,y,z
-x,y,1/2-z
-x,-y,-z
x,-y,1/2+z
1/2+x,1/2+y,z
1/2-x,1/2+y,1/2-z
1/2-x,1/2-y,-z
1/2+x,1/2-y,1/2+z
loop_
_atom_site_type_symbol
_atom_site_label
_atom_site_fract_x
_atom_site_fract_y
_atom_site_fract_z
Si Si1 0.144408 0.566352 0.838045
Si Si2 0.064535 0.763083 0.058740
Si Si3 0.808856 0.793240 0.662861
Si Si4 0.000000 0.857908 0.250000
Si Si5 0.190255 0.611332 0.183596
Si Si6 0.575740 0.432100 0.865618
Si Si7 0.500000 0.122276 0.750000
O O1 0.145167 0.685693 0.765528
O O2 0.189267 0.483459 0.793583
O O3 0.061481 0.540602 0.760198
O O4 0.175805 0.562604 0.019996
O O5 0.087322 0.884387 0.028961
O O6 0.028765 0.694581 0.902952
O O7 0.014103 0.778683 0.137155
O O8 0.134993 0.702587 0.174268
O O9 0.750000 0.750000 0.500000
O O10 0.768547 0.837081 0.756886
O O11 0.859932 0.889967 0.662168
O O12 0.067823 0.935381 0.352096
O O13 0.500000 0.380978 0.750000
#
# Coordination Sequence:
#
# PCOD8132646 Si02
#       7
#     8   8   8   4   8   8   4
#     4  10  21  39  59  87 113 158 205 239 302 352
#     4  11  19  39  56  89 120 154 197 246 299 351
#     4  10  18  39  61  82 116 159 198 240 291 364
#     4  10  25  31  60  94 122 146 197 259 296 344
#     4  10  23  37  62  85 117 160 199 243 295 361
#     4  10  19  37  59  86 114 155 196 236 300 356
#     4  10  19  37  64  74 120 168 193 239 296 364
#
# _framework density 20.871293000000001
#
# number of rings (size 3 to 8) (size 9 to 14) (size 15 to 20)
#    0.500    1.333    5.833    0.500    0.000    6.000 
#    0.000    0.833    0.000    0.000    0.000    0.000 
#    0.000    0.000    0.000    0.000    0.000    0.000 
#
# Total GULP energy -297313.468472 kJ/mol
# GULP energy per Si atom -12388.061186 kJ/mol
# Density = 2.082379 g / cm^3
# Si number density = 20.871293 Si / 1000 Ang^3
#
#
#
# Elastic Constant Matrix: (Units=GPa)
#
#
# Indices 1 2 3 4 5 6 
#
# 1 138.5929 50.0815 22.5273 0.0000 -11.8799 0.0000
# 2 50.0815 57.2384 23.9566 0.0000 -22.1976 0.0000
# 3 22.5273 23.9566 35.8303 0.0000 -16.7145 0.0000
# 4 0.0000 0.0000 0.0000 15.0326 0.0000 -14.7650
# 5 -11.8799 -22.1976 -16.7145 0.0000 34.3898 0.0000
# 6 0.0000 0.0000 0.0000 -14.7650 0.0000 51.3091
#
#
#
# Elastic Compliance Matrix: (Units=1/GPa)
#
#
# Indices 1 2 3 4 5 6 
#
# 1 0.010872 -0.010219 -0.001717 0.000000 -0.003675 0.000000
# 2 -0.010219 0.036889 -0.011353 0.000000 0.014763 0.000000
# 3 -0.001717 -0.011353 0.042527 0.000000 0.012748 0.000000
# 4 0.000000 0.000000 0.000000 0.092732 0.000000 0.026685
# 5 -0.003675 0.014763 0.012748 0.000000 0.043534 0.000000
# 6 0.000000 0.000000 0.000000 0.026685 0.000000 0.027169
#
#
# Mechanical properties :
#
#
# Convention : Reuss Voigt Hill
#
# Bulk Modulus (GPa) = 22.87844 47.19917 35.03881
# Shear Modulus (GPa) = 15.87949 29.15270 22.51609
#
# Velocity S-wave (km/s) = 2.76131 3.74141 3.28808
# Velocity P-wave (km/s) = 4.59912 6.42866 5.58926
#
# Compressibility (1/GPa) = 0.04370927
#
# Stress axis : x y z
#
# Youngs Moduli (GPa) = 91.97656 27.10825 23.51473
#
# Poissons Ratio (x) = 0.27703 0.04038
# Poissons Ratio (y) = 0.93995 0.26696
# Poissons Ratio (z) = 0.15795 0.30775
#
# Static dielectric constant tensor:
#      x y z
#    x 4.415770 0.000000 -0.031810 
#    y 0.000000 3.671310 0.000000 
#    z -0.031810 0.000000 3.353040 
# 
# 
# High freq. dielectric constant tensor:
#      x y z
#    x 1.836340 0.000000 -0.002300 
#    y 0.000000 1.803700 0.000000 
#    z -0.002300 0.000000 1.773130 
# 
# From -- ./inp_files/110701.got.cif
#   From: 2010.06.25/outbox.cif.g09.slc.cpg/sg15_56_cif.got.tgz:110701.got - 2010.06.28 07:06:18.
