data_PCOD8132118
_publ_section_title
;
Structure prediction by ZEFSAII (Michael W. Deem and Ramdas Pophale) SiO2 
 PCOD8132118
Probable space group: C 2/C
;
_chemical_formula_sum "Si O2"
_cell_formula_units_Z 52
_cell_length_a 8.507912
_cell_length_b 25.248622
_cell_length_c 16.961827
_cell_angle_alpha 90.000000
_cell_angle_beta 137.063450
_cell_angle_gamma 90.000000
_cell_volume 2481.991607
_symmetry_space_group_name_H-M "C 2/C"
_symmetry_group_IT_number 15
_symmetry_cell_setting 'monoclinic'
loop_
_space_group_symop_operation_xyz
x,y,z
-x,y,1/2-z
-x,-y,-z
x,-y,1/2+z
1/2+x,1/2+y,z
1/2-x,1/2+y,1/2-z
1/2-x,1/2-y,-z
1/2+x,1/2-y,1/2+z
loop_
_atom_site_type_symbol
_atom_site_label
_atom_site_fract_x
_atom_site_fract_y
_atom_site_fract_z
Si Si1 0.405218 0.673082 0.569895
Si Si2 0.390242 0.087750 0.568610
Si Si3 0.584620 0.195184 0.698253
Si Si4 0.250800 0.237102 0.126559
Si Si5 0.685549 0.571376 0.882822
Si Si6 0.483559 0.522491 0.407010
Si Si7 0.500000 0.009832 0.750000
O O1 0.666380 0.670387 0.694955
O O2 0.264981 0.712611 0.574320
O O3 0.373940 0.689750 0.466812
O O4 0.304434 0.614361 0.543028
O O5 0.421530 0.148667 0.605045
O O6 0.560498 0.069338 0.561621
O O7 0.421614 0.048436 0.652529
O O8 0.120088 0.078307 0.445423
O O9 0.500000 0.218654 0.750000
O O10 0.590655 0.244693 0.640599
O O11 0.500000 0.218301 0.250000
O O12 0.500000 0.590708 0.750000
O O13 0.607053 0.515939 0.889556
O O14 0.500000 0.500000 0.500000
O O15 0.207312 0.527084 0.291384
#
# Coordination Sequence:
#
# PCOD8132118 Si02
#       7
#     8   8   8   8   8   8   4
#     4  10  19  34  62  89 120 160 202 255 312 371
#     4  11  20  34  58  91 120 157 216 255 303 366
#     4  11  20  33  59  92 124 158 207 262 302 367
#     4   9  19  37  58  89 122 158 204 251 315 380
#     4  12  19  36  62  89 122 160 216 258 307 371
#     4  10  23  35  57  87 122 167 202 256 312 364
#     4  10  18  36  54  84 124 162 200 254 310 368
#
# _framework density 20.950917
#
# number of rings (size 3 to 8) (size 9 to 14) (size 15 to 20)
#    0.000    1.538    5.385    0.923    2.154    0.615 
#    0.000    0.000    6.769    0.000    0.000    0.000 
#    0.000    0.000    0.000    0.000    0.000    0.154 
#
# Total GULP energy -322263.599567 kJ/mol
# GULP energy per Si atom -12394.753830 kJ/mol
# Density = 2.090323 g / cm^3
# Si number density = 20.950917 Si / 1000 Ang^3
#
#
#
# Elastic Constant Matrix: (Units=GPa)
#
#
# Indices 1 2 3 4 5 6 
#
# 1 134.4832 40.1574 19.8993 0.0000 -10.2771 0.0000
# 2 40.1574 78.5030 45.3691 0.0000 -2.5942 0.0000
# 3 19.8993 45.3691 58.2922 0.0000 -6.5294 0.0000
# 4 0.0000 0.0000 0.0000 32.0724 0.0000 -8.3409
# 5 -10.2771 -2.5942 -6.5294 0.0000 30.6824 0.0000
# 6 0.0000 0.0000 0.0000 -8.3409 0.0000 30.5904
#
#
#
# Elastic Compliance Matrix: (Units=1/GPa)
#
#
# Indices 1 2 3 4 5 6 
#
# 1 0.009042 -0.005330 0.001383 0.000000 0.002872 0.000000
# 2 -0.005330 0.026406 -0.019138 0.000000 -0.003625 0.000000
# 3 0.001383 -0.019138 0.032217 0.000000 0.005701 0.000000
# 4 0.000000 0.000000 0.000000 0.033559 0.000000 0.009150
# 5 0.002872 -0.003625 0.005701 0.000000 0.034461 0.000000
# 6 0.000000 0.000000 0.000000 0.009150 0.000000 0.035185
#
#
# Mechanical properties :
#
#
# Convention : Reuss Voigt Hill
#
# Bulk Modulus (GPa) = 46.52286 53.57002 50.04644
# Shear Modulus (GPa) = 22.30112 29.72587 26.01349
#
# Velocity S-wave (km/s) = 3.26612 3.77083 3.52751
# Velocity P-wave (km/s) = 6.03964 6.67710 6.36635
#
# Compressibility (1/GPa) = 0.02149481
#
# Stress axis : x y z
#
# Youngs Moduli (GPa) = 110.59174 37.87082 31.03988
#
# Poissons Ratio (x) = 0.20185 -0.04294
# Poissons Ratio (y) = 0.58946 0.59405
# Poissons Ratio (z) = -0.15299 0.72478
#
# Static dielectric constant tensor:
#      x y z
#    x 4.176790 0.000000 -0.116760 
#    y 0.000000 3.527590 0.000000 
#    z -0.116760 0.000000 3.946700 
# 
# 
# High freq. dielectric constant tensor:
#      x y z
#    x 1.840700 0.000000 0.000100 
#    y 0.000000 1.785690 0.000000 
#    z 0.000100 0.000000 1.803270 
# 
# From -- ./inp_files/194015.got.cif
#   From: 2010.06.25/outbox.cif.g09.slc.cpg/sg15_98_cif.got.tgz:194015.got - 2010.06.28 07:06:18.
