data_PCOD8132154
_publ_section_title
;
Structure prediction by ZEFSAII (Michael W. Deem and Ramdas Pophale) SiO2 
 PCOD8132154
Probable space group: C 2/C
;
_chemical_formula_sum "Si O2"
_cell_formula_units_Z 48
_cell_length_a 17.395423
_cell_length_b 8.901275
_cell_length_c 16.517498
_cell_angle_alpha 90.000000
_cell_angle_beta 97.391132
_cell_angle_gamma 90.000000
_cell_volume 2536.342414
_symmetry_space_group_name_H-M "C 2/C"
_symmetry_group_IT_number 15
_symmetry_cell_setting 'monoclinic'
loop_
_space_group_symop_operation_xyz
x,y,z
-x,y,1/2-z
-x,-y,-z
x,-y,1/2+z
1/2+x,1/2+y,z
1/2-x,1/2+y,1/2-z
1/2-x,1/2-y,-z
1/2+x,1/2-y,1/2+z
loop_
_atom_site_type_symbol
_atom_site_label
_atom_site_fract_x
_atom_site_fract_y
_atom_site_fract_z
Si Si1 0.152860 0.159451 0.660566
Si Si2 0.084299 0.861635 0.719525
Si Si3 0.920463 0.591561 0.258109
Si Si4 0.104790 0.650868 0.005498
Si Si5 0.329142 0.149059 0.654502
Si Si6 0.559409 0.882132 0.094491
O O1 0.147274 0.300576 0.720396
O O2 0.118320 0.213146 0.570009
O O3 0.241275 0.109479 0.664431
O O4 0.103200 0.029897 0.695988
O O5 0.145170 0.798183 0.793529
O O6 0.094852 0.770424 0.636198
O O7 0.000000 0.851999 0.750000
O O8 0.883111 0.493313 0.181761
O O9 0.958254 0.481865 0.329833
O O10 0.000000 0.684089 0.250000
O O11 0.164489 0.676606 0.940528
O O12 0.016533 0.663701 0.964974
O O13 0.117142 0.483075 0.045947
#
# Coordination Sequence:
#
# PCOD8132154 Si02
#       6
#     8   8   8   8   8   8
#     4  11  24  33  54  87 118 136 173 235 286 314
#     4  11  21  40  58  82 112 146 181 223 274 323
#     4  10  18  36  58  77 102 148 195 217 254 331
#     4  10  19  36  58  81 108 143 189 220 267 324
#     4  11  20  39  58  79 108 150 184 222 269 327
#     4   9  18  35  60  81 100 147 189 223 254 326
#
# _framework density 18.924890999999999
#
# number of rings (size 3 to 8) (size 9 to 14) (size 15 to 20)
#    0.000    1.667    3.333    3.000    0.000    0.667 
#    0.000    0.833    0.000    0.000    0.000    0.000 
#    0.000    0.000    0.000    0.000    0.000    0.000 
#
# Total GULP energy -297378.139357 kJ/mol
# GULP energy per Si atom -12390.755807 kJ/mol
# Density = 1.888182 g / cm^3
# Si number density = 18.924891 Si / 1000 Ang^3
#
#
#
# Elastic Constant Matrix: (Units=GPa)
#
#
# Indices 1 2 3 4 5 6 
#
# 1 84.2816 23.5991 22.5509 0.0000 -1.0725 0.0000
# 2 23.5991 86.4867 41.6507 0.0000 -0.5180 0.0000
# 3 22.5509 41.6507 99.1245 0.0000 -2.6632 0.0000
# 4 0.0000 0.0000 0.0000 21.6406 0.0000 -2.9827
# 5 -1.0725 -0.5180 -2.6632 0.0000 21.7424 0.0000
# 6 0.0000 0.0000 0.0000 -2.9827 0.0000 22.2825
#
#
#
# Elastic Compliance Matrix: (Units=1/GPa)
#
#
# Indices 1 2 3 4 5 6 
#
# 1 0.013116 -0.002688 -0.001845 0.000000 0.000357 0.000000
# 2 -0.002688 0.015050 -0.005725 0.000000 -0.000475 0.000000
# 3 -0.001845 -0.005725 0.012950 0.000000 0.001359 0.000000
# 4 0.000000 0.000000 0.000000 0.047078 0.000000 0.006302
# 5 0.000357 -0.000475 0.001359 0.000000 0.046166 0.000000
# 6 0.000000 0.000000 0.000000 0.006302 0.000000 0.045722
#
#
# Mechanical properties :
#
#
# Convention : Reuss Voigt Hill
#
# Bulk Modulus (GPa) = 48.54362 49.49936 49.02149
# Shear Modulus (GPa) = 24.10045 25.27255 24.68650
#
# Velocity S-wave (km/s) = 3.57245 3.65830 3.61563
# Velocity P-wave (km/s) = 6.53628 6.63752 6.58709
#
# Compressibility (1/GPa) = 0.02060003
#
# Stress axis : x y z
#
# Youngs Moduli (GPa) = 76.24371 66.44389 77.21946
#
# Poissons Ratio (x) = 0.17862 0.14244
# Poissons Ratio (y) = 0.20497 0.44209
# Poissons Ratio (z) = 0.14064 0.38040
#
# Static dielectric constant tensor:
#      x y z
#    x 3.268500 0.000000 0.009000 
#    y 0.000000 3.422850 0.000000 
#    z 0.009000 0.000000 3.719350 
# 
# 
# High freq. dielectric constant tensor:
#      x y z
#    x 1.725340 0.000000 -0.001100 
#    y 0.000000 1.723610 0.000000 
#    z -0.001100 0.000000 1.744490 
# 
# From -- ./inp_files/203027.got.cif
#   From: 2010.06.25/outbox.cif.g09.slc.cpg/sg15_102_cif.got.tgz:203027.got - 2010.06.28 07:06:18.
