data_PCOD8132135
_publ_section_title
;
Structure prediction by ZEFSAII (Michael W. Deem and Ramdas Pophale) SiO2 
 PCOD8132135
Probable space group: C 2/C
;
_chemical_formula_sum "Si O2"
_cell_formula_units_Z 56
_cell_length_a 11.164670
_cell_length_b 28.119987
_cell_length_c 10.267930
_cell_angle_alpha 90.000000
_cell_angle_beta 97.350257
_cell_angle_gamma 90.000000
_cell_volume 3197.130718
_symmetry_space_group_name_H-M "C 2/C"
_symmetry_group_IT_number 15
_symmetry_cell_setting 'monoclinic'
loop_
_space_group_symop_operation_xyz
x,y,z
-x,y,1/2-z
-x,-y,-z
x,-y,1/2+z
1/2+x,1/2+y,z
1/2-x,1/2+y,1/2-z
1/2-x,1/2-y,-z
1/2+x,1/2-y,1/2+z
loop_
_atom_site_type_symbol
_atom_site_label
_atom_site_fract_x
_atom_site_fract_y
_atom_site_fract_z
Si Si1 0.825355 0.580692 0.801567
Si Si2 0.919954 0.515944 0.367560
Si Si3 0.284805 0.237536 0.709851
Si Si4 0.597919 0.794085 0.526940
Si Si5 0.870259 0.155665 0.672667
Si Si6 0.622691 0.269352 0.524403
Si Si7 0.581179 0.899294 0.464725
O O1 0.815711 0.523111 0.818142
O O2 0.709247 0.607553 0.845197
O O3 0.833991 0.595366 0.650673
O O4 0.943976 0.594386 0.898733
O O5 0.868271 0.565681 0.414287
O O6 0.000000 0.523308 0.250000
O O7 0.000000 0.500000 0.500000
O O8 0.373271 0.213530 0.620052
O O9 0.205893 0.278401 0.633996
O O10 0.199799 0.196571 0.757712
O O11 0.375093 0.265259 0.819691
O O12 0.479268 0.764801 0.551099
O O13 0.582853 0.849869 0.540857
O O14 0.894168 0.176723 0.530544
O O15 0.000000 0.142701 0.750000
O O16 0.750000 0.250000 0.500000
#
# Coordination Sequence:
#
# PCOD8132135 Si02
#       7
#     8   8   8   8   8   8   8
#     4  10  19  34  58  79 107 144 184 220 289 340
#     4  10  18  36  56  86 113 132 170 240 298 338
#     4  10  21  34  53  76 110 153 188 228 272 318
#     4  11  20  35  53  78 112 152 190 220 274 344
#     4  11  20  37  53  77 112 150 190 230 265 336
#     4  10  21  33  50  75 115 146 181 235 267 318
#     4  10  19  33  57  84 109 139 180 228 286 345
#
# _framework density 17.515706000000002
#
# number of rings (size 3 to 8) (size 9 to 14) (size 15 to 20)
#    0.000    1.714    5.714    2.143    2.000    0.000 
#   10.286    0.000    0.000    0.857    0.000    2.000 
#    0.000    0.000    0.000    0.000    0.000    0.000 
#
# Total GULP energy -346920.486863 kJ/mol
# GULP energy per Si atom -12390.017388 kJ/mol
# Density = 1.747584 g / cm^3
# Si number density = 17.515706 Si / 1000 Ang^3
#
#
#
# Elastic Constant Matrix: (Units=GPa)
#
#
# Indices 1 2 3 4 5 6 
#
# 1 57.7889 42.0291 5.5992 0.0000 2.9265 0.0000
# 2 42.0291 133.0325 40.5865 0.0000 -4.2359 0.0000
# 3 5.5992 40.5865 61.8304 0.0000 0.6955 0.0000
# 4 0.0000 0.0000 0.0000 20.4883 0.0000 -1.4838
# 5 2.9265 -4.2359 0.6955 0.0000 15.1183 0.0000
# 6 0.0000 0.0000 0.0000 -1.4838 0.0000 18.2820
#
#
#
# Elastic Compliance Matrix: (Units=1/GPa)
#
#
# Indices 1 2 3 4 5 6 
#
# 1 0.023774 -0.008891 0.003765 0.000000 -0.007266 0.000000
# 2 -0.008891 0.012855 -0.007697 0.000000 0.005677 0.000000
# 3 0.003765 -0.007697 0.020928 0.000000 -0.003848 0.000000
# 4 0.000000 0.000000 0.000000 0.049097 0.000000 0.003985
# 5 -0.007266 0.005677 -0.003848 0.000000 0.069319 0.000000
# 6 0.000000 0.000000 0.000000 0.003985 0.000000 0.055022
#
#
# Mechanical properties :
#
#
# Convention : Reuss Voigt Hill
#
# Bulk Modulus (GPa) = 31.33715 47.67570 39.50642
# Shear Modulus (GPa) = 18.70720 21.74020 20.22370
#
# Velocity S-wave (km/s) = 3.27161 3.52686 3.40163
# Velocity P-wave (km/s) = 5.67459 6.62291 6.16701
#
# Compressibility (1/GPa) = 0.03191101
#
# Stress axis : x y z
#
# Youngs Moduli (GPa) = 42.06322 77.79191 47.78300
#
# Poissons Ratio (x) = 0.69164 -0.17990
# Poissons Ratio (y) = 0.37398 0.36778
# Poissons Ratio (z) = -0.15837 0.59875
#
# Static dielectric constant tensor:
#      x y z
#    x 3.078160 0.000000 -0.037070 
#    y 0.000000 3.789280 0.000000 
#    z -0.037070 0.000000 3.288190 
# 
# 
# High freq. dielectric constant tensor:
#      x y z
#    x 1.652410 0.000000 -0.004580 
#    y 0.000000 1.670540 0.000000 
#    z -0.004580 0.000000 1.681250 
# 
# From -- ./inp_files/91563.got.cif
#   From: 2010.06.25/outbox.cif.g09.slc.cpg/sg15_46_cif.got.tgz:91563.got - 2010.06.28 07:06:18.
