data_PCOD8132391
_publ_section_title
;
Structure prediction by ZEFSAII (Michael W. Deem and Ramdas Pophale) SiO2 
 PCOD8132391
Probable space group: C 2/C
;
_chemical_formula_sum "Si O2"
_cell_formula_units_Z 56
_cell_length_a 13.665162
_cell_length_b 12.256377
_cell_length_c 16.925794
_cell_angle_alpha 90.000000
_cell_angle_beta 90.566701
_cell_angle_gamma 90.000000
_cell_volume 2834.684332
_symmetry_space_group_name_H-M "C 2/C"
_symmetry_group_IT_number 15
_symmetry_cell_setting 'monoclinic'
loop_
_space_group_symop_operation_xyz
x,y,z
-x,y,1/2-z
-x,-y,-z
x,-y,1/2+z
1/2+x,1/2+y,z
1/2-x,1/2+y,1/2-z
1/2-x,1/2-y,-z
1/2+x,1/2-y,1/2+z
loop_
_atom_site_type_symbol
_atom_site_label
_atom_site_fract_x
_atom_site_fract_y
_atom_site_fract_z
Si Si1 0.769040 0.418497 0.299865
Si Si2 0.801177 0.564040 0.158336
Si Si3 0.622053 0.714592 0.177246
Si Si4 0.612361 0.254543 0.251433
Si Si5 0.088702 0.243874 0.360623
Si Si6 0.717886 0.859898 0.609563
Si Si7 0.595684 0.942676 0.466530
O O1 0.808828 0.457409 0.214492
O O2 0.837951 0.333557 0.349310
O O3 0.664792 0.361844 0.284990
O O4 0.757475 0.523567 0.353589
O O5 0.691916 0.613905 0.156641
O O6 0.877692 0.654022 0.188459
O O7 0.831091 0.532941 0.069480
O O8 0.624602 0.736164 0.271153
O O9 0.517548 0.684411 0.138262
O O10 0.500000 0.287077 0.250000
O O11 0.658219 0.219823 0.167589
O O12 0.175524 0.189388 0.412913
O O13 0.066226 0.363968 0.393826
O O14 0.651596 0.872520 0.532290
O O15 0.500000 0.000000 0.500000
#
# Coordination Sequence:
#
# PCOD8132391 Si02
#       7
#     8   8   8   8   8   8   8
#     4  10  18  37  58  86 112 153 204 243 289 347
#     4  10  20  39  58  85 122 153 205 249 295 355
#     4  10  20  37  63  88 113 152 213 253 290 346
#     4  10  20  35  57  86 117 153 201 252 287 346
#     4  11  21  38  61  88 116 158 201 251 296 361
#     4  11  22  39  58  88 124 156 199 246 308 362
#     4  12  24  39  60  93 126 163 195 246 317 369
#
# _framework density 19.755285000000001
#
# number of rings (size 3 to 8) (size 9 to 14) (size 15 to 20)
#    0.000    1.429    5.714    2.143    0.000    2.286 
#    0.000    8.571    0.000    0.000    0.000    0.000 
#    0.000    0.000    0.000    0.000    0.000    0.000 
#
# Total GULP energy -347030.573789 kJ/mol
# GULP energy per Si atom -12393.949064 kJ/mol
# Density = 1.971032 g / cm^3
# Si number density = 19.755285 Si / 1000 Ang^3
#
#
#
# Elastic Constant Matrix: (Units=GPa)
#
#
# Indices 1 2 3 4 5 6 
#
# 1 149.4587 31.7821 41.6511 0.0000 3.4618 0.0000
# 2 31.7821 59.5465 22.8620 0.0000 -8.8535 0.0000
# 3 41.6511 22.8620 68.2459 0.0000 -8.2865 0.0000
# 4 0.0000 0.0000 0.0000 21.0242 0.0000 -0.3447
# 5 3.4618 -8.8535 -8.2865 0.0000 24.8112 0.0000
# 6 0.0000 0.0000 0.0000 -0.3447 0.0000 26.6080
#
#
#
# Elastic Compliance Matrix: (Units=1/GPa)
#
#
# Indices 1 2 3 4 5 6 
#
# 1 0.008846 -0.003516 -0.004715 0.000000 -0.004063 0.000000
# 2 -0.003516 0.021264 -0.004166 0.000000 0.006687 0.000000
# 3 -0.004715 -0.004166 0.019621 0.000000 0.005724 0.000000
# 4 0.000000 0.000000 0.000000 0.047574 0.000000 0.000616
# 5 -0.004063 0.006687 0.005724 0.000000 0.045169 0.000000
# 6 0.000000 0.000000 0.000000 0.000616 0.000000 0.037591
#
#
# Mechanical properties :
#
#
# Convention : Reuss Voigt Hill
#
# Bulk Modulus (GPa) = 40.09805 52.20463 46.15134
# Shear Modulus (GPa) = 23.45543 26.55240 25.00392
#
# Velocity S-wave (km/s) = 3.44946 3.67013 3.56150
# Velocity P-wave (km/s) = 6.01718 6.66654 6.35017
#
# Compressibility (1/GPa) = 0.02493887
#
# Stress axis : x y z
#
# Youngs Moduli (GPa) = 113.04000 47.02874 50.96618
#
# Poissons Ratio (x) = 0.16534 0.24029
# Poissons Ratio (y) = 0.39741 0.21231
# Poissons Ratio (z) = 0.53295 0.19590
#
# Static dielectric constant tensor:
#      x y z
#    x 3.645880 0.000000 0.024550 
#    y 0.000000 3.607820 0.000000 
#    z 0.024550 0.000000 3.446330 
# 
# 
# High freq. dielectric constant tensor:
#      x y z
#    x 1.778130 0.000000 0.002910 
#    y 0.000000 1.772840 0.000000 
#    z 0.002910 0.000000 1.746670 
# 
# From -- ./inp_files/152616.got.cif
#   From: 2010.06.25/outbox.cif.g09.slc.cpg/sg15_77_cif.got.tgz:152616.got - 2010.06.28 07:06:18.
