data_PCOD8132210
_publ_section_title
;
Structure prediction by ZEFSAII (Michael W. Deem and Ramdas Pophale) SiO2 
 PCOD8132210
Probable space group: C 2/C
;
_chemical_formula_sum "Si O2"
_cell_formula_units_Z 52
_cell_length_a 16.647165
_cell_length_b 26.009111
_cell_length_c 11.021209
_cell_angle_alpha 90.000000
_cell_angle_beta 32.934755
_cell_angle_gamma 90.000000
_cell_volume 2594.426112
_symmetry_space_group_name_H-M "C 2/C"
_symmetry_group_IT_number 15
_symmetry_cell_setting 'monoclinic'
loop_
_space_group_symop_operation_xyz
x,y,z
-x,y,1/2-z
-x,-y,-z
x,-y,1/2+z
1/2+x,1/2+y,z
1/2-x,1/2+y,1/2-z
1/2-x,1/2-y,-z
1/2+x,1/2-y,1/2+z
loop_
_atom_site_type_symbol
_atom_site_label
_atom_site_fract_x
_atom_site_fract_y
_atom_site_fract_z
Si Si1 0.332935 0.691152 0.801439
Si Si2 0.172111 0.694377 0.249928
Si Si3 0.922703 0.625183 0.471708
Si Si4 0.622833 0.650175 0.333980
Si Si5 0.500000 0.623186 0.250000
Si Si6 0.941568 0.944940 0.453824
Si Si7 0.179853 0.050012 0.850873
O O1 0.386287 0.747843 0.691989
O O2 0.467473 0.654926 0.600173
O O3 0.298455 0.687059 0.987650
O O4 0.192205 0.671503 0.904839
O O5 0.251253 0.689474 0.280936
O O6 0.043936 0.651290 0.406261
O O7 0.845358 0.573199 0.621563
O O8 0.000000 0.607830 0.250000
O O9 0.601704 0.656312 0.215014
O O10 0.663368 0.593570 0.334598
O O11 0.393559 0.589960 0.465877
O O12 0.000000 0.924606 0.250000
O O13 0.092165 0.956696 0.336290
O O14 0.831962 0.993997 0.571848
#
# Coordination Sequence:
#
# PCOD8132210 Si02
#       7
#     8   8   8   8   4   8   8
#     4  10  18  36  59  87 119 150 194 250 291 343
#     4  10  21  33  58  90 118 152 193 245 305 347
#     4  10  20  35  57  86 125 153 179 246 312 348
#     4  11  21  36  60  86 112 156 206 243 283 356
#     4  10  20  38  58  80 120 158 198 250 282 336
#     4  10  19  32  63  88 105 145 207 249 273 341
#     4  10  20  37  57  87 117 151 193 244 297 343
#
# _framework density 20.042967999999998
#
# number of rings (size 3 to 8) (size 9 to 14) (size 15 to 20)
#    0.000    1.846    3.846    2.308    2.154    2.462 
#    0.000    2.308    0.000    0.000    0.000    0.000 
#    0.000    0.000    0.000    0.000    0.000    0.000 
#
# Total GULP energy -322144.545915 kJ/mol
# GULP energy per Si atom -12390.174843 kJ/mol
# Density = 1.999735 g / cm^3
# Si number density = 20.042968 Si / 1000 Ang^3
#
#
#
# Elastic Constant Matrix: (Units=GPa)
#
#
# Indices 1 2 3 4 5 6 
#
# 1 125.0847 28.0694 26.7067 0.0019 6.0692 -0.0015
# 2 28.0694 73.1233 26.3578 -0.0021 -3.2041 0.0016
# 3 26.7067 26.3578 69.9989 -0.0007 -9.1884 0.0006
# 4 0.0019 -0.0021 -0.0007 4.4893 0.0008 18.5308
# 5 6.0692 -3.2041 -9.1884 0.0008 23.0073 -0.0005
# 6 -0.0015 0.0016 0.0006 18.5308 -0.0005 6.5474
#
#
#
# Elastic Compliance Matrix: (Units=1/GPa)
#
#
# Indices 1 2 3 4 5 6 
#
# 1 0.009468 -0.002682 -0.003144 0.000002 -0.004127 -0.000002
# 2 -0.002682 0.016584 -0.005092 -0.000002 0.000983 0.000003
# 3 -0.003144 -0.005092 0.018382 0.000000 0.007462 0.000000
# 4 0.000002 -0.000002 0.000000 -0.020852 0.000001 0.059016
# 5 -0.004127 0.000983 0.007462 0.000001 0.047670 -0.000002
# 6 -0.000002 0.000003 0.000000 0.059016 -0.000002 -0.014297
#
#
# Mechanical properties :
#
#
# Convention : Reuss Voigt Hill
#
# Bulk Modulus (GPa) = 44.25268 47.83052 46.04160
# Shear Modulus (GPa) = 57.92141 19.28034 38.60088
#
# Velocity S-wave (km/s) = 5.38158 3.10490 4.39328
# Velocity P-wave (km/s) = 7.79371 6.06380 6.98254
#
# Compressibility (1/GPa) = 0.02259750
#
# Stress axis : x y z
#
# Youngs Moduli (GPa) = 105.61956 60.30045 54.39984
#
# Poissons Ratio (x) = 0.16172 0.17104
# Poissons Ratio (y) = 0.28326 0.27701
# Poissons Ratio (z) = 0.33208 0.30706
#
# Static dielectric constant tensor:
#      x y z
#    x 3.889060 0.000000 0.150370 
#    y 0.000000 3.744750 0.000000 
#    z 0.150370 0.000000 3.551010 
# 
# 
# High freq. dielectric constant tensor:
#      x y z
#    x 1.773130 0.000000 0.001450 
#    y 0.000000 1.782270 0.000000 
#    z 0.001450 0.000000 1.751790 
# 
# From -- ./inp_files/43657.got.cif
#   From: 2010.06.25/outbox.cif.g09.slc.cpg/sg15_22_cif.got.tgz:43657.got - 2010.06.28 07:06:18.
