data_PCOD8132731
_publ_section_title
;
Structure prediction by ZEFSAII (Michael W. Deem and Ramdas Pophale) SiO2 
 PCOD8132731
Probable space group: C 2/C
;
_chemical_formula_sum "Si O2"
_cell_formula_units_Z 56
_cell_length_a 29.832336
_cell_length_b 14.170677
_cell_length_c 8.545237
_cell_angle_alpha 90.000000
_cell_angle_beta 52.186723
_cell_angle_gamma 90.000000
_cell_volume 2853.883175
_symmetry_space_group_name_H-M "C 2/C"
_symmetry_group_IT_number 15
_symmetry_cell_setting 'monoclinic'
loop_
_space_group_symop_operation_xyz
x,y,z
-x,y,1/2-z
-x,-y,-z
x,-y,1/2+z
1/2+x,1/2+y,z
1/2-x,1/2+y,1/2-z
1/2-x,1/2-y,-z
1/2+x,1/2-y,1/2+z
loop_
_atom_site_type_symbol
_atom_site_label
_atom_site_fract_x
_atom_site_fract_y
_atom_site_fract_z
Si Si1 0.000000 0.513309 0.250000
Si Si2 0.634848 0.229820 0.589594
Si Si3 0.571951 0.404339 0.812081
Si Si4 0.697292 0.600707 0.045837
Si Si5 0.421633 0.057621 0.669969
Si Si6 0.660488 0.911439 0.786300
Si Si7 0.500000 0.461896 0.250000
Si Si8 0.266950 0.985049 0.125415
O O1 0.971808 0.580619 0.440174
O O2 0.950507 0.449008 0.279152
O O3 0.580197 0.300425 0.714567
O O4 0.689924 0.285679 0.539058
O O5 0.623704 0.142036 0.730055
O O6 0.645668 0.192116 0.388179
O O7 0.635180 0.444701 0.714715
O O8 0.543937 0.472562 0.746718
O O9 0.534653 0.397709 0.051329
O O10 0.739636 0.575536 0.095699
O O11 0.719643 0.562143 0.832878
O O12 0.393373 0.958525 0.682185
O O13 0.711330 0.908236 0.549442
O O14 0.679277 0.977000 0.892591
#
# Coordination Sequence:
#
# PCOD8132731 Si02
#       8
#     4   8   8   8   8   8   4   8
#     4  10  22  34  66  76 106 164 194 218 300 358
#     4  10  22  36  59  85 123 143 199 254 280 334
#     4   9  21  36  63  86 119 145 200 238 289 354
#     4   9  21  38  59  87 115 146 199 247 286 357
#     4  11  20  40  57  85 116 156 193 245 288 349
#     4  11  20  38  60  83 119 159 196 241 296 347
#     4  10  18  40  66  84 114 166 176 236 316 354
#     4  10  20  37  65  79 114 167 189 230 314 355
#
# _framework density 19.622385999999999
#
# number of rings (size 3 to 8) (size 9 to 14) (size 15 to 20)
#    0.857    1.143    2.857    0.857    0.000    2.286 
#    0.000    0.000   12.571    0.000    0.000    0.000 
#    0.000    0.000    0.000    0.000    0.000    0.000 
#
# Total GULP energy -346932.763956 kJ/mol
# GULP energy per Si atom -12390.455856 kJ/mol
# Density = 1.957772 g / cm^3
# Si number density = 19.622386 Si / 1000 Ang^3
#
#
#
# Elastic Constant Matrix: (Units=GPa)
#
#
# Indices 1 2 3 4 5 6 
#
# 1 101.3049 30.7289 29.7657 0.0000 5.5738 0.0000
# 2 30.7289 86.1724 48.9243 0.0000 -0.2864 0.0000
# 3 29.7657 48.9243 136.9781 0.0000 1.4154 0.0000
# 4 0.0000 0.0000 0.0000 35.7809 0.0000 -1.0117
# 5 5.5738 -0.2864 1.4154 0.0000 27.0005 0.0000
# 6 0.0000 0.0000 0.0000 -1.0117 0.0000 12.7633
#
#
#
# Elastic Compliance Matrix: (Units=1/GPa)
#
#
# Indices 1 2 3 4 5 6 
#
# 1 0.011385 -0.003357 -0.001251 0.000000 -0.002320 0.000000
# 2 -0.003357 0.015551 -0.004836 0.000000 0.001112 0.000000
# 3 -0.001251 -0.004836 0.009303 0.000000 -0.000281 0.000000
# 4 0.000000 0.000000 0.000000 0.028011 0.000000 0.002220
# 5 -0.002320 0.001112 -0.000281 0.000000 0.037542 0.000000
# 6 0.000000 0.000000 0.000000 0.002220 0.000000 0.078526
#
#
# Mechanical properties :
#
#
# Convention : Reuss Voigt Hill
#
# Bulk Modulus (GPa) = 57.63824 60.36592 59.00208
# Shear Modulus (GPa) = 24.39152 29.44469 26.91811
#
# Velocity S-wave (km/s) = 3.52951 3.87792 3.70781
# Velocity P-wave (km/s) = 6.78582 7.13313 6.96164
#
# Compressibility (1/GPa) = 0.01734959
#
# Stress axis : x y z
#
# Youngs Moduli (GPa) = 87.83673 64.30279 107.49724
#
# Poissons Ratio (x) = 0.21589 0.13446
# Poissons Ratio (y) = 0.29490 0.51990
# Poissons Ratio (z) = 0.10987 0.31099
#
# Static dielectric constant tensor:
#      x y z
#    x 3.456060 0.000000 -0.058080 
#    y 0.000000 3.226820 0.000000 
#    z -0.058080 0.000000 3.926800 
# 
# 
# High freq. dielectric constant tensor:
#      x y z
#    x 1.760880 0.000000 -0.009050 
#    y 0.000000 1.722750 0.000000 
#    z -0.009050 0.000000 1.791250 
# 
# From -- ./inp_files/69705.got.cif
#   From: 2010.06.25/outbox.cif.g09.slc.cpg/sg15_35_cif.got.tgz:69705.got - 2010.06.28 07:06:18.
