data_PCOD8132987
_publ_section_title
;
Structure prediction by ZEFSAII (Michael W. Deem and Ramdas Pophale) SiO2 
 PCOD8132987
Probable space group: C 2/C
;
_chemical_formula_sum "Si O2"
_cell_formula_units_Z 56
_cell_length_a 9.729725
_cell_length_b 10.637349
_cell_length_c 31.446144
_cell_angle_alpha 90.000000
_cell_angle_beta 110.163906
_cell_angle_gamma 90.000000
_cell_volume 3055.153137
_symmetry_space_group_name_H-M "C 2/C"
_symmetry_group_IT_number 15
_symmetry_cell_setting 'monoclinic'
loop_
_space_group_symop_operation_xyz
x,y,z
-x,y,1/2-z
-x,-y,-z
x,-y,1/2+z
1/2+x,1/2+y,z
1/2-x,1/2+y,1/2-z
1/2-x,1/2-y,-z
1/2+x,1/2-y,1/2+z
loop_
_atom_site_type_symbol
_atom_site_label
_atom_site_fract_x
_atom_site_fract_y
_atom_site_fract_z
Si Si1 0.546072 0.269650 0.176296
Si Si2 0.083326 0.394997 0.982326
Si Si3 0.731069 0.383225 0.749410
Si Si4 0.712805 0.961488 0.324320
Si Si5 0.894721 0.122176 0.490264
Si Si6 0.500000 0.423418 0.250000
Si Si7 0.338764 0.112186 0.099873
Si Si8 0.500000 0.189726 0.750000
O O1 0.630244 0.149947 0.206088
O O2 0.652108 0.364958 0.162670
O O3 0.465764 0.340035 0.205733
O O4 0.418246 0.228169 0.131084
O O5 0.025136 0.253083 0.987655
O O6 0.942501 0.574388 0.070690
O O7 0.260319 0.402545 0.009453
O O8 0.000000 0.500000 0.000000
O O9 0.767614 0.417001 0.704400
O O10 0.649741 0.500499 0.761736
O O11 0.622337 0.265948 0.737638
O O12 0.566039 0.893864 0.294087
O O13 0.687041 0.999291 0.370114
O O14 0.822390 0.147130 0.435871
O O15 0.000000 0.000000 0.500000
#
# Coordination Sequence:
#
# PCOD8132987 Si02
#       8
#     8   8   8   8   8   4   8   4
#     4  10  19  32  51  77 110 140 180 231 267 318
#     4   9  21  42  62  84 112 149 185 236 296 356
#     4   9  18  33  50  72 109 149 181 213 267 324
#     4  10  19  31  51  77 106 141 180 226 268 322
#     4   9  21  41  64  82 113 150 183 237 297 354
#     4   9  18  33  52  72 106 153 184 209 272 328
#     4  10  21  35  57  83 111 136 190 233 282 341
#     4   9  18  33  48  70 110 145 180 215 264 318
#
# _framework density 18.329687
#
# number of rings (size 3 to 8) (size 9 to 14) (size 15 to 20)
#    0.857    1.714    0.000    1.714    2.000    0.571 
#    5.143    0.000    3.143    0.000    0.000    0.000 
#    0.000    0.000    0.000    0.000    0.000    0.000 
#
# Total GULP energy -346877.979877 kJ/mol
# GULP energy per Si atom -12388.499281 kJ/mol
# Density = 1.828797 g / cm^3
# Si number density = 18.329687 Si / 1000 Ang^3
#
#
#
# Elastic Constant Matrix: (Units=GPa)
#
#
# Indices 1 2 3 4 5 6 
#
# 1 66.4857 60.8353 48.7578 0.0000 -6.5580 0.0000
# 2 60.8353 128.2132 63.8027 0.0000 -11.2594 0.0000
# 3 48.7578 63.8027 133.4082 0.0000 -10.5402 0.0000
# 4 0.0000 0.0000 0.0000 61.8167 0.0000 1.1375
# 5 -6.5580 -11.2594 -10.5402 0.0000 31.1804 0.0000
# 6 0.0000 0.0000 0.0000 1.1375 0.0000 29.5908
#
#
#
# Elastic Compliance Matrix: (Units=1/GPa)
#
#
# Indices 1 2 3 4 5 6 
#
# 1 0.029192 -0.011190 -0.005293 0.000000 0.000310 0.000000
# 2 -0.011190 0.014660 -0.002763 0.000000 0.002006 0.000000
# 3 -0.005293 -0.002763 0.010875 0.000000 0.001565 0.000000
# 4 0.000000 0.000000 0.000000 0.016188 0.000000 -0.000622
# 5 0.000310 0.002006 0.001565 0.000000 0.033390 0.000000
# 6 0.000000 0.000000 0.000000 -0.000622 0.000000 0.033818
#
#
# Mechanical properties :
#
#
# Convention : Reuss Voigt Hill
#
# Bulk Modulus (GPa) = 61.59324 74.98875 68.29100
# Shear Modulus (GPa) = 27.46828 34.83166 31.14997
#
# Velocity S-wave (km/s) = 3.87533 4.36396 4.12688
# Velocity P-wave (km/s) = 7.32804 8.14813 7.74895
#
# Compressibility (1/GPa) = 0.01623555
#
# Stress axis : x y z
#
# Youngs Moduli (GPa) = 34.25593 68.21196 91.95125
#
# Poissons Ratio (x) = 0.76330 0.48669
# Poissons Ratio (y) = 0.38333 0.25406
# Poissons Ratio (z) = 0.18131 0.18847
#
# Static dielectric constant tensor:
#      x y z
#    x 3.333690 0.000000 -0.050270 
#    y 0.000000 3.427480 0.000000 
#    z -0.050270 0.000000 3.268510 
# 
# 
# High freq. dielectric constant tensor:
#      x y z
#    x 1.705680 0.000000 -0.004890 
#    y 0.000000 1.715460 0.000000 
#    z -0.004890 0.000000 1.694170 
# 
# From -- ./inp_files/307267.got.cif
#   From: 2010.06.25/outbox.cif.g09.slc.cpg/sg15_154_cif.got.tgz:307267.got - 2010.06.28 07:06:18.
