data_PCOD8132330
_publ_section_title
;
Structure prediction by ZEFSAII (Michael W. Deem and Ramdas Pophale) SiO2 
 PCOD8132330
Probable space group: C 2/C
;
_chemical_formula_sum "Si O2"
_cell_formula_units_Z 48
_cell_length_a 8.561435
_cell_length_b 12.233905
_cell_length_c 22.813126
_cell_angle_alpha 90.000000
_cell_angle_beta 67.117636
_cell_angle_gamma 90.000000
_cell_volume 2201.405054
_symmetry_space_group_name_H-M "C 2/C"
_symmetry_group_IT_number 15
_symmetry_cell_setting 'monoclinic'
loop_
_space_group_symop_operation_xyz
x,y,z
-x,y,1/2-z
-x,-y,-z
x,-y,1/2+z
1/2+x,1/2+y,z
1/2-x,1/2+y,1/2-z
1/2-x,1/2-y,-z
1/2+x,1/2-y,1/2+z
loop_
_atom_site_type_symbol
_atom_site_label
_atom_site_fract_x
_atom_site_fract_y
_atom_site_fract_z
Si Si1 0.838803 0.799212 0.814247
Si Si2 0.185276 0.524702 0.497491
Si Si3 0.531019 0.797723 0.085085
Si Si4 0.771888 0.032319 0.862316
Si Si5 0.503356 0.726217 0.814618
Si Si6 0.240892 0.178597 0.442891
O O1 0.695717 0.720514 0.808767
O O2 0.000000 0.791732 0.750000
O O3 0.885263 0.757199 0.871459
O O4 0.764396 0.922637 0.824774
O O5 0.307110 0.506504 0.424293
O O6 0.243948 0.447583 0.542280
O O7 0.000000 0.500000 0.500000
O O8 0.181045 0.648156 0.523584
O O9 0.397639 0.894564 0.121489
O O10 0.437893 0.702393 0.062202
O O11 0.934348 0.102766 0.819981
O O12 0.500000 0.779572 0.750000
O O13 0.392468 0.795688 0.876250
O O14 0.250000 0.250000 0.500000
#
# Coordination Sequence:
#
# PCOD8132330 Si02
#       6
#     8   8   8   8   8   8
#     4  12  26  43  64  95 132 171 220 268 322 390
#     4  10  18  36  64  96 128 166 212 263 323 377
#     4  10  23  40  65  97 131 167 212 267 327 382
#     4  10  22  42  67  93 129 169 215 268 318 386
#     4  11  23  43  68  93 130 175 215 266 326 385
#     4  11  19  39  69  96 129 172 216 261 324 387
#
# _framework density 21.804255999999999
#
# number of rings (size 3 to 8) (size 9 to 14) (size 15 to 20)
#    0.000    1.333    5.000    4.500    0.000    2.000 
#    0.000   10.000    0.000    0.000    0.000    0.000 
#    0.000    0.000    0.000    0.000    0.000    0.000 
#
# Total GULP energy -297562.958180 kJ/mol
# GULP energy per Si atom -12398.456591 kJ/mol
# Density = 2.175463 g / cm^3
# Si number density = 21.804256 Si / 1000 Ang^3
#
#
#
# Elastic Constant Matrix: (Units=GPa)
#
#
# Indices 1 2 3 4 5 6 
#
# 1 101.4822 25.8892 21.1122 0.0001 24.9693 0.0000
# 2 25.8892 78.5831 0.3004 0.0001 2.9120 0.0000
# 3 21.1122 0.3004 108.8257 0.0001 9.4751 0.0000
# 4 0.0001 0.0001 0.0001 -206.5006 0.0000 50.1542
# 5 24.9693 2.9120 9.4751 0.0000 36.3757 0.0000
# 6 0.0000 0.0000 0.0000 50.1542 0.0000 11.1514
#
#
#
# Elastic Compliance Matrix: (Units=1/GPa)
#
#
# Indices 1 2 3 4 5 6 
#
# 1 0.013331 -0.004076 -0.001849 0.000000 -0.008343 0.000000
# 2 -0.004076 0.014010 0.000620 0.000000 0.001515 0.000000
# 3 -0.001849 0.000620 0.009659 0.000000 -0.001297 0.000000
# 4 0.000000 0.000000 0.000000 -0.002314 0.000000 0.010409
# 5 -0.008343 0.001515 -0.001297 0.000000 0.033434 0.000000
# 6 0.000000 0.000000 0.000000 0.010409 0.000000 0.042858
#
#
# Mechanical properties :
#
#
# Convention : Reuss Voigt Hill
#
# Bulk Modulus (GPa) = 37.89137 42.61051 40.25094
# Shear Modulus (GPa) = 38.34860 -15.68877 11.32992
#
# Velocity S-wave (km/s) = 4.19831 -2.68531 2.28199
# Velocity P-wave (km/s) = 6.39663 3.15756 5.04416
#
# Compressibility (1/GPa) = 0.02639124
#
# Stress axis : x y z
#
# Youngs Moduli (GPa) = 75.01293 71.37956 103.53238
#
# Poissons Ratio (x) = 0.29092 0.19139
# Poissons Ratio (y) = 0.30573 -0.06420
# Poissons Ratio (z) = 0.13867 -0.04427
#
# Static dielectric constant tensor:
#      x y z
#    x 3.981550 0.000000 -0.144120 
#    y 0.000000 4.207770 0.000000 
#    z -0.144120 0.000000 4.580750 
# 
# 
# High freq. dielectric constant tensor:
#      x y z
#    x 1.845450 0.000000 -0.004470 
#    y 0.000000 1.853620 0.000000 
#    z -0.004470 0.000000 1.871010 
# 
# From -- ./inp_files/263471.got.cif
#   From: 2010.06.25/outbox.cif.g09.slc.cpg/sg15_132_cif.got.tgz:263471.got - 2010.06.28 07:06:18.
