data_PCOD8132514
_publ_section_title
;
Structure prediction by ZEFSAII (Michael W. Deem and Ramdas Pophale) SiO2 
 PCOD8132514
Probable space group: C 2/C
;
_chemical_formula_sum "Si O2"
_cell_formula_units_Z 44
_cell_length_a 11.386704
_cell_length_b 18.666775
_cell_length_c 14.717296
_cell_angle_alpha 90.000000
_cell_angle_beta 36.709447
_cell_angle_gamma 90.000000
_cell_volume 1869.908104
_symmetry_space_group_name_H-M "C 2/C"
_symmetry_group_IT_number 15
_symmetry_cell_setting 'monoclinic'
loop_
_space_group_symop_operation_xyz
x,y,z
-x,y,1/2-z
-x,-y,-z
x,-y,1/2+z
1/2+x,1/2+y,z
1/2-x,1/2+y,1/2-z
1/2-x,1/2-y,-z
1/2+x,1/2-y,1/2+z
loop_
_atom_site_type_symbol
_atom_site_label
_atom_site_fract_x
_atom_site_fract_y
_atom_site_fract_z
Si Si1 0.702676 0.931885 0.878896
Si Si2 0.069787 0.339901 0.110765
Si Si3 0.166559 0.499069 0.721488
Si Si4 0.986916 0.813242 0.618780
Si Si5 0.000000 0.052061 0.750000
Si Si6 0.509286 0.399426 0.438145
O O1 0.584086 0.961388 0.864727
O O2 0.839051 0.865065 0.763743
O O3 0.818797 0.998248 0.849759
O O4 0.545174 0.903843 0.051636
O O5 0.938061 0.270525 0.166074
O O6 0.000000 0.371084 0.250000
O O7 0.301175 0.325150 0.968585
O O8 0.351321 0.454876 0.572115
O O9 0.265799 0.576559 0.679970
O O10 0.000000 0.502331 0.750000
O O11 0.980665 0.826052 0.513202
O O12 0.023607 0.106039 0.649822
#
# Coordination Sequence:
#
# PCOD8132514 Si02
#       6
#     8   8   8   8   4   8
#     4  10  19  37  61  82 121 159 197 241 304 361
#     4  11  21  33  57  92 118 145 199 254 297 348
#     4   9  19  37  60  84 115 163 200 241 297 361
#     4  10  19  36  57  82 118 160 191 243 302 356
#     4  10  18  38  60  86 118 168 194 238 304 362
#     4   9  20  36  60  85 119 162 199 244 298 359
#
# _framework density 23.530567000000001
#
# number of rings (size 3 to 8) (size 9 to 14) (size 15 to 20)
#    0.000    2.182    1.818    3.273    0.000    0.727 
#    3.273    1.818    2.000    2.182    0.000    0.000 
#    0.000    0.000    0.000    0.000    0.000    0.000 
#
# Total GULP energy -272650.563139 kJ/mol
# GULP energy per Si atom -12393.207415 kJ/mol
# Density = 2.347701 g / cm^3
# Si number density = 23.530567 Si / 1000 Ang^3
#
#
#
# Elastic Constant Matrix: (Units=GPa)
#
#
# Indices 1 2 3 4 5 6 
#
# 1 168.5472 55.1225 61.3111 0.0192 38.6805 0.0014
# 2 55.1225 95.9491 40.7356 0.0058 19.8538 0.0080
# 3 61.3111 40.7356 107.8677 -0.1525 42.7506 0.0136
# 4 0.0192 0.0058 -0.1525 -293.2948 0.0502 12.9998
# 5 38.6805 19.8538 42.7506 0.0502 56.6783 -0.0039
# 6 0.0014 0.0080 0.0136 12.9998 -0.0039 33.2396
#
#
#
# Elastic Compliance Matrix: (Units=1/GPa)
#
#
# Indices 1 2 3 4 5 6 
#
# 1 0.008562 -0.003269 -0.002525 0.000001 -0.002794 0.000001
# 2 -0.003269 0.013714 -0.003283 0.000002 -0.000097 -0.000002
# 3 -0.002525 -0.003283 0.015415 -0.000010 -0.008754 -0.000003
# 4 0.000001 0.000002 -0.000010 -0.003351 0.000009 0.001311
# 5 -0.002794 -0.000097 -0.008754 0.000009 0.026187 0.000003
# 6 0.000001 -0.000002 -0.000003 0.001311 0.000003 0.029572
#
#
# Mechanical properties :
#
#
# Convention : Reuss Voigt Hill
#
# Bulk Modulus (GPa) = 51.18210 76.30026 63.74118
# Shear Modulus (GPa) = 43.56849 -26.32906 8.61971
#
# Velocity S-wave (km/s) = 4.30766 -3.34867 1.91602
# Velocity P-wave (km/s) = 6.82200 4.18867 5.66060
#
# Compressibility (1/GPa) = 0.01953808
#
# Stress axis : x y z
#
# Youngs Moduli (GPa) = 116.80089 72.91959 64.87329
#
# Poissons Ratio (x) = 0.23835 0.16379
# Poissons Ratio (y) = 0.38178 0.21295
# Poissons Ratio (z) = 0.29490 0.23936
#
# Static dielectric constant tensor:
#      x y z
#    x 4.571430 -0.000020 0.275790 
#    y -0.000020 4.299890 0.000040 
#    z 0.275790 0.000040 4.639130 
# 
# 
# High freq. dielectric constant tensor:
#      x y z
#    x 1.920620 0.000000 0.013730 
#    y 0.000000 1.912380 0.000000 
#    z 0.013730 0.000000 1.960820 
# 
# From -- ./inp_files/147003.got.cif
#   From: 2010.06.25/outbox.cif.g09.slc.cpg/sg15_74_cif.got.tgz:147003.got - 2010.06.28 07:06:18.
