data_PCOD8132333
_publ_section_title
;
Structure prediction by ZEFSAII (Michael W. Deem and Ramdas Pophale) SiO2 
 PCOD8132333
Probable space group: C 2/C
;
_chemical_formula_sum "Si O2"
_cell_formula_units_Z 60
_cell_length_a 21.471668
_cell_length_b 11.708896
_cell_length_c 20.031291
_cell_angle_alpha 90.000000
_cell_angle_beta 143.985794
_cell_angle_gamma 90.000000
_cell_volume 2961.130359
_symmetry_space_group_name_H-M "C 2/C"
_symmetry_group_IT_number 15
_symmetry_cell_setting 'monoclinic'
loop_
_space_group_symop_operation_xyz
x,y,z
-x,y,1/2-z
-x,-y,-z
x,-y,1/2+z
1/2+x,1/2+y,z
1/2-x,1/2+y,1/2-z
1/2-x,1/2-y,-z
1/2+x,1/2-y,1/2+z
loop_
_atom_site_type_symbol
_atom_site_label
_atom_site_fract_x
_atom_site_fract_y
_atom_site_fract_z
Si Si1 0.246646 0.280656 0.745708
Si Si2 0.944315 0.887143 0.974129
Si Si3 0.647325 0.845225 0.783596
Si Si4 0.129991 0.600316 0.725640
Si Si5 0.427875 0.217274 0.499634
Si Si6 0.000000 0.227992 0.750000
Si Si7 0.280035 0.660673 0.969310
Si Si8 0.845678 0.909395 0.031016
O O1 0.334540 0.375436 0.838724
O O2 0.180907 0.253579 0.756382
O O3 0.295953 0.158497 0.766529
O O4 0.174456 0.339272 0.625007
O O5 0.017035 0.781579 0.014905
O O6 0.923829 0.896498 0.035307
O O7 0.000000 0.000000 0.000000
O O8 0.536781 0.808852 0.720930
O O9 0.638499 0.964250 0.735198
O O10 0.734699 0.848853 0.917827
O O11 0.006995 0.629524 0.604469
O O12 0.172250 0.649487 0.832635
O O13 0.383014 0.300655 0.517256
O O14 0.098471 0.150036 0.857787
O O15 0.317914 0.538265 0.029757
O O16 0.250000 0.750000 0.000000
#
# Coordination Sequence:
#
# PCOD8132333 Si02
#       8
#     8   8   8   8   8   4   8   8
#     4   9  20  36  59  93 116 149 201 257 301 366
#     4  10  18  36  65  85 118 161 196 249 314 359
#     4  10  22  42  61  83 123 163 200 249 311 367
#     4   9  21  38  60  84 118 160 199 252 315 361
#     4  10  19  36  58  90 118 152 203 248 304 373
#     4  12  24  40  62  88 120 164 216 242 296 368
#     4  10  21  37  56  84 125 158 200 247 306 366
#     4  10  22  40  60  89 117 161 207 253 299 362
#
# _framework density 20.262532
#
# number of rings (size 3 to 8) (size 9 to 14) (size 15 to 20)
#    0.000    2.133    1.333    1.200    1.867    4.267 
#    2.400    0.000    0.000    0.000    0.000    0.000 
#    0.000    0.000    0.000    0.000    0.000    0.000 
#
# Total GULP energy -371788.654331 kJ/mol
# GULP energy per Si atom -12392.955144 kJ/mol
# Density = 2.021641 g / cm^3
# Si number density = 20.262532 Si / 1000 Ang^3
#
#
#
# Elastic Constant Matrix: (Units=GPa)
#
#
# Indices 1 2 3 4 5 6 
#
# 1 99.9736 47.3446 22.0133 0.0000 2.0213 0.0000
# 2 47.3446 95.0608 48.9169 0.0000 -7.0996 0.0000
# 3 22.0133 48.9169 113.4147 0.0000 9.6914 0.0000
# 4 0.0000 0.0000 0.0000 27.4375 0.0000 -2.6084
# 5 2.0213 -7.0996 9.6914 0.0000 25.9464 0.0000
# 6 0.0000 0.0000 0.0000 -2.6084 0.0000 33.0406
#
#
#
# Elastic Compliance Matrix: (Units=1/GPa)
#
#
# Indices 1 2 3 4 5 6 
#
# 1 0.013362 -0.007353 0.000866 0.000000 -0.003377 0.000000
# 2 -0.007353 0.018561 -0.007294 0.000000 0.008376 0.000000
# 3 0.000866 -0.007294 0.012366 0.000000 -0.006682 0.000000
# 4 0.000000 0.000000 0.000000 0.036722 0.000000 0.002899
# 5 -0.003377 0.008376 -0.006682 0.000000 0.043592 0.000000
# 6 0.000000 0.000000 0.000000 0.002899 0.000000 0.030495
#
#
# Mechanical properties :
#
#
# Convention : Reuss Voigt Hill
#
# Bulk Modulus (GPa) = 59.78075 60.55541 60.16808
# Shear Modulus (GPa) = 26.56263 29.96319 28.26291
#
# Velocity S-wave (km/s) = 3.62460 3.84962 3.73880
# Velocity P-wave (km/s) = 6.86178 7.05051 6.95679
#
# Compressibility (1/GPa) = 0.01672779
#
# Stress axis : x y z
#
# Youngs Moduli (GPa) = 74.83722 53.87753 80.86717
#
# Poissons Ratio (x) = 0.39616 -0.07006
# Poissons Ratio (y) = 0.55028 0.58984
# Poissons Ratio (z) = -0.06484 0.39298
#
# Static dielectric constant tensor:
#      x y z
#    x 3.714540 0.000000 0.166300 
#    y 0.000000 3.434210 0.000000 
#    z 0.166300 0.000000 3.838210 
# 
# 
# High freq. dielectric constant tensor:
#      x y z
#    x 1.789910 0.000000 0.009670 
#    y 0.000000 1.772140 0.000000 
#    z 0.009670 0.000000 1.800850 
# 
# From -- ./inp_files/215209.got.cif
#   From: 2010.06.25/outbox.cif.g09.slc.cpg/sg15_108_cif.got.tgz:215209.got - 2010.06.28 07:06:18.
