data_PCOD8132151
_publ_section_title
;
Structure prediction by ZEFSAII (Michael W. Deem and Ramdas Pophale) SiO2 
 PCOD8132151
Probable space group: C 2/C
;
_chemical_formula_sum "Si O2"
_cell_formula_units_Z 48
_cell_length_a 15.572361
_cell_length_b 8.964351
_cell_length_c 19.283784
_cell_angle_alpha 90.000000
_cell_angle_beta 108.055408
_cell_angle_gamma 90.000000
_cell_volume 2559.382604
_symmetry_space_group_name_H-M "C 2/C"
_symmetry_group_IT_number 15
_symmetry_cell_setting 'monoclinic'
loop_
_space_group_symop_operation_xyz
x,y,z
-x,y,1/2-z
-x,-y,-z
x,-y,1/2+z
1/2+x,1/2+y,z
1/2-x,1/2+y,1/2-z
1/2-x,1/2-y,-z
1/2+x,1/2-y,1/2+z
loop_
_atom_site_type_symbol
_atom_site_label
_atom_site_fract_x
_atom_site_fract_y
_atom_site_fract_z
Si Si1 0.727022 0.167084 0.425046
Si Si2 0.154458 0.838113 0.669699
Si Si3 0.961677 0.149363 0.171431
Si Si4 0.265749 0.354391 0.286616
Si Si5 0.792946 0.678283 0.578564
Si Si6 0.904076 0.825352 0.205690
O O1 0.750000 0.250000 0.500000
O O2 0.817163 0.195250 0.401934
O O3 0.638341 0.238220 0.368870
O O4 0.702434 0.996804 0.434106
O O5 0.172956 0.696992 0.725238
O O6 0.049033 0.885751 0.644624
O O7 0.224489 0.967282 0.711373
O O8 0.893296 0.254921 0.113051
O O9 0.000000 0.231120 0.250000
O O10 0.911813 0.998919 0.184981
O O11 0.265576 0.291739 0.365861
O O12 0.348041 0.294109 0.261516
O O13 0.750000 0.750000 0.500000
O O14 0.000000 0.756782 0.250000
#
# Coordination Sequence:
#
# PCOD8132151 Si02
#       6
#     8   8   8   8   8   8
#     4  10  23  41  57  82 121 158 193 235 296 344
#     4  10  20  36  62  88 114 152 194 238 290 349
#     4  11  19  38  64  90 116 145 197 243 290 346
#     4  10  18  36  57  89 111 152 188 235 292 346
#     4  11  23  38  59  84 121 157 194 241 292 341
#     4  10  19  36  64  86 117 144 192 241 293 348
#
# _framework density 18.754522000000001
#
# number of rings (size 3 to 8) (size 9 to 14) (size 15 to 20)
#    0.000    1.667    5.000    1.000    0.000    2.000 
#    6.000    3.333    0.000    0.000    0.000    0.000 
#    0.000    0.000    0.000    0.000    0.000    0.000 
#
# Total GULP energy -297404.476207 kJ/mol
# GULP energy per Si atom -12391.853175 kJ/mol
# Density = 1.871184 g / cm^3
# Si number density = 18.754522 Si / 1000 Ang^3
#
#
#
# Elastic Constant Matrix: (Units=GPa)
#
#
# Indices 1 2 3 4 5 6 
#
# 1 115.1572 49.8654 69.2435 0.0000 2.4682 0.0000
# 2 49.8654 96.2535 75.4453 0.0000 4.1648 0.0000
# 3 69.2435 75.4453 162.3366 0.0000 0.5519 0.0000
# 4 0.0000 0.0000 0.0000 35.2538 0.0000 2.9903
# 5 2.4682 4.1648 0.5519 0.0000 29.5231 0.0000
# 6 0.0000 0.0000 0.0000 2.9903 0.0000 26.0602
#
#
#
# Elastic Compliance Matrix: (Units=1/GPa)
#
#
# Indices 1 2 3 4 5 6 
#
# 1 0.012427 -0.003562 -0.003644 0.000000 -0.000468 0.000000
# 2 -0.003562 0.017503 -0.006608 0.000000 -0.002048 0.000000
# 3 -0.003644 -0.006608 0.010782 0.000000 0.001035 0.000000
# 4 0.000000 0.000000 0.000000 0.028645 0.000000 -0.003287
# 5 -0.000468 -0.002048 0.001035 0.000000 0.034180 0.000000
# 6 0.000000 0.000000 0.000000 -0.003287 0.000000 0.038750
#
#
# Mechanical properties :
#
#
# Convention : Reuss Voigt Hill
#
# Bulk Modulus (GPa) = 76.42710 84.76174 80.59442
# Shear Modulus (GPa) = 28.69030 30.11362 29.40196
#
# Velocity S-wave (km/s) = 3.91548 4.01143 3.96375
# Velocity P-wave (km/s) = 7.82823 8.17000 8.00094
#
# Compressibility (1/GPa) = 0.01308436
#
# Stress axis : x y z
#
# Youngs Moduli (GPa) = 80.46926 57.13457 92.74849
#
# Poissons Ratio (x) = 0.20349 0.33796
# Poissons Ratio (y) = 0.28660 0.61289
# Poissons Ratio (z) = 0.29322 0.37755
#
# Static dielectric constant tensor:
#      x y z
#    x 3.529100 0.000000 -0.103810 
#    y 0.000000 3.478490 0.000000 
#    z -0.103810 0.000000 3.462420 
# 
# 
# High freq. dielectric constant tensor:
#      x y z
#    x 1.732060 0.000000 -0.012340 
#    y 0.000000 1.721620 0.000000 
#    z -0.012340 0.000000 1.722910 
# 
# From -- ./inp_files/242584.got.cif
#   From: 2010.06.25/outbox.cif.g09.slc.cpg/sg15_122_cif.got.tgz:242584.got - 2010.06.28 07:06:18.
