data_PCOD8132722
_publ_section_title
;
Structure prediction by ZEFSAII (Michael W. Deem and Ramdas Pophale) SiO2 
 PCOD8132722
Probable space group: C 2/C
;
_chemical_formula_sum "Si O2"
_cell_formula_units_Z 60
_cell_length_a 20.599248
_cell_length_b 9.963939
_cell_length_c 21.331293
_cell_angle_alpha 90.000000
_cell_angle_beta 39.432813
_cell_angle_gamma 90.000000
_cell_volume 2780.939890
_symmetry_space_group_name_H-M "C 2/C"
_symmetry_group_IT_number 15
_symmetry_cell_setting 'monoclinic'
loop_
_space_group_symop_operation_xyz
x,y,z
-x,y,1/2-z
-x,-y,-z
x,-y,1/2+z
1/2+x,1/2+y,z
1/2-x,1/2+y,1/2-z
1/2-x,1/2-y,-z
1/2+x,1/2-y,1/2+z
loop_
_atom_site_type_symbol
_atom_site_label
_atom_site_fract_x
_atom_site_fract_y
_atom_site_fract_z
Si Si1 0.155072 0.891655 0.033943
Si Si2 0.818455 0.402048 0.013705
Si Si3 0.377156 0.766207 0.179062
Si Si4 0.970978 0.535195 0.093828
Si Si5 0.161227 0.025035 0.215976
Si Si6 0.435841 0.410147 0.001569
Si Si7 0.500000 0.427752 0.250000
Si Si8 0.838466 0.799580 0.187956
O O1 0.257086 0.940250 0.995603
O O2 0.067079 0.843233 0.149651
O O3 0.183548 0.759088 0.973555
O O4 0.113510 0.010315 0.020332
O O5 0.768725 0.471850 0.111226
O O6 0.933267 0.456651 0.930250
O O7 0.331360 0.679855 0.270338
O O8 0.279019 0.764274 0.205037
O O9 0.398100 0.921796 0.178075
O O10 0.484714 0.705187 0.077465
O O11 0.912323 0.674900 0.144215
O O12 0.000000 0.500000 0.000000
O O13 0.122426 0.926896 0.300646
O O14 0.077824 0.027477 0.224479
O O15 0.344804 0.342607 0.109743
O O16 0.500000 0.500000 0.000000
#
# Coordination Sequence:
#
# PCOD8132722 Si02
#       8
#     8   8   8   8   8   8   4   8
#     4  10  22  41  71 104 132 182 228 289 341 410
#     4  10  23  43  68 100 138 178 229 281 347 405
#     4  12  25  41  61  99 132 177 223 271 346 400
#     4  12  24  40  64  95 138 174 221 285 338 394
#     4  11  23  40  67  93 132 173 224 273 340 406
#     4  12  23  41  68  98 136 174 232 278 344 406
#     4  10  18  40  64  98 128 170 224 274 330 418
#     4  12  25  41  66  99 132 176 228 287 336 406
#
# _framework density 21.575441000000001
#
# number of rings (size 3 to 8) (size 9 to 14) (size 15 to 20)
#    0.000    0.800    4.000    4.000    1.867    0.000 
#    0.000    3.333    0.000    0.800    0.000    0.000 
#    0.000    0.000    0.000    0.000    0.000    0.000 
#
# Total GULP energy -371677.178021 kJ/mol
# GULP energy per Si atom -12389.239267 kJ/mol
# Density = 2.152633 g / cm^3
# Si number density = 21.575441 Si / 1000 Ang^3
#
#
#
# Elastic Constant Matrix: (Units=GPa)
#
#
# Indices 1 2 3 4 5 6 
#
# 1 124.6711 42.8563 52.4102 0.0000 -23.4857 0.0000
# 2 42.8563 107.6958 55.9414 0.0001 2.7781 -0.0001
# 3 52.4102 55.9414 86.1684 0.0000 -10.0044 0.0000
# 4 0.0000 0.0001 0.0000 39.9958 0.0000 -6.9702
# 5 -23.4857 2.7781 -10.0044 0.0000 37.1332 0.0000
# 6 0.0000 -0.0001 0.0000 -6.9702 0.0000 24.2583
#
#
#
# Elastic Compliance Matrix: (Units=1/GPa)
#
#
# Indices 1 2 3 4 5 6 
#
# 1 0.012224 -0.002360 -0.005146 0.000000 0.006521 0.000000
# 2 -0.002360 0.014951 -0.008851 0.000000 -0.004996 0.000000
# 3 -0.005146 -0.008851 0.020832 0.000000 0.003020 0.000000
# 4 0.000000 0.000000 0.000000 0.026321 0.000000 0.007563
# 5 0.006521 -0.004996 0.003020 0.000000 0.032242 0.000000
# 6 0.000000 0.000000 0.000000 0.007563 0.000000 0.043396
#
#
# Mechanical properties :
#
#
# Convention : Reuss Voigt Hill
#
# Bulk Modulus (GPa) = 65.38710 68.99459 67.19084
# Shear Modulus (GPa) = 26.62735 31.43263 29.02999
#
# Velocity S-wave (km/s) = 3.51686 3.82104 3.67210
# Velocity P-wave (km/s) = 6.84566 7.17738 7.01349
#
# Compressibility (1/GPa) = 0.01529354
#
# Stress axis : x y z
#
# Youngs Moduli (GPa) = 81.80580 66.88579 48.00312
#
# Poissons Ratio (x) = 0.15783 0.24702
# Poissons Ratio (y) = 0.19303 0.42488
# Poissons Ratio (z) = 0.42097 0.59201
#
# Static dielectric constant tensor:
#      x y z
#    x 4.004340 0.000000 -0.082450 
#    y 0.000000 4.294340 -0.000010 
#    z -0.082450 -0.000010 4.636890 
# 
# 
# High freq. dielectric constant tensor:
#      x y z
#    x 1.849650 0.000000 -0.022790 
#    y 0.000000 1.838790 0.000000 
#    z -0.022790 0.000000 1.850230 
# 
# From -- ./inp_files/279694.got.cif
#   From: 2010.06.25/outbox.cif.g09.slc.cpg/sg15_140_cif.got.tgz:279694.got - 2010.06.28 07:06:18.
