data_PCOD8132362
_publ_section_title
;
Structure prediction by ZEFSAII (Michael W. Deem and Ramdas Pophale) SiO2 
 PCOD8132362
Probable space group: C 2/C
;
_chemical_formula_sum "Si O2"
_cell_formula_units_Z 44
_cell_length_a 18.607550
_cell_length_b 15.825896
_cell_length_c 8.517386
_cell_angle_alpha 90.000000
_cell_angle_beta 127.636860
_cell_angle_gamma 90.000000
_cell_volume 1986.243573
_symmetry_space_group_name_H-M "C 2/C"
_symmetry_group_IT_number 15
_symmetry_cell_setting 'monoclinic'
loop_
_space_group_symop_operation_xyz
x,y,z
-x,y,1/2-z
-x,-y,-z
x,-y,1/2+z
1/2+x,1/2+y,z
1/2-x,1/2+y,1/2-z
1/2-x,1/2-y,-z
1/2+x,1/2-y,1/2+z
loop_
_atom_site_type_symbol
_atom_site_label
_atom_site_fract_x
_atom_site_fract_y
_atom_site_fract_z
Si Si1 0.191308 0.632462 0.992918
Si Si2 0.844643 0.956350 0.849293
Si Si3 0.500000 0.183100 0.750000
Si Si4 0.041185 0.196898 0.016150
Si Si5 0.782161 0.286757 0.288135
Si Si6 0.357889 0.379933 0.203277
O O1 0.246783 0.552904 0.133185
O O2 0.222126 0.717075 0.121783
O O3 0.202368 0.639038 0.818869
O O4 0.085081 0.621366 0.891632
O O5 0.916163 0.891435 0.865132
O O6 0.876952 0.052757 0.868983
O O7 0.836050 0.934527 0.020956
O O8 0.482556 0.244391 0.871438
O O9 0.122293 0.244642 0.025199
O O10 0.948927 0.176247 0.796475
O O11 0.728425 0.322122 0.367398
#
# Coordination Sequence:
#
# PCOD8132362 Si02
#       6
#     8   8   4   8   8   8
#     4   9  18  37  59  93 115 165 207 245 307 365
#     4  11  25  37  60  92 128 165 201 254 316 366
#     4  10  18  36  68  86 122 166 204 258 290 378
#     4  10  22  36  61  96 119 166 206 249 309 369
#     4   9  19  37  62  85 126 161 209 246 303 374
#     4  12  23  41  61  90 134 164 200 259 307 371
#
# _framework density 22.152370999999999
#
# number of rings (size 3 to 8) (size 9 to 14) (size 15 to 20)
#    0.000    1.818    1.818    3.273    2.545    2.909 
#    3.273    0.000    0.000    9.818    0.000    0.000 
#    0.000    0.000    0.000    0.000    0.000    0.000 
#
# Total GULP energy -272698.007421 kJ/mol
# GULP energy per Si atom -12395.363974 kJ/mol
# Density = 2.210195 g / cm^3
# Si number density = 22.152371 Si / 1000 Ang^3
#
#
#
# Elastic Constant Matrix: (Units=GPa)
#
#
# Indices 1 2 3 4 5 6 
#
# 1 146.6769 34.2048 56.6247 0.0000 35.3142 0.0000
# 2 34.2048 52.4444 31.2913 0.0000 10.8021 0.0000
# 3 56.6247 31.2913 108.8936 0.0000 26.5971 0.0000
# 4 0.0000 0.0000 0.0000 26.8330 0.0000 -0.5391
# 5 35.3142 10.8021 26.5971 0.0000 33.4486 0.0000
# 6 0.0000 0.0000 0.0000 -0.5391 0.0000 26.5034
#
#
#
# Elastic Compliance Matrix: (Units=1/GPa)
#
#
# Indices 1 2 3 4 5 6 
#
# 1 0.010572 -0.003783 -0.002460 0.000000 -0.007983 0.000000
# 2 -0.003783 0.024565 -0.005125 0.000000 0.000136 0.000000
# 3 -0.002460 -0.005125 0.013523 0.000000 -0.006500 0.000000
# 4 0.000000 0.000000 0.000000 0.037283 0.000000 0.000758
# 5 -0.007983 0.000136 -0.006500 0.000000 0.043450 0.000000
# 6 0.000000 0.000000 0.000000 0.000758 0.000000 0.037746
#
#
# Mechanical properties :
#
#
# Convention : Reuss Voigt Hill
#
# Bulk Modulus (GPa) = 38.57503 61.36184 49.96844
# Shear Modulus (GPa) = 25.18683 29.74995 27.46839
#
# Velocity S-wave (km/s) = 3.37557 3.66863 3.52515
# Velocity P-wave (km/s) = 5.71349 6.76056 6.25896
#
# Compressibility (1/GPa) = 0.02592350
#
# Stress axis : x y z
#
# Youngs Moduli (GPa) = 94.59182 40.70863 73.94745
#
# Poissons Ratio (x) = 0.15398 0.18194
# Poissons Ratio (y) = 0.35780 0.37898
# Poissons Ratio (z) = 0.23274 0.20863
#
# Static dielectric constant tensor:
#      x y z
#    x 4.381140 0.000000 0.321060 
#    y 0.000000 3.770110 0.000000 
#    z 0.321060 0.000000 4.081350 
# 
# 
# High freq. dielectric constant tensor:
#      x y z
#    x 1.886330 0.000000 0.004090 
#    y 0.000000 1.840480 0.000000 
#    z 0.004090 0.000000 1.868130 
# 
# From -- ./inp_files/39035.got.cif
#   From: 2010.06.25/outbox.cif.g09.slc.cpg/sg15_20_cif.got.tgz:39035.got - 2010.06.28 07:06:18.
