data_PCOD8132115
_publ_section_title
;
Structure prediction by ZEFSAII (Michael W. Deem and Ramdas Pophale) SiO2 
 PCOD8132115
Probable space group: C 2/C
;
_chemical_formula_sum "Si O2"
_cell_formula_units_Z 56
_cell_length_a 26.943113
_cell_length_b 18.512411
_cell_length_c 15.944561
_cell_angle_alpha 90.000000
_cell_angle_beta 22.610071
_cell_angle_gamma 90.000000
_cell_volume 3057.537296
_symmetry_space_group_name_H-M "C 2/C"
_symmetry_group_IT_number 15
_symmetry_cell_setting 'monoclinic'
loop_
_space_group_symop_operation_xyz
x,y,z
-x,y,1/2-z
-x,-y,-z
x,-y,1/2+z
1/2+x,1/2+y,z
1/2-x,1/2+y,1/2-z
1/2-x,1/2-y,-z
1/2+x,1/2-y,1/2+z
loop_
_atom_site_type_symbol
_atom_site_label
_atom_site_fract_x
_atom_site_fract_y
_atom_site_fract_z
Si Si1 0.852884 0.810799 0.343385
Si Si2 0.866622 0.237270 0.072767
Si Si3 0.284795 0.820460 0.361299
Si Si4 0.541055 0.231807 0.778379
Si Si5 0.349620 0.398821 0.501140
Si Si6 0.334996 0.330514 0.184561
Si Si7 0.644394 0.560007 0.987772
O O1 0.750000 0.750000 0.500000
O O2 0.795839 0.871575 0.495133
O O3 0.875460 0.845792 0.216791
O O4 0.980691 0.771279 0.178415
O O5 0.833277 0.259672 0.219765
O O6 0.811528 0.299550 0.096022
O O7 0.809228 0.157789 0.137422
O O8 0.394468 0.830136 0.262789
O O9 0.147806 0.794533 0.610311
O O10 0.254073 0.898027 0.369612
O O11 0.500000 0.202693 0.750000
O O12 0.415461 0.265773 0.016415
O O13 0.500000 0.404086 0.250000
O O14 0.301538 0.478446 0.601323
O O15 0.357230 0.406077 0.102644
O O16 0.500000 0.566382 0.250000
#
# Coordination Sequence:
#
# PCOD8132115 Si02
#       7
#     8   8   8   8   8   8   8
#     4  11  21  35  56  83 107 139 190 231 266 317
#     4  10  19  34  54  84 104 141 187 224 266 320
#     4  10  19  30  56  83 108 140 182 223 270 332
#     4  11  18  31  51  84 110 137 180 227 270 312
#     4   9  20  35  54  79 116 145 176 226 276 321
#     4  11  19  33  57  81 112 141 184 221 272 328
#     4  10  18  36  54  79 118 145 171 227 287 329
#
# _framework density 18.315394000000001
#
# number of rings (size 3 to 8) (size 9 to 14) (size 15 to 20)
#    0.000    1.714    7.143    0.000    0.000    0.000 
#    0.000    9.286    0.000    7.714    0.000    0.000 
#    0.000    0.000    0.000    0.000    0.000    0.000 
#
# Total GULP energy -346918.094294 kJ/mol
# GULP energy per Si atom -12389.931939 kJ/mol
# Density = 1.827371 g / cm^3
# Si number density = 18.315394 Si / 1000 Ang^3
#
#
#
# Elastic Constant Matrix: (Units=GPa)
#
#
# Indices 1 2 3 4 5 6 
#
# 1 146.3134 56.0006 28.0162 0.0004 -3.4639 -0.0001
# 2 56.0006 131.9376 33.5945 0.0008 4.1726 -0.0003
# 3 28.0162 33.5945 47.4927 0.0012 -0.7084 -0.0007
# 4 0.0004 0.0008 0.0012 22.0836 -0.0006 2.1710
# 5 -3.4639 4.1726 -0.7084 -0.0006 21.8466 0.0003
# 6 -0.0001 -0.0003 -0.0007 2.1710 0.0003 25.2378
#
#
#
# Elastic Compliance Matrix: (Units=1/GPa)
#
#
# Indices 1 2 3 4 5 6 
#
# 1 0.008569 -0.002945 -0.002944 0.000000 0.001826 0.000000
# 2 -0.002945 0.010343 -0.005618 0.000000 -0.002625 0.000000
# 3 -0.002944 -0.005618 0.026789 -0.000001 0.001475 0.000001
# 4 0.000000 0.000000 -0.000001 0.045669 0.000001 -0.003929
# 5 0.001826 -0.002625 0.001475 0.000001 0.046612 -0.000001
# 6 0.000000 0.000000 0.000001 -0.003929 -0.000001 0.039961
#
#
# Mechanical properties :
#
#
# Convention : Reuss Voigt Hill
#
# Bulk Modulus (GPa) = 44.08081 62.32960 53.20520
# Shear Modulus (GPa) = 23.97862 27.70909 25.84386
#
# Velocity S-wave (km/s) = 3.62222 3.89380 3.76046
# Velocity P-wave (km/s) = 6.45088 7.37026 6.92584
#
# Compressibility (1/GPa) = 0.02268561
#
# Stress axis : x y z
#
# Youngs Moduli (GPa) = 116.70165 96.68524 37.32919
#
# Poissons Ratio (x) = 0.28474 0.10991
# Poissons Ratio (y) = 0.34369 0.20971
# Poissons Ratio (z) = 0.34361 0.54317
#
# Static dielectric constant tensor:
#      x y z
#    x 4.020710 0.000000 -0.127100 
#    y 0.000000 3.333320 0.000000 
#    z -0.127100 0.000000 3.277090 
# 
# 
# High freq. dielectric constant tensor:
#      x y z
#    x 1.725790 0.000000 -0.002340 
#    y 0.000000 1.673920 0.000000 
#    z -0.002340 0.000000 1.698070 
# 
# From -- ./inp_files/225682.got.cif
#   From: 2010.06.25/outbox.cif.g09.slc.cpg/sg15_113_cif.got.tgz:225682.got - 2010.06.28 07:06:18.
