data_PCOD8132965
_publ_section_title
;
Structure prediction by ZEFSAII (Michael W. Deem and Ramdas Pophale) SiO2 
 PCOD8132965
Probable space group: C 2/C
;
_chemical_formula_sum "Si O2"
_cell_formula_units_Z 64
_cell_length_a 8.541653
_cell_length_b 20.406509
_cell_length_c 32.623391
_cell_angle_alpha 90.000000
_cell_angle_beta 141.192443
_cell_angle_gamma 90.000000
_cell_volume 3563.723547
_symmetry_space_group_name_H-M "C 2/C"
_symmetry_group_IT_number 15
_symmetry_cell_setting 'monoclinic'
loop_
_space_group_symop_operation_xyz
x,y,z
-x,y,1/2-z
-x,-y,-z
x,-y,1/2+z
1/2+x,1/2+y,z
1/2-x,1/2+y,1/2-z
1/2-x,1/2-y,-z
1/2+x,1/2-y,1/2+z
loop_
_atom_site_type_symbol
_atom_site_label
_atom_site_fract_x
_atom_site_fract_y
_atom_site_fract_z
Si Si1 0.511516 0.907102 0.427645
Si Si2 0.405957 0.749801 0.607028
Si Si3 0.945453 0.818205 0.613756
Si Si4 0.087617 0.557337 0.425538
Si Si5 0.605012 0.860779 0.009600
Si Si6 0.698309 0.700510 0.826947
Si Si7 0.552155 0.366596 0.550754
Si Si8 0.168410 0.846733 0.823543
O O1 0.417687 0.906823 0.455291
O O2 0.309810 0.871957 0.357148
O O3 0.769302 0.866948 0.477166
O O4 0.548751 0.980818 0.421454
O O5 0.333158 0.689851 0.562384
O O6 0.443280 0.725512 0.661260
O O7 0.182687 0.802364 0.559015
O O8 0.660701 0.781445 0.642646
O O9 0.644713 0.817518 0.548095
O O10 0.006240 0.845674 0.671573
O O11 0.065160 0.746592 0.634499
O O12 0.061438 0.865664 0.602445
O O13 0.165193 0.591778 0.484033
O O14 0.304576 0.568940 0.436180
O O15 0.831807 0.587689 0.356556
O O16 0.500000 0.698778 0.750000
O O17 0.000000 0.849141 0.750000
#
# Coordination Sequence:
#
# PCOD8132965 Si02
#       8
#     8   8   8   8   8   8   8   8
#     4  10  19  32  49  71  98 129 162 196 237 288
#     4   9  18  32  50  73  96 119 157 203 247 287
#     4   9  18  32  51  73  97 122 156 202 248 285
#     4  10  20  32  49  71  98 130 162 197 237 287
#     4   9  18  32  51  73  96 123 158 205 250 283
#     4  10  19  31  49  72  98 129 159 194 238 288
#     4   9  18  32  50  73  96 120 156 203 249 285
#     4  10  20  33  50  72  98 130 161 194 236 287
#
# _framework density 17.958745
#
# number of rings (size 3 to 8) (size 9 to 14) (size 15 to 20)
#    0.000    2.500    0.000    2.250    0.000    9.000 
#    0.000    0.000    0.000    0.000    0.000    5.250 
#    0.000    0.000    0.000    0.000    0.000    0.000 
#
# Total GULP energy -396706.597008 kJ/mol
# GULP energy per Si atom -12397.081156 kJ/mol
# Density = 1.791787 g / cm^3
# Si number density = 17.958745 Si / 1000 Ang^3
#
#
#
# Elastic Constant Matrix: (Units=GPa)
#
#
# Indices 1 2 3 4 5 6 
#
# 1 84.4399 30.1922 36.5983 0.0004 -15.0660 0.0002
# 2 30.1922 95.0466 52.6779 0.0005 -10.8750 0.0001
# 3 36.5983 52.6779 104.2901 -0.0010 -13.7583 0.0002
# 4 0.0004 0.0005 -0.0010 13.0293 0.0002 -2.9029
# 5 -15.0660 -10.8750 -13.7583 0.0002 13.9420 0.0002
# 6 0.0002 0.0001 0.0002 -2.9029 0.0002 22.1003
#
#
#
# Elastic Compliance Matrix: (Units=1/GPa)
#
#
# Indices 1 2 3 4 5 6 
#
# 1 0.016154 -0.002018 -0.002936 -0.000001 0.012984 0.000000
# 2 -0.002018 0.015140 -0.006517 -0.000001 0.003197 0.000000
# 3 -0.002936 -0.006517 0.014741 0.000001 0.006290 0.000000
# 4 -0.000001 -0.000001 0.000001 0.079064 -0.000002 0.010385
# 5 0.012984 0.003197 0.006290 -0.000002 0.094458 -0.000001
# 6 0.000000 0.000000 0.000000 0.010385 -0.000001 0.046612
#
#
# Mechanical properties :
#
#
# Convention : Reuss Voigt Hill
#
# Bulk Modulus (GPa) = 43.30767 58.07926 50.69346
# Shear Modulus (GPa) = 16.84579 20.76819 18.80699
#
# Velocity S-wave (km/s) = 3.06605 3.40433 3.23961
# Velocity P-wave (km/s) = 6.05819 6.91833 6.50249
#
# Compressibility (1/GPa) = 0.02309060
#
# Stress axis : x y z
#
# Youngs Moduli (GPa) = 61.90509 66.04911 67.83844
#
# Poissons Ratio (x) = 0.13330 0.19921
# Poissons Ratio (y) = 0.12494 0.44213
# Poissons Ratio (z) = 0.18178 0.43047
#
# Static dielectric constant tensor:
#      x y z
#    x 3.549160 0.000000 -0.161520 
#    y 0.000000 3.159870 0.000000 
#    z -0.161520 0.000000 3.256300 
# 
# 
# High freq. dielectric constant tensor:
#      x y z
#    x 1.702440 0.000000 -0.012860 
#    y 0.000000 1.678020 0.000000 
#    z -0.012860 0.000000 1.684870 
# 
# From -- ./inp_files/289992.got.cif
#   From: 2010.06.25/outbox.cif.g09.slc.cpg/sg15_145_cif.got.tgz:289992.got - 2010.06.28 07:06:18.
