data_PCOD8132558
_publ_section_title
;
Structure prediction by ZEFSAII (Michael W. Deem and Ramdas Pophale) SiO2 
 PCOD8132558
Probable space group: C 2/C
;
_chemical_formula_sum "Si O2"
_cell_formula_units_Z 56
_cell_length_a 12.847257
_cell_length_b 19.399852
_cell_length_c 25.568855
_cell_angle_alpha 90.000000
_cell_angle_beta 153.061354
_cell_angle_gamma 90.000000
_cell_volume 2887.040935
_symmetry_space_group_name_H-M "C 2/C"
_symmetry_group_IT_number 15
_symmetry_cell_setting 'monoclinic'
loop_
_space_group_symop_operation_xyz
x,y,z
-x,y,1/2-z
-x,-y,-z
x,-y,1/2+z
1/2+x,1/2+y,z
1/2-x,1/2+y,1/2-z
1/2-x,1/2-y,-z
1/2+x,1/2-y,1/2+z
loop_
_atom_site_type_symbol
_atom_site_label
_atom_site_fract_x
_atom_site_fract_y
_atom_site_fract_z
Si Si1 0.856860 0.128953 0.239241
Si Si2 0.740344 0.905588 0.509360
Si Si3 0.656889 0.669223 0.870726
Si Si4 0.564930 0.039010 0.476928
Si Si5 0.585886 0.835504 0.344333
Si Si6 0.731019 0.258105 0.244074
Si Si7 0.465856 0.775344 0.027002
O O1 0.720939 0.196967 0.197422
O O2 0.000000 0.143727 0.250000
O O3 0.006463 0.098914 0.353578
O O4 0.670043 0.071298 0.147114
O O5 0.736732 0.889862 0.445229
O O6 0.590885 0.850413 0.475198
O O7 0.645907 0.982689 0.471429
O O8 0.500000 0.655451 0.750000
O O9 0.731740 0.595107 0.926476
O O10 0.520930 0.715733 0.851990
O O11 0.883657 0.712990 0.957435
O O12 0.500000 0.000000 0.500000
O O13 0.500000 0.863836 0.250000
O O14 0.353263 0.822968 0.271992
O O15 0.733335 0.764422 0.406832
O O16 0.886133 0.233678 0.363395
#
# Coordination Sequence:
#
# PCOD8132558 Si02
#       7
#     8   8   8   8   8   8   8
#     4  12  22  37  65  94 125 167 207 256 312 386
#     4  11  22  40  61  92 130 165 211 252 308 379
#     4  10  23  38  60  95 137 159 197 266 327 365
#     4  12  25  37  61  94 131 168 200 249 324 389
#     4  11  22  38  66  90 120 167 223 259 301 364
#     4  10  21  37  61  93 127 162 205 266 319 364
#     4  10  18  38  62  92 126 160 208 262 314 373
#
# _framework density 19.397023999999998
#
# number of rings (size 3 to 8) (size 9 to 14) (size 15 to 20)
#    0.000    1.143    5.714    1.286    4.000    0.571 
#    0.000    0.000    0.000    6.000    0.000    0.000 
#    0.000    0.000    0.000    0.000    0.000    0.000 
#
# Total GULP energy -347110.815644 kJ/mol
# GULP energy per Si atom -12396.814844 kJ/mol
# Density = 1.935288 g / cm^3
# Si number density = 19.397024 Si / 1000 Ang^3
#
#
#
# Elastic Constant Matrix: (Units=GPa)
#
#
# Indices 1 2 3 4 5 6 
#
# 1 104.2810 58.0281 65.5277 0.0031 -1.1044 0.0006
# 2 58.0281 112.0129 56.1437 -0.0019 -2.8490 -0.0008
# 3 65.5277 56.1437 110.6362 -0.0237 -9.6825 -0.0035
# 4 0.0031 -0.0019 -0.0237 34.8518 0.0032 -1.0668
# 5 -1.1044 -2.8490 -9.6825 0.0032 38.4219 0.0000
# 6 0.0006 -0.0008 -0.0035 -1.0668 0.0000 28.3104
#
#
#
# Elastic Compliance Matrix: (Units=1/GPa)
#
#
# Indices 1 2 3 4 5 6 
#
# 1 0.017334 -0.005096 -0.007843 -0.000007 -0.001856 -0.000002
# 2 -0.005096 0.013487 -0.003836 -0.000001 -0.000113 0.000000
# 3 -0.007843 -0.003836 0.015937 0.000011 0.003506 0.000002
# 4 -0.000007 -0.000001 0.000011 0.028726 0.000000 0.001083
# 5 -0.001856 -0.000113 0.003506 0.000000 0.026849 0.000000
# 6 -0.000002 0.000000 0.000002 0.001083 0.000000 0.035363
#
#
# Mechanical properties :
#
#
# Convention : Reuss Voigt Hill
#
# Bulk Modulus (GPa) = 75.70714 76.25879 75.98296
# Shear Modulus (GPa) = 28.46584 30.13220 29.29902
#
# Velocity S-wave (km/s) = 3.83500 3.94565 3.89072
# Velocity P-wave (km/s) = 7.66320 7.75613 7.70981
#
# Compressibility (1/GPa) = 0.01320879
#
# Stress axis : x y z
#
# Youngs Moduli (GPa) = 57.69086 74.14403 62.74568
#
# Poissons Ratio (x) = 0.37783 0.49211
# Poissons Ratio (y) = 0.29398 0.24069
# Poissons Ratio (z) = 0.45247 0.28442
#
# Static dielectric constant tensor:
#      x y z
#    x 3.583420 -0.000010 -0.047170 
#    y -0.000010 3.001250 0.000060 
#    z -0.047170 0.000060 3.745920 
# 
# 
# High freq. dielectric constant tensor:
#      x y z
#    x 1.738600 0.000000 -0.002380 
#    y 0.000000 1.731040 0.000000 
#    z -0.002380 0.000000 1.772410 
# 
# From -- ./inp_files/270953.got.cif
#   From: 2010.06.25/outbox.cif.g09.slc.cpg/sg15_136_cif.got.tgz:270953.got - 2010.06.28 07:06:18.
