data_PCOD8132019
_publ_section_title
;
Structure prediction by ZEFSAII (Michael W. Deem and Ramdas Pophale) SiO2 
 PCOD8132019
Probable space group: C 2/C
;
_chemical_formula_sum "Si O2"
_cell_formula_units_Z 60
_cell_length_a 16.432931
_cell_length_b 8.246849
_cell_length_c 19.310356
_cell_angle_alpha 90.000000
_cell_angle_beta 66.292114
_cell_angle_gamma 90.000000
_cell_volume 2396.087002
_symmetry_space_group_name_H-M "C 2/C"
_symmetry_group_IT_number 15
_symmetry_cell_setting 'monoclinic'
loop_
_space_group_symop_operation_xyz
x,y,z
-x,y,1/2-z
-x,-y,-z
x,-y,1/2+z
1/2+x,1/2+y,z
1/2-x,1/2+y,1/2-z
1/2-x,1/2-y,-z
1/2+x,1/2-y,1/2+z
loop_
_atom_site_type_symbol
_atom_site_label
_atom_site_fract_x
_atom_site_fract_y
_atom_site_fract_z
Si Si1 0.156521 0.495795 0.284815
Si Si2 0.000000 0.965681 0.750000
Si Si3 0.589502 0.705402 0.106688
Si Si4 0.760888 0.229058 0.338624
Si Si5 0.862168 0.239903 0.811220
Si Si6 0.156135 0.703571 0.906088
Si Si7 0.655197 0.459590 0.455837
Si Si8 0.149652 0.449175 0.558210
O O1 0.186778 0.372849 0.215892
O O2 0.239680 0.581903 0.294953
O O3 0.103734 0.634939 0.260593
O O4 0.103077 0.397242 0.363973
O O5 0.004143 0.846693 0.681803
O O6 0.088667 0.072505 0.721266
O O7 0.679545 0.663852 0.118534
O O8 0.586571 0.894575 0.087984
O O9 0.588362 0.594429 0.038714
O O10 0.669364 0.306891 0.399835
O O11 0.756489 0.216021 0.842232
O O12 0.887348 0.307164 0.878972
O O13 0.115011 0.883530 0.929730
O O14 0.148856 0.606544 0.979612
O O15 0.749812 0.511972 0.455178
#
# Coordination Sequence:
#
# PCOD8132019 Si02
#       8
#     8   4   8   8   8   8   8   8
#     4  12  20  35  58  97 128 152 190 255 330 358
#     4  12  26  40  58  84 124 174 208 248 282 374
#     4  11  22  38  60  91 121 163 207 250 301 362
#     4  11  20  35  59  94 125 152 193 259 321 362
#     4  11  22  39  59  91 127 161 206 243 306 367
#     4  11  20  36  65  97 125 153 194 263 321 360
#     4  10  18  35  59  95 123 153 197 256 312 358
#     4  10  19  36  61  91 121 154 205 260 305 352
#
# _framework density 25.040825999999999
#
# number of rings (size 3 to 8) (size 9 to 14) (size 15 to 20)
#    0.000    1.067    5.333    7.200    0.000    0.533 
#    0.000    0.000    0.000    6.400    3.467    0.000 
#    0.000    0.000    0.000    0.000    0.000    0.000 
#
# Total GULP energy -371874.799834 kJ/mol
# GULP energy per Si atom -12395.826661 kJ/mol
# Density = 2.498383 g / cm^3
# Si number density = 25.040826 Si / 1000 Ang^3
#
#
#
# Elastic Constant Matrix: (Units=GPa)
#
#
# Indices 1 2 3 4 5 6 
#
# 1 15.4869 2.5177 15.5902 0.0000 9.7980 -0.0001
# 2 2.5177 124.3603 55.9610 0.0000 0.1205 -0.0002
# 3 15.5902 55.9610 157.3297 0.0000 17.6752 0.0000
# 4 0.0000 0.0000 0.0000 53.6388 0.0000 14.0181
# 5 9.7980 0.1205 17.6752 0.0000 30.6548 0.0000
# 6 -0.0001 -0.0002 0.0000 14.0181 0.0000 18.1273
#
#
#
# Elastic Compliance Matrix: (Units=1/GPa)
#
#
# Indices 1 2 3 4 5 6 
#
# 1 0.085709 0.001078 -0.006200 0.000000 -0.023824 0.000000
# 2 0.001078 0.009710 -0.003761 0.000000 0.001786 0.000000
# 3 -0.006200 -0.003761 0.008644 0.000000 -0.002988 0.000000
# 4 0.000000 0.000000 0.000000 0.023365 0.000000 -0.018069
# 5 -0.023824 0.001786 -0.002988 0.000000 0.041952 0.000000
# 6 0.000000 0.000000 0.000000 -0.018069 0.000000 0.069138
#
#
# Mechanical properties :
#
#
# Convention : Reuss Voigt Hill
#
# Bulk Modulus (GPa) = 11.58795 49.47943 30.53369
# Shear Modulus (GPa) = 17.54071 35.35804 26.44937
#
# Velocity S-wave (km/s) = 2.64954 3.76176 3.25353
# Velocity P-wave (km/s) = 3.74135 6.21853 5.13166
#
# Compressibility (1/GPa) = 0.08629651
#
# Stress axis : x y z
#
# Youngs Moduli (GPa) = 11.66733 102.98510 115.68783
#
# Poissons Ratio (x) = -0.11100 0.71726
# Poissons Ratio (y) = -0.01257 0.43513
# Poissons Ratio (z) = 0.07234 0.38736
#
# Static dielectric constant tensor:
#      x y z
#    x 3.810060 0.000000 0.370520 
#    y 0.000000 5.138500 0.000000 
#    z 0.370520 0.000000 4.816280 
# 
# 
# High freq. dielectric constant tensor:
#      x y z
#    x 1.933510 0.000000 0.029140 
#    y 0.000000 2.025830 0.000000 
#    z 0.029140 0.000000 2.010060 
# 
# From -- ./inp_files/252106.got.cif
#   From: 2010.06.25/outbox.cif.g09.slc.cpg/sg15_127_cif.got.tgz:252106.got - 2010.06.28 07:06:18.
