data_PCOD8132110
_publ_section_title
;
Structure prediction by ZEFSAII (Michael W. Deem and Ramdas Pophale) SiO2 
 PCOD8132110
Probable space group: C 2/C
;
_chemical_formula_sum "Si O2"
_cell_formula_units_Z 52
_cell_length_a 9.097248
_cell_length_b 16.277066
_cell_length_c 20.664181
_cell_angle_alpha 90.000000
_cell_angle_beta 66.806106
_cell_angle_gamma 90.000000
_cell_volume 2812.572033
_symmetry_space_group_name_H-M "C 2/C"
_symmetry_group_IT_number 15
_symmetry_cell_setting 'monoclinic'
loop_
_space_group_symop_operation_xyz
x,y,z
-x,y,1/2-z
-x,-y,-z
x,-y,1/2+z
1/2+x,1/2+y,z
1/2-x,1/2+y,1/2-z
1/2-x,1/2-y,-z
1/2+x,1/2-y,1/2+z
loop_
_atom_site_type_symbol
_atom_site_label
_atom_site_fract_x
_atom_site_fract_y
_atom_site_fract_z
Si Si1 0.671048 0.251444 0.814695
Si Si2 0.673738 0.718875 0.578590
Si Si3 0.747308 0.581552 0.744595
Si Si4 0.584361 0.617656 0.169056
Si Si5 0.401858 0.168915 0.175621
Si Si6 0.500000 0.039024 0.250000
Si Si7 0.086468 0.944277 0.141700
O O1 0.707444 0.237222 0.883188
O O2 0.651570 0.165920 0.779197
O O3 0.506476 0.302029 0.840954
O O4 0.817942 0.299037 0.755942
O O5 0.750000 0.750000 0.500000
O O6 0.505949 0.763622 0.620694
O O7 0.651723 0.619495 0.576558
O O8 0.579017 0.597983 0.808310
O O9 0.713162 0.548206 0.678590
O O10 0.842506 0.516873 0.772021
O O11 0.500000 0.587177 0.250000
O O12 0.768598 0.640768 0.147246
O O13 0.568084 0.539729 0.122075
O O14 0.510847 0.092972 0.181997
#
# Coordination Sequence:
#
# PCOD8132110 Si02
#       7
#     8   8   8   8   8   4   8
#     4  10  20  36  59  83 111 145 183 230 279 335
#     4  11  23  38  57  78 111 154 194 228 276 332
#     4  10  19  30  53  86 112 138 173 225 275 332
#     4  10  19  33  58  87 111 140 181 232 287 331
#     4  11  20  36  56  84 112 141 181 236 280 329
#     4  12  20  30  56  94 112 132 184 232 282 326
#     4  10  18  36  52  77 113 145 179 217 284 326
#
# _framework density 18.488415
#
# number of rings (size 3 to 8) (size 9 to 14) (size 15 to 20)
#    0.000    1.538    6.154    0.923    3.231    0.000 
#    0.000    2.308    0.000    0.000    0.000    0.000 
#    0.000    0.000    0.000    0.000    0.000    0.000 
#
# Total GULP energy -322242.427777 kJ/mol
# GULP energy per Si atom -12393.939530 kJ/mol
# Density = 1.844633 g / cm^3
# Si number density = 18.488415 Si / 1000 Ang^3
#
#
#
# Elastic Constant Matrix: (Units=GPa)
#
#
# Indices 1 2 3 4 5 6 
#
# 1 99.7036 56.9549 23.5836 0.0000 -6.1363 0.0000
# 2 56.9549 136.1127 19.5729 0.0000 -0.1380 0.0000
# 3 23.5836 19.5729 53.0217 0.0000 4.0258 0.0000
# 4 0.0000 0.0000 0.0000 15.5534 0.0000 -2.0393
# 5 -6.1363 -0.1380 4.0258 0.0000 8.7484 0.0000
# 6 0.0000 0.0000 0.0000 -2.0393 0.0000 35.4887
#
#
#
# Elastic Compliance Matrix: (Units=1/GPa)
#
#
# Indices 1 2 3 4 5 6 
#
# 1 0.015434 -0.005609 -0.005813 0.000000 0.013412 0.000000
# 2 -0.005609 0.009816 -0.000872 0.000000 -0.003378 0.000000
# 3 -0.005813 -0.000872 0.022878 0.000000 -0.014619 0.000000
# 4 0.000000 0.000000 0.000000 0.064783 0.000000 0.003723
# 5 0.013412 -0.003378 -0.014619 0.000000 0.130389 0.000000
# 6 0.000000 0.000000 0.000000 0.003723 0.000000 0.028392
#
#
# Mechanical properties :
#
#
# Convention : Reuss Voigt Hill
#
# Bulk Modulus (GPa) = 42.48127 54.34010 48.41069
# Shear Modulus (GPa) = 16.44058 24.53985 20.49022
#
# Velocity S-wave (km/s) = 2.98524 3.64718 3.33269
# Velocity P-wave (km/s) = 5.90841 6.86958 6.40705
#
# Compressibility (1/GPa) = 0.02353978
#
# Stress axis : x y z
#
# Youngs Moduli (GPa) = 64.79145 101.87664 43.71064
#
# Poissons Ratio (x) = 0.57140 0.25409
# Poissons Ratio (y) = 0.36340 0.03813
# Poissons Ratio (z) = 0.37663 0.08886
#
# Static dielectric constant tensor:
#      x y z
#    x 3.402270 0.000000 -0.006650 
#    y 0.000000 3.787390 0.000000 
#    z -0.006650 0.000000 2.777370 
# 
# 
# High freq. dielectric constant tensor:
#      x y z
#    x 1.722960 0.000000 -0.002650 
#    y 0.000000 1.745850 0.000000 
#    z -0.002650 0.000000 1.639220 
# 
# From -- ./inp_files/190562.got.cif
#   From: 2010.06.25/outbox.cif.g09.slc.cpg/sg15_96_cif.got.tgz:190562.got - 2010.06.28 07:06:18.
