data_PCOD8132976
_publ_section_title
;
Structure prediction by ZEFSAII (Michael W. Deem and Ramdas Pophale) SiO2 
 PCOD8132976
Probable space group: C 2/C
;
_chemical_formula_sum "Si O2"
_cell_formula_units_Z 64
_cell_length_a 9.063942
_cell_length_b 14.189212
_cell_length_c 28.348580
_cell_angle_alpha 90.000000
_cell_angle_beta 90.000000
_cell_angle_gamma 90.000000
_cell_volume 3645.916390
_symmetry_space_group_name_H-M "C 2/C"
_symmetry_group_IT_number 15
_symmetry_cell_setting 'monoclinic'
loop_
_space_group_symop_operation_xyz
x,y,z
-x,y,1/2-z
-x,-y,-z
x,-y,1/2+z
1/2+x,1/2+y,z
1/2-x,1/2+y,1/2-z
1/2-x,1/2-y,-z
1/2+x,1/2-y,1/2+z
loop_
_atom_site_type_symbol
_atom_site_label
_atom_site_fract_x
_atom_site_fract_y
_atom_site_fract_z
Si Si1 0.827440 0.744419 0.571074
Si Si2 0.673553 0.394223 0.493868
Si Si3 0.672560 0.244419 0.571074
Si Si4 0.173553 0.105777 0.506132
Si Si5 0.823592 0.124569 0.750000
Si Si6 0.325837 0.257887 0.678622
Si Si7 0.172812 0.913827 0.750000
Si Si8 0.674163 0.742113 0.178622
O O1 0.781419 0.835224 0.540281
O O2 0.746546 0.651245 0.552330
O O3 0.777656 0.764203 0.624376
O O4 0.000000 0.725200 0.567477
O O5 0.718581 0.335224 0.540281
O O6 0.746545 0.348755 0.447670
O O7 0.734170 0.500000 0.500000
O O8 0.500000 0.394486 0.485470
O O9 0.722344 0.264204 0.624376
O O10 0.761494 0.172779 0.797129
O O11 0.761494 0.172779 0.702871
O O12 0.000000 0.129962 0.750000
O O13 0.758916 0.018096 0.750000
O O14 0.278584 0.355937 0.703409
O O15 0.500000 0.239826 0.684861
O O16 0.221416 0.855937 0.703409
O O17 0.000000 0.927295 0.750000
#
# Coordination Sequence:
#
# PCOD8132976 Si02
#       8
#     8   8   8   8   8   8   8   8
#     4   9  18  32  50  71  95 125 159 193 233 283
#     4   9  18  32  50  72  97 125 158 197 237 277
#     4   9  18  32  50  71  95 125 159 193 233 283
#     4   9  18  32  50  72  97 125 158 197 237 277
#     4  10  19  31  50  75  96 119 159 204 236 268
#     4   9  18  34  51  67  94 130 159 186 233 292
#     4   8  16  31  50  69  92 123 155 190 234 284
#     4   9  18  34  51  67  94 130 159 186 233 292
#
# _framework density 17.553885000000001
#
# number of rings (size 3 to 8) (size 9 to 14) (size 15 to 20)
#    0.000    3.000    0.000    1.125    0.000    3.500 
#    0.000   10.000    0.000    0.000    0.000    0.000 
#    0.000    0.000    0.000    0.000    0.000    0.000 
#
# Total GULP energy -396767.069051 kJ/mol
# GULP energy per Si atom -12398.970908 kJ/mol
# Density = 1.751393 g / cm^3
# Si number density = 17.553885 Si / 1000 Ang^3
#
#
#
# Elastic Constant Matrix: (Units=GPa)
#
#
# Indices 1 2 3 4 5 6 
#
# 1 32.7278 35.9340 33.9442 0.0000 -5.1751 0.0000
# 2 35.9340 162.3078 66.7916 0.0000 -2.8092 0.0000
# 3 33.9442 66.7916 147.6596 0.0000 -5.2881 0.0000
# 4 0.0000 0.0000 0.0000 12.8344 0.0000 1.2333
# 5 -5.1751 -2.8092 -5.2881 0.0000 27.8245 0.0000
# 6 0.0000 0.0000 0.0000 1.2333 0.0000 26.3815
#
#
#
# Elastic Compliance Matrix: (Units=1/GPa)
#
#
# Indices 1 2 3 4 5 6 
#
# 1 0.047238 -0.007338 -0.007301 0.000000 0.006657 0.000000
# 2 -0.007338 0.008711 -0.002286 0.000000 -0.000920 0.000000
# 3 -0.007301 -0.002286 0.009493 0.000000 0.000215 0.000000
# 4 0.000000 0.000000 0.000000 0.078267 0.000000 -0.003659
# 5 0.006657 -0.000920 0.000215 0.000000 0.037126 0.000000
# 6 0.000000 0.000000 0.000000 -0.003659 0.000000 0.038076
#
#
# Mechanical properties :
#
#
# Convention : Reuss Voigt Hill
#
# Bulk Modulus (GPa) = 31.65618 68.44829 50.05223
# Shear Modulus (GPa) = 18.99036 27.14311 23.06674
#
# Velocity S-wave (km/s) = 3.29269 3.93653 3.62892
# Velocity P-wave (km/s) = 5.70339 7.72914 6.79221
#
# Compressibility (1/GPa) = 0.03158941
#
# Stress axis : x y z
#
# Youngs Moduli (GPa) = 21.16955 114.80198 105.34570
#
# Poissons Ratio (x) = 0.84246 0.76915
# Poissons Ratio (y) = 0.15535 0.24083
# Poissons Ratio (z) = 0.15456 0.26245
#
# Static dielectric constant tensor:
#      x y z
#    x 3.064730 0.000000 -0.028060 
#    y 0.000000 3.471190 0.000000 
#    z -0.028060 0.000000 3.372910 
# 
# 
# High freq. dielectric constant tensor:
#      x y z
#    x 1.661080 0.000000 -0.001850 
#    y 0.000000 1.681630 0.000000 
#    z -0.001850 0.000000 1.681410 
# 
# From -- ./inp_files/307800.got.cif
#   From: 2010.06.25/outbox.cif.g09.slc.cpg/sg15_154_cif.got.tgz:307800.got - 2010.06.28 07:06:18.
