data_PCOD8132911
_publ_section_title
;
Structure prediction by ZEFSAII (Michael W. Deem and Ramdas Pophale) SiO2 
 PCOD8132911
Probable space group: C 2/C
;
_chemical_formula_sum "Si O2"
_cell_formula_units_Z 48
_cell_length_a 19.434245
_cell_length_b 12.344711
_cell_length_c 10.307137
_cell_angle_alpha 90.000000
_cell_angle_beta 70.663477
_cell_angle_gamma 90.000000
_cell_volume 2333.296949
_symmetry_space_group_name_H-M "C 2/C"
_symmetry_group_IT_number 15
_symmetry_cell_setting 'monoclinic'
loop_
_space_group_symop_operation_xyz
x,y,z
-x,y,1/2-z
-x,-y,-z
x,-y,1/2+z
1/2+x,1/2+y,z
1/2-x,1/2+y,1/2-z
1/2-x,1/2-y,-z
1/2+x,1/2-y,1/2+z
loop_
_atom_site_type_symbol
_atom_site_label
_atom_site_fract_x
_atom_site_fract_y
_atom_site_fract_z
Si Si1 0.703203 0.881484 0.957778
Si Si2 0.304609 0.439222 0.676824
Si Si3 0.781137 0.828426 0.166609
Si Si4 0.643872 0.780321 0.408995
Si Si5 0.843912 0.575334 0.376532
Si Si6 0.453783 0.043509 0.649193
O O1 0.776721 0.921561 0.840417
O O2 0.670442 0.780213 0.892047
O O3 0.723228 0.838720 0.086814
O O4 0.647049 0.981413 0.015228
O O5 0.332047 0.564521 0.649515
O O6 0.366572 0.350050 0.603117
O O7 0.239200 0.422996 0.615953
O O8 0.728119 0.811512 0.323002
O O9 0.632909 0.812937 0.567595
O O10 0.584786 0.842390 0.358517
O O11 0.893996 0.549403 0.221159
O O12 0.500000 0.063748 0.750000
O O13 0.500000 0.000000 0.500000
#
# Coordination Sequence:
#
# PCOD8132911 Si02
#       6
#     8   8   8   8   8   8
#     4   9  16  28  48  74 110 148 180 222 285 353
#     4  10  19  30  52  78 120 149 178 241 303 352
#     4   9  17  29  49  76 112 146 177 227 290 351
#     4  11  20  34  51  82 117 150 189 237 295 361
#     4  11  19  35  53  81 119 148 193 238 299 352
#     4  12  24  38  60  81 120 163 202 245 287 350
#
# _framework density 20.571747999999999
#
# number of rings (size 3 to 8) (size 9 to 14) (size 15 to 20)
#    0.000    1.667    6.667    0.500    0.000    0.000 
#    0.000    0.000    0.000    0.000    0.000    1.167 
#    5.000    0.167    0.000    0.000    0.000    0.000 
#
# Total GULP energy -297322.458686 kJ/mol
# GULP energy per Si atom -12388.435779 kJ/mol
# Density = 2.052493 g / cm^3
# Si number density = 20.571748 Si / 1000 Ang^3
#
#
#
# Elastic Constant Matrix: (Units=GPa)
#
#
# Indices 1 2 3 4 5 6 
#
# 1 35.9956 10.3618 7.0970 0.0000 0.2335 0.0000
# 2 10.3618 149.2828 40.2831 0.0000 -18.7978 0.0000
# 3 7.0970 40.2831 107.6499 0.0000 -0.8896 0.0000
# 4 0.0000 0.0000 0.0000 25.9417 0.0000 3.7743
# 5 0.2335 -18.7978 -0.8896 0.0000 18.0749 0.0000
# 6 0.0000 0.0000 0.0000 3.7743 0.0000 23.0028
#
#
#
# Elastic Compliance Matrix: (Units=1/GPa)
#
#
# Indices 1 2 3 4 5 6 
#
# 1 0.028598 -0.001985 -0.001163 0.000000 -0.002491 0.000000
# 2 -0.001985 0.008808 -0.003090 0.000000 0.009034 0.000000
# 3 -0.001163 -0.003090 0.010500 0.000000 -0.002682 0.000000
# 4 0.000000 0.000000 0.000000 0.039491 0.000000 -0.006480
# 5 -0.002491 0.009034 -0.002682 0.000000 0.064621 0.000000
# 6 0.000000 0.000000 0.000000 -0.006480 0.000000 0.044536
#
#
# Mechanical properties :
#
#
# Convention : Reuss Voigt Hill
#
# Bulk Modulus (GPa) = 28.22516 45.37912 36.80214
# Shear Modulus (GPa) = 22.64074 29.08294 25.86184
#
# Velocity S-wave (km/s) = 3.32109 3.76404 3.54948
# Velocity P-wave (km/s) = 5.33445 6.40293 5.89296
#
# Compressibility (1/GPa) = 0.03542939
#
# Stress axis : x y z
#
# Youngs Moduli (GPa) = 34.96743 113.53384 95.23472
#
# Poissons Ratio (x) = 0.22534 0.11078
# Poissons Ratio (y) = 0.06940 0.29432
# Poissons Ratio (z) = 0.04068 0.35087
#
# Static dielectric constant tensor:
#      x y z
#    x 3.215000 0.000000 0.222740 
#    y 0.000000 4.528690 0.000000 
#    z 0.222740 0.000000 3.936230 
# 
# 
# High freq. dielectric constant tensor:
#      x y z
#    x 1.729940 0.000000 0.042240 
#    y 0.000000 1.814490 0.000000 
#    z 0.042240 0.000000 1.814680 
# 
# From -- ./inp_files/110872.got.cif
#   From: 2010.06.25/outbox.cif.g09.slc.cpg/sg15_56_cif.got.tgz:110872.got - 2010.06.28 07:06:18.
