data_PCOD8132417
_publ_section_title
;
Structure prediction by ZEFSAII (Michael W. Deem and Ramdas Pophale) SiO2 
 PCOD8132417
Probable space group: C 2/C
;
_chemical_formula_sum "Si O2"
_cell_formula_units_Z 48
_cell_length_a 16.155077
_cell_length_b 13.997113
_cell_length_c 9.224149
_cell_angle_alpha 90.000000
_cell_angle_beta 99.290181
_cell_angle_gamma 90.000000
_cell_volume 2058.446828
_symmetry_space_group_name_H-M "C 2/C"
_symmetry_group_IT_number 15
_symmetry_cell_setting 'monoclinic'
loop_
_space_group_symop_operation_xyz
x,y,z
-x,y,1/2-z
-x,-y,-z
x,-y,1/2+z
1/2+x,1/2+y,z
1/2-x,1/2+y,1/2-z
1/2-x,1/2-y,-z
1/2+x,1/2-y,1/2+z
loop_
_atom_site_type_symbol
_atom_site_label
_atom_site_fract_x
_atom_site_fract_y
_atom_site_fract_z
Si Si1 0.191230 0.243650 0.249985
Si Si2 0.762609 0.048118 0.308662
Si Si3 0.180638 0.884121 0.360805
Si Si4 0.434927 0.164613 0.597366
Si Si5 0.571140 0.242401 0.468408
Si Si6 0.414478 0.040528 0.143600
O O1 0.233329 0.141427 0.294405
O O2 0.252915 0.307905 0.175208
O O3 0.156066 0.292004 0.387180
O O4 0.111753 0.219576 0.127170
O O5 0.790270 0.069384 0.480397
O O6 0.665156 0.014517 0.275629
O O7 0.824956 0.967701 0.260179
O O8 0.092801 0.823670 0.353834
O O9 0.500000 0.163788 0.750000
O O10 0.471564 0.226972 0.472668
O O11 0.426332 0.053545 0.544941
O O12 0.610113 0.137145 0.448112
O O13 0.500000 0.064317 0.250000
#
# Coordination Sequence:
#
# PCOD8132417 Si02
#       6
#     8   8   8   8   8   8
#     4  10  18  37  61  84 115 161 202 246 291 369
#     4  11  22  38  62  91 118 161 205 241 301 361
#     4  11  21  39  63  86 124 159 203 250 295 361
#     4   9  19  31  55  88 116 148 197 240 300 353
#     4  10  19  36  57  83 119 161 198 242 305 361
#     4  11  20  32  55  91 126 148 191 251 309 354
#
# _framework density 23.318553000000001
#
# number of rings (size 3 to 8) (size 9 to 14) (size 15 to 20)
#    0.000    1.667    5.000    1.500    0.000    1.333 
#    0.000    3.333    0.000    3.000    0.000    0.000 
#    0.000    0.000    0.000    0.000    0.000    0.000 
#
# Total GULP energy -297319.716028 kJ/mol
# GULP energy per Si atom -12388.321501 kJ/mol
# Density = 2.326548 g / cm^3
# Si number density = 23.318553 Si / 1000 Ang^3
#
#
#
# Elastic Constant Matrix: (Units=GPa)
#
#
# Indices 1 2 3 4 5 6 
#
# 1 89.3887 62.2196 44.8879 0.0000 -36.1243 0.0000
# 2 62.2196 162.4031 56.0788 0.0000 -38.2603 0.0000
# 3 44.8879 56.0788 61.2239 0.0000 -41.1602 0.0000
# 4 0.0000 0.0000 0.0000 37.6947 0.0000 -25.6336
# 5 -36.1243 -38.2603 -41.1602 0.0000 34.7624 0.0000
# 6 0.0000 0.0000 0.0000 -25.6336 0.0000 41.8419
#
#
#
# Elastic Compliance Matrix: (Units=1/GPa)
#
#
# Indices 1 2 3 4 5 6 
#
# 1 0.020984 -0.003901 -0.000187 0.000000 0.017291 0.000000
# 2 -0.003901 0.009735 -0.007740 0.000000 -0.002504 0.000000
# 3 -0.000187 -0.007740 0.086785 0.000000 0.094043 0.000000
# 4 0.000000 0.000000 0.000000 0.045474 0.000000 0.027858
# 5 0.017291 -0.002504 0.094043 0.000000 0.155330 0.000000
# 6 0.000000 0.000000 0.000000 0.027858 0.000000 0.040966
#
#
# Mechanical properties :
#
#
# Convention : Reuss Voigt Hill
#
# Bulk Modulus (GPa) = 10.65568 71.04312 40.84940
# Shear Modulus (GPa) = 12.07107 32.84843 22.45975
#
# Velocity S-wave (km/s) = 2.27768 3.75731 3.10687
# Velocity P-wave (km/s) = 3.39067 7.02536 5.51599
#
# Compressibility (1/GPa) = 0.09384663
#
# Stress axis : x y z
#
# Youngs Moduli (GPa) = 47.65458 102.72347 11.52276
#
# Poissons Ratio (x) = 0.40075 0.00216
# Poissons Ratio (y) = 0.18591 0.08919
# Poissons Ratio (z) = 0.00893 0.79507
#
# Static dielectric constant tensor:
#      x y z
#    x 4.304220 0.000000 -0.596380 
#    y 0.000000 4.515900 0.000000 
#    z -0.596380 0.000000 3.944390 
# 
# 
# High freq. dielectric constant tensor:
#      x y z
#    x 1.903430 0.000000 -0.037390 
#    y 0.000000 1.926280 0.000000 
#    z -0.037390 0.000000 1.897460 
# 
# From -- ./inp_files/103655.got.cif
#   From: 2010.06.25/outbox.cif.g09.slc.cpg/sg15_52_cif.got.tgz:103655.got - 2010.06.28 07:06:18.
