data_PCOD8132690
_publ_section_title
;
Structure prediction by ZEFSAII (Michael W. Deem and Ramdas Pophale) SiO2 
 PCOD8132690
Probable space group: C 2/C
;
_chemical_formula_sum "Si O2"
_cell_formula_units_Z 52
_cell_length_a 16.612881
_cell_length_b 11.183184
_cell_length_c 25.536409
_cell_angle_alpha 90.000000
_cell_angle_beta 149.004141
_cell_angle_gamma 90.000000
_cell_volume 2443.190569
_symmetry_space_group_name_H-M "C 2/C"
_symmetry_group_IT_number 15
_symmetry_cell_setting 'monoclinic'
loop_
_space_group_symop_operation_xyz
x,y,z
-x,y,1/2-z
-x,-y,-z
x,-y,1/2+z
1/2+x,1/2+y,z
1/2-x,1/2+y,1/2-z
1/2-x,1/2-y,-z
1/2+x,1/2-y,1/2+z
loop_
_atom_site_type_symbol
_atom_site_label
_atom_site_fract_x
_atom_site_fract_y
_atom_site_fract_z
Si Si1 0.535302 0.942499 0.075395
Si Si2 0.544455 0.402521 0.705095
Si Si3 0.500000 0.618731 0.750000
Si Si4 0.785155 0.754980 0.872718
Si Si5 0.243509 0.041443 0.222473
Si Si6 0.241666 0.196768 0.405245
Si Si7 0.414164 0.378544 0.437698
O O1 0.675383 0.847495 0.147318
O O2 0.599420 0.033611 0.155121
O O3 0.378279 0.879877 0.008818
O O4 0.500000 0.000000 0.000000
O O5 0.488229 0.534638 0.691950
O O6 0.597981 0.405266 0.674900
O O7 0.404815 0.304701 0.635925
O O8 0.691993 0.367042 0.823216
O O9 0.651176 0.704939 0.835980
O O10 0.721973 0.870788 0.806595
O O11 0.945633 0.783151 0.994985
O O12 0.194269 0.909535 0.172852
O O13 0.304818 0.328650 0.424386
O O14 0.500000 0.500000 0.500000
#
# Coordination Sequence:
#
# PCOD8132690 Si02
#       7
#     8   8   4   8   8   8   8
#     4  11  19  37  61  89 119 161 204 243 304 373
#     4  10  20  37  63  93 121 157 205 254 300 362
#     4  10  18  40  58  88 126 160 194 252 304 362
#     4  10  22  38  63  85 123 163 198 248 311 359
#     4  11  22  38  64  93 119 157 211 255 300 361
#     4   9  19  36  62  83 121 163 195 243 311 352
#     4   9  21  41  58  84 126 163 195 247 311 365
#
# _framework density 21.283643999999999
#
# number of rings (size 3 to 8) (size 9 to 14) (size 15 to 20)
#    0.000    2.154    3.077    0.923    2.154    0.000 
#    2.769   13.846    0.000    0.000    0.000    0.000 
#    0.000    0.000    0.000    0.000    0.000    0.000 
#
# Total GULP energy -322182.692824 kJ/mol
# GULP energy per Si atom -12391.642032 kJ/mol
# Density = 2.123520 g / cm^3
# Si number density = 21.283644 Si / 1000 Ang^3
#
#
#
# Elastic Constant Matrix: (Units=GPa)
#
#
# Indices 1 2 3 4 5 6 
#
# 1 67.9291 34.6519 26.1508 -0.0001 21.8410 0.0000
# 2 34.6519 89.8494 38.3053 0.0001 8.5336 0.0000
# 3 26.1508 38.3053 109.9521 0.0008 9.7921 0.0001
# 4 -0.0001 0.0001 0.0008 29.3191 0.0002 0.6588
# 5 21.8410 8.5336 9.7921 0.0002 36.6630 0.0000
# 6 0.0000 0.0000 0.0001 0.6588 0.0000 31.7287
#
#
#
# Elastic Compliance Matrix: (Units=1/GPa)
#
#
# Indices 1 2 3 4 5 6 
#
# 1 0.022603 -0.006786 -0.002001 0.000000 -0.011351 0.000000
# 2 -0.006786 0.015235 -0.003829 0.000000 0.001519 0.000000
# 3 -0.002001 -0.003829 0.010980 0.000000 -0.000850 0.000000
# 4 0.000000 0.000000 0.000000 0.034123 0.000000 -0.000709
# 5 -0.011351 0.001519 -0.000850 0.000000 0.033911 0.000000
# 6 0.000000 0.000000 0.000000 -0.000709 0.000000 0.031532
#
#
# Mechanical properties :
#
#
# Convention : Reuss Voigt Hill
#
# Bulk Modulus (GPa) = 42.39684 51.77183 47.08434
# Shear Modulus (GPa) = 27.55153 30.78366 29.16759
#
# Velocity S-wave (km/s) = 3.60181 3.80722 3.70594
# Velocity P-wave (km/s) = 6.10414 6.61091 6.36257
#
# Compressibility (1/GPa) = 0.02358666
#
# Stress axis : x y z
#
# Youngs Moduli (GPa) = 44.24213 65.63841 91.07217
#
# Poissons Ratio (x) = 0.44543 0.18221
# Poissons Ratio (y) = 0.30023 0.34871
# Poissons Ratio (z) = 0.08852 0.25132
#
# Static dielectric constant tensor:
#      x y z
#    x 3.576000 0.000000 0.169240 
#    y 0.000000 4.185040 0.000000 
#    z 0.169240 0.000000 4.184610 
# 
# 
# High freq. dielectric constant tensor:
#      x y z
#    x 1.799490 0.000000 0.017850 
#    y 0.000000 1.833350 0.000000 
#    z 0.017850 0.000000 1.837820 
# 
# From -- ./inp_files/298893.got.cif
#   From: 2010.06.25/outbox.cif.g09.slc.cpg/sg15_150_cif.got.tgz:298893.got - 2010.06.28 07:06:18.
