data_PCOD8132711
_publ_section_title
;
Structure prediction by ZEFSAII (Michael W. Deem and Ramdas Pophale) SiO2 
 PCOD8132711
Probable space group: C 2/C
;
_chemical_formula_sum "Si O2"
_cell_formula_units_Z 64
_cell_length_a 20.288270
_cell_length_b 12.336814
_cell_length_c 25.729807
_cell_angle_alpha 90.000000
_cell_angle_beta 148.704289
_cell_angle_gamma 90.000000
_cell_volume 3345.281095
_symmetry_space_group_name_H-M "C 2/C"
_symmetry_group_IT_number 15
_symmetry_cell_setting 'monoclinic'
loop_
_space_group_symop_operation_xyz
x,y,z
-x,y,1/2-z
-x,-y,-z
x,-y,1/2+z
1/2+x,1/2+y,z
1/2-x,1/2+y,1/2-z
1/2-x,1/2-y,-z
1/2+x,1/2-y,1/2+z
loop_
_atom_site_type_symbol
_atom_site_label
_atom_site_fract_x
_atom_site_fract_y
_atom_site_fract_z
Si Si1 0.466160 0.406744 0.073149
Si Si2 0.706105 0.542012 0.217555
Si Si3 0.052072 0.576290 0.580021
Si Si4 0.679297 0.835301 0.517194
Si Si5 0.415804 0.651986 0.742981
Si Si6 0.323256 0.718090 0.389166
Si Si7 0.126295 0.091335 0.273697
Si Si8 0.139867 0.890344 0.946967
O O1 0.593835 0.455116 0.133700
O O2 0.498510 0.341597 0.147530
O O3 0.368706 0.503500 0.022647
O O4 0.408122 0.324578 0.993368
O O5 0.838207 0.479471 0.312553
O O6 0.713221 0.621074 0.173684
O O7 0.677459 0.611433 0.249953
O O8 0.099559 0.689339 0.588557
O O9 0.000000 0.500000 0.500000
O O10 0.936718 0.593051 0.541768
O O11 0.795366 0.830524 0.636198
O O12 0.728655 0.887520 0.496397
O O13 0.631580 0.713028 0.478686
O O14 0.500000 0.680421 0.750000
O O15 0.305154 0.739244 0.671853
O O16 0.351009 0.533584 0.694248
O O17 0.975436 0.114372 0.172823
#
# Coordination Sequence:
#
# PCOD8132711 Si02
#       8
#     8   8   8   8   8   8   8   8
#     4  10  22  43  65  85 123 166 203 250 302 376
#     4  10  22  41  59  90 123 155 203 244 309 370
#     4  12  23  38  62  95 120 156 203 260 308 357
#     4  11  20  36  63  89 121 153 204 254 301 357
#     4  10  21  40  64  90 116 160 208 245 297 364
#     4  12  24  42  62  91 125 162 202 254 315 367
#     4  10  18  40  63  82 117 158 204 250 289 363
#     4   9  21  39  58  90 116 161 204 238 308 371
#
# _framework density 19.131426999999999
#
# number of rings (size 3 to 8) (size 9 to 14) (size 15 to 20)
#    0.000    1.750    3.750    3.750    1.750    0.500 
#    9.000    0.000    0.000    0.000    0.000    0.000 
#    0.000    0.000    0.000    0.000    0.000    0.000 
#
# Total GULP energy -396854.602124 kJ/mol
# GULP energy per Si atom -12401.706316 kJ/mol
# Density = 1.908788 g / cm^3
# Si number density = 19.131427 Si / 1000 Ang^3
#
#
#
# Elastic Constant Matrix: (Units=GPa)
#
#
# Indices 1 2 3 4 5 6 
#
# 1 105.1374 49.1069 52.9799 -0.0004 16.8417 -0.0001
# 2 49.1069 93.6655 75.3936 0.0017 -5.5232 -0.0001
# 3 52.9799 75.3936 103.9865 0.0017 -3.7454 -0.0001
# 4 -0.0004 0.0017 0.0017 37.7062 0.0005 0.6039
# 5 16.8417 -5.5232 -3.7454 0.0005 28.4374 0.0000
# 6 -0.0001 -0.0001 -0.0001 0.6039 0.0000 23.9791
#
#
#
# Elastic Compliance Matrix: (Units=1/GPa)
#
#
# Indices 1 2 3 4 5 6 
#
# 1 0.016220 -0.005259 -0.004857 0.000001 -0.011267 0.000000
# 2 -0.005259 0.027529 -0.017056 -0.000001 0.006215 0.000000
# 3 -0.004857 -0.017056 0.024558 0.000000 0.002798 0.000000
# 4 0.000001 -0.000001 0.000000 0.026532 -0.000001 -0.000668
# 5 -0.011267 0.006215 0.002798 -0.000001 0.043413 0.000000
# 6 0.000000 0.000000 0.000000 -0.000668 0.000000 0.041720
#
#
# Mechanical properties :
#
#
# Convention : Reuss Voigt Hill
#
# Bulk Modulus (GPa) = 71.61633 73.08336 72.34985
# Shear Modulus (GPa) = 20.92324 26.37849 23.65086
#
# Velocity S-wave (km/s) = 3.31064 3.71725 3.51982
# Velocity P-wave (km/s) = 7.22003 7.53044 7.37687
#
# Compressibility (1/GPa) = 0.01396330
#
# Stress axis : x y z
#
# Youngs Moduli (GPa) = 61.65294 36.32594 40.71965
#
# Poissons Ratio (x) = 0.19102 0.19777
# Poissons Ratio (y) = 0.32421 0.69452
# Poissons Ratio (z) = 0.29945 0.61958
#
# Static dielectric constant tensor:
#      x y z
#    x 3.555540 0.000000 0.078390 
#    y 0.000000 3.463320 0.000000 
#    z 0.078390 0.000000 3.538260 
# 
# 
# High freq. dielectric constant tensor:
#      x y z
#    x 1.753570 0.000000 0.005490 
#    y 0.000000 1.731790 0.000000 
#    z 0.005490 0.000000 1.743900 
# 
# From -- ./inp_files/300858.got.cif
#   From: 2010.06.25/outbox.cif.g09.slc.cpg/sg15_151_cif.got.tgz:300858.got - 2010.06.28 07:06:18.
