data_PCOD8132661
_publ_section_title
;
Structure prediction by ZEFSAII (Michael W. Deem and Ramdas Pophale) SiO2 
 PCOD8132661
Probable space group: C 2/C
;
_chemical_formula_sum "Si O2"
_cell_formula_units_Z 56
_cell_length_a 29.948379
_cell_length_b 9.948313
_cell_length_c 11.094723
_cell_angle_alpha 90.000000
_cell_angle_beta 53.615759
_cell_angle_gamma 90.000000
_cell_volume 2661.128508
_symmetry_space_group_name_H-M "C 2/C"
_symmetry_group_IT_number 15
_symmetry_cell_setting 'monoclinic'
loop_
_space_group_symop_operation_xyz
x,y,z
-x,y,1/2-z
-x,-y,-z
x,-y,1/2+z
1/2+x,1/2+y,z
1/2-x,1/2+y,1/2-z
1/2-x,1/2-y,-z
1/2+x,1/2-y,1/2+z
loop_
_atom_site_type_symbol
_atom_site_label
_atom_site_fract_x
_atom_site_fract_y
_atom_site_fract_z
Si Si1 0.473212 0.649728 0.923386
Si Si2 0.635443 0.850543 0.969929
Si Si3 0.694350 0.835255 0.112976
Si Si4 0.078127 0.113108 0.912219
Si Si5 0.663059 0.683357 0.592130
Si Si6 0.883236 0.352583 0.040808
Si Si7 0.274057 0.888119 0.854360
O O1 0.500000 0.639703 0.750000
O O2 0.518036 0.652619 0.957760
O O3 0.429359 0.525618 0.003359
O O4 0.440005 0.787239 0.996440
O O5 0.601470 0.731702 0.959793
O O6 0.696722 0.888458 0.822133
O O7 0.602530 0.990097 0.001606
O O8 0.646433 0.807595 0.090286
O O9 0.667116 0.813312 0.288301
O O10 0.709764 0.991713 0.081978
O O11 0.750000 0.750000 0.000000
O O12 0.120013 0.088619 0.732891
O O13 0.629276 0.791243 0.570063
O O14 0.703479 0.751118 0.624358
O O15 0.707306 0.601858 0.439140
#
# Coordination Sequence:
#
# PCOD8132661 Si02
#       7
#     8   8   8   8   8   8   8
#     4  11  24  44  66  97 126 162 222 270 316 383
#     4  10  22  43  61  94 135 168 210 263 319 380
#     4  11  23  37  59  96 133 164 215 263 310 383
#     4  10  24  42  68  91 128 168 210 273 322 370
#     4  10  18  39  64  88 122 173 206 249 320 383
#     4  11  23  39  68  91 128 171 214 263 323 377
#     4   9  20  35  59  89 127 166 208 250 311 378
#
# _framework density 21.043703000000001
#
# number of rings (size 3 to 8) (size 9 to 14) (size 15 to 20)
#    0.000    1.714    2.857    0.857    2.000    4.000 
#    0.000    0.714    0.000    0.000    0.000    0.000 
#    0.000    0.000    0.000    0.000    0.000    0.000 
#
# Total GULP energy -347002.044511 kJ/mol
# GULP energy per Si atom -12392.930161 kJ/mol
# Density = 2.099581 g / cm^3
# Si number density = 21.043703 Si / 1000 Ang^3
#
#
#
# Elastic Constant Matrix: (Units=GPa)
#
#
# Indices 1 2 3 4 5 6 
#
# 1 80.1785 37.1345 17.4824 0.0000 -7.2222 0.0000
# 2 37.1345 98.6107 39.1642 0.0000 -12.7387 0.0000
# 3 17.4824 39.1642 86.1221 0.0000 -11.1978 0.0000
# 4 0.0000 0.0000 0.0000 26.8120 0.0000 -6.4957
# 5 -7.2222 -12.7387 -11.1978 0.0000 36.3874 0.0000
# 6 0.0000 0.0000 0.0000 -6.4957 0.0000 33.6576
#
#
#
# Elastic Compliance Matrix: (Units=1/GPa)
#
#
# Indices 1 2 3 4 5 6 
#
# 1 0.015163 -0.005385 -0.000503 0.000000 0.000970 0.000000
# 2 -0.005385 0.014550 -0.005209 0.000000 0.002422 0.000000
# 3 -0.000503 -0.005209 0.014409 0.000000 0.002511 0.000000
# 4 0.000000 0.000000 0.000000 0.039126 0.000000 0.007551
# 5 0.000970 0.002422 0.002511 0.000000 0.029295 0.000000
# 6 0.000000 0.000000 0.000000 0.007551 0.000000 0.031168
#
#
# Mechanical properties :
#
#
# Convention : Reuss Voigt Hill
#
# Bulk Modulus (GPa) = 45.60284 50.27483 47.93883
# Shear Modulus (GPa) = 28.86582 30.78007 29.82294
#
# Velocity S-wave (km/s) = 3.70768 3.82864 3.76864
# Velocity P-wave (km/s) = 6.32825 6.59448 6.46274
#
# Compressibility (1/GPa) = 0.02192846
#
# Stress axis : x y z
#
# Youngs Moduli (GPa) = 65.94868 68.72681 69.40256
#
# Poissons Ratio (x) = 0.37010 0.03492
# Poissons Ratio (y) = 0.35514 0.36150
# Poissons Ratio (z) = 0.03318 0.35798
#
# Static dielectric constant tensor:
#      x y z
#    x 3.730640 0.000000 -0.217310 
#    y 0.000000 3.823420 0.000000 
#    z -0.217310 0.000000 4.079810 
# 
# 
# High freq. dielectric constant tensor:
#      x y z
#    x 1.820560 0.000000 -0.001980 
#    y 0.000000 1.817190 0.000000 
#    z -0.001980 0.000000 1.830030 
# 
# From -- ./inp_files/125844.got.cif
#   From: 2010.06.25/outbox.cif.g09.slc.cpg/sg15_63_cif.got.tgz:125844.got - 2010.06.28 07:06:18.
