data_PCOD8132639
_publ_section_title
;
Structure prediction by ZEFSAII (Michael W. Deem and Ramdas Pophale) SiO2 
 PCOD8132639
Probable space group: C 2/C
;
_chemical_formula_sum "Si O2"
_cell_formula_units_Z 56
_cell_length_a 25.209612
_cell_length_b 11.130017
_cell_length_c 16.628292
_cell_angle_alpha 90.000000
_cell_angle_beta 36.929657
_cell_angle_gamma 90.000000
_cell_volume 2803.265187
_symmetry_space_group_name_H-M "C 2/C"
_symmetry_group_IT_number 15
_symmetry_cell_setting 'monoclinic'
loop_
_space_group_symop_operation_xyz
x,y,z
-x,y,1/2-z
-x,-y,-z
x,-y,1/2+z
1/2+x,1/2+y,z
1/2-x,1/2+y,1/2-z
1/2-x,1/2-y,-z
1/2+x,1/2-y,1/2+z
loop_
_atom_site_type_symbol
_atom_site_label
_atom_site_fract_x
_atom_site_fract_y
_atom_site_fract_z
Si Si1 0.572225 0.836695 0.413018
Si Si2 0.439917 0.833206 0.434312
Si Si3 0.126099 0.920972 0.882004
Si Si4 0.315743 0.923495 0.713533
Si Si5 0.942703 0.039621 0.688399
Si Si6 0.414302 0.811673 0.726729
Si Si7 0.000000 0.465517 0.750000
Si Si8 0.500000 0.632233 0.250000
O O1 0.530346 0.825160 0.375441
O O2 0.630911 0.720360 0.358655
O O3 0.494942 0.846530 0.571297
O O4 0.631410 0.953020 0.348003
O O5 0.354229 0.838291 0.595621
O O6 0.436020 0.715437 0.382404
O O7 0.441501 0.953537 0.379837
O O8 0.214315 0.955907 0.822279
O O9 0.121020 0.992971 0.804702
O O10 0.043923 0.957195 0.036880
O O11 0.326016 0.854460 0.786653
O O12 0.908977 0.171151 0.753948
O O13 0.936975 0.951698 0.771830
O O14 0.427663 0.882681 0.793327
#
# Coordination Sequence:
#
# PCOD8132639 Si02
#       8
#     8   8   8   8   8   8   4   4
#     4  10  18  39  57  84 115 151 197 241 290 351
#     4  10  20  35  62  86 117 149 196 245 296 351
#     4  10  23  37  62  84 118 156 204 238 288 359
#     4  11  21  37  60  93 114 152 202 253 289 343
#     4  10  22  41  57  85 116 165 194 237 296 363
#     4  10  20  34  62  82 115 154 198 239 294 348
#     4  11  17  34  56  90 109 153 184 242 300 359
#     4  11  21  38  66  84 119 161 202 234 296 371
#
# _framework density 19.976704000000002
#
# number of rings (size 3 to 8) (size 9 to 14) (size 15 to 20)
#    0.000    1.714    4.286    1.286    4.000    0.000 
#    0.000    2.143    0.000    3.429    0.000    0.000 
#    0.000    0.000    0.000    0.000    0.000    0.000 
#
# Total GULP energy -347265.585738 kJ/mol
# GULP energy per Si atom -12402.342348 kJ/mol
# Density = 1.993124 g / cm^3
# Si number density = 19.976704 Si / 1000 Ang^3
#
#
#
# Elastic Constant Matrix: (Units=GPa)
#
#
# Indices 1 2 3 4 5 6 
#
# 1 141.3999 56.7700 35.9799 0.0000 -2.9643 0.0000
# 2 56.7700 128.4598 15.0839 0.0000 4.8944 0.0000
# 3 35.9799 15.0839 28.5198 0.0000 -6.6602 0.0000
# 4 0.0000 0.0000 0.0000 15.3917 0.0000 17.2602
# 5 -2.9643 4.8944 -6.6602 0.0000 33.8265 0.0000
# 6 0.0000 0.0000 0.0000 17.2602 0.0000 37.2767
#
#
#
# Elastic Compliance Matrix: (Units=1/GPa)
#
#
# Indices 1 2 3 4 5 6 
#
# 1 0.011913 -0.003658 -0.013341 0.000000 -0.001053 0.000000
# 2 -0.003658 0.009577 -0.000890 0.000000 -0.001882 0.000000
# 3 -0.013341 -0.000890 0.054634 0.000000 0.009717 0.000000
# 4 0.000000 0.000000 0.000000 0.135140 0.000000 -0.062574
# 5 -0.001053 -0.001882 0.009717 0.000000 0.031656 0.000000
# 6 0.000000 0.000000 0.000000 -0.062574 0.000000 0.055800
#
#
# Mechanical properties :
#
#
# Convention : Reuss Voigt Hill
#
# Bulk Modulus (GPa) = 24.78505 57.11634 40.95070
# Shear Modulus (GPa) = 14.37001 30.00200 22.18601
#
# Velocity S-wave (km/s) = 2.68496 3.87957 3.33617
# Velocity P-wave (km/s) = 4.69531 6.98009 5.94843
#
# Compressibility (1/GPa) = 0.04034691
#
# Stress axis : x y z
#
# Youngs Moduli (GPa) = 83.93863 104.41278 18.30370
#
# Poissons Ratio (x) = 0.38197 0.24419
# Poissons Ratio (y) = 0.30707 0.01628
# Poissons Ratio (z) = 1.11982 0.09289
#
# Static dielectric constant tensor:
#      x y z
#    x 3.855830 0.000000 0.178940 
#    y 0.000000 3.867130 0.000000 
#    z 0.178940 0.000000 3.168030 
# 
# 
# High freq. dielectric constant tensor:
#      x y z
#    x 1.788720 0.000000 0.017090 
#    y 0.000000 1.802670 0.000000 
#    z 0.017090 0.000000 1.728170 
# 
# From -- ./inp_files/219096.got.cif
#   From: 2010.06.25/outbox.cif.g09.slc.cpg/sg15_110_cif.got.tgz:219096.got - 2010.06.28 07:06:18.
