data_PCOD8132041
_publ_section_title
;
Structure prediction by ZEFSAII (Michael W. Deem and Ramdas Pophale) SiO2 
 PCOD8132041
Probable space group: C 2/C
;
_chemical_formula_sum "Si O2"
_cell_formula_units_Z 56
_cell_length_a 8.410545
_cell_length_b 17.362794
_cell_length_c 19.125998
_cell_angle_alpha 90.000000
_cell_angle_beta 82.261571
_cell_angle_gamma 90.000000
_cell_volume 2767.544842
_symmetry_space_group_name_H-M "C 2/C"
_symmetry_group_IT_number 15
_symmetry_cell_setting 'monoclinic'
loop_
_space_group_symop_operation_xyz
x,y,z
-x,y,1/2-z
-x,-y,-z
x,-y,1/2+z
1/2+x,1/2+y,z
1/2-x,1/2+y,1/2-z
1/2-x,1/2-y,-z
1/2+x,1/2-y,1/2+z
loop_
_atom_site_type_symbol
_atom_site_label
_atom_site_fract_x
_atom_site_fract_y
_atom_site_fract_z
Si Si1 0.870974 0.469754 0.660419
Si Si2 0.080653 0.265854 0.470804
Si Si3 0.753212 0.094943 0.930146
Si Si4 0.197634 0.876954 0.914529
Si Si5 0.537043 0.193081 0.382264
Si Si6 0.446026 0.354449 0.174902
Si Si7 0.727933 0.006321 0.682763
O O1 0.795033 0.514126 0.599834
O O2 0.769593 0.486975 0.735561
O O3 0.852820 0.379753 0.643220
O O4 0.053001 0.498025 0.659478
O O5 0.250000 0.250000 0.500000
O O6 0.111583 0.342103 0.422215
O O7 0.052296 0.186981 0.427897
O O8 0.943682 0.282003 0.536956
O O9 0.917814 0.126090 0.888946
O O10 0.769051 0.083259 0.012410
O O11 0.354304 0.831615 0.876586
O O12 0.153738 0.944999 0.863007
O O13 0.595831 0.264112 0.330750
O O14 0.500000 0.372594 0.250000
O O15 0.291220 0.407075 0.167328
#
# Coordination Sequence:
#
# PCOD8132041 Si02
#       7
#     8   8   8   8   8   8   8
#     4  10  21  38  54  81 115 146 177 229 273 325
#     4   8  14  30  54  86 104 132 189 225 253 313
#     4  10  18  35  61  81 110 142 188 221 269 323
#     4   9  17  34  56  84 109 145 181 230 266 321
#     4   9  18  32  57  79 105 139 192 218 256 327
#     4  12  21  34  58  85 103 144 185 232 266 326
#     4  10  23  34  53  81 117 138 182 224 283 319
#
# _framework density 20.234541
#
# number of rings (size 3 to 8) (size 9 to 14) (size 15 to 20)
#    0.000    2.571    5.714    0.000    4.000    5.714 
#    0.000    0.000    3.143    4.286    0.000    0.000 
#    0.000    0.000    0.000    0.000    0.000    0.000 
#
# Total GULP energy -346973.907571 kJ/mol
# GULP energy per Si atom -12391.925270 kJ/mol
# Density = 2.018849 g / cm^3
# Si number density = 20.234541 Si / 1000 Ang^3
#
#
#
# Elastic Constant Matrix: (Units=GPa)
#
#
# Indices 1 2 3 4 5 6 
#
# 1 18.4769 34.1606 22.3980 0.0000 -4.2702 0.0000
# 2 34.1606 179.0731 60.1084 0.0000 -1.6350 0.0000
# 3 22.3980 60.1084 94.3741 0.0000 -15.2736 0.0000
# 4 0.0000 0.0000 0.0000 39.6843 0.0000 -7.0740
# 5 -4.2702 -1.6350 -15.2736 0.0000 13.1269 0.0000
# 6 0.0000 0.0000 0.0000 -7.0740 0.0000 24.9974
#
#
#
# Elastic Compliance Matrix: (Units=1/GPa)
#
#
# Indices 1 2 3 4 5 6 
#
# 1 0.099644 -0.015086 -0.011209 0.000000 0.017494 0.000000
# 2 -0.015086 0.009711 -0.003946 0.000000 -0.008290 0.000000
# 3 -0.011209 -0.003946 0.018603 0.000000 0.017508 0.000000
# 4 0.000000 0.000000 0.000000 0.026538 0.000000 0.007510
# 5 0.017494 -0.008290 0.017508 0.000000 0.101208 0.000000
# 6 0.000000 0.000000 0.000000 0.007510 0.000000 0.042129
#
#
# Mechanical properties :
#
#
# Convention : Reuss Voigt Hill
#
# Bulk Modulus (GPa) = 14.82014 58.36198 36.59106
# Shear Modulus (GPa) = 13.12994 27.24555 20.18774
#
# Velocity S-wave (km/s) = 2.55009 3.67343 3.16205
# Velocity P-wave (km/s) = 4.00134 6.84818 5.60840
#
# Compressibility (1/GPa) = 0.06747572
#
# Stress axis : x y z
#
# Youngs Moduli (GPa) = 10.03571 102.97382 53.75377
#
# Poissons Ratio (x) = 1.55350 0.60251
# Poissons Ratio (y) = 0.15140 0.21213
# Poissons Ratio (z) = 0.11249 0.40638
#
# Static dielectric constant tensor:
#      x y z
#    x 3.029890 0.000000 -0.319040 
#    y 0.000000 4.351790 0.000000 
#    z -0.319040 0.000000 3.860530 
# 
# 
# High freq. dielectric constant tensor:
#      x y z
#    x 1.718960 0.000000 -0.028210 
#    y 0.000000 1.811220 0.000000 
#    z -0.028210 0.000000 1.794270 
# 
# From -- ./inp_files/232129.got.cif
#   From: 2010.06.25/outbox.cif.g09.slc.cpg/sg15_117_cif.got.tgz:232129.got - 2010.06.28 07:06:18.
