data_PCOD8132347
_publ_section_title
;
Structure prediction by ZEFSAII (Michael W. Deem and Ramdas Pophale) SiO2 
 PCOD8132347
Probable space group: C 2/C
;
_chemical_formula_sum "Si O2"
_cell_formula_units_Z 52
_cell_length_a 20.292393
_cell_length_b 7.876496
_cell_length_c 16.443935
_cell_angle_alpha 90.000000
_cell_angle_beta 77.845841
_cell_angle_gamma 90.000000
_cell_volume 2569.368822
_symmetry_space_group_name_H-M "C 2/C"
_symmetry_group_IT_number 15
_symmetry_cell_setting 'monoclinic'
loop_
_space_group_symop_operation_xyz
x,y,z
-x,y,1/2-z
-x,-y,-z
x,-y,1/2+z
1/2+x,1/2+y,z
1/2-x,1/2+y,1/2-z
1/2-x,1/2-y,-z
1/2+x,1/2-y,1/2+z
loop_
_atom_site_type_symbol
_atom_site_label
_atom_site_fract_x
_atom_site_fract_y
_atom_site_fract_z
Si Si1 0.465203 0.337511 0.674305
Si Si2 0.500000 0.100642 0.250000
Si Si3 0.067300 0.808820 0.366761
Si Si4 0.810718 0.182574 0.784428
Si Si5 0.819586 0.792951 0.771602
Si Si6 0.050769 0.378889 0.030728
Si Si7 0.632899 0.995190 0.644154
O O1 0.500000 0.388056 0.750000
O O2 0.461113 0.502598 0.619002
O O3 0.389396 0.272136 0.705848
O O4 0.511082 0.204377 0.615651
O O5 0.511116 0.207786 0.329495
O O6 0.434577 0.985085 0.282457
O O7 0.139435 0.797360 0.304467
O O8 0.078806 0.748812 0.455927
O O9 0.737774 0.248849 0.778187
O O10 0.835134 0.307294 0.851119
O O11 0.810055 0.983682 0.811533
O O12 0.817552 0.649904 0.843116
O O13 0.113811 0.480830 0.054050
O O14 0.000000 0.500000 0.000000
#
# Coordination Sequence:
#
# PCOD8132347 Si02
#       7
#     8   4   8   8   8   8   8
#     4  11  22  39  65  91 122 161 211 263 311 371
#     4  10  18  36  66  90 116 168 202 258 304 376
#     4  10  22  39  61  92 125 159 208 256 319 368
#     4  10  23  39  66  89 120 166 213 259 302 375
#     4  11  21  39  67  92 116 164 218 254 306 368
#     4  12  24  36  60  95 130 164 199 260 325 369
#     4  11  21  37  61  91 126 158 209 255 309 368
#
# _framework density 20.238433000000001
#
# number of rings (size 3 to 8) (size 9 to 14) (size 15 to 20)
#    0.000    1.231    5.385    1.385    2.154    0.000 
#    2.769    0.769    0.000    1.846    0.000    0.000 
#    0.000    0.000    0.000    0.000    0.000    0.000 
#
# Total GULP energy -322312.409327 kJ/mol
# GULP energy per Si atom -12396.631128 kJ/mol
# Density = 2.019237 g / cm^3
# Si number density = 20.238433 Si / 1000 Ang^3
#
#
#
# Elastic Constant Matrix: (Units=GPa)
#
#
# Indices 1 2 3 4 5 6 
#
# 1 81.0619 10.0605 6.6904 0.0000 12.3935 0.0000
# 2 10.0605 115.0566 12.7253 0.0000 7.3034 0.0000
# 3 6.6904 12.7253 64.2607 0.0000 16.3099 0.0000
# 4 0.0000 0.0000 0.0000 28.3528 0.0000 11.2032
# 5 12.3935 7.3034 16.3099 0.0000 24.2654 0.0000
# 6 0.0000 0.0000 0.0000 11.2032 0.0000 30.7124
#
#
#
# Elastic Compliance Matrix: (Units=1/GPa)
#
#
# Indices 1 2 3 4 5 6 
#
# 1 0.013460 -0.000792 0.000530 0.000000 -0.006993 0.000000
# 2 -0.000792 0.008998 -0.001344 0.000000 -0.001401 0.000000
# 3 0.000530 -0.001344 0.018976 0.000000 -0.012621 0.000000
# 4 0.000000 0.000000 0.000000 0.041210 0.000000 -0.015032
# 5 -0.006993 -0.001401 -0.012621 0.000000 0.053687 0.000000
# 6 0.000000 0.000000 0.000000 -0.015032 0.000000 0.038044
#
#
# Mechanical properties :
#
#
# Convention : Reuss Voigt Hill
#
# Bulk Modulus (GPa) = 26.16228 35.48127 30.82178
# Shear Modulus (GPa) = 26.27071 32.05965 29.16518
#
# Velocity S-wave (km/s) = 3.60677 3.98439 3.80027
# Velocity P-wave (km/s) = 5.50456 6.22389 5.87524
#
# Compressibility (1/GPa) = 0.03822297
#
# Stress axis : x y z
#
# Youngs Moduli (GPa) = 74.29501 111.13403 52.69861
#
# Poissons Ratio (x) = 0.08798 -0.02794
# Poissons Ratio (y) = 0.05882 0.07083
# Poissons Ratio (z) = -0.03939 0.14936
#
# Static dielectric constant tensor:
#      x y z
#    x 3.672750 0.000000 0.149990 
#    y 0.000000 4.000640 0.000000 
#    z 0.149990 0.000000 3.513500 
# 
# 
# High freq. dielectric constant tensor:
#      x y z
#    x 1.789400 0.000000 0.024480 
#    y 0.000000 1.812790 0.000000 
#    z 0.024480 0.000000 1.756020 
# 
# From -- ./inp_files/166299.got.cif
#   From: 2010.06.25/outbox.cif.g09.slc.cpg/sg15_84_cif.got.tgz:166299.got - 2010.06.28 07:06:18.
