data_PCOD8132736
_publ_section_title
;
Structure prediction by ZEFSAII (Michael W. Deem and Ramdas Pophale) SiO2 
 PCOD8132736
Probable space group: C 2/C
;
_chemical_formula_sum "Si O2"
_cell_formula_units_Z 64
_cell_length_a 20.026736
_cell_length_b 9.473458
_cell_length_c 18.518363
_cell_angle_alpha 90.000000
_cell_angle_beta 112.940586
_cell_angle_gamma 90.000000
_cell_volume 3235.476646
_symmetry_space_group_name_H-M "C 2/C"
_symmetry_group_IT_number 15
_symmetry_cell_setting 'monoclinic'
loop_
_space_group_symop_operation_xyz
x,y,z
-x,y,1/2-z
-x,-y,-z
x,-y,1/2+z
1/2+x,1/2+y,z
1/2-x,1/2+y,1/2-z
1/2-x,1/2-y,-z
1/2+x,1/2-y,1/2+z
loop_
_atom_site_type_symbol
_atom_site_label
_atom_site_fract_x
_atom_site_fract_y
_atom_site_fract_z
Si Si1 0.166500 0.146861 0.525100
Si Si2 0.323831 0.708164 0.809425
Si Si3 0.789752 0.536951 0.488991
Si Si4 0.938365 0.627317 0.898291
Si Si5 0.939092 0.425445 0.566188
Si Si6 0.215491 0.520567 0.674709
Si Si7 0.007490 0.922552 0.927509
Si Si8 0.518635 0.683844 0.674927
O O1 0.161937 0.126340 0.609255
O O2 0.192634 0.302656 0.520526
O O3 0.221169 0.030688 0.514128
O O4 0.089283 0.131040 0.454389
O O5 0.279658 0.602677 0.740560
O O6 0.401016 0.742187 0.805762
O O7 0.281846 0.855527 0.802584
O O8 0.858170 0.465409 0.558708
O O9 0.771834 0.459510 0.405887
O O10 0.860580 0.588986 0.831407
O O11 0.002035 0.542234 0.883228
O O12 0.951584 0.793578 0.898783
O O13 0.936991 0.574177 0.979343
O O14 0.960276 0.273265 0.605144
O O15 0.988224 0.022428 0.852546
O O16 0.000000 0.000000 0.000000
O O17 0.500000 0.698224 0.750000
#
# Coordination Sequence:
#
# PCOD8132736 Si02
#       8
#     8   8   8   8   8   8   8   8
#     4  10  20  39  63  92 122 159 211 256 307 362
#     4  11  23  42  60  88 126 169 203 254 320 377
#     4   9  20  38  65  94 119 157 208 266 298 363
#     4  10  19  38  68  91 115 160 223 248 296 375
#     4  10  18  40  66  91 118 160 210 261 304 370
#     4  10  23  38  64  92 126 162 207 256 315 374
#     4  12  22  39  66  94 122 165 215 256 306 382
#     4  12  27  42  60  93 135 165 201 269 326 366
#
# _framework density 19.7807
#
# number of rings (size 3 to 8) (size 9 to 14) (size 15 to 20)
#    0.000    1.500    5.000    0.000    3.500    1.000 
#    0.000    1.250    0.000    0.000    0.000    0.000 
#    0.000    0.000    0.000    0.000    0.000    0.000 
#
# Total GULP energy -396867.778594 kJ/mol
# GULP energy per Si atom -12402.118081 kJ/mol
# Density = 1.973568 g / cm^3
# Si number density = 19.780700 Si / 1000 Ang^3
#
#
#
# Elastic Constant Matrix: (Units=GPa)
#
#
# Indices 1 2 3 4 5 6 
#
# 1 103.9835 13.4574 35.2803 0.0000 0.5009 0.0000
# 2 13.4574 74.4332 16.0878 0.0000 7.0436 0.0000
# 3 35.2803 16.0878 63.0988 0.0000 12.1105 0.0000
# 4 0.0000 0.0000 0.0000 34.3168 0.0000 8.6715
# 5 0.5009 7.0436 12.1105 0.0000 27.1595 0.0000
# 6 0.0000 0.0000 0.0000 8.6715 0.0000 31.5039
#
#
#
# Elastic Compliance Matrix: (Units=1/GPa)
#
#
# Indices 1 2 3 4 5 6 
#
# 1 0.012159 -0.000953 -0.007174 0.000000 0.003222 0.000000
# 2 -0.000953 0.014422 -0.002657 0.000000 -0.002538 0.000000
# 3 -0.007174 -0.002657 0.022286 0.000000 -0.009116 0.000000
# 4 0.000000 0.000000 0.000000 0.031319 0.000000 -0.008620
# 5 0.003222 -0.002538 -0.009116 0.000000 0.041483 0.000000
# 6 0.000000 0.000000 0.000000 -0.008620 0.000000 0.034115
#
#
# Mechanical properties :
#
#
# Convention : Reuss Voigt Hill
#
# Bulk Modulus (GPa) = 36.63083 41.24072 38.93578
# Shear Modulus (GPa) = 26.81687 30.37539 28.59613
#
# Velocity S-wave (km/s) = 3.68599 3.92293 3.80631
# Velocity P-wave (km/s) = 6.05591 6.43533 6.24850
#
# Compressibility (1/GPa) = 0.02729941
#
# Stress axis : x y z
#
# Youngs Moduli (GPa) = 82.24627 69.34065 44.87062
#
# Poissons Ratio (x) = 0.06606 0.32189
# Poissons Ratio (y) = 0.07835 0.11923
# Poissons Ratio (z) = 0.59001 0.18426
#
# Static dielectric constant tensor:
#      x y z
#    x 3.913650 0.000000 0.091130 
#    y 0.000000 3.650730 0.000000 
#    z 0.091130 0.000000 3.470080 
# 
# 
# High freq. dielectric constant tensor:
#      x y z
#    x 1.775180 0.000000 0.014740 
#    y 0.000000 1.771290 0.000000 
#    z 0.014740 0.000000 1.752920 
# 
# From -- ./inp_files/251909.got.cif
#   From: 2010.06.25/outbox.cif.g09.slc.cpg/sg15_126_cif.got.tgz:251909.got - 2010.06.28 07:06:18.
