data_PCOD8132499
_publ_section_title
;
Structure prediction by ZEFSAII (Michael W. Deem and Ramdas Pophale) SiO2 
 PCOD8132499
Probable space group: C 2/C
;
_chemical_formula_sum "Si O2"
_cell_formula_units_Z 56
_cell_length_a 9.029336
_cell_length_b 14.922125
_cell_length_c 20.916831
_cell_angle_alpha 90.000000
_cell_angle_beta 96.679622
_cell_angle_gamma 90.000000
_cell_volume 2799.138383
_symmetry_space_group_name_H-M "C 2/C"
_symmetry_group_IT_number 15
_symmetry_cell_setting 'monoclinic'
loop_
_space_group_symop_operation_xyz
x,y,z
-x,y,1/2-z
-x,-y,-z
x,-y,1/2+z
1/2+x,1/2+y,z
1/2-x,1/2+y,1/2-z
1/2-x,1/2-y,-z
1/2+x,1/2-y,1/2+z
loop_
_atom_site_type_symbol
_atom_site_label
_atom_site_fract_x
_atom_site_fract_y
_atom_site_fract_z
Si Si1 0.829298 0.141403 0.759069
Si Si2 0.717217 0.217918 0.132800
Si Si3 0.459421 0.356519 0.445215
Si Si4 0.528094 0.332923 0.591708
Si Si5 0.288901 0.710815 0.629324
Si Si6 0.797331 0.997113 0.857397
Si Si7 0.027653 0.384878 0.825108
O O1 0.777493 0.216685 0.806160
O O2 0.738119 0.150525 0.687920
O O3 0.804580 0.043749 0.788391
O O4 0.000000 0.155721 0.750000
O O5 0.631491 0.264470 0.069205
O O6 0.630969 0.125350 0.146294
O O7 0.883821 0.198559 0.121448
O O8 0.489980 0.373308 0.520788
O O9 0.616542 0.350651 0.414960
O O10 0.355542 0.437547 0.415742
O O11 0.641268 0.249344 0.587792
O O12 0.600124 0.409136 0.639511
O O13 0.389959 0.790059 0.662705
O O14 0.626479 0.964941 0.861192
O O15 0.000000 0.406602 0.750000
#
# Coordination Sequence:
#
# PCOD8132499 Si02
#       7
#     8   8   8   8   8   8   8
#     4  11  18  41  60  82 118 157 193 245 316 355
#     4  10  20  37  63  84 118 158 194 252 297 350
#     4  10  20  42  61  82 124 162 197 241 299 360
#     4  11  23  37  60  96 115 153 209 246 288 364
#     4  10  19  38  65  83 113 160 204 245 296 352
#     4  10  23  36  61  85 119 158 195 246 305 357
#     4  10  18  38  58  83 114 158 192 238 301 366
#
# _framework density 20.006156000000001
#
# number of rings (size 3 to 8) (size 9 to 14) (size 15 to 20)
#    0.000    1.714    5.714    1.286    0.000    1.714 
#    5.143    0.714    0.000    0.000    0.000    0.000 
#    0.000    0.000    0.000    0.000    0.000    0.000 
#
# Total GULP energy -347125.732301 kJ/mol
# GULP energy per Si atom -12397.347582 kJ/mol
# Density = 1.996062 g / cm^3
# Si number density = 20.006156 Si / 1000 Ang^3
#
#
#
# Elastic Constant Matrix: (Units=GPa)
#
#
# Indices 1 2 3 4 5 6 
#
# 1 119.0870 47.1176 26.1561 0.0000 -10.7541 0.0000
# 2 47.1176 81.1626 34.8890 0.0000 -6.8860 0.0000
# 3 26.1561 34.8890 61.6192 0.0000 -11.9744 0.0000
# 4 0.0000 0.0000 0.0000 28.1656 0.0000 2.7141
# 5 -10.7541 -6.8860 -11.9744 0.0000 24.3845 0.0000
# 6 0.0000 0.0000 0.0000 2.7141 0.0000 28.1839
#
#
#
# Elastic Compliance Matrix: (Units=1/GPa)
#
#
# Indices 1 2 3 4 5 6 
#
# 1 0.011166 -0.005870 -0.000864 0.000000 0.002843 0.000000
# 2 -0.005870 0.019370 -0.008751 0.000000 -0.001416 0.000000
# 3 -0.000864 -0.008751 0.023211 0.000000 0.008546 0.000000
# 4 0.000000 0.000000 0.000000 0.035837 0.000000 -0.003451
# 5 0.002843 -0.001416 0.008546 0.000000 0.046060 0.000000
# 6 0.000000 0.000000 0.000000 -0.003451 0.000000 0.035814
#
#
# Mechanical properties :
#
#
# Convention : Reuss Voigt Hill
#
# Bulk Modulus (GPa) = 43.90220 53.13269 48.51745
# Shear Modulus (GPa) = 23.80726 26.39385 25.10056
#
# Velocity S-wave (km/s) = 3.45338 3.63614 3.54593
# Velocity P-wave (km/s) = 6.15573 6.65165 6.40849
#
# Compressibility (1/GPa) = 0.02277790
#
# Stress axis : x y z
#
# Youngs Moduli (GPa) = 89.55691 51.62573 43.08294
#
# Poissons Ratio (x) = 0.30303 0.03722
# Poissons Ratio (y) = 0.52568 0.37702
# Poissons Ratio (z) = 0.07737 0.45178
#
# Static dielectric constant tensor:
#      x y z
#    x 3.693270 0.000000 0.075730 
#    y 0.000000 3.620630 0.000000 
#    z 0.075730 0.000000 3.668950 
# 
# 
# High freq. dielectric constant tensor:
#      x y z
#    x 1.775270 0.000000 0.007860 
#    y 0.000000 1.767510 0.000000 
#    z 0.007860 0.000000 1.774810 
# 
# From -- ./inp_files/231581.got.cif
#   From: 2010.06.25/outbox.cif.g09.slc.cpg/sg15_116_cif.got.tgz:231581.got - 2010.06.28 07:06:18.
