data_PCOD8132314
_publ_section_title
;
Structure prediction by ZEFSAII (Michael W. Deem and Ramdas Pophale) SiO2 
 PCOD8132314
Probable space group: C 2/C
;
_chemical_formula_sum "Si O2"
_cell_formula_units_Z 44
_cell_length_a 22.984284
_cell_length_b 9.557871
_cell_length_c 13.378664
_cell_angle_alpha 90.000000
_cell_angle_beta 128.526926
_cell_angle_gamma 90.000000
_cell_volume 2299.253401
_symmetry_space_group_name_H-M "C 2/C"
_symmetry_group_IT_number 15
_symmetry_cell_setting 'monoclinic'
loop_
_space_group_symop_operation_xyz
x,y,z
-x,y,1/2-z
-x,-y,-z
x,-y,1/2+z
1/2+x,1/2+y,z
1/2-x,1/2+y,1/2-z
1/2-x,1/2-y,-z
1/2+x,1/2-y,1/2+z
loop_
_atom_site_type_symbol
_atom_site_label
_atom_site_fract_x
_atom_site_fract_y
_atom_site_fract_z
Si Si1 0.929992 0.907015 0.895441
Si Si2 0.515513 0.154638 0.049235
Si Si3 0.500000 0.743644 0.750000
Si Si4 0.706204 0.500350 0.622873
Si Si5 0.181131 0.742514 0.222570
Si Si6 0.137301 0.067088 0.850904
O O1 0.865544 0.932119 0.905133
O O2 0.901270 0.944231 0.754341
O O3 0.953991 0.746081 0.925710
O O4 0.000000 0.000000 0.000000
O O5 0.507115 0.160908 0.159807
O O6 0.596317 0.209458 0.102269
O O7 0.500000 0.000000 0.000000
O O8 0.572932 0.648800 0.841063
O O9 0.776743 0.404243 0.724605
O O10 0.717936 0.658496 0.676312
O O11 0.694113 0.502621 0.490266
O O12 0.183791 0.827492 0.329770
#
# Coordination Sequence:
#
# PCOD8132314 Si02
#       6
#     8   8   4   8   8   8
#     4  11  19  39  64  89 114 157 212 259 291 366
#     4  11  23  41  60  93 126 156 208 256 307 366
#     4  10  18  36  64  86 112 168 194 248 324 346
#     4  11  21  39  61  87 124 158 202 248 311 360
#     4  10  24  38  60  90 120 166 201 247 311 368
#     4  10  19  36  65  89 113 160 214 246 302 372
#
# _framework density 19.136645000000001
#
# number of rings (size 3 to 8) (size 9 to 14) (size 15 to 20)
#    0.000    1.455    7.273    0.545    2.545    0.000 
#    3.273    3.636    0.000    0.000    0.000    0.000 
#    0.000    0.000    0.000    0.000    0.000    0.000 
#
# Total GULP energy -272797.989979 kJ/mol
# GULP energy per Si atom -12399.908635 kJ/mol
# Density = 1.909309 g / cm^3
# Si number density = 19.136645 Si / 1000 Ang^3
#
#
#
# Elastic Constant Matrix: (Units=GPa)
#
#
# Indices 1 2 3 4 5 6 
#
# 1 54.7334 14.5952 16.1263 0.0000 -1.3143 0.0000
# 2 14.5952 117.3900 52.4606 0.0000 -6.5239 0.0000
# 3 16.1263 52.4606 106.9833 0.0000 -5.9270 0.0000
# 4 0.0000 0.0000 0.0000 38.9393 0.0000 7.2591
# 5 -1.3143 -6.5239 -5.9270 0.0000 19.8080 0.0000
# 6 0.0000 0.0000 0.0000 7.2591 0.0000 31.0963
#
#
#
# Elastic Compliance Matrix: (Units=1/GPa)
#
#
# Indices 1 2 3 4 5 6 
#
# 1 0.019300 -0.001402 -0.002213 0.000000 0.000157 0.000000
# 2 -0.001402 0.011092 -0.005115 0.000000 0.002029 0.000000
# 3 -0.002213 -0.005115 0.012291 0.000000 0.001846 0.000000
# 4 0.000000 0.000000 0.000000 0.026849 0.000000 -0.006268
# 5 0.000157 0.002029 0.001846 0.000000 0.051716 0.000000
# 6 0.000000 0.000000 0.000000 -0.006268 0.000000 0.033621
#
#
# Mechanical properties :
#
#
# Convention : Reuss Voigt Hill
#
# Bulk Modulus (GPa) = 39.64670 49.49677 44.57173
# Shear Modulus (GPa) = 27.66442 31.03035 29.34739
#
# Velocity S-wave (km/s) = 3.80626 4.03117 3.92033
# Velocity P-wave (km/s) = 6.33084 6.89842 6.62071
#
# Compressibility (1/GPa) = 0.02522278
#
# Stress axis : x y z
#
# Youngs Moduli (GPa) = 51.81342 90.15817 81.35752
#
# Poissons Ratio (x) = 0.12639 0.18005
# Poissons Ratio (y) = 0.07263 0.41616
# Poissons Ratio (z) = 0.11467 0.46117
#
# Static dielectric constant tensor:
#      x y z
#    x 3.985150 0.000000 -0.113310 
#    y 0.000000 3.269700 0.000000 
#    z -0.113310 0.000000 3.663450 
# 
# 
# High freq. dielectric constant tensor:
#      x y z
#    x 1.744870 0.000000 0.000060 
#    y 0.000000 1.731920 0.000000 
#    z 0.000060 0.000000 1.744150 
# 
# From -- ./inp_files/116662.got.cif
#   From: 2010.06.25/outbox.cif.g09.slc.cpg/sg15_59_cif.got.tgz:116662.got - 2010.06.28 07:06:18.
