data_PCOD8132072
_publ_section_title
;
Structure prediction by ZEFSAII (Michael W. Deem and Ramdas Pophale) SiO2 
 PCOD8132072
Probable space group: C 2/C
;
_chemical_formula_sum "Si O2"
_cell_formula_units_Z 60
_cell_length_a 29.580582
_cell_length_b 20.677083
_cell_length_c 16.297934
_cell_angle_alpha 90.000000
_cell_angle_beta 18.880234
_cell_angle_gamma 90.000000
_cell_volume 3225.707596
_symmetry_space_group_name_H-M "C 2/C"
_symmetry_group_IT_number 15
_symmetry_cell_setting 'monoclinic'
loop_
_space_group_symop_operation_xyz
x,y,z
-x,y,1/2-z
-x,-y,-z
x,-y,1/2+z
1/2+x,1/2+y,z
1/2-x,1/2+y,1/2-z
1/2-x,1/2-y,-z
1/2+x,1/2-y,1/2+z
loop_
_atom_site_type_symbol
_atom_site_label
_atom_site_fract_x
_atom_site_fract_y
_atom_site_fract_z
Si Si1 0.017390 0.320250 0.816246
Si Si2 0.281133 0.415756 0.811743
Si Si3 0.591050 0.454133 0.458198
Si Si4 0.793697 0.106192 0.892090
Si Si5 0.153840 0.564209 0.861244
Si Si6 0.510024 0.671836 0.634887
Si Si7 0.220312 0.034253 0.018257
Si Si8 0.000000 0.478437 0.250000
O O1 0.164445 0.347247 0.595397
O O2 0.000000 0.328242 0.750000
O O3 0.999590 0.246475 0.873662
O O4 0.890857 0.361317 0.071794
O O5 0.387292 0.474958 0.616912
O O6 0.344922 0.354353 0.653782
O O7 0.264567 0.408834 0.938937
O O8 0.129860 0.430952 0.035629
O O9 0.612244 0.399463 0.351684
O O10 0.697802 0.441120 0.348280
O O11 0.431880 0.456011 0.762169
O O12 0.878977 0.135715 0.820786
O O13 0.745665 0.034351 0.998359
O O14 0.165968 0.538696 0.748299
O O15 0.030514 0.524958 0.119866
O O16 0.500000 0.660652 0.750000
#
# Coordination Sequence:
#
# PCOD8132072 Si02
#       8
#     8   8   8   8   8   8   8   4
#     4  11  22  41  59  84 120 164 203 238 282 354
#     4  10  20  38  55  86 120 149 187 248 303 342
#     4  10  18  35  63  85 120 154 183 252 301 353
#     4  11  20  38  64  89 119 150 196 250 302 346
#     4  11  21  37  59  87 120 154 197 240 297 364
#     4  11  24  38  63  86 118 157 207 248 285 350
#     4  11  21  33  62  93 118 147 192 248 307 357
#     4  10  22  34  60  80 114 158 186 248 306 346
#
# _framework density 18.600569
#
# number of rings (size 3 to 8) (size 9 to 14) (size 15 to 20)
#    0.000    1.333    4.667    3.200    3.733    2.133 
#    0.000    0.667    2.933    0.000    0.000    0.000 
#    0.000    0.000    0.000    0.000    0.000    0.000 
#
# Total GULP energy -371907.997641 kJ/mol
# GULP energy per Si atom -12396.933255 kJ/mol
# Density = 1.855823 g / cm^3
# Si number density = 18.600569 Si / 1000 Ang^3
#
#
#
# Elastic Constant Matrix: (Units=GPa)
#
#
# Indices 1 2 3 4 5 6 
#
# 1 90.2003 42.5533 39.3492 -0.0149 13.8346 0.0009
# 2 42.5533 103.9669 54.6118 -0.0416 6.2582 0.0085
# 3 39.3492 54.6118 89.2611 -0.0216 17.5565 0.0021
# 4 -0.0149 -0.0416 -0.0216 27.6383 0.0126 0.4623
# 5 13.8346 6.2582 17.5565 0.0126 35.9849 0.0015
# 6 0.0009 0.0085 0.0021 0.4623 0.0015 23.5343
#
#
#
# Elastic Compliance Matrix: (Units=1/GPa)
#
#
# Indices 1 2 3 4 5 6 
#
# 1 0.015066 -0.004162 -0.003427 0.000001 -0.003396 0.000001
# 2 -0.004162 0.015448 -0.008189 0.000013 0.002909 -0.000005
# 3 -0.003427 -0.008189 0.019009 0.000004 -0.006532 0.000002
# 4 0.000001 0.000013 0.000004 0.036194 -0.000017 -0.000711
# 5 -0.003396 0.002909 -0.006532 -0.000017 0.031776 -0.000002
# 6 0.000001 -0.000005 0.000002 -0.000711 -0.000002 0.042505
#
#
# Mechanical properties :
#
#
# Convention : Reuss Voigt Hill
#
# Bulk Modulus (GPa) = 55.65746 61.82855 58.74300
# Shear Modulus (GPa) = 25.31091 27.22577 26.26834
#
# Velocity S-wave (km/s) = 3.69285 3.82999 3.76205
# Velocity P-wave (km/s) = 6.94048 7.27123 7.10778
#
# Compressibility (1/GPa) = 0.01796704
#
# Stress axis : x y z
#
# Youngs Moduli (GPa) = 66.37550 64.73217 52.60654
#
# Poissons Ratio (x) = 0.26939 0.18030
# Poissons Ratio (y) = 0.27623 0.43080
# Poissons Ratio (z) = 0.22749 0.53010
#
# Static dielectric constant tensor:
#      x y z
#    x 3.468670 -0.000010 0.020260 
#    y -0.000010 3.411480 0.000040 
#    z 0.020260 0.000040 3.417180 
# 
# 
# High freq. dielectric constant tensor:
#      x y z
#    x 1.733960 0.000000 -0.009190 
#    y 0.000000 1.693950 0.000000 
#    z -0.009190 0.000000 1.722060 
# 
# From -- ./inp_files/179083.got.cif
#   From: 2010.06.25/outbox.cif.g09.slc.cpg/sg15_90_cif.got.tgz:179083.got - 2010.06.28 07:06:18.
