data_PCOD8132039
_publ_section_title
;
Structure prediction by ZEFSAII (Michael W. Deem and Ramdas Pophale) SiO2 
 PCOD8132039
Probable space group: C 2/C
;
_chemical_formula_sum "Si O2"
_cell_formula_units_Z 44
_cell_length_a 19.665877
_cell_length_b 13.303662
_cell_length_c 9.004793
_cell_angle_alpha 90.000000
_cell_angle_beta 119.084353
_cell_angle_gamma 90.000000
_cell_volume 2058.839450
_symmetry_space_group_name_H-M "C 2/C"
_symmetry_group_IT_number 15
_symmetry_cell_setting 'monoclinic'
loop_
_space_group_symop_operation_xyz
x,y,z
-x,y,1/2-z
-x,-y,-z
x,-y,1/2+z
1/2+x,1/2+y,z
1/2-x,1/2+y,1/2-z
1/2-x,1/2-y,-z
1/2+x,1/2-y,1/2+z
loop_
_atom_site_type_symbol
_atom_site_label
_atom_site_fract_x
_atom_site_fract_y
_atom_site_fract_z
Si Si1 0.224749 0.738334 0.267210
Si Si2 0.665594 0.123118 0.477754
Si Si3 0.921001 0.133489 0.822153
Si Si4 0.000000 0.301685 0.750000
Si Si5 0.238606 0.929800 0.875152
Si Si6 0.870537 0.998763 0.999589
O O1 0.308909 0.790869 0.377797
O O2 0.208202 0.650097 0.369201
O O3 0.164996 0.828900 0.225878
O O4 0.222343 0.680517 0.106011
O O5 0.571845 0.126607 0.368044
O O6 0.692637 0.012330 0.554113
O O7 0.978228 0.228641 0.866502
O O8 0.916062 0.076960 0.657471
O O9 0.938432 0.061826 0.982816
O O10 0.189591 0.930462 0.974701
O O11 0.177897 0.939849 0.675542
#
# Coordination Sequence:
#
# PCOD8132039 Si02
#       6
#     8   8   8   4   8   8
#     4  10  18  35  61  80 116 148 203 240 279 344
#     4  10  19  36  56  87 115 156 192 235 289 351
#     4  10  21  38  57  89 111 158 190 241 294 340
#     4  10  22  36  58  80 124 162 190 218 296 370
#     4  11  18  33  60  91 110 147 195 251 284 327
#     4  10  19  34  58  89 113 139 201 247 288 320
#
# _framework density 21.371262000000002
#
# number of rings (size 3 to 8) (size 9 to 14) (size 15 to 20)
#    0.000    1.818    5.455    2.182    0.000    1.455 
#    0.000    3.636    0.000    0.000    0.000    0.000 
#    0.000    0.000    0.000    0.000    0.000    0.000 
#
# Total GULP energy -272593.425869 kJ/mol
# GULP energy per Si atom -12390.610267 kJ/mol
# Density = 2.132262 g / cm^3
# Si number density = 21.371262 Si / 1000 Ang^3
#
#
#
# Elastic Constant Matrix: (Units=GPa)
#
#
# Indices 1 2 3 4 5 6 
#
# 1 66.9863 17.0313 32.4916 0.0000 13.0791 0.0000
# 2 17.0313 56.4915 25.8353 0.0000 -0.8235 0.0000
# 3 32.4916 25.8353 60.0675 0.0000 -9.1968 0.0000
# 4 0.0000 0.0000 0.0000 31.4468 0.0000 -6.4257
# 5 13.0791 -0.8235 -9.1968 0.0000 36.5104 0.0000
# 6 0.0000 0.0000 0.0000 -6.4257 0.0000 33.1899
#
#
#
# Elastic Compliance Matrix: (Units=1/GPa)
#
#
# Indices 1 2 3 4 5 6 
#
# 1 0.024951 -0.000800 -0.015106 0.000000 -0.012761 0.000000
# 2 -0.000800 0.022198 -0.009355 0.000000 -0.001569 0.000000
# 3 -0.015106 -0.009355 0.030828 0.000000 0.012966 0.000000
# 4 0.000000 0.000000 0.000000 0.033110 0.000000 0.006410
# 5 -0.012761 -0.001569 0.012966 0.000000 0.035192 0.000000
# 6 0.000000 0.000000 0.000000 0.006410 0.000000 0.031371
#
#
# Mechanical properties :
#
#
# Convention : Reuss Voigt Hill
#
# Bulk Modulus (GPa) = 36.42358 37.14018 36.78188
# Shear Modulus (GPa) = 21.06837 27.44191 24.25514
#
# Velocity S-wave (km/s) = 3.14319 3.58726 3.37254
# Velocity P-wave (km/s) = 5.50029 5.87998 5.69330
#
# Compressibility (1/GPa) = 0.02745474
#
# Stress axis : x y z
#
# Youngs Moduli (GPa) = 40.07929 45.04813 32.43808
#
# Poissons Ratio (x) = 0.03603 0.49001
# Poissons Ratio (y) = 0.03205 0.30347
# Poissons Ratio (z) = 0.60544 0.42144
#
# Static dielectric constant tensor:
#      x y z
#    x 3.948640 0.000000 -0.267180 
#    y 0.000000 3.834390 0.000000 
#    z -0.267180 0.000000 3.760080 
# 
# 
# High freq. dielectric constant tensor:
#      x y z
#    x 1.837590 0.000000 -0.010750 
#    y 0.000000 1.837660 0.000000 
#    z -0.010750 0.000000 1.808900 
# 
# From -- ./inp_files/54909.got.cif
#   From: 2010.06.25/outbox.cif.g09.slc.cpg/sg15_28_cif.got.tgz:54909.got - 2010.06.28 07:06:18.
