data_PCOD8132103
_publ_section_title
;
Structure prediction by ZEFSAII (Michael W. Deem and Ramdas Pophale) SiO2 
 PCOD8132103
Probable space group: C 2/C
;
_chemical_formula_sum "Si O2"
_cell_formula_units_Z 44
_cell_length_a 11.104114
_cell_length_b 10.846740
_cell_length_c 31.889631
_cell_angle_alpha 90.000000
_cell_angle_beta 143.671511
_cell_angle_gamma 90.000000
_cell_volume 2275.400389
_symmetry_space_group_name_H-M "C 2/C"
_symmetry_group_IT_number 15
_symmetry_cell_setting 'monoclinic'
loop_
_space_group_symop_operation_xyz
x,y,z
-x,y,1/2-z
-x,-y,-z
x,-y,1/2+z
1/2+x,1/2+y,z
1/2-x,1/2+y,1/2-z
1/2-x,1/2-y,-z
1/2+x,1/2-y,1/2+z
loop_
_atom_site_type_symbol
_atom_site_label
_atom_site_fract_x
_atom_site_fract_y
_atom_site_fract_z
Si Si1 0.685037 0.549519 0.434266
Si Si2 0.121113 0.356618 0.059802
Si Si3 0.467187 0.231353 0.652498
Si Si4 0.416474 0.386713 0.500482
Si Si5 0.777515 0.076840 0.692290
Si Si6 0.000000 0.161529 0.250000
O O1 0.696509 0.407875 0.419694
O O2 0.513028 0.631206 0.362402
O O3 0.656753 0.561978 0.475511
O O4 0.902380 0.602730 0.480952
O O5 0.149160 0.408189 0.114168
O O6 0.106066 0.208265 0.057570
O O7 0.271943 0.166861 0.577786
O O8 0.662314 0.145483 0.697891
O O9 0.446271 0.247924 0.696521
O O10 0.500000 0.500000 0.500000
O O11 0.000000 0.140266 0.750000
O O12 0.809548 0.928949 0.708907
#
# Coordination Sequence:
#
# PCOD8132103 Si02
#       6
#     8   8   8   8   8   4
#     4  10  18  35  68  82 110 158 199 253 304 353
#     4  10  18  36  63  87 108 158 209 240 299 373
#     4  11  20  43  62  85 123 157 207 256 304 370
#     4  11  23  37  60  94 125 155 197 267 318 354
#     4  10  20  39  61  89 116 165 212 239 308 376
#     4  10  24  40  62  88 124 172 206 238 312 378
#
# _framework density 19.337257000000001
#
# number of rings (size 3 to 8) (size 9 to 14) (size 15 to 20)
#    0.545    1.091    5.455    1.091    0.000    0.727 
#    9.818    0.000    0.000    0.000    0.000    0.000 
#    0.000    0.000    0.000    0.000    0.000    0.000 
#
# Total GULP energy -272550.814854 kJ/mol
# GULP energy per Si atom -12388.673402 kJ/mol
# Density = 1.929324 g / cm^3
# Si number density = 19.337257 Si / 1000 Ang^3
#
#
#
# Elastic Constant Matrix: (Units=GPa)
#
#
# Indices 1 2 3 4 5 6 
#
# 1 116.2201 71.6611 38.9274 0.0000 -24.6324 0.0000
# 2 71.6611 78.7604 -2.6184 0.0000 -14.2709 0.0000
# 3 38.9274 -2.6184 52.3277 0.0000 -23.9368 0.0000
# 4 0.0000 0.0000 0.0000 4.8868 0.0000 -4.5628
# 5 -24.6324 -14.2709 -23.9368 0.0000 35.9015 0.0000
# 6 0.0000 0.0000 0.0000 -4.5628 0.0000 43.5292
#
#
#
# Elastic Compliance Matrix: (Units=1/GPa)
#
#
# Indices 1 2 3 4 5 6 
#
# 1 0.063786 -0.064098 -0.060855 0.000000 -0.022289 0.000000
# 2 -0.064098 0.078897 0.065985 0.000000 0.031377 0.000000
# 3 -0.060855 0.065985 0.087167 0.000000 0.042593 0.000000
# 4 0.000000 0.000000 0.000000 0.226831 0.000000 0.023777
# 5 -0.022289 0.031377 0.042593 0.000000 0.053432 0.000000
# 6 0.000000 0.000000 0.000000 0.023777 0.000000 0.025465
#
#
# Mechanical properties :
#
#
# Convention : Reuss Voigt Hill
#
# Bulk Modulus (GPa) = 8.93552 51.47206 30.20379
# Shear Modulus (GPa) = 7.23778 26.15272 16.69525
#
# Velocity S-wave (km/s) = 1.93676 3.68156 2.94151
# Velocity P-wave (km/s) = 3.10360 6.68937 5.21440
#
# Compressibility (1/GPa) = 0.11191289
#
# Stress axis : x y z
#
# Youngs Moduli (GPa) = 15.67734 12.67483 11.47227
#
# Poissons Ratio (x) = 0.81244 0.69814
# Poissons Ratio (y) = 1.00489 -0.75700
# Poissons Ratio (z) = 0.95404 -0.83635
#
# Static dielectric constant tensor:
#      x y z
#    x 4.170550 0.000000 0.071220 
#    y 0.000000 3.764050 0.000000 
#    z 0.071220 0.000000 3.477430 
# 
# 
# High freq. dielectric constant tensor:
#      x y z
#    x 1.729090 0.000000 -0.014440 
#    y 0.000000 1.746700 0.000000 
#    z -0.014440 0.000000 1.751250 
# 
# From -- ./inp_files/268274.got.cif
#   From: 2010.06.25/outbox.cif.g09.slc.cpg/sg15_135_cif.got.tgz:268274.got - 2010.06.28 07:06:18.
