data_PCOD8132378
_publ_section_title
;
Structure prediction by ZEFSAII (Michael W. Deem and Ramdas Pophale) SiO2 
 PCOD8132378
Probable space group: C 2/C
;
_chemical_formula_sum "Si O2"
_cell_formula_units_Z 40
_cell_length_a 18.077738
_cell_length_b 13.003866
_cell_length_c 18.013291
_cell_angle_alpha 90.000000
_cell_angle_beta 148.804729
_cell_angle_gamma 90.000000
_cell_volume 2193.324296
_symmetry_space_group_name_H-M "C 2/C"
_symmetry_group_IT_number 15
_symmetry_cell_setting 'monoclinic'
loop_
_space_group_symop_operation_xyz
x,y,z
-x,y,1/2-z
-x,-y,-z
x,-y,1/2+z
1/2+x,1/2+y,z
1/2-x,1/2+y,1/2-z
1/2-x,1/2-y,-z
1/2+x,1/2-y,1/2+z
loop_
_atom_site_type_symbol
_atom_site_label
_atom_site_fract_x
_atom_site_fract_y
_atom_site_fract_z
Si Si1 0.145059 0.137670 0.138310
Si Si2 0.165594 0.145957 0.411345
Si Si3 0.660511 0.063870 0.075438
Si Si4 0.640335 0.130500 0.649236
Si Si5 0.139740 0.056428 0.544961
O O1 0.289496 0.127400 0.309494
O O2 0.125939 0.256469 0.101298
O O3 0.152656 0.066134 0.071514
O O4 0.021484 0.095155 0.085740
O O5 0.250000 0.250000 0.500000
O O6 0.239933 0.083885 0.409186
O O7 0.185461 0.074128 0.499996
O O8 0.000000 0.169146 0.250000
O O9 0.664282 0.942976 0.098955
O O10 0.499241 0.100729 0.922433
O O11 0.768941 0.123200 0.818202
#
# Coordination Sequence:
#
# PCOD8132378 Si02
#       5
#     8   8   8   8   8
#     4  10  18  37  56  81 108 147 186 225 274 319
#     4  12  24  38  56  83 116 148 180 231 285 328
#     4  10  22  35  55  85 112 142 185 228 272 333
#     4  10  20  37  58  81 112 145 184 228 273 324
#     4  10  22  33  57  84 111 142 186 228 268 335
#
# _framework density 18.237157
#
# number of rings (size 3 to 8) (size 9 to 14) (size 15 to 20)
#    0.000    1.600    2.000    3.600    2.800    0.000 
#    0.000    1.000    0.000    0.000    0.000    0.000 
#    0.000    0.000    0.000    0.000    0.000    0.000 
#
# Total GULP energy -247999.945705 kJ/mol
# GULP energy per Si atom -12399.997285 kJ/mol
# Density = 1.819565 g / cm^3
# Si number density = 18.237157 Si / 1000 Ang^3
#
#
#
# Elastic Constant Matrix: (Units=GPa)
#
#
# Indices 1 2 3 4 5 6 
#
# 1 118.5489 67.1131 30.8946 -0.0001 -2.2416 0.0000
# 2 67.1131 160.5157 36.8395 -0.0001 -14.0907 0.0000
# 3 30.8946 36.8395 71.7665 -0.0003 3.6231 -0.0001
# 4 -0.0001 -0.0001 -0.0003 20.9900 -0.0001 1.2837
# 5 -2.2416 -14.0907 3.6231 -0.0001 24.1194 0.0000
# 6 0.0000 0.0000 -0.0001 1.2837 0.0000 19.0495
#
#
#
# Elastic Compliance Matrix: (Units=1/GPa)
#
#
# Indices 1 2 3 4 5 6 
#
# 1 0.011558 -0.004299 -0.002717 0.000000 -0.001029 0.000000
# 2 -0.004299 0.009234 -0.003166 0.000000 0.005471 0.000000
# 3 -0.002717 -0.003166 0.016963 0.000000 -0.004650 0.000000
# 4 0.000000 0.000000 0.000000 0.047839 0.000000 -0.003224
# 5 -0.001029 0.005471 -0.004650 0.000000 0.045259 0.000000
# 6 0.000000 0.000000 0.000000 -0.003224 0.000000 0.052712
#
#
# Mechanical properties :
#
#
# Convention : Reuss Voigt Hill
#
# Bulk Modulus (GPa) = 57.49638 68.94728 63.22183
# Shear Modulus (GPa) = 23.84066 27.23071 25.53569
#
# Velocity S-wave (km/s) = 3.61952 3.86831 3.74599
# Velocity P-wave (km/s) = 7.00453 7.60525 7.31106
#
# Compressibility (1/GPa) = 0.01739240
#
# Stress axis : x y z
#
# Youngs Moduli (GPa) = 86.52200 108.29234 58.95103
#
# Poissons Ratio (x) = 0.46558 0.16014
# Poissons Ratio (y) = 0.37198 0.18661
# Poissons Ratio (z) = 0.23504 0.34281
#
# Static dielectric constant tensor:
#      x y z
#    x 3.218210 0.000000 0.157290 
#    y 0.000000 3.427440 0.000000 
#    z 0.157290 0.000000 3.580700 
# 
# 
# High freq. dielectric constant tensor:
#      x y z
#    x 1.683210 0.000000 0.014630 
#    y 0.000000 1.707120 0.000000 
#    z 0.014630 0.000000 1.727620 
# 
# From -- ./inp_files/37799.got.cif
#   From: 2010.06.25/outbox.cif.g09.slc.cpg/sg15_19_cif.got.tgz:37799.got - 2010.06.28 07:06:18.
