data_PCOD8132272
_publ_section_title
;
Structure prediction by ZEFSAII (Michael W. Deem and Ramdas Pophale) SiO2 
 PCOD8132272
Probable space group: C 2/C
;
_chemical_formula_sum "Si O2"
_cell_formula_units_Z 56
_cell_length_a 7.809422
_cell_length_b 15.354527
_cell_length_c 23.821366
_cell_angle_alpha 90.000000
_cell_angle_beta 62.003082
_cell_angle_gamma 90.000000
_cell_volume 2522.140891
_symmetry_space_group_name_H-M "C 2/C"
_symmetry_group_IT_number 15
_symmetry_cell_setting 'monoclinic'
loop_
_space_group_symop_operation_xyz
x,y,z
-x,y,1/2-z
-x,-y,-z
x,-y,1/2+z
1/2+x,1/2+y,z
1/2-x,1/2+y,1/2-z
1/2-x,1/2-y,-z
1/2+x,1/2-y,1/2+z
loop_
_atom_site_type_symbol
_atom_site_label
_atom_site_fract_x
_atom_site_fract_y
_atom_site_fract_z
Si Si1 0.244553 0.074810 0.991741
Si Si2 0.985683 0.723984 0.129639
Si Si3 0.654681 0.190589 0.622805
Si Si4 0.500000 0.195081 0.250000
Si Si5 0.810449 0.119604 0.379942
Si Si6 0.300156 0.403442 0.559873
Si Si7 0.290505 0.449068 0.687468
Si Si8 0.500000 0.905877 0.250000
O O1 0.369580 0.132112 0.928918
O O2 0.270825 0.972377 0.975797
O O3 0.306665 0.086811 0.046926
O O4 0.027297 0.111261 0.017412
O O5 0.881838 0.802443 0.110932
O O6 0.010231 0.752113 0.191200
O O7 0.843946 0.637741 0.145944
O O8 0.190237 0.690316 0.072251
O O9 0.583550 0.288427 0.619460
O O10 0.515584 0.153904 0.692693
O O11 0.310092 0.135908 0.271505
O O12 0.978534 0.052845 0.334410
O O13 0.256612 0.449906 0.625881
O O14 0.193678 0.535846 0.727424
#
# Coordination Sequence:
#
# PCOD8132272 Si02
#       8
#     8   8   8   4   8   8   8   4
#     4  10  18  36  62  83 122 154 202 236 294 354
#     4   9  21  35  56  91 117 157 194 242 299 347
#     4  10  22  35  57  92 118 155 194 243 304 339
#     4   9  18  34  58  78 113 156 200 227 288 356
#     4   9  21  35  59  91 116 151 196 246 293 349
#     4   9  18  35  59  89 110 161 198 236 287 360
#     4   9  18  35  59  84 106 158 202 231 283 354
#     4  11  20  36  60  86 117 162 200 237 286 364
#
# _framework density 22.203357
#
# number of rings (size 3 to 8) (size 9 to 14) (size 15 to 20)
#    0.857    1.714    1.429    0.429    2.000    1.714 
#    0.000    0.000    0.000    5.143    0.000    0.000 
#    0.000    0.000    0.000    0.000    0.000    0.000 
#
# Total GULP energy -346871.469301 kJ/mol
# GULP energy per Si atom -12388.266761 kJ/mol
# Density = 2.215282 g / cm^3
# Si number density = 22.203357 Si / 1000 Ang^3
#
#
#
# Elastic Constant Matrix: (Units=GPa)
#
#
# Indices 1 2 3 4 5 6 
#
# 1 39.9867 -13.7983 5.1507 -0.0001 1.6226 0.0000
# 2 -13.7983 27.7672 14.1301 0.0000 -0.2830 0.0001
# 3 5.1507 14.1301 101.0748 -0.0001 -4.3288 0.0000
# 4 -0.0001 0.0000 -0.0001 34.4542 0.0001 -3.4430
# 5 1.6226 -0.2830 -4.3288 0.0001 28.5848 0.0000
# 6 0.0000 0.0001 0.0000 -3.4430 0.0000 25.1859
#
#
#
# Elastic Compliance Matrix: (Units=1/GPa)
#
#
# Indices 1 2 3 4 5 6 
#
# 1 0.031840 0.017951 -0.004229 0.000000 -0.002270 0.000000
# 2 0.017951 0.048898 -0.007824 0.000000 -0.001720 0.000000
# 3 -0.004229 -0.007824 0.011283 0.000000 0.001871 0.000000
# 4 0.000000 0.000000 0.000000 0.029426 0.000000 0.004023
# 5 -0.002270 -0.001720 0.001871 0.000000 0.035379 0.000000
# 6 0.000000 0.000000 0.000000 0.004023 0.000000 0.040255
#
#
# Mechanical properties :
#
#
# Convention : Reuss Voigt Hill
#
# Bulk Modulus (GPa) = 9.63244 19.97709 14.80477
# Shear Modulus (GPa) = 22.73855 28.53473 25.63664
#
# Velocity S-wave (km/s) = 3.20363 3.58879 3.40167
# Velocity P-wave (km/s) = 4.24642 5.11756 4.70221
#
# Compressibility (1/GPa) = 0.10381582
#
# Stress axis : x y z
#
# Youngs Moduli (GPa) = 31.40737 20.45068 88.62762
#
# Poissons Ratio (x) = -0.36711 0.37483
# Poissons Ratio (y) = -0.56380 0.69345
# Poissons Ratio (z) = 0.13283 0.16001
#
# Static dielectric constant tensor:
#      x y z
#    x 3.595530 0.000000 -0.102770 
#    y 0.000000 3.568110 0.000000 
#    z -0.102770 0.000000 4.160400 
# 
# 
# High freq. dielectric constant tensor:
#      x y z
#    x 1.842070 0.000000 -0.004650 
#    y 0.000000 1.839660 0.000000 
#    z -0.004650 0.000000 1.883240 
# 
# From -- ./inp_files/265192.got.cif
#   From: 2010.06.25/outbox.cif.g09.slc.cpg/sg15_133_cif.got.tgz:265192.got - 2010.06.28 07:06:18.
