data_PCOD8132193
_publ_section_title
;
Structure prediction by ZEFSAII (Michael W. Deem and Ramdas Pophale) SiO2 
 PCOD8132193
Probable space group: C 2/C
;
_chemical_formula_sum "Si O2"
_cell_formula_units_Z 36
_cell_length_a 8.972278
_cell_length_b 19.919006
_cell_length_c 16.779929
_cell_angle_alpha 90.000000
_cell_angle_beta 37.936323
_cell_angle_gamma 90.000000
_cell_volume 1843.673411
_symmetry_space_group_name_H-M "C 2/C"
_symmetry_group_IT_number 15
_symmetry_cell_setting 'monoclinic'
loop_
_space_group_symop_operation_xyz
x,y,z
-x,y,1/2-z
-x,-y,-z
x,-y,1/2+z
1/2+x,1/2+y,z
1/2-x,1/2+y,1/2-z
1/2-x,1/2-y,-z
1/2+x,1/2-y,1/2+z
loop_
_atom_site_type_symbol
_atom_site_label
_atom_site_fract_x
_atom_site_fract_y
_atom_site_fract_z
Si Si1 0.516317 0.314408 0.016089
Si Si2 0.114140 0.571925 0.436525
Si Si3 0.570228 0.373709 0.827912
Si Si4 0.711769 0.675057 0.599661
Si Si5 0.500000 0.750843 0.250000
O O1 0.598473 0.349022 0.063382
O O2 0.229526 0.298191 0.134684
O O3 0.588346 0.366542 0.915436
O O4 0.673697 0.247927 0.945775
O O5 0.200778 0.587035 0.308370
O O6 0.335754 0.583107 0.403382
O O7 0.000000 0.500000 0.500000
O O8 0.911332 0.624187 0.546083
O O9 0.557667 0.297198 0.800591
O O10 0.500000 0.673358 0.750000
#
# Coordination Sequence:
#
# PCOD8132193 Si02
#       5
#     8   8   8   8   4
#     4  11  22  37  62  97 128 150 204 257 321 372
#     4  10  23  43  62  84 121 172 212 248 303 367
#     4  10  21  39  65  90 121 167 204 250 309 373
#     4  11  24  36  61  94 125 162 196 263 316 366
#     4  10  18  36  58  94 128 158 184 242 322 386
#
# _framework density 19.526233999999999
#
# number of rings (size 3 to 8) (size 9 to 14) (size 15 to 20)
#    0.000    1.778    4.444    2.000    9.333    0.000 
#    0.000    1.111    4.889    0.000    0.000    0.000 
#    0.000    0.000    0.000    0.000    0.000    0.000 
#
# Total GULP energy -223131.542049 kJ/mol
# GULP energy per Si atom -12396.196781 kJ/mol
# Density = 1.948179 g / cm^3
# Si number density = 19.526234 Si / 1000 Ang^3
#
#
#
# Elastic Constant Matrix: (Units=GPa)
#
#
# Indices 1 2 3 4 5 6 
#
# 1 77.3369 23.1659 69.1571 0.0031 14.9500 0.0069
# 2 23.1659 68.1688 50.8807 0.0009 3.7695 0.0033
# 3 69.1571 50.8807 179.6705 0.0082 0.1678 0.0128
# 4 0.0031 0.0009 0.0082 42.8425 -0.0038 10.3884
# 5 14.9500 3.7695 0.1678 -0.0038 42.4853 -0.0054
# 6 0.0069 0.0033 0.0128 10.3884 -0.0054 48.5639
#
#
#
# Elastic Compliance Matrix: (Units=1/GPa)
#
#
# Indices 1 2 3 4 5 6 
#
# 1 0.022024 -0.000939 -0.008204 0.000000 -0.007634 -0.000002
# 2 -0.000939 0.018755 -0.004949 0.000001 -0.001314 0.000000
# 3 -0.008204 -0.004949 0.010122 -0.000001 0.003286 -0.000001
# 4 0.000000 0.000001 -0.000001 0.024618 0.000002 -0.005266
# 5 -0.007634 -0.001314 0.003286 0.000002 0.026328 0.000003
# 6 -0.000002 0.000000 -0.000001 -0.005266 0.000003 0.021718
#
#
# Mechanical properties :
#
#
# Convention : Reuss Voigt Hill
#
# Bulk Modulus (GPa) = 44.01889 67.95373 55.98631
# Shear Modulus (GPa) = 31.38338 38.90984 35.14661
#
# Velocity S-wave (km/s) = 4.01339 4.46880 4.24721
# Velocity P-wave (km/s) = 6.63843 7.84243 7.26542
#
# Compressibility (1/GPa) = 0.02271752
#
# Stress axis : x y z
#
# Youngs Moduli (GPa) = 45.40514 53.31992 98.79483
#
# Poissons Ratio (x) = 0.05005 0.81054
# Poissons Ratio (y) = 0.04262 0.48890
# Poissons Ratio (z) = 0.37252 0.26386
#
# Static dielectric constant tensor:
#      x y z
#    x 3.884670 0.000000 -0.077510 
#    y 0.000000 3.236260 0.000000 
#    z -0.077510 0.000000 3.819030 
# 
# 
# High freq. dielectric constant tensor:
#      x y z
#    x 1.759420 0.000000 -0.011560 
#    y 0.000000 1.722650 0.000000 
#    z -0.011560 0.000000 1.779860 
# 
# From -- ./inp_files/77010.got.cif
#   From: 2010.06.25/outbox.cif.g09.slc.cpg/sg15_39_cif.got.tgz:77010.got - 2010.06.28 07:06:18.
