data_PCOD8132295
_publ_section_title
;
Structure prediction by ZEFSAII (Michael W. Deem and Ramdas Pophale) SiO2 
 PCOD8132295
Probable space group: C 2/C
;
_chemical_formula_sum "Si O2"
_cell_formula_units_Z 64
_cell_length_a 14.851348
_cell_length_b 9.399274
_cell_length_c 29.518321
_cell_angle_alpha 90.000000
_cell_angle_beta 133.439536
_cell_angle_gamma 90.000000
_cell_volume 2991.909845
_symmetry_space_group_name_H-M "C 2/C"
_symmetry_group_IT_number 15
_symmetry_cell_setting 'monoclinic'
loop_
_space_group_symop_operation_xyz
x,y,z
-x,y,1/2-z
-x,-y,-z
x,-y,1/2+z
1/2+x,1/2+y,z
1/2-x,1/2+y,1/2-z
1/2-x,1/2-y,-z
1/2+x,1/2-y,1/2+z
loop_
_atom_site_type_symbol
_atom_site_label
_atom_site_fract_x
_atom_site_fract_y
_atom_site_fract_z
Si Si1 0.509528 0.367594 0.871446
Si Si2 0.899386 0.889924 0.282622
Si Si3 0.218373 0.630319 0.057902
Si Si4 0.422244 0.586704 0.008968
Si Si5 0.351783 0.167601 0.759487
Si Si6 0.233321 0.911079 0.823418
Si Si7 0.204496 0.590259 0.474921
Si Si8 0.459274 0.905243 0.831061
O O1 0.506093 0.515555 0.842831
O O2 0.648321 0.305791 0.911470
O O3 0.487954 0.391436 0.917052
O O4 0.398899 0.266910 0.816989
O O5 0.783659 0.892547 0.276948
O O6 0.953379 0.732177 0.296541
O O7 0.857456 0.955830 0.219750
O O8 0.221866 0.571975 0.110152
O O9 0.119534 0.758038 0.022778
O O10 0.178150 0.498035 0.012100
O O11 0.500000 0.500000 0.000000
O O12 0.306135 0.490680 0.981153
O O13 0.344787 0.262949 0.711203
O O14 0.448263 0.036162 0.791529
O O15 0.347632 0.910019 0.828406
O O16 0.250000 0.750000 0.500000
O O17 0.083206 0.592347 0.402546
#
# Coordination Sequence:
#
# PCOD8132295 Si02
#       8
#     8   8   8   8   8   8   8   8
#     4  10  20  40  63  82 124 170 205 262 315 385
#     4   9  19  35  60  89 122 164 203 255 319 376
#     4  11  23  41  65  91 129 168 221 263 320 393
#     4  11  25  42  66  95 125 168 219 265 320 389
#     4   9  18  34  59  89 115 163 211 254 314 374
#     4   9  21  36  60  94 118 166 217 253 311 391
#     4  11  24  43  65  94 129 172 210 266 337 380
#     4  10  18  36  63  86 127 162 207 263 320 375
#
# _framework density 21.391017999999999
#
# number of rings (size 3 to 8) (size 9 to 14) (size 15 to 20)
#    0.000    2.000    0.000    5.250    5.250    2.500 
#    4.500    0.000    0.000    3.000    0.000    0.000 
#    0.000    0.000    0.000    0.000    0.000    0.000 
#
# Total GULP energy -396680.118376 kJ/mol
# GULP energy per Si atom -12396.253699 kJ/mol
# Density = 2.134233 g / cm^3
# Si number density = 21.391018 Si / 1000 Ang^3
#
#
#
# Elastic Constant Matrix: (Units=GPa)
#
#
# Indices 1 2 3 4 5 6 
#
# 1 44.4344 32.1270 23.6187 0.0000 -8.8949 0.0000
# 2 32.1270 175.3332 74.8811 0.0000 -7.8818 0.0000
# 3 23.6187 74.8811 122.9702 0.0000 0.8931 0.0000
# 4 0.0000 0.0000 0.0000 26.1892 0.0000 7.9799
# 5 -8.8949 -7.8818 0.8931 0.0000 31.7172 0.0000
# 6 0.0000 0.0000 0.0000 7.9799 0.0000 29.9021
#
#
#
# Elastic Compliance Matrix: (Units=1/GPa)
#
#
# Indices 1 2 3 4 5 6 
#
# 1 0.028200 -0.003392 -0.003403 0.000000 0.007161 0.000000
# 2 -0.003392 0.008251 -0.004382 0.000000 0.001223 0.000000
# 3 -0.003403 -0.004382 0.011471 0.000000 -0.002366 0.000000
# 4 0.000000 0.000000 0.000000 0.041564 0.000000 -0.011092
# 5 0.007161 0.001223 -0.002366 0.000000 0.033907 0.000000
# 6 0.000000 0.000000 0.000000 -0.011092 0.000000 0.036403
#
#
# Mechanical properties :
#
#
# Convention : Reuss Voigt Hill
#
# Bulk Modulus (GPa) = 39.11005 67.11017 53.11011
# Shear Modulus (GPa) = 26.22301 31.70243 28.96272
#
# Velocity S-wave (km/s) = 3.50507 3.85391 3.68362
# Velocity P-wave (km/s) = 5.89099 7.15854 6.55547
#
# Compressibility (1/GPa) = 0.02556887
#
# Stress axis : x y z
#
# Youngs Moduli (GPa) = 35.46116 121.19241 87.17534
#
# Poissons Ratio (x) = 0.41108 0.29664
# Poissons Ratio (y) = 0.12028 0.38200
# Poissons Ratio (z) = 0.12067 0.53106
#
# Static dielectric constant tensor:
#      x y z
#    x 3.522550 0.000000 0.146780 
#    y 0.000000 4.282630 0.000000 
#    z 0.146780 0.000000 4.099630 
# 
# 
# High freq. dielectric constant tensor:
#      x y z
#    x 1.804040 0.000000 0.012950 
#    y 0.000000 1.853840 0.000000 
#    z 0.012950 0.000000 1.856190 
# 
# From -- ./inp_files/313160.got.cif
#   From: 2010.06.25/outbox.cif.g09.slc.cpg/sg15_157_cif.got.tgz:313160.got - 2010.06.28 07:06:18.
