data_PCOD8132172
_publ_section_title
;
Structure prediction by ZEFSAII (Michael W. Deem and Ramdas Pophale) SiO2 
 PCOD8132172
Probable space group: C 2/C
;
_chemical_formula_sum "Si O2"
_cell_formula_units_Z 44
_cell_length_a 12.681778
_cell_length_b 17.846114
_cell_length_c 12.713625
_cell_angle_alpha 90.000000
_cell_angle_beta 53.371758
_cell_angle_gamma 90.000000
_cell_volume 2309.143695
_symmetry_space_group_name_H-M "C 2/C"
_symmetry_group_IT_number 15
_symmetry_cell_setting 'monoclinic'
loop_
_space_group_symop_operation_xyz
x,y,z
-x,y,1/2-z
-x,-y,-z
x,-y,1/2+z
1/2+x,1/2+y,z
1/2-x,1/2+y,1/2-z
1/2-x,1/2-y,-z
1/2+x,1/2-y,1/2+z
loop_
_atom_site_type_symbol
_atom_site_label
_atom_site_fract_x
_atom_site_fract_y
_atom_site_fract_z
Si Si1 0.313192 0.947749 0.604608
Si Si2 0.915820 0.388120 0.012323
Si Si3 0.632956 0.591087 0.398294
Si Si4 0.500000 0.180233 0.250000
Si Si5 0.238745 0.246520 0.383209
Si Si6 0.411575 0.521780 0.399412
O O1 0.441474 0.895480 0.516518
O O2 0.253851 0.937671 0.755997
O O3 0.207747 0.927789 0.576376
O O4 0.340749 0.035131 0.573397
O O5 0.828092 0.323005 0.119830
O O6 0.931777 0.372086 0.878152
O O7 0.642474 0.679843 0.406452
O O8 0.492780 0.575553 0.428152
O O9 0.641750 0.550242 0.505814
O O10 0.389582 0.231558 0.256003
O O11 0.250000 0.250000 0.500000
O O12 0.500000 0.491635 0.250000
#
# Coordination Sequence:
#
# PCOD8132172 Si02
#       6
#     8   8   8   4   8   8
#     4  10  20  37  59  84 118 153 196 234 286 343
#     4  10  21  36  56  87 116 153 193 237 288 347
#     4  10  19  38  57  86 120 149 194 244 284 334
#     4  10  18  36  58  82 122 148 186 250 294 330
#     4  10  20  35  55  85 111 149 185 238 295 335
#     4   9  19  35  57  85 116 157 191 235 284 347
#
# _framework density 19.054682
#
# number of rings (size 3 to 8) (size 9 to 14) (size 15 to 20)
#    0.000    2.182    1.818    2.182    0.000    0.000 
#   31.091    0.909    0.000    4.364    0.000    0.000 
#    0.000    0.000    0.000    0.000    0.000    0.000 
#
# Total GULP energy -272684.874544 kJ/mol
# GULP energy per Si atom -12394.767025 kJ/mol
# Density = 1.901131 g / cm^3
# Si number density = 19.054682 Si / 1000 Ang^3
#
#
#
# Elastic Constant Matrix: (Units=GPa)
#
#
# Indices 1 2 3 4 5 6 
#
# 1 107.4834 50.6711 26.4275 0.0000 -10.5870 0.0000
# 2 50.6711 126.6541 36.3766 0.0000 -11.7455 0.0000
# 3 26.4275 36.3766 63.2199 0.0000 4.0520 0.0000
# 4 0.0000 0.0000 0.0000 25.7517 0.0000 -6.2061
# 5 -10.5870 -11.7455 4.0520 0.0000 26.2262 0.0000
# 6 0.0000 0.0000 0.0000 -6.2061 0.0000 32.5641
#
#
#
# Elastic Compliance Matrix: (Units=1/GPa)
#
#
# Indices 1 2 3 4 5 6 
#
# 1 0.012170 -0.003574 -0.003276 0.000000 0.003818 0.000000
# 2 -0.003574 0.011244 -0.005258 0.000000 0.004405 0.000000
# 3 -0.003276 -0.005258 0.020653 0.000000 -0.006868 0.000000
# 4 0.000000 0.000000 0.000000 0.040702 0.000000 0.007757
# 5 0.003818 0.004405 -0.006868 0.000000 0.042705 0.000000
# 6 0.000000 0.000000 0.000000 0.007757 0.000000 0.032187
#
#
# Mechanical properties :
#
#
# Convention : Reuss Voigt Hill
#
# Bulk Modulus (GPa) = 50.37426 58.25641 54.31533
# Shear Modulus (GPa) = 26.24753 29.16722 27.70738
#
# Velocity S-wave (km/s) = 3.71547 3.91668 3.81740
# Velocity P-wave (km/s) = 6.70078 7.14797 6.92798
#
# Compressibility (1/GPa) = 0.01985141
#
# Stress axis : x y z
#
# Youngs Moduli (GPa) = 82.16796 88.93494 48.41950
#
# Poissons Ratio (x) = 0.31786 0.15860
# Poissons Ratio (y) = 0.29368 0.25460
# Poissons Ratio (z) = 0.26915 0.46763
#
# Static dielectric constant tensor:
#      x y z
#    x 4.802210 0.000000 -0.723610 
#    y 0.000000 3.546430 0.000000 
#    z -0.723610 0.000000 3.805290 
# 
# 
# High freq. dielectric constant tensor:
#      x y z
#    x 1.756330 0.000000 -0.019250 
#    y 0.000000 1.720400 0.000000 
#    z -0.019250 0.000000 1.728100 
# 
# From -- ./inp_files/87727.got.cif
#   From: 2010.06.25/outbox.cif.g09.slc.cpg/sg15_44_cif.got.tgz:87727.got - 2010.06.28 07:06:18.
