data_PCOD8132956
_publ_section_title
;
Structure prediction by ZEFSAII (Michael W. Deem and Ramdas Pophale) SiO2 
 PCOD8132956
Probable space group: C 2/C
;
_chemical_formula_sum "Si O2"
_cell_formula_units_Z 64
_cell_length_a 18.263059
_cell_length_b 22.662494
_cell_length_c 12.941696
_cell_angle_alpha 90.000000
_cell_angle_beta 135.743877
_cell_angle_gamma 90.000000
_cell_volume 3738.049805
_symmetry_space_group_name_H-M "C 2/C"
_symmetry_group_IT_number 15
_symmetry_cell_setting 'monoclinic'
loop_
_space_group_symop_operation_xyz
x,y,z
-x,y,1/2-z
-x,-y,-z
x,-y,1/2+z
1/2+x,1/2+y,z
1/2-x,1/2+y,1/2-z
1/2-x,1/2-y,-z
1/2+x,1/2-y,1/2+z
loop_
_atom_site_type_symbol
_atom_site_label
_atom_site_fract_x
_atom_site_fract_y
_atom_site_fract_z
Si Si1 0.073108 0.478637 0.232404
Si Si2 0.065365 0.575992 0.510482
Si Si3 0.554756 0.823168 0.695469
Si Si4 0.045581 0.025438 0.188357
Si Si5 0.528041 0.596184 0.973306
Si Si6 0.415163 0.308124 0.251311
Si Si7 0.714922 0.362422 0.535636
Si Si8 0.255617 0.027923 0.954425
O O1 0.083581 0.431757 0.150924
O O2 0.183893 0.490555 0.397401
O O3 0.000000 0.453482 0.250000
O O4 0.028144 0.538083 0.134951
O O5 0.170641 0.558775 0.556542
O O6 0.027778 0.643996 0.463000
O O7 0.500000 0.827150 0.750000
O O8 0.571962 0.755181 0.680273
O O9 0.666947 0.855540 0.805136
O O10 0.170915 0.013971 0.314236
O O11 0.000000 0.048394 0.250000
O O12 0.027125 0.080272 0.092964
O O13 0.982459 0.966029 0.096424
O O14 0.634097 0.632657 0.050134
O O15 0.429096 0.639959 0.850543
O O16 0.500000 0.321714 0.250000
O O17 0.308017 0.311653 0.074772
O O18 0.693826 0.422364 0.452903
#
# Coordination Sequence:
#
# PCOD8132956 Si02
#       8
#     8   8   8   8   8   8   8   8
#     4   9  19  32  47  69 104 133 164 201 244 287
#     4  10  19  31  48  74 100 136 163 202 240 298
#     4  11  19  31  52  76 103 135 165 196 247 300
#     4  11  21  34  52  73  98 135 169 201 248 298
#     4  10  21  34  51  73 102 132 165 206 249 293
#     4   9  19  34  50  74 103 130 163 206 247 294
#     4  11  18  32  48  75 106 129 158 199 249 299
#     4  11  19  30  49  73 105 127 161 200 246 295
#
# _framework density 17.121227000000001
#
# number of rings (size 3 to 8) (size 9 to 14) (size 15 to 20)
#    0.000    1.750    5.000    1.125    1.750    1.000 
#    0.000    0.000    0.000    0.750    0.000    1.750 
#    0.000    0.000    0.000    0.000    0.000    0.000 
#
# Total GULP energy -396551.228930 kJ/mol
# GULP energy per Si atom -12392.225904 kJ/mol
# Density = 1.708226 g / cm^3
# Si number density = 17.121227 Si / 1000 Ang^3
#
#
#
# Elastic Constant Matrix: (Units=GPa)
#
#
# Indices 1 2 3 4 5 6 
#
# 1 71.1237 29.8353 45.7169 0.0000 -6.1132 0.0000
# 2 29.8353 80.9678 35.5826 0.0000 -13.3564 0.0000
# 3 45.7169 35.5826 86.5445 0.0000 -8.8458 0.0000
# 4 0.0000 0.0000 0.0000 15.2858 0.0000 -8.2582
# 5 -6.1132 -13.3564 -8.8458 0.0000 31.5964 0.0000
# 6 0.0000 0.0000 0.0000 -8.2582 0.0000 13.3215
#
#
#
# Elastic Compliance Matrix: (Units=1/GPa)
#
#
# Indices 1 2 3 4 5 6 
#
# 1 0.022155 -0.003706 -0.010193 0.000000 -0.000134 0.000000
# 2 -0.003706 0.016428 -0.004282 0.000000 0.005028 0.000000
# 3 -0.010193 -0.004282 0.018853 0.000000 0.001496 0.000000
# 4 0.000000 0.000000 0.000000 0.098363 0.000000 0.060977
# 5 -0.000134 0.005028 0.001496 0.000000 0.034168 0.000000
# 6 0.000000 0.000000 0.000000 0.060977 0.000000 0.112867
#
#
# Mechanical properties :
#
#
# Convention : Reuss Voigt Hill
#
# Bulk Modulus (GPa) = 47.45671 51.21173 49.33422
# Shear Modulus (GPa) = 14.44161 20.54081 17.49121
#
# Velocity S-wave (km/s) = 2.90744 3.46747 3.19973
# Velocity P-wave (km/s) = 6.24894 6.78287 6.52137
#
# Compressibility (1/GPa) = 0.02107183
#
# Stress axis : x y z
#
# Youngs Moduli (GPa) = 45.13583 60.87257 53.04216
#
# Poissons Ratio (x) = 0.22561 0.54068
# Poissons Ratio (y) = 0.16729 0.22715
# Poissons Ratio (z) = 0.46008 0.26068
#
# Static dielectric constant tensor:
#      x y z
#    x 3.079720 0.000000 0.106730 
#    y 0.000000 3.094020 0.000000 
#    z 0.106730 0.000000 3.435900 
# 
# 
# High freq. dielectric constant tensor:
#      x y z
#    x 1.650400 0.000000 0.017510 
#    y 0.000000 1.633990 0.000000 
#    z 0.017510 0.000000 1.656300 
# 
# From -- ./inp_files/114635.got.cif
#   From: 2010.06.25/outbox.cif.g09.slc.cpg/sg15_58_cif.got.tgz:114635.got - 2010.06.28 07:06:18.
