data_PCOD8132853
_publ_section_title
;
Structure prediction by ZEFSAII (Michael W. Deem and Ramdas Pophale) SiO2 
 PCOD8132853
Probable space group: C 2/C
;
_chemical_formula_sum "Si O2"
_cell_formula_units_Z 48
_cell_length_a 15.775803
_cell_length_b 16.756441
_cell_length_c 10.063285
_cell_angle_alpha 90.000000
_cell_angle_beta 97.509333
_cell_angle_gamma 90.000000
_cell_volume 2637.377370
_symmetry_space_group_name_H-M "C 2/C"
_symmetry_group_IT_number 15
_symmetry_cell_setting 'monoclinic'
loop_
_space_group_symop_operation_xyz
x,y,z
-x,y,1/2-z
-x,-y,-z
x,-y,1/2+z
1/2+x,1/2+y,z
1/2-x,1/2+y,1/2-z
1/2-x,1/2-y,-z
1/2+x,1/2-y,1/2+z
loop_
_atom_site_type_symbol
_atom_site_label
_atom_site_fract_x
_atom_site_fract_y
_atom_site_fract_z
Si Si1 0.381457 0.632007 0.332362
Si Si2 0.654807 0.592594 0.888149
Si Si3 0.000000 0.267483 0.250000
Si Si4 0.000000 0.997718 0.750000
Si Si5 0.234474 0.929311 0.916792
Si Si6 0.307438 0.677283 0.869376
Si Si7 0.363842 0.182642 0.536571
O O1 0.345077 0.639634 0.473537
O O2 0.428457 0.713746 0.305350
O O3 0.446813 0.557762 0.339580
O O4 0.301525 0.615610 0.219729
O O5 0.562556 0.553073 0.847851
O O6 0.728741 0.524555 0.902920
O O7 0.675845 0.656729 0.779501
O O8 0.953943 0.324717 0.131916
O O9 0.177679 0.900847 0.033268
O O10 0.333496 0.900627 0.960116
O O11 0.209965 0.708231 0.871600
O O12 0.372158 0.747347 0.928049
#
# Coordination Sequence:
#
# PCOD8132853 Si02
#       7
#     8   8   4   4   8   8   8
#     4  10  19  29  50  80 107 139 175 212 267 323
#     4  11  20  29  52  83 110 137 175 225 260 317
#     4  11  18  34  56  74 102 145 188 212 264 327
#     4   9  20  28  42  76 124 143 158 202 272 333
#     4   9  17  35  50  73 107 145 173 207 264 324
#     4   9  18  35  52  74 105 144 180 212 265 324
#     4   9  19  35  56  69 104 150 184 212 260 334
#
# _framework density 18.199898000000001
#
# number of rings (size 3 to 8) (size 9 to 14) (size 15 to 20)
#    1.000    1.333    1.667    2.500    2.333    0.000 
#    0.000    3.333    0.000    1.000    0.000    0.000 
#    0.000    0.000    0.000    0.167    0.000    0.000 
#
# Total GULP energy -297409.391803 kJ/mol
# GULP energy per Si atom -12392.057992 kJ/mol
# Density = 1.815847 g / cm^3
# Si number density = 18.199898 Si / 1000 Ang^3
#
#
#
# Elastic Constant Matrix: (Units=GPa)
#
#
# Indices 1 2 3 4 5 6 
#
# 1 61.5836 32.2579 39.8906 0.0000 26.8050 0.0000
# 2 32.2579 59.0364 34.9726 0.0000 10.3170 0.0000
# 3 39.8906 34.9726 143.2521 0.0000 0.3399 0.0000
# 4 0.0000 0.0000 0.0000 18.5450 0.0000 1.1022
# 5 26.8050 10.3170 0.3399 0.0000 30.5387 0.0000
# 6 0.0000 0.0000 0.0000 1.1022 0.0000 10.2442
#
#
#
# Elastic Compliance Matrix: (Units=1/GPa)
#
#
# Indices 1 2 3 4 5 6 
#
# 1 0.043100 -0.012424 -0.008889 0.000000 -0.033534 0.000000
# 2 -0.012424 0.024827 -0.002607 0.000000 0.002547 0.000000
# 3 -0.008889 -0.002607 0.010072 0.000000 0.008571 0.000000
# 4 0.000000 0.000000 0.000000 0.054270 0.000000 -0.005839
# 5 -0.033534 0.002547 0.008571 0.000000 0.061224 0.000000
# 6 0.000000 0.000000 0.000000 -0.005839 0.000000 0.098244
#
#
# Mechanical properties :
#
#
# Convention : Reuss Voigt Hill
#
# Bulk Modulus (GPa) = 33.15884 53.12380 43.14132
# Shear Modulus (GPa) = 14.30081 22.31566 18.30823
#
# Velocity S-wave (km/s) = 2.80619 3.50543 3.17512
# Velocity P-wave (km/s) = 5.36268 6.75548 6.09897
#
# Compressibility (1/GPa) = 0.03015787
#
# Stress axis : x y z
#
# Youngs Moduli (GPa) = 23.20192 40.27898 99.28280
#
# Poissons Ratio (x) = 0.50042 0.88254
# Poissons Ratio (y) = 0.28826 0.25888
# Poissons Ratio (z) = 0.20624 0.10503
#
# Static dielectric constant tensor:
#      x y z
#    x 3.046290 0.000000 0.213460 
#    y 0.000000 3.069570 0.000000 
#    z 0.213460 0.000000 3.260160 
# 
# 
# High freq. dielectric constant tensor:
#      x y z
#    x 1.665670 0.000000 0.022860 
#    y 0.000000 1.678970 0.000000 
#    z 0.022860 0.000000 1.704990 
# 
# From -- ./inp_files/48049.got.cif
#   From: 2010.06.25/outbox.cif.g09.slc.cpg/sg15_25_cif.got.tgz:48049.got - 2010.06.28 07:06:18.
