data_PCOD8132354
_publ_section_title
;
Structure prediction by ZEFSAII (Michael W. Deem and Ramdas Pophale) SiO2 
 PCOD8132354
Probable space group: C 2/C
;
_chemical_formula_sum "Si O2"
_cell_formula_units_Z 52
_cell_length_a 21.310735
_cell_length_b 13.158251
_cell_length_c 12.825764
_cell_angle_alpha 90.000000
_cell_angle_beta 44.043362
_cell_angle_gamma 90.000000
_cell_volume 2500.294765
_symmetry_space_group_name_H-M "C 2/C"
_symmetry_group_IT_number 15
_symmetry_cell_setting 'monoclinic'
loop_
_space_group_symop_operation_xyz
x,y,z
-x,y,1/2-z
-x,-y,-z
x,-y,1/2+z
1/2+x,1/2+y,z
1/2-x,1/2+y,1/2-z
1/2-x,1/2-y,-z
1/2+x,1/2-y,1/2+z
loop_
_atom_site_type_symbol
_atom_site_label
_atom_site_fract_x
_atom_site_fract_y
_atom_site_fract_z
Si Si1 0.761309 0.793594 0.293003
Si Si2 0.771453 0.182796 0.373612
Si Si3 0.688009 0.978074 0.491965
Si Si4 0.500000 0.892089 0.750000
Si Si5 0.820738 0.890773 0.496380
Si Si6 0.078517 0.917290 0.925702
Si Si7 0.062060 0.213140 0.810000
O O1 0.733054 0.764448 0.211859
O O2 0.732444 0.909281 0.348735
O O3 0.715463 0.721548 0.433699
O O4 0.868607 0.782813 0.176976
O O5 0.750000 0.250000 0.500000
O O6 0.867266 0.119056 0.244271
O O7 0.695812 0.096632 0.454984
O O8 0.581041 0.963162 0.616753
O O9 0.740496 0.955404 0.538335
O O10 0.544123 0.824276 0.787366
O O11 0.852285 0.951722 0.563627
O O12 0.903203 0.868674 0.317930
O O13 0.033433 0.818307 0.028996
O O14 0.000000 0.000000 0.000000
#
# Coordination Sequence:
#
# PCOD8132354 Si02
#       7
#     8   8   8   4   8   8   8
#     4  10  20  41  65  96 131 178 216 266 337 399
#     4  11  27  47  61  90 143 181 214 273 347 396
#     4  11  22  40  69  95 125 173 217 269 335 399
#     4  12  18  36  66 100 120 154 222 260 324 388
#     4  10  18  36  66  98 134 164 215 280 335 378
#     4  11  22  38  65  98 129 171 227 275 325 397
#     4  11  18  35  65 102 124 155 220 288 312 383
#
# _framework density 20.797547999999999
#
# number of rings (size 3 to 8) (size 9 to 14) (size 15 to 20)
#    0.000    1.231    4.615    3.692    0.000    3.692 
#    2.769    2.308    0.000    0.000    0.000    0.000 
#    0.000    0.000    0.000    0.000    0.000    0.000 
#
# Total GULP energy -322187.793846 kJ/mol
# GULP energy per Si atom -12391.838225 kJ/mol
# Density = 2.075021 g / cm^3
# Si number density = 20.797548 Si / 1000 Ang^3
#
#
#
# Elastic Constant Matrix: (Units=GPa)
#
#
# Indices 1 2 3 4 5 6 
#
# 1 100.1757 33.4891 44.3883 0.0000 -7.5239 0.0000
# 2 33.4891 101.5601 38.2993 0.0000 5.7391 0.0000
# 3 44.3883 38.2993 116.3894 0.0000 -9.0864 0.0000
# 4 0.0000 0.0000 0.0000 2.5074 0.0000 14.3248
# 5 -7.5239 5.7391 -9.0864 0.0000 33.8938 0.0000
# 6 0.0000 0.0000 0.0000 14.3248 0.0000 17.4639
#
#
#
# Elastic Compliance Matrix: (Units=1/GPa)
#
#
# Indices 1 2 3 4 5 6 
#
# 1 0.012795 -0.002945 -0.003728 0.000000 0.002340 0.000000
# 2 -0.002945 0.012217 -0.003176 0.000000 -0.003574 0.000000
# 3 -0.003728 -0.003176 0.011272 0.000000 0.002732 0.000000
# 4 0.000000 0.000000 0.000000 -0.108195 0.000000 0.088747
# 5 0.002340 -0.003574 0.002732 0.000000 0.031361 0.000000
# 6 0.000000 0.000000 0.000000 0.088747 0.000000 -0.015534
#
#
# Mechanical properties :
#
#
# Convention : Reuss Voigt Hill
#
# Bulk Modulus (GPa) = 60.29315 61.16430 60.72872
# Shear Modulus (GPa) = -162.03124 24.23625 -68.89750
#
# Velocity S-wave (km/s) = -8.83617 3.41741 -5.76191
# Velocity P-wave (km/s) = 8.66317 6.71155 3.87335
#
# Compressibility (1/GPa) = 0.01658563
#
# Stress axis : x y z
#
# Youngs Moduli (GPa) = 78.15786 81.85138 88.71640
#
# Poissons Ratio (x) = 0.24109 0.33071
# Poissons Ratio (y) = 0.23021 0.28176
# Poissons Ratio (z) = 0.29135 0.25995
#
# Static dielectric constant tensor:
#      x y z
#    x 3.872630 0.000000 -0.125220 
#    y 0.000000 3.598170 0.000000 
#    z -0.125220 0.000000 3.946210 
# 
# 
# High freq. dielectric constant tensor:
#      x y z
#    x 1.810670 0.000000 -0.014360 
#    y 0.000000 1.798720 0.000000 
#    z -0.014360 0.000000 1.812370 
# 
# From -- ./inp_files/118733.got.cif
#   From: 2010.06.25/outbox.cif.g09.slc.cpg/sg15_60_cif.got.tgz:118733.got - 2010.06.28 07:06:18.
