data_PCOD8132057
_publ_section_title
;
Structure prediction by ZEFSAII (Michael W. Deem and Ramdas Pophale) SiO2 
 PCOD8132057
Probable space group: C 2/C
;
_chemical_formula_sum "Si O2"
_cell_formula_units_Z 48
_cell_length_a 17.947009
_cell_length_b 9.750383
_cell_length_c 13.656707
_cell_angle_alpha 90.000000
_cell_angle_beta 114.063007
_cell_angle_gamma 90.000000
_cell_volume 2182.111616
_symmetry_space_group_name_H-M "C 2/C"
_symmetry_group_IT_number 15
_symmetry_cell_setting 'monoclinic'
loop_
_space_group_symop_operation_xyz
x,y,z
-x,y,1/2-z
-x,-y,-z
x,-y,1/2+z
1/2+x,1/2+y,z
1/2-x,1/2+y,1/2-z
1/2-x,1/2-y,-z
1/2+x,1/2-y,1/2+z
loop_
_atom_site_type_symbol
_atom_site_label
_atom_site_fract_x
_atom_site_fract_y
_atom_site_fract_z
Si Si1 0.324086 0.274599 0.416231
Si Si2 0.341220 0.418656 0.227130
Si Si3 0.337182 0.194608 0.079490
Si Si4 0.913688 0.466907 0.231096
Si Si5 0.649644 0.034060 0.594654
Si Si6 0.646073 0.305675 0.853245
O O1 0.362020 0.361805 0.346571
O O2 0.340379 0.354713 0.527034
O O3 0.227564 0.258784 0.348676
O O4 0.363050 0.123112 0.445304
O O5 0.378503 0.316185 0.164421
O O6 0.244370 0.434924 0.164212
O O7 0.383119 0.565777 0.228732
O O8 0.337817 0.061803 0.152922
O O9 0.250000 0.250000 0.000000
O O10 0.383346 0.139779 0.006721
O O11 0.906006 0.440678 0.341917
O O12 0.918097 0.317482 0.182899
O O13 0.000000 0.539213 0.250000
#
# Coordination Sequence:
#
# PCOD8132057 Si02
#       6
#     8   8   8   8   8   8
#     4  10  18  35  62  87 122 153 209 268 320 356
#     4  10  20  34  65  92 120 156 212 277 313 357
#     4  10  22  39  62  95 120 158 218 265 307 367
#     4  12  24  40  61  90 131 174 205 247 321 391
#     4  10  20  36  61  90 125 160 206 265 312 373
#     4  10  22  36  57  92 124 160 202 263 319 376
#
# _framework density 21.997042
#
# number of rings (size 3 to 8) (size 9 to 14) (size 15 to 20)
#    0.000    1.667    5.000    0.000    2.333    2.000 
#    0.000    0.833    0.000    2.000    0.000    0.000 
#    0.000    0.000    0.000    0.000    0.000    0.000 
#
# Total GULP energy -297373.455579 kJ/mol
# GULP energy per Si atom -12390.560649 kJ/mol
# Density = 2.194698 g / cm^3
# Si number density = 21.997042 Si / 1000 Ang^3
#
#
#
# Elastic Constant Matrix: (Units=GPa)
#
#
# Indices 1 2 3 4 5 6 
#
# 1 46.5733 30.8900 36.0920 0.0000 -14.0532 0.0000
# 2 30.8900 143.2560 57.7174 0.0000 -14.8659 0.0000
# 3 36.0920 57.7174 111.7438 0.0000 -38.4988 0.0000
# 4 0.0000 0.0000 0.0000 40.5667 0.0000 -10.7761
# 5 -14.0532 -14.8659 -38.4988 0.0000 25.4326 0.0000
# 6 0.0000 0.0000 0.0000 -10.7761 0.0000 17.6801
#
#
#
# Elastic Compliance Matrix: (Units=1/GPa)
#
#
# Indices 1 2 3 4 5 6 
#
# 1 0.030118 -0.003493 -0.006047 0.000000 0.005446 0.000000
# 2 -0.003493 0.009384 -0.005212 0.000000 -0.004335 0.000000
# 3 -0.006047 -0.005212 0.023813 0.000000 0.029658 0.000000
# 4 0.000000 0.000000 0.000000 0.029413 0.000000 0.017927
# 5 0.005446 -0.004335 0.029658 0.000000 0.084691 0.000000
# 6 0.000000 0.000000 0.000000 0.017927 0.000000 0.067488
#
#
# Mechanical properties :
#
#
# Convention : Reuss Voigt Hill
#
# Bulk Modulus (GPa) = 29.57732 61.21910 45.39821
# Shear Modulus (GPa) = 17.50211 28.52745 23.01478
#
# Velocity S-wave (km/s) = 2.82380 3.60512 3.23811
# Velocity P-wave (km/s) = 4.90989 6.72460 5.88758
#
# Compressibility (1/GPa) = 0.03380969
#
# Stress axis : x y z
#
# Youngs Moduli (GPa) = 33.20292 106.56656 41.99455
#
# Poissons Ratio (x) = 0.37220 0.25395
# Poissons Ratio (y) = 0.11597 0.21889
# Poissons Ratio (z) = 0.20079 0.55547
#
# Static dielectric constant tensor:
#      x y z
#    x 3.413360 0.000000 -0.309530 
#    y 0.000000 4.213980 0.000000 
#    z -0.309530 0.000000 4.084400 
# 
# 
# High freq. dielectric constant tensor:
#      x y z
#    x 1.805570 0.000000 -0.031570 
#    y 0.000000 1.872080 0.000000 
#    z -0.031570 0.000000 1.869660 
# 
# From -- ./inp_files/166394.got.cif
#   From: 2010.06.25/outbox.cif.g09.slc.cpg/sg15_84_cif.got.tgz:166394.got - 2010.06.28 07:06:18.
