data_PCOD8132320
_publ_section_title
;
Structure prediction by ZEFSAII (Michael W. Deem and Ramdas Pophale) SiO2 
 PCOD8132320
Probable space group: C 2/C
;
_chemical_formula_sum "Si O2"
_cell_formula_units_Z 64
_cell_length_a 8.765058
_cell_length_b 20.274322
_cell_length_c 23.625567
_cell_angle_alpha 90.000000
_cell_angle_beta 48.803060
_cell_angle_gamma 90.000000
_cell_volume 3159.083248
_symmetry_space_group_name_H-M "C 2/C"
_symmetry_group_IT_number 15
_symmetry_cell_setting 'monoclinic'
loop_
_space_group_symop_operation_xyz
x,y,z
-x,y,1/2-z
-x,-y,-z
x,-y,1/2+z
1/2+x,1/2+y,z
1/2-x,1/2+y,1/2-z
1/2-x,1/2-y,-z
1/2+x,1/2-y,1/2+z
loop_
_atom_site_type_symbol
_atom_site_label
_atom_site_fract_x
_atom_site_fract_y
_atom_site_fract_z
Si Si1 0.932007 0.139978 0.329095
Si Si2 0.470052 0.745751 0.417482
Si Si3 0.467714 0.130821 0.844137
Si Si4 0.484881 0.897896 0.534363
Si Si5 0.952201 0.011367 0.825559
Si Si6 0.014149 0.527456 0.571211
Si Si7 0.232423 0.783980 0.064448
Si Si8 0.845803 0.133832 0.671037
O O1 0.001605 0.189776 0.361813
O O2 0.686990 0.141166 0.388803
O O3 0.000000 0.165392 0.250000
O O4 0.017096 0.065606 0.319354
O O5 0.250000 0.750000 0.500000
O O6 0.497494 0.818091 0.386553
O O7 0.653657 0.737000 0.417866
O O8 0.466533 0.057356 0.871171
O O9 0.658126 0.143467 0.758198
O O10 0.248897 0.138874 0.868472
O O11 0.376670 0.930185 0.504836
O O12 0.657633 0.852880 0.467815
O O13 0.591907 0.951691 0.550167
O O14 0.716733 0.020592 0.893448
O O15 0.000000 0.033561 0.750000
O O16 0.066198 0.060519 0.840628
O O17 0.004580 0.805251 0.139136
O O18 0.250000 0.750000 0.000000
#
# Coordination Sequence:
#
# PCOD8132320 Si02
#       8
#     8   8   8   8   8   8   8   8
#     4  10  23  38  65  95 126 169 207 257 320 385
#     4  12  23  43  65  90 128 172 217 256 314 387
#     4  11  23  39  65  91 127 165 209 266 312 383
#     4  10  20  37  63  89 121 162 210 254 311 379
#     4  10  18  37  64  91 125 159 210 256 314 377
#     4  10  18  36  64  90 117 162 209 259 308 369
#     4  12  25  42  64  92 131 168 213 268 317 377
#     4  11  24  39  62  96 124 163 213 261 321 370
#
# _framework density 20.259042000000001
#
# number of rings (size 3 to 8) (size 9 to 14) (size 15 to 20)
#    0.000    1.250    5.000    0.750    1.750    0.000 
#    2.250    0.625    0.000    0.000    0.000    0.000 
#    0.000    0.000    0.000    0.000    0.000    0.000 
#
# Total GULP energy -396517.613531 kJ/mol
# GULP energy per Si atom -12391.175423 kJ/mol
# Density = 2.021293 g / cm^3
# Si number density = 20.259042 Si / 1000 Ang^3
#
#
#
# Elastic Constant Matrix: (Units=GPa)
#
#
# Indices 1 2 3 4 5 6 
#
# 1 113.1731 38.5036 38.9060 0.0005 12.6007 -0.0006
# 2 38.5036 81.6948 23.1209 0.0002 14.0016 -0.0002
# 3 38.9060 23.1209 96.6060 0.0005 7.4942 0.0000
# 4 0.0005 0.0002 0.0005 39.2401 -0.0002 13.5458
# 5 12.6007 14.0016 7.4942 -0.0002 31.9843 0.0003
# 6 -0.0006 -0.0002 0.0000 13.5458 0.0003 24.4804
#
#
#
# Elastic Compliance Matrix: (Units=1/GPa)
#
#
# Indices 1 2 3 4 5 6 
#
# 1 0.011696 -0.004171 -0.003561 0.000000 -0.001948 0.000000
# 2 -0.004171 0.015490 -0.001659 0.000000 -0.004749 0.000000
# 3 -0.003561 -0.001659 0.012240 0.000000 -0.000739 0.000000
# 4 0.000000 0.000000 0.000000 0.031501 0.000001 -0.017431
# 5 -0.001948 -0.004749 -0.000739 0.000001 0.034285 -0.000001
# 6 0.000000 0.000000 0.000000 -0.017431 -0.000001 0.050494
#
#
# Mechanical properties :
#
#
# Convention : Reuss Voigt Hill
#
# Bulk Modulus (GPa) = 48.44060 54.72612 51.58336
# Shear Modulus (GPa) = 27.56811 31.87053 29.71932
#
# Velocity S-wave (km/s) = 3.69288 3.97060 3.83425
# Velocity P-wave (km/s) = 6.49197 6.93489 6.71708
#
# Compressibility (1/GPa) = 0.02064384
#
# Stress axis : x y z
#
# Youngs Moduli (GPa) = 85.49884 64.55803 81.70039
#
# Poissons Ratio (x) = 0.26926 0.29094
# Poissons Ratio (y) = 0.35660 0.13555
# Poissons Ratio (z) = 0.30447 0.10711
#
# Static dielectric constant tensor:
#      x y z
#    x 3.680650 0.000030 0.243940 
#    y 0.000030 2.576550 -0.000040 
#    z 0.243940 -0.000040 4.013830 
# 
# 
# High freq. dielectric constant tensor:
#      x y z
#    x 1.757920 0.000000 0.003090 
#    y 0.000000 1.796440 0.000000 
#    z 0.003090 0.000000 1.811820 
# 
# From -- ./inp_files/266068.got.cif
#   From: 2010.06.25/outbox.cif.g09.slc.cpg/sg15_134_cif.got.tgz:266068.got - 2010.06.28 07:06:18.
