data_PCOD8132772
_publ_section_title
;
Structure prediction by ZEFSAII (Michael W. Deem and Ramdas Pophale) SiO2 
 PCOD8132772
Probable space group: C 2/C
;
_chemical_formula_sum "Si O2"
_cell_formula_units_Z 64
_cell_length_a 13.361558
_cell_length_b 25.209803
_cell_length_c 17.107329
_cell_angle_alpha 90.000000
_cell_angle_beta 146.800589
_cell_angle_gamma 90.000000
_cell_volume 3155.267685
_symmetry_space_group_name_H-M "C 2/C"
_symmetry_group_IT_number 15
_symmetry_cell_setting 'monoclinic'
loop_
_space_group_symop_operation_xyz
x,y,z
-x,y,1/2-z
-x,-y,-z
x,-y,1/2+z
1/2+x,1/2+y,z
1/2-x,1/2+y,1/2-z
1/2-x,1/2-y,-z
1/2+x,1/2-y,1/2+z
loop_
_atom_site_type_symbol
_atom_site_label
_atom_site_fract_x
_atom_site_fract_y
_atom_site_fract_z
Si Si1 0.728609 0.611636 0.080495
Si Si2 0.906313 0.294333 0.955115
Si Si3 0.128987 0.297256 0.260903
Si Si4 0.311599 0.993916 0.160372
Si Si5 0.884522 0.116612 0.247546
Si Si6 0.886997 0.888024 0.457011
Si Si7 0.094592 0.539817 0.117671
Si Si8 0.040643 0.359829 0.904611
O O1 0.765302 0.549378 0.086543
O O2 0.852813 0.634159 0.232318
O O3 0.783209 0.644881 0.037757
O O4 0.517773 0.618407 0.966415
O O5 0.812877 0.237809 0.879389
O O6 0.746646 0.336195 0.864732
O O7 0.026762 0.310824 0.956799
O O8 0.027657 0.291082 0.112228
O O9 0.198146 0.357611 0.316368
O O10 0.000000 0.281414 0.250000
O O11 0.500000 0.970469 0.250000
O O12 0.154378 0.949559 0.049721
O O13 0.333951 0.005154 0.265157
O O14 0.774241 0.064731 0.197995
O O15 0.000000 0.098364 0.250000
O O16 0.012293 0.136735 0.401872
O O17 0.944944 0.585192 0.038655
O O18 0.000000 0.500000 0.000000
#
# Coordination Sequence:
#
# PCOD8132772 Si02
#       8
#     8   8   8   8   8   8   8   8
#     4  10  18  41  65  90 126 175 217 261 323 378
#     4  11  23  44  69  93 128 163 217 259 329 390
#     4  12  26  44  69  98 130 170 204 273 331 385
#     4  11  21  37  60  90 127 176 215 262 317 389
#     4  11  23  38  59  89 124 164 211 263 309 382
#     4  12  24  38  63  95 130 163 221 266 320 386
#     4  10  21  35  56  83 126 163 212 252 321 367
#     4   9  19  39  68  87 120 175 213 262 322 376
#
# _framework density 20.283539999999999
#
# number of rings (size 3 to 8) (size 9 to 14) (size 15 to 20)
#    0.000    1.250    6.250    3.000    5.250    0.000 
#    0.000    1.250    0.000    0.000    0.000    0.000 
#    0.000    0.000    0.000    0.000    0.000    0.000 
#
# Total GULP energy -396724.876517 kJ/mol
# GULP energy per Si atom -12397.652391 kJ/mol
# Density = 2.023737 g / cm^3
# Si number density = 20.283540 Si / 1000 Ang^3
#
#
#
# Elastic Constant Matrix: (Units=GPa)
#
#
# Indices 1 2 3 4 5 6 
#
# 1 157.7658 35.3266 32.6920 0.0001 -0.2485 0.0000
# 2 35.3266 71.2849 37.5027 0.0000 -10.4585 0.0000
# 3 32.6920 37.5027 88.6688 0.0002 -6.2745 0.0000
# 4 0.0001 0.0000 0.0002 34.9835 0.0001 5.9372
# 5 -0.2485 -10.4585 -6.2745 0.0001 25.5374 0.0000
# 6 0.0000 0.0000 0.0000 5.9372 0.0000 26.9524
#
#
#
# Elastic Compliance Matrix: (Units=1/GPa)
#
#
# Indices 1 2 3 4 5 6 
#
# 1 0.007337 -0.003065 -0.001519 0.000000 -0.001557 0.000000
# 2 -0.003065 0.020150 -0.006931 0.000000 0.006519 0.000000
# 3 -0.001519 -0.006931 0.014825 0.000000 0.000789 0.000000
# 4 0.000000 0.000000 0.000000 0.029695 0.000000 -0.006541
# 5 -0.001557 0.006519 0.000789 0.000000 0.042007 0.000000
# 6 0.000000 0.000000 0.000000 -0.006541 0.000000 0.038543
#
#
# Mechanical properties :
#
#
# Convention : Reuss Voigt Hill
#
# Bulk Modulus (GPa) = 51.86183 58.75134 55.30659
# Shear Modulus (GPa) = 27.47006 31.64120 29.55563
#
# Velocity S-wave (km/s) = 3.68408 3.95390 3.82137
# Velocity P-wave (km/s) = 6.61215 7.06203 6.84079
#
# Compressibility (1/GPa) = 0.01928200
#
# Stress axis : x y z
#
# Youngs Moduli (GPa) = 136.29159 49.62719 67.45247
#
# Poissons Ratio (x) = 0.15213 0.10245
# Poissons Ratio (y) = 0.41780 0.46751
# Poissons Ratio (z) = 0.20701 0.34397
#
# Static dielectric constant tensor:
#      x y z
#    x 4.485460 0.000000 0.678310 
#    y 0.000000 3.598180 0.000000 
#    z 0.678310 0.000000 4.304490 
# 
# 
# High freq. dielectric constant tensor:
#      x y z
#    x 1.807640 0.000000 -0.000460 
#    y 0.000000 1.782300 0.000000 
#    z -0.000460 0.000000 1.771930 
# 
# From -- ./inp_files/207351.got.cif
#   From: 2010.06.25/outbox.cif.g09.slc.cpg/sg15_104_cif.got.tgz:207351.got - 2010.06.28 07:06:18.
