data_PCOD8132851
_publ_section_title
;
Structure prediction by ZEFSAII (Michael W. Deem and Ramdas Pophale) SiO2 
 PCOD8132851
Probable space group: C 2/C
;
_chemical_formula_sum "Si O2"
_cell_formula_units_Z 32
_cell_length_a 19.452316
_cell_length_b 19.883028
_cell_length_c 5.133025
_cell_angle_alpha 90.000000
_cell_angle_beta 64.575899
_cell_angle_gamma 90.000000
_cell_volume 1793.037641
_symmetry_space_group_name_H-M "C 2/C"
_symmetry_group_IT_number 15
_symmetry_cell_setting 'monoclinic'
loop_
_space_group_symop_operation_xyz
x,y,z
-x,y,1/2-z
-x,-y,-z
x,-y,1/2+z
1/2+x,1/2+y,z
1/2-x,1/2+y,1/2-z
1/2-x,1/2-y,-z
1/2+x,1/2-y,1/2+z
loop_
_atom_site_type_symbol
_atom_site_label
_atom_site_fract_x
_atom_site_fract_y
_atom_site_fract_z
Si Si1 0.587702 0.457511 0.600213
Si Si2 0.411977 0.781456 0.958733
Si Si3 0.330186 0.805494 0.582846
Si Si4 0.174295 0.170204 0.154789
O O1 0.500000 0.434811 0.750000
O O2 0.606409 0.485654 0.283862
O O3 0.639543 0.393548 0.568869
O O4 0.500000 0.781961 0.750000
O O5 0.366517 0.819117 0.803406
O O6 0.392750 0.822386 0.255449
O O7 0.384939 0.703509 0.040784
O O8 0.253534 0.849628 0.669546
O O9 0.306716 0.726180 0.598341
#
# Coordination Sequence:
#
# PCOD8132851 Si02
#       4
#     8   8   8   8
#     4  10  23  35  48  72 101 137 177 203 229 284
#     4  10  19  29  48  74  99 126 158 197 252 308
#     4   9  20  32  48  75  94 133 164 205 257 298
#     4   9  21  32  53  65 105 132 166 207 249 291
#
# _framework density 17.846810000000001
#
# number of rings (size 3 to 8) (size 9 to 14) (size 15 to 20)
#    1.500    1.000    0.000    1.500    7.000    1.000 
#    0.000    0.000    0.000    0.000    0.000    0.000 
#    0.000   20.000    0.000    0.000    0.000    0.000 
#
# Total GULP energy -198251.924699 kJ/mol
# GULP energy per Si atom -12390.745294 kJ/mol
# Density = 1.780619 g / cm^3
# Si number density = 17.846810 Si / 1000 Ang^3
#
#
#
# Elastic Constant Matrix: (Units=GPa)
#
#
# Indices 1 2 3 4 5 6 
#
# 1 119.5890 37.9706 25.5677 0.0000 1.9288 0.0000
# 2 37.9706 47.0698 3.7226 0.0000 1.3645 0.0000
# 3 25.5677 3.7226 59.1226 0.0000 13.9099 0.0000
# 4 0.0000 0.0000 0.0000 8.7432 0.0000 4.4813
# 5 1.9288 1.3645 13.9099 0.0000 32.1092 0.0000
# 6 0.0000 0.0000 0.0000 4.4813 0.0000 32.2569
#
#
#
# Elastic Compliance Matrix: (Units=1/GPa)
#
#
# Indices 1 2 3 4 5 6 
#
# 1 0.012561 -0.009772 -0.005275 0.000000 0.001946 0.000000
# 2 -0.009772 0.028957 0.002844 0.000000 -0.001876 0.000000
# 3 -0.005275 0.002844 0.021123 0.000000 -0.008955 0.000000
# 4 0.000000 0.000000 0.000000 0.123143 0.000000 -0.017108
# 5 0.001946 -0.001876 -0.008955 0.000000 0.034986 0.000000
# 6 0.000000 0.000000 0.000000 -0.017108 0.000000 0.033378
#
#
# Mechanical properties :
#
#
# Convention : Reuss Voigt Hill
#
# Bulk Modulus (GPa) = 26.15342 40.03369 33.09355
# Shear Modulus (GPa) = 17.16456 25.18989 21.17723
#
# Velocity S-wave (km/s) = 3.10461 3.76100 3.44846
# Velocity P-wave (km/s) = 5.24764 6.42968 5.86849
#
# Compressibility (1/GPa) = 0.03823592
#
# Stress axis : x y z
#
# Youngs Moduli (GPa) = 79.61162 34.53340 47.34248
#
# Poissons Ratio (x) = 0.33746 0.24971
# Poissons Ratio (y) = 0.77797 -0.13464
# Poissons Ratio (z) = 0.41991 -0.09821
#
# Static dielectric constant tensor:
#      x y z
#    x 3.368550 0.000000 0.090490 
#    y 0.000000 2.677550 0.000000 
#    z 0.090490 0.000000 3.316460 
# 
# 
# High freq. dielectric constant tensor:
#      x y z
#    x 1.700990 0.000000 0.008130 
#    y 0.000000 1.616930 0.000000 
#    z 0.008130 0.000000 1.698440 
# 
# From -- ./inp_files/6676.got.cif
#   From: 2010.06.25/outbox.cif.g09.slc.cpg/sg15_4_cif.got.tgz:6676.got - 2010.06.28 07:06:18.
