data_PCOD8132228
_publ_section_title
;
Structure prediction by ZEFSAII (Michael W. Deem and Ramdas Pophale) SiO2 
 PCOD8132228
Probable space group: C 2/C
;
_chemical_formula_sum "Si O2"
_cell_formula_units_Z 40
_cell_length_a 7.750655
_cell_length_b 19.391214
_cell_length_c 22.962880
_cell_angle_alpha 90.000000
_cell_angle_beta 143.306183
_cell_angle_gamma 90.000000
_cell_volume 2062.223549
_symmetry_space_group_name_H-M "C 2/C"
_symmetry_group_IT_number 15
_symmetry_cell_setting 'monoclinic'
loop_
_space_group_symop_operation_xyz
x,y,z
-x,y,1/2-z
-x,-y,-z
x,-y,1/2+z
1/2+x,1/2+y,z
1/2-x,1/2+y,1/2-z
1/2-x,1/2-y,-z
1/2+x,1/2-y,1/2+z
loop_
_atom_site_type_symbol
_atom_site_label
_atom_site_fract_x
_atom_site_fract_y
_atom_site_fract_z
Si Si1 0.639478 0.291118 0.347695
Si Si2 0.362854 0.945862 0.529908
Si Si3 0.182433 0.121739 0.650350
Si Si4 0.088158 0.152347 0.037301
Si Si5 0.879866 0.598296 0.513636
O O1 0.500000 0.265841 0.250000
O O2 0.390659 0.320513 0.321726
O O3 0.779158 0.226883 0.418315
O O4 0.880794 0.348336 0.399650
O O5 0.338971 0.901489 0.583270
O O6 0.604804 0.913544 0.552099
O O7 0.053743 0.940343 0.411499
O O8 0.430670 0.025586 0.561382
O O9 0.500000 0.092425 0.750000
O O10 0.159662 0.156654 0.579933
O O11 0.938277 0.126328 0.056234
#
# Coordination Sequence:
#
# PCOD8132228 Si02
#       5
#     8   8   8   8   8
#     4  11  22  36  56  87 120 152 201 238 286 349
#     4   8  20  34  60  85 112 149 196 236 295 349
#     4   9  19  35  57  84 112 150 191 239 286 345
#     4  10  20  36  60  83 113 159 188 240 288 344
#     4  10  18  36  60  85 112 152 193 241 296 347
#
# _framework density 19.396538
#
# number of rings (size 3 to 8) (size 9 to 14) (size 15 to 20)
#    1.200    1.200    0.000    3.000    0.000    0.000 
#    0.000    1.000    8.800    0.000    0.000    0.000 
#    0.000    0.000    0.000    0.000    0.000    0.000 
#
# Total GULP energy -247815.342253 kJ/mol
# GULP energy per Si atom -12390.767113 kJ/mol
# Density = 1.935239 g / cm^3
# Si number density = 19.396538 Si / 1000 Ang^3
#
#
#
# Elastic Constant Matrix: (Units=GPa)
#
#
# Indices 1 2 3 4 5 6 
#
# 1 115.8905 38.6521 11.1609 0.0150 21.3255 -0.0017
# 2 38.6521 115.9531 27.1830 0.0134 8.5672 -0.0024
# 3 11.1609 27.1830 32.6731 0.0264 -3.1995 -0.0029
# 4 0.0150 0.0134 0.0264 8.5423 0.0102 8.4480
# 5 21.3255 8.5672 -3.1995 0.0102 19.1444 -0.0010
# 6 -0.0017 -0.0024 -0.0029 8.4480 -0.0010 22.9845
#
#
#
# Elastic Compliance Matrix: (Units=1/GPa)
#
#
# Indices 1 2 3 4 5 6 
#
# 1 0.012131 -0.002240 -0.003564 0.000015 -0.013106 -0.000006
# 2 -0.002240 0.011955 -0.009618 0.000032 -0.004462 -0.000012
# 3 -0.003564 -0.009618 0.041312 -0.000203 0.015178 0.000079
# 4 0.000015 0.000032 -0.000203 0.183917 -0.000166 -0.067599
# 5 -0.013106 -0.004462 0.015178 -0.000166 0.071368 0.000065
# 6 -0.000006 -0.000012 0.000079 -0.067599 0.000065 0.068354
#
#
# Mechanical properties :
#
#
# Convention : Reuss Voigt Hill
#
# Bulk Modulus (GPa) = 28.93981 46.50097 37.72039
# Shear Modulus (GPa) = 11.59020 22.63563 17.11291
#
# Velocity S-wave (km/s) = 2.44711 3.41983 2.97352
# Velocity P-wave (km/s) = 4.78926 6.29441 5.59270
#
# Compressibility (1/GPa) = 0.03455447
#
# Stress axis : x y z
#
# Youngs Moduli (GPa) = 82.43477 83.64424 24.20593
#
# Poissons Ratio (x) = 0.18736 0.08626
# Poissons Ratio (y) = 0.18465 0.23282
# Poissons Ratio (z) = 0.29377 0.80452
#
# Static dielectric constant tensor:
#      x y z
#    x 3.802070 -0.000010 0.078010 
#    y -0.000010 3.384720 0.000000 
#    z 0.078010 0.000000 2.976650 
# 
# 
# High freq. dielectric constant tensor:
#      x y z
#    x 1.779030 0.000000 0.009090 
#    y 0.000000 1.749010 0.000000 
#    z 0.009090 0.000000 1.698170 
# 
# From -- ./inp_files/189505.got.cif
#   From: 2010.06.25/outbox.cif.g09.slc.cpg/sg15_95_cif.got.tgz:189505.got - 2010.06.28 07:06:18.
