data_PCOD8132348
_publ_section_title
;
Structure prediction by ZEFSAII (Michael W. Deem and Ramdas Pophale) SiO2 
 PCOD8132348
Probable space group: C 2/C
;
_chemical_formula_sum "Si O2"
_cell_formula_units_Z 52
_cell_length_a 28.883624
_cell_length_b 7.915145
_cell_length_c 16.316429
_cell_angle_alpha 90.000000
_cell_angle_beta 42.810850
_cell_angle_gamma 90.000000
_cell_volume 2534.990956
_symmetry_space_group_name_H-M "C 2/C"
_symmetry_group_IT_number 15
_symmetry_cell_setting 'monoclinic'
loop_
_space_group_symop_operation_xyz
x,y,z
-x,y,1/2-z
-x,-y,-z
x,-y,1/2+z
1/2+x,1/2+y,z
1/2-x,1/2+y,1/2-z
1/2-x,1/2-y,-z
1/2+x,1/2-y,1/2+z
loop_
_atom_site_type_symbol
_atom_site_label
_atom_site_fract_x
_atom_site_fract_y
_atom_site_fract_z
Si Si1 0.537027 0.837543 0.286634
Si Si2 0.951064 0.878369 0.017505
Si Si3 0.313272 0.806406 0.970974
Si Si4 0.134832 0.007004 0.006689
Si Si5 0.056441 0.309120 0.811938
Si Si6 0.000000 0.908629 0.250000
Si Si7 0.314339 0.809019 0.468061
O O1 0.500000 0.879915 0.250000
O O2 0.495747 0.690999 0.384541
O O3 0.617262 0.797277 0.175005
O O4 0.528211 0.002040 0.355006
O O5 0.886655 0.976492 0.061054
O O6 0.926221 0.745435 0.117747
O O7 0.000000 0.000000 0.000000
O O8 0.325669 0.670707 0.028532
O O9 0.376133 0.801822 0.828930
O O10 0.304048 0.999129 0.016328
O O11 0.250000 0.750000 0.000000
O O12 0.068396 0.020879 0.153592
O O13 0.180506 0.172591 0.965289
O O14 0.000730 0.198367 0.834146
O O15 0.250000 0.750000 0.500000
#
# Coordination Sequence:
#
# PCOD8132348 Si02
#       7
#     8   8   8   8   8   4   8
#     4  11  22  40  65  94 123 166 216 266 316 384
#     4  12  24  36  61  95 132 164 204 266 331 370
#     4  10  22  40  68  89 121 168 217 259 313 381
#     4  11  21  37  62  90 129 159 214 254 316 375
#     4  10  22  38  63  93 125 158 213 268 316 374
#     4  10  18  36  66  90 116 168 208 260 310 374
#     4  11  22  38  67  95 119 164 219 262 310 378
#
# _framework density 20.512893999999999
#
# number of rings (size 3 to 8) (size 9 to 14) (size 15 to 20)
#    0.000    1.231    5.385    1.385    2.154    0.000 
#    2.769    0.000    6.769    0.000    0.000    0.000 
#    0.000    0.000    0.000    0.000    0.000    0.000 
#
# Total GULP energy -322246.961462 kJ/mol
# GULP energy per Si atom -12394.113902 kJ/mol
# Density = 2.046621 g / cm^3
# Si number density = 20.512894 Si / 1000 Ang^3
#
#
#
# Elastic Constant Matrix: (Units=GPa)
#
#
# Indices 1 2 3 4 5 6 
#
# 1 168.3676 77.7398 24.6096 -0.0008 9.5069 0.0016
# 2 77.7398 169.0398 14.4984 0.0346 7.3535 -0.0087
# 3 24.6096 14.4984 24.6877 0.0144 9.6155 -0.0051
# 4 -0.0008 0.0346 0.0144 22.8316 -0.0077 3.8670
# 5 9.5069 7.3535 9.6155 -0.0077 33.0248 0.0029
# 6 0.0016 -0.0087 -0.0051 3.8670 0.0029 45.9641
#
#
#
# Elastic Compliance Matrix: (Units=1/GPa)
#
#
# Indices 1 2 3 4 5 6 
#
# 1 0.008413 -0.003319 -0.006521 0.000010 0.000216 -0.000002
# 2 -0.003319 0.007543 -0.000946 -0.000011 -0.000448 0.000002
# 3 -0.006521 -0.000946 0.052729 -0.000038 -0.013265 0.000010
# 4 0.000010 -0.000011 -0.000038 0.044432 0.000021 -0.003738
# 5 0.000216 -0.000448 -0.013265 0.000021 0.034180 -0.000006
# 6 -0.000002 0.000002 0.000010 -0.003738 -0.000006 0.022071
#
#
# Mechanical properties :
#
#
# Convention : Reuss Voigt Hill
#
# Bulk Modulus (GPa) = 21.22640 66.19895 43.71267
# Shear Modulus (GPa) = 24.19616 36.71393 30.45504
#
# Velocity S-wave (km/s) = 3.43820 4.23519 3.85733
# Velocity P-wave (km/s) = 5.11194 7.50051 6.41832
#
# Compressibility (1/GPa) = 0.04711115
#
# Stress axis : x y z
#
# Youngs Moduli (GPa) = 118.86540 132.57554 18.96497
#
# Poissons Ratio (x) = 0.44003 0.12367
# Poissons Ratio (y) = 0.39452 0.01795
# Poissons Ratio (z) = 0.77514 0.12547
#
# Static dielectric constant tensor:
#      x y z
#    x 4.065920 0.000000 0.872630 
#    y 0.000000 4.407850 -0.000060 
#    z 0.872630 -0.000060 3.739700 
# 
# 
# High freq. dielectric constant tensor:
#      x y z
#    x 1.815580 0.000000 -0.006830 
#    y 0.000000 1.828370 0.000000 
#    z -0.006830 0.000000 1.750960 
# 
# From -- ./inp_files/176487.got.cif
#   From: 2010.06.25/outbox.cif.g09.slc.cpg/sg15_89_cif.got.tgz:176487.got - 2010.06.28 07:06:18.
