data_PCOD8132489
_publ_section_title
;
Structure prediction by ZEFSAII (Michael W. Deem and Ramdas Pophale) SiO2 
 PCOD8132489
Probable space group: C 2/C
;
_chemical_formula_sum "Si O2"
_cell_formula_units_Z 52
_cell_length_a 8.399147
_cell_length_b 15.259182
_cell_length_c 22.739647
_cell_angle_alpha 90.000000
_cell_angle_beta 116.881759
_cell_angle_gamma 90.000000
_cell_volume 2599.480337
_symmetry_space_group_name_H-M "C 2/C"
_symmetry_group_IT_number 15
_symmetry_cell_setting 'monoclinic'
loop_
_space_group_symop_operation_xyz
x,y,z
-x,y,1/2-z
-x,-y,-z
x,-y,1/2+z
1/2+x,1/2+y,z
1/2-x,1/2+y,1/2-z
1/2-x,1/2-y,-z
1/2+x,1/2-y,1/2+z
loop_
_atom_site_type_symbol
_atom_site_label
_atom_site_fract_x
_atom_site_fract_y
_atom_site_fract_z
Si Si1 0.324335 0.390774 0.951595
Si Si2 0.000000 0.324839 0.750000
Si Si3 0.936996 0.046851 0.175387
Si Si4 0.625236 0.287900 0.651283
Si Si5 0.553491 0.565075 0.592859
Si Si6 0.559794 0.875226 0.327019
Si Si7 0.547810 0.939015 0.644340
O O1 0.374789 0.308201 0.918624
O O2 0.394690 0.477994 0.932721
O O3 0.110990 0.402013 0.923413
O O4 0.415582 0.377932 0.030437
O O5 0.172012 0.265806 0.794315
O O6 0.051854 0.387221 0.705406
O O7 0.730341 0.075391 0.139464
O O8 0.000000 0.016732 0.250000
O O9 0.058954 0.127182 0.175478
O O10 0.959717 0.961989 0.137922
O O11 0.499629 0.206614 0.643578
O O12 0.725933 0.623418 0.635627
O O13 0.500000 0.863623 0.250000
O O14 0.474324 0.959510 0.343014
#
# Coordination Sequence:
#
# PCOD8132489 Si02
#       7
#     8   4   8   8   8   8   8
#     4   8  18  37  58  79 106 160 186 226 269 339
#     4  10  18  38  52  78 108 154 180 240 266 350
#     4  11  19  33  57  85 108 150 186 237 272 341
#     4  10  21  35  57  82 113 145 190 225 294 325
#     4   9  19  36  57  80 115 145 195 223 274 332
#     4  11  21  35  53  85 114 147 176 240 285 332
#     4  10  19  34  59  78 113 143 193 227 280 325
#
# _framework density 20.003999
#
# number of rings (size 3 to 8) (size 9 to 14) (size 15 to 20)
#    0.000    2.154    2.308    2.308    0.000    1.231 
#    4.154    0.000    0.000    1.846    0.000    0.000 
#    0.000    0.000    0.000    0.000    0.000    0.000 
#
# Total GULP energy -322399.289646 kJ/mol
# GULP energy per Si atom -12399.972679 kJ/mol
# Density = 1.995847 g / cm^3
# Si number density = 20.003999 Si / 1000 Ang^3
#
#
#
# Elastic Constant Matrix: (Units=GPa)
#
#
# Indices 1 2 3 4 5 6 
#
# 1 127.0339 19.1196 50.0601 0.0000 16.9272 0.0000
# 2 19.1196 54.1469 24.6748 0.0000 -0.8151 0.0000
# 3 50.0601 24.6748 126.7391 0.0000 15.0960 0.0000
# 4 0.0000 0.0000 0.0000 11.7922 0.0000 5.6340
# 5 16.9272 -0.8151 15.0960 0.0000 29.2876 0.0000
# 6 0.0000 0.0000 0.0000 5.6340 0.0000 35.4638
#
#
#
# Elastic Compliance Matrix: (Units=1/GPa)
#
#
# Indices 1 2 3 4 5 6 
#
# 1 0.009953 -0.002216 -0.002991 0.000000 -0.004273 0.000000
# 2 -0.002216 0.020972 -0.003654 0.000000 0.003748 0.000000
# 3 -0.002991 -0.003654 0.010217 0.000000 -0.003639 0.000000
# 4 0.000000 0.000000 0.000000 0.091767 0.000000 -0.014579
# 5 -0.004273 0.003748 -0.003639 0.000000 0.038594 0.000000
# 6 0.000000 0.000000 0.000000 -0.014579 0.000000 0.030514
#
#
# Mechanical properties :
#
#
# Convention : Reuss Voigt Hill
#
# Bulk Modulus (GPa) = 42.69888 55.06987 48.88437
# Shear Modulus (GPa) = 21.97355 29.57975 25.77665
#
# Velocity S-wave (km/s) = 3.31789 3.84955 3.59357
# Velocity P-wave (km/s) = 6.00578 6.88098 6.45822
#
# Compressibility (1/GPa) = 0.02341982
#
# Stress axis : x y z
#
# Youngs Moduli (GPa) = 100.46752 47.68175 97.88011
#
# Poissons Ratio (x) = 0.10566 0.29277
# Poissons Ratio (y) = 0.22262 0.35768
# Poissons Ratio (z) = 0.30051 0.17424
#
# Static dielectric constant tensor:
#      x y z
#    x 3.733570 0.000000 0.204170 
#    y 0.000000 3.292200 0.000000 
#    z 0.204170 0.000000 3.880750 
# 
# 
# High freq. dielectric constant tensor:
#      x y z
#    x 1.788590 0.000000 0.011540 
#    y 0.000000 1.752360 0.000000 
#    z 0.011540 0.000000 1.780360 
# 
# From -- ./inp_files/231158.got.cif
#   From: 2010.06.25/outbox.cif.g09.slc.cpg/sg15_116_cif.got.tgz:231158.got - 2010.06.28 07:06:18.
