data_PCOD8132599
_publ_section_title
;
Structure prediction by ZEFSAII (Michael W. Deem and Ramdas Pophale) SiO2 
 PCOD8132599
Probable space group: C 2/C
;
_chemical_formula_sum "Si O2"
_cell_formula_units_Z 60
_cell_length_a 11.038277
_cell_length_b 18.372384
_cell_length_c 15.179388
_cell_angle_alpha 90.000000
_cell_angle_beta 77.559586
_cell_angle_gamma 90.000000
_cell_volume 3006.093333
_symmetry_space_group_name_H-M "C 2/C"
_symmetry_group_IT_number 15
_symmetry_cell_setting 'monoclinic'
loop_
_space_group_symop_operation_xyz
x,y,z
-x,y,1/2-z
-x,-y,-z
x,-y,1/2+z
1/2+x,1/2+y,z
1/2-x,1/2+y,1/2-z
1/2-x,1/2-y,-z
1/2+x,1/2-y,1/2+z
loop_
_atom_site_type_symbol
_atom_site_label
_atom_site_fract_x
_atom_site_fract_y
_atom_site_fract_z
Si Si1 0.500000 0.050752 0.750000
Si Si2 0.697340 0.155901 0.642041
Si Si3 0.860541 0.188078 0.286728
Si Si4 0.083330 0.328858 0.506380
Si Si5 0.316014 0.123001 0.050279
Si Si6 0.753117 0.268858 0.873846
Si Si7 0.345386 0.969345 0.113353
Si Si8 0.358367 0.626542 0.778816
O O1 0.589991 0.099580 0.678169
O O2 0.575381 0.005702 0.812177
O O3 0.636884 0.234355 0.666041
O O4 0.740610 0.145941 0.534820
O O5 0.813615 0.143277 0.687011
O O6 0.788532 0.132305 0.359849
O O7 0.787409 0.189116 0.206422
O O8 0.000000 0.159935 0.250000
O O9 0.167653 0.326812 0.581304
O O10 0.127532 0.259001 0.442284
O O11 0.095184 0.402465 0.448650
O O12 0.936742 0.326261 0.552528
O O13 0.343897 0.036818 0.047082
O O14 0.838608 0.198422 0.841274
O O15 0.210935 0.942674 0.167865
O O16 0.500000 0.604525 0.750000
#
# Coordination Sequence:
#
# PCOD8132599 Si02
#       8
#     4   8   8   8   8   8   8   8
#     4  10  18  38  66  84 114 162 194 242 308 354
#     4  10  20  38  63  87 113 159 202 245 301 358
#     4  11  23  40  57  86 127 160 198 252 305 352
#     4  10  20  38  62  88 119 152 198 256 302 355
#     4  12  24  37  61  94 121 158 209 243 295 371
#     4   9  21  38  62  90 118 154 197 260 313 341
#     4  10  22  39  59  88 126 160 196 247 299 358
#     4   9  20  39  63  83 118 161 202 241 301 368
#
# _framework density 19.95946
#
# number of rings (size 3 to 8) (size 9 to 14) (size 15 to 20)
#    0.000    1.867    2.000    2.400    3.733    1.600 
#    7.200    0.667    0.000    0.000    0.000    0.000 
#    0.000    0.000    0.000    0.000    0.000    0.000 
#
# Total GULP energy -371961.689661 kJ/mol
# GULP energy per Si atom -12398.722989 kJ/mol
# Density = 1.991403 g / cm^3
# Si number density = 19.959460 Si / 1000 Ang^3
#
#
#
# Elastic Constant Matrix: (Units=GPa)
#
#
# Indices 1 2 3 4 5 6 
#
# 1 115.4457 20.9376 47.8720 0.0000 -10.8489 0.0000
# 2 20.9376 35.8390 23.6388 0.0000 6.0273 0.0000
# 3 47.8720 23.6388 126.9517 0.0000 12.3823 0.0000
# 4 0.0000 0.0000 0.0000 24.4914 0.0000 7.5120
# 5 -10.8489 6.0273 12.3823 0.0000 32.4532 0.0000
# 6 0.0000 0.0000 0.0000 7.5120 0.0000 20.3491
#
#
#
# Elastic Compliance Matrix: (Units=1/GPa)
#
#
# Indices 1 2 3 4 5 6 
#
# 1 0.011979 -0.005362 -0.004161 0.000000 0.006588 0.000000
# 2 -0.005362 0.034664 -0.003770 0.000000 -0.006792 0.000000
# 3 -0.004161 -0.003770 0.010611 0.000000 -0.004739 0.000000
# 4 0.000000 0.000000 0.000000 0.046044 0.000000 -0.016997
# 5 0.006588 -0.006792 -0.004739 0.000000 0.036086 0.000000
# 6 0.000000 0.000000 0.000000 -0.016997 0.000000 0.055417
#
#
# Mechanical properties :
#
#
# Convention : Reuss Voigt Hill
#
# Bulk Modulus (GPa) = 32.60832 51.45924 42.03378
# Shear Modulus (GPa) = 21.58808 27.84461 24.71635
#
# Velocity S-wave (km/s) = 3.29233 3.73910 3.52281
# Velocity P-wave (km/s) = 5.55206 6.66926 6.13614
#
# Compressibility (1/GPa) = 0.03066702
#
# Stress axis : x y z
#
# Youngs Moduli (GPa) = 83.47788 28.84843 94.24588
#
# Poissons Ratio (x) = 0.15467 0.39220
# Poissons Ratio (y) = 0.44757 0.35534
# Poissons Ratio (z) = 0.34739 0.10877
#
# Static dielectric constant tensor:
#      x y z
#    x 3.597230 0.000000 0.045370 
#    y 0.000000 3.293640 0.000000 
#    z 0.045370 0.000000 3.812300 
# 
# 
# High freq. dielectric constant tensor:
#      x y z
#    x 1.774860 0.000000 0.001710 
#    y 0.000000 1.749340 0.000000 
#    z 0.001710 0.000000 1.793530 
# 
# From -- ./inp_files/145622.got.cif
#   From: 2010.06.25/outbox.cif.g09.slc.cpg/sg15_73_cif.got.tgz:145622.got - 2010.06.28 07:06:18.
