data_PCOD8132975
_publ_section_title
;
Structure prediction by ZEFSAII (Michael W. Deem and Ramdas Pophale) SiO2 
 PCOD8132975
Probable space group: C 2/C
;
_chemical_formula_sum "Si O2"
_cell_formula_units_Z 64
_cell_length_a 19.897822
_cell_length_b 9.923015
_cell_length_c 23.513816
_cell_angle_alpha 90.000000
_cell_angle_beta 51.191677
_cell_angle_gamma 90.000000
_cell_volume 3617.823762
_symmetry_space_group_name_H-M "C 2/C"
_symmetry_group_IT_number 15
_symmetry_cell_setting 'monoclinic'
loop_
_space_group_symop_operation_xyz
x,y,z
-x,y,1/2-z
-x,-y,-z
x,-y,1/2+z
1/2+x,1/2+y,z
1/2-x,1/2+y,1/2-z
1/2-x,1/2-y,-z
1/2+x,1/2-y,1/2+z
loop_
_atom_site_type_symbol
_atom_site_label
_atom_site_fract_x
_atom_site_fract_y
_atom_site_fract_z
Si Si1 0.870309 0.451975 0.607074
Si Si2 0.553500 0.034226 0.048551
Si Si3 0.282733 0.341444 0.314102
Si Si4 0.360876 0.341138 0.152465
Si Si5 0.441956 0.347538 0.453918
Si Si6 0.166676 0.134301 0.591762
Si Si7 0.789942 0.055941 0.110727
Si Si8 0.190282 0.554418 0.059483
O O1 0.904601 0.447960 0.524228
O O2 0.795467 0.557912 0.657446
O O3 0.836713 0.303404 0.639234
O O4 0.950891 0.490498 0.606048
O O5 0.575445 0.190200 0.025453
O O6 0.598385 0.996476 0.085629
O O7 0.347024 0.338028 0.227170
O O8 0.340341 0.394700 0.337008
O O9 0.243357 0.194369 0.344893
O O10 0.459171 0.383390 0.087457
O O11 0.299202 0.451360 0.156965
O O12 0.419651 0.387688 0.400013
O O13 0.381000 0.426431 0.529973
O O14 0.193796 0.288548 0.572086
O O15 0.241120 0.035155 0.528095
O O16 0.721602 0.988145 0.102163
#
# Coordination Sequence:
#
# PCOD8132975 Si02
#       8
#     8   8   8   8   8   8   8   8
#     4  10  19  31  50  74 100 127 163 203 244 293
#     4   9  15  30  54  76  94 121 167 213 239 281
#     4  11  19  34  52  71 100 135 164 200 254 295
#     4  11  23  31  46  76 107 131 163 201 244 305
#     4   9  17  33  53  75  97 126 169 212 244 282
#     4   8  14  26  51  74  92 123 165 207 244 283
#     4  10  19  34  53  72 101 134 162 205 251 291
#     4   8  13  27  51  76  93 120 167 208 242 280
#
# _framework density 17.690192
#
# number of rings (size 3 to 8) (size 9 to 14) (size 15 to 20)
#    0.000    2.500    2.500    2.625    0.000    0.500 
#    0.000    0.625    0.000    2.250    0.000    0.000 
#    0.000    0.000    0.000    0.000    0.000    0.000 
#
# Total GULP energy -396539.914684 kJ/mol
# GULP energy per Si atom -12391.872334 kJ/mol
# Density = 1.764993 g / cm^3
# Si number density = 17.690192 Si / 1000 Ang^3
#
#
#
# Elastic Constant Matrix: (Units=GPa)
#
#
# Indices 1 2 3 4 5 6 
#
# 1 109.5116 29.6508 24.5817 0.0000 19.7858 0.0000
# 2 29.6508 46.4392 17.1444 0.0000 8.7955 0.0000
# 3 24.5817 17.1444 61.3223 0.0000 16.0747 0.0000
# 4 0.0000 0.0000 0.0000 14.1167 0.0000 2.3348
# 5 19.7858 8.7955 16.0747 0.0000 24.6648 0.0000
# 6 0.0000 0.0000 0.0000 2.3348 0.0000 19.6224
#
#
#
# Elastic Compliance Matrix: (Units=1/GPa)
#
#
# Indices 1 2 3 4 5 6 
#
# 1 0.012321 -0.006040 -0.001476 0.000000 -0.006768 0.000000
# 2 -0.006040 0.027506 -0.004785 0.000000 -0.001845 0.000000
# 3 -0.001476 -0.004785 0.021081 0.000000 -0.010848 0.000000
# 4 0.000000 0.000000 0.000000 0.072260 0.000000 -0.008598
# 5 -0.006768 -0.001845 -0.010848 0.000000 0.053701 0.000000
# 6 0.000000 0.000000 0.000000 -0.008598 0.000000 0.051985
#
#
# Mechanical properties :
#
#
# Convention : Reuss Voigt Hill
#
# Bulk Modulus (GPa) = 27.54484 40.00300 33.77392
# Shear Modulus (GPa) = 18.14499 21.40718 19.77609
#
# Velocity S-wave (km/s) = 3.20614 3.48245 3.34715
# Velocity P-wave (km/s) = 5.41390 6.23154 5.83705
#
# Compressibility (1/GPa) = 0.03630444
#
# Stress axis : x y z
#
# Youngs Moduli (GPa) = 81.16274 36.35568 47.43694
#
# Poissons Ratio (x) = 0.21959 0.07003
# Poissons Ratio (y) = 0.49022 0.22700
# Poissons Ratio (z) = 0.11982 0.17397
#
# Static dielectric constant tensor:
#      x y z
#    x 3.680440 0.000000 0.131150 
#    y 0.000000 2.902740 0.000000 
#    z 0.131150 0.000000 3.076210 
# 
# 
# High freq. dielectric constant tensor:
#      x y z
#    x 1.702860 0.000000 0.007980 
#    y 0.000000 1.640870 0.000000 
#    z 0.007980 0.000000 1.661110 
# 
# From -- ./inp_files/300356.got.cif
#   From: 2010.06.25/outbox.cif.g09.slc.cpg/sg15_151_cif.got.tgz:300356.got - 2010.06.28 07:06:18.
