data_PCOD8132754
_publ_section_title
;
Structure prediction by ZEFSAII (Michael W. Deem and Ramdas Pophale) SiO2 
 PCOD8132754
Probable space group: C 2/C
;
_chemical_formula_sum "Si O2"
_cell_formula_units_Z 56
_cell_length_a 16.100171
_cell_length_b 9.480051
_cell_length_c 14.269968
_cell_angle_alpha 90.000000
_cell_angle_beta 77.076567
_cell_angle_gamma 90.000000
_cell_volume 2122.861567
_symmetry_space_group_name_H-M "C 2/C"
_symmetry_group_IT_number 15
_symmetry_cell_setting 'monoclinic'
loop_
_space_group_symop_operation_xyz
x,y,z
-x,y,1/2-z
-x,-y,-z
x,-y,1/2+z
1/2+x,1/2+y,z
1/2-x,1/2+y,1/2-z
1/2-x,1/2-y,-z
1/2+x,1/2-y,1/2+z
loop_
_atom_site_type_symbol
_atom_site_label
_atom_site_fract_x
_atom_site_fract_y
_atom_site_fract_z
Si Si1 0.621152 0.788711 0.112575
Si Si2 0.675519 0.520260 0.620198
Si Si3 0.442428 0.737336 0.930343
Si Si4 0.756908 0.261953 0.224725
Si Si5 0.617324 0.841121 0.896269
Si Si6 0.434178 0.156922 0.633302
Si Si7 0.794935 0.561123 0.416516
O O1 0.652408 0.640762 0.147370
O O2 0.524247 0.830446 0.164749
O O3 0.687153 0.908575 0.135157
O O4 0.632328 0.789993 0.997755
O O5 0.590364 0.588068 0.598883
O O6 0.706093 0.595798 0.708411
O O7 0.753398 0.541271 0.528710
O O8 0.539975 0.752069 0.870047
O O9 0.386215 0.863940 0.902953
O O10 0.439696 0.738522 0.043559
O O11 0.706031 0.182312 0.319913
O O12 0.857372 0.294941 0.223280
O O13 0.764169 0.156931 0.133746
O O14 0.586490 0.002392 0.901307
#
# Coordination Sequence:
#
# PCOD8132754 Si02
#       7
#     8   8   8   8   8   8   8
#     4  11  23  41  74  95 134 170 232 266 325 391
#     4  11  22  38  68 103 128 175 223 274 323 402
#     4  10  18  40  69  91 125 173 225 256 317 395
#     4  11  24  42  70  93 139 168 226 271 343 378
#     4  11  23  40  70 100 127 177 225 276 324 399
#     4  11  20  44  68  99 126 178 223 272 317 416
#     4  11  19  41  70  94 127 185 217 264 319 415
#
# _framework density 26.379486
#
# number of rings (size 3 to 8) (size 9 to 14) (size 15 to 20)
#    0.000    1.143    5.714    2.143    0.000    5.714 
#    2.571    0.000    6.286    0.000    0.000    0.000 
#    0.000    0.000    0.000    0.000    0.000    0.000 
#
# Total GULP energy -347266.524278 kJ/mol
# GULP energy per Si atom -12402.375867 kJ/mol
# Density = 2.631944 g / cm^3
# Si number density = 26.379486 Si / 1000 Ang^3
#
#
#
# Elastic Constant Matrix: (Units=GPa)
#
#
# Indices 1 2 3 4 5 6 
#
# 1 149.6607 43.3065 13.0538 0.0000 -32.6055 0.0000
# 2 43.3065 145.4300 6.2306 0.0000 -3.2166 0.0000
# 3 13.0538 6.2306 93.0037 0.0000 -14.0016 0.0000
# 4 0.0000 0.0000 0.0000 38.3709 0.0000 -10.5653
# 5 -32.6055 -3.2166 -14.0016 0.0000 28.8308 0.0000
# 6 0.0000 0.0000 0.0000 -10.5653 0.0000 34.5917
#
#
#
# Elastic Compliance Matrix: (Units=1/GPa)
#
#
# Indices 1 2 3 4 5 6 
#
# 1 0.009828 -0.002702 0.000463 0.000000 0.011038 0.000000
# 2 -0.002702 0.007648 -0.000501 0.000000 -0.002446 0.000000
# 3 0.000463 -0.000501 0.011643 0.000000 0.006122 0.000000
# 4 0.000000 0.000000 0.000000 0.028454 0.000000 0.008691
# 5 0.011038 -0.002446 0.006122 0.000000 0.049869 0.000000
# 6 0.000000 0.000000 0.000000 0.008691 0.000000 0.031563
#
#
# Mechanical properties :
#
#
# Convention : Reuss Voigt Hill
#
# Bulk Modulus (GPa) = 42.30424 57.03068 49.66746
# Shear Modulus (GPa) = 32.81577 42.05891 37.43734
#
# Velocity S-wave (km/s) = 3.53085 3.99730 3.77129
# Velocity P-wave (km/s) = 5.71788 6.55521 6.15081
#
# Compressibility (1/GPa) = 0.02363829
#
# Stress axis : x y z
#
# Youngs Moduli (GPa) = 101.74799 130.74881 85.89212
#
# Poissons Ratio (x) = 0.35333 -0.03980
# Poissons Ratio (y) = 0.27496 0.04306
# Poissons Ratio (z) = -0.04715 0.06555
#
# Static dielectric constant tensor:
#      x y z
#    x 5.217610 0.000000 -0.063510 
#    y 0.000000 4.857670 0.000000 
#    z -0.063510 0.000000 4.653810 
# 
# 
# High freq. dielectric constant tensor:
#      x y z
#    x 2.081720 0.000000 0.004800 
#    y 0.000000 2.053950 0.000000 
#    z 0.004800 0.000000 2.062750 
# 
# From -- ./inp_files/247348.got.cif
#   From: 2010.06.25/outbox.cif.g09.slc.cpg/sg15_124_cif.got.tgz:247348.got - 2010.06.28 07:06:18.
