data_PCOD8132610
_publ_section_title
;
Structure prediction by ZEFSAII (Michael W. Deem and Ramdas Pophale) SiO2 
 PCOD8132610
Probable space group: C 2/C
;
_chemical_formula_sum "Si O2"
_cell_formula_units_Z 56
_cell_length_a 26.564028
_cell_length_b 13.660893
_cell_length_c 14.593696
_cell_angle_alpha 90.000000
_cell_angle_beta 150.112873
_cell_angle_gamma 90.000000
_cell_volume 2638.900785
_symmetry_space_group_name_H-M "C 2/C"
_symmetry_group_IT_number 15
_symmetry_cell_setting 'monoclinic'
loop_
_space_group_symop_operation_xyz
x,y,z
-x,y,1/2-z
-x,-y,-z
x,-y,1/2+z
1/2+x,1/2+y,z
1/2-x,1/2+y,1/2-z
1/2-x,1/2-y,-z
1/2+x,1/2-y,1/2+z
loop_
_atom_site_type_symbol
_atom_site_label
_atom_site_fract_x
_atom_site_fract_y
_atom_site_fract_z
Si Si1 0.453765 0.665332 0.578093
Si Si2 0.219693 0.543812 0.732836
Si Si3 0.618269 0.060550 0.922027
Si Si4 0.773263 0.672920 0.262973
Si Si5 0.076149 0.581830 0.657062
Si Si6 0.951359 0.231471 0.952140
Si Si7 0.443505 0.438344 0.566899
O O1 0.500000 0.682902 0.750000
O O2 0.340642 0.711573 0.398319
O O3 0.527360 0.719696 0.622415
O O4 0.450641 0.550608 0.546457
O O5 0.164633 0.535141 0.546691
O O6 0.233920 0.433941 0.797535
O O7 0.154276 0.607719 0.700008
O O8 0.327300 0.595772 0.894104
O O9 0.500000 0.064434 0.750000
O O10 0.639086 0.049190 0.846523
O O11 0.669591 0.157853 0.048386
O O12 0.833680 0.745759 0.290035
O O13 0.000000 0.500000 0.500000
O O14 0.014717 0.677321 0.590437
O O15 0.990041 0.132704 0.063161
O O16 0.500000 0.419122 0.750000
#
# Coordination Sequence:
#
# PCOD8132610 Si02
#       7
#     8   8   8   8   8   8   8
#     4  10  24  49  64  92 138 177 222 267 319 398
#     4   9  21  42  62  95 127 168 215 261 329 390
#     4  10  18  38  66  90 135 160 214 275 325 381
#     4   9  21  41  65  95 131 167 213 273 319 384
#     4  12  21  39  65 102 129 168 208 272 341 382
#     4  12  24  39  71  99 134 164 230 263 331 395
#     4  10  24  45  69  89 133 180 215 271 321 387
#
# _framework density 21.220956000000001
#
# number of rings (size 3 to 8) (size 9 to 14) (size 15 to 20)
#    0.857    0.857    4.286    0.429    4.000    1.714 
#   10.286    1.429    0.000    0.000    0.000    0.000 
#    0.000    0.000    0.000    0.000    0.000    0.000 
#
# Total GULP energy -347056.346250 kJ/mol
# GULP energy per Si atom -12394.869509 kJ/mol
# Density = 2.117266 g / cm^3
# Si number density = 21.220956 Si / 1000 Ang^3
#
#
#
# Elastic Constant Matrix: (Units=GPa)
#
#
# Indices 1 2 3 4 5 6 
#
# 1 138.2078 50.7318 70.2340 0.0000 -14.8647 0.0000
# 2 50.7318 51.1378 29.9299 0.0000 4.9689 0.0000
# 3 70.2340 29.9299 151.3786 0.0000 -4.5738 0.0000
# 4 0.0000 0.0000 0.0000 13.7793 0.0000 1.2613
# 5 -14.8647 4.9689 -4.5738 0.0000 27.6879 0.0000
# 6 0.0000 0.0000 0.0000 1.2613 0.0000 38.2115
#
#
#
# Elastic Compliance Matrix: (Units=1/GPa)
#
#
# Indices 1 2 3 4 5 6 
#
# 1 0.015593 -0.014031 -0.004152 0.000000 0.010203 0.000000
# 2 -0.014031 0.035368 -0.000907 0.000000 -0.014030 0.000000
# 3 -0.004152 -0.000907 0.008693 0.000000 -0.000630 0.000000
# 4 0.000000 0.000000 0.000000 0.072793 0.000000 -0.002403
# 5 0.010203 -0.014030 -0.000630 0.000000 0.044008 0.000000
# 6 0.000000 0.000000 0.000000 -0.002403 0.000000 0.026249
#
#
# Mechanical properties :
#
#
# Convention : Reuss Voigt Hill
#
# Bulk Modulus (GPa) = 46.56728 71.39062 58.97895
# Shear Modulus (GPa) = 20.15784 28.59098 24.37441
#
# Velocity S-wave (km/s) = 3.08539 3.67454 3.39278
# Velocity P-wave (km/s) = 5.88936 7.19149 6.57275
#
# Compressibility (1/GPa) = 0.02147431
#
# Stress axis : x y z
#
# Youngs Moduli (GPa) = 64.13063 28.27393 115.03817
#
# Poissons Ratio (x) = 0.39670 0.47767
# Poissons Ratio (y) = 0.89979 0.10435
# Poissons Ratio (z) = 0.26629 0.02565
#
# Static dielectric constant tensor:
#      x y z
#    x 3.948450 0.000000 0.005650 
#    y 0.000000 3.698230 0.000000 
#    z 0.005650 0.000000 3.851800 
# 
# 
# High freq. dielectric constant tensor:
#      x y z
#    x 1.828430 0.000000 0.007130 
#    y 0.000000 1.821210 0.000000 
#    z 0.007130 0.000000 1.822440 
# 
# From -- ./inp_files/178425.got.cif
#   From: 2010.06.25/outbox.cif.g09.slc.cpg/sg15_90_cif.got.tgz:178425.got - 2010.06.28 07:06:18.
