data_PCOD8132979
_publ_section_title
;
Structure prediction by ZEFSAII (Michael W. Deem and Ramdas Pophale) SiO2 
 PCOD8132979
Probable space group: C 2/C
;
_chemical_formula_sum "Si O2"
_cell_formula_units_Z 64
_cell_length_a 14.258683
_cell_length_b 14.686640
_cell_length_c 20.524062
_cell_angle_alpha 90.000000
_cell_angle_beta 49.847531
_cell_angle_gamma 90.000000
_cell_volume 3285.086279
_symmetry_space_group_name_H-M "C 2/C"
_symmetry_group_IT_number 15
_symmetry_cell_setting 'monoclinic'
loop_
_space_group_symop_operation_xyz
x,y,z
-x,y,1/2-z
-x,-y,-z
x,-y,1/2+z
1/2+x,1/2+y,z
1/2-x,1/2+y,1/2-z
1/2-x,1/2-y,-z
1/2+x,1/2-y,1/2+z
loop_
_atom_site_type_symbol
_atom_site_label
_atom_site_fract_x
_atom_site_fract_y
_atom_site_fract_z
Si Si1 0.044960 0.092925 0.803552
Si Si2 0.131742 0.208579 0.164611
Si Si3 0.029481 0.483517 0.660255
Si Si4 0.755406 0.605021 0.906274
Si Si5 0.459937 0.793705 0.695309
Si Si6 0.804436 0.401990 0.234171
Si Si7 0.957744 0.082899 0.405717
Si Si8 0.309186 0.305701 0.722343
O O1 0.022772 0.194226 0.845627
O O2 0.000000 0.082880 0.750000
O O3 0.191127 0.071440 0.738117
O O4 0.974191 0.022840 0.881296
O O5 0.200192 0.292319 0.099597
O O6 0.118071 0.128231 0.119146
O O7 0.205299 0.169527 0.194283
O O8 0.000000 0.244185 0.250000
O O9 0.157195 0.535570 0.592672
O O10 0.038608 0.378221 0.630451
O O11 0.000000 0.482528 0.750000
O O12 0.920755 0.533351 0.669239
O O13 0.755585 0.586493 0.829611
O O14 0.617755 0.591325 0.993754
O O15 0.500000 0.775132 0.750000
O O16 0.318130 0.825294 0.756786
O O17 0.848759 0.299717 0.199300
O O18 0.088127 0.132319 0.357898
#
# Coordination Sequence:
#
# PCOD8132979 Si02
#       8
#     8   8   8   8   8   8   8   8
#     4  10  20  34  51  72  97 131 173 209 238 285
#     4   9  17  31  51  75 102 130 162 200 243 299
#     4   9  16  30  51  72  94 125 164 204 244 287
#     4  10  19  31  50  79 107 126 155 203 260 304
#     4   9  18  32  52  71  89 124 175 212 233 272
#     4   9  18  33  54  76  98 127 168 212 242 285
#     4  11  20  30  50  79 108 132 152 196 262 309
#     4   9  17  31  51  75  98 126 165 204 245 292
#
# _framework density 19.481984000000001
#
# number of rings (size 3 to 8) (size 9 to 14) (size 15 to 20)
#    0.000    2.500    0.000    4.875    0.000    0.500 
#    0.000    0.625    0.000   15.000    0.000    0.000 
#    0.000    0.000    0.000    0.000    0.000    0.000 
#
# Total GULP energy -396644.903476 kJ/mol
# GULP energy per Si atom -12395.153234 kJ/mol
# Density = 1.943764 g / cm^3
# Si number density = 19.481984 Si / 1000 Ang^3
#
#
#
# Elastic Constant Matrix: (Units=GPa)
#
#
# Indices 1 2 3 4 5 6 
#
# 1 113.1754 28.5644 19.9857 0.0000 -21.4008 0.0000
# 2 28.5644 125.8982 41.8944 0.0000 -15.9397 0.0000
# 3 19.9857 41.8944 76.7389 0.0000 -11.8208 0.0000
# 4 0.0000 0.0000 0.0000 12.3370 0.0000 6.7570
# 5 -21.4008 -15.9397 -11.8208 0.0000 14.0126 0.0000
# 6 0.0000 0.0000 0.0000 6.7570 0.0000 2.4695
#
#
#
# Elastic Compliance Matrix: (Units=1/GPa)
#
#
# Indices 1 2 3 4 5 6 
#
# 1 0.012451 -0.000442 -0.000172 0.000000 0.018368 0.000000
# 2 -0.000442 0.010471 -0.004449 0.000000 0.007483 0.000000
# 3 -0.000172 -0.004449 0.016878 0.000000 0.008915 0.000000
# 4 0.000000 0.000000 0.000000 -0.162569 0.000000 0.444814
# 5 0.018368 0.007483 0.008915 0.000000 0.115449 0.000000
# 6 0.000000 0.000000 0.000000 0.444814 0.000000 -0.812147
#
#
# Mechanical properties :
#
#
# Convention : Reuss Voigt Hill
#
# Bulk Modulus (GPa) = 33.69921 55.18907 44.44414
# Shear Modulus (GPa) = -6.25430 20.78837 7.26703
#
# Velocity S-wave (km/s) = -1.79367 3.27013 1.93345
# Velocity P-wave (km/s) = 3.61185 6.53055 5.27700
#
# Compressibility (1/GPa) = 0.02967428
#
# Stress axis : x y z
#
# Youngs Moduli (GPa) = 80.31437 95.50187 59.24913
#
# Poissons Ratio (x) = 0.04224 0.01019
# Poissons Ratio (y) = 0.03552 0.26358
# Poissons Ratio (z) = 0.01381 0.42486
#
# Static dielectric constant tensor:
#      x y z
#    x 3.742240 0.000000 -0.190830 
#    y 0.000000 3.947070 0.000000 
#    z -0.190830 0.000000 2.998270 
# 
# 
# High freq. dielectric constant tensor:
#      x y z
#    x 1.768580 0.000000 -0.021460 
#    y 0.000000 1.778240 0.000000 
#    z -0.021460 0.000000 1.692870 
# 
# From -- ./inp_files/274334.got.cif
#   From: 2010.06.25/outbox.cif.g09.slc.cpg/sg15_138_cif.got.tgz:274334.got - 2010.06.28 07:06:18.
