data_PCOD8132667
_publ_section_title
;
Structure prediction by ZEFSAII (Michael W. Deem and Ramdas Pophale) SiO2 
 PCOD8132667
Probable space group: C 2/C
;
_chemical_formula_sum "Si O2"
_cell_formula_units_Z 52
_cell_length_a 10.211771
_cell_length_b 11.839944
_cell_length_c 27.624401
_cell_angle_alpha 90.000000
_cell_angle_beta 47.368480
_cell_angle_gamma 90.000000
_cell_volume 2457.303884
_symmetry_space_group_name_H-M "C 2/C"
_symmetry_group_IT_number 15
_symmetry_cell_setting 'monoclinic'
loop_
_space_group_symop_operation_xyz
x,y,z
-x,y,1/2-z
-x,-y,-z
x,-y,1/2+z
1/2+x,1/2+y,z
1/2-x,1/2+y,1/2-z
1/2-x,1/2-y,-z
1/2+x,1/2-y,1/2+z
loop_
_atom_site_type_symbol
_atom_site_label
_atom_site_fract_x
_atom_site_fract_y
_atom_site_fract_z
Si Si1 0.946097 0.699629 0.449133
Si Si2 0.633619 0.587952 0.915666
Si Si3 0.842394 0.477048 0.652252
Si Si4 0.000000 0.172463 0.250000
Si Si5 0.977109 0.638457 0.961196
Si Si6 0.416920 0.613369 0.462620
Si Si7 0.476804 0.108061 0.703146
O O1 0.750000 0.750000 0.500000
O O2 0.080549 0.799600 0.399679
O O3 0.985421 0.606092 0.397745
O O4 0.988868 0.643721 0.490278
O O5 0.554125 0.479462 0.906595
O O6 0.843133 0.585797 0.871190
O O7 0.545459 0.604427 0.989785
O O8 0.660631 0.406859 0.691829
O O9 0.832908 0.541815 0.706538
O O10 0.863349 0.569961 0.604420
O O11 0.061122 0.256978 0.279019
O O12 0.968470 0.759124 0.935201
O O13 0.783048 0.580595 0.003017
O O14 0.500000 0.049188 0.750000
#
# Coordination Sequence:
#
# PCOD8132667 Si02
#       7
#     8   8   8   4   8   8   8
#     4  11  23  38  63 102 135 170 213 272 351 411
#     4  10  18  39  65  89 132 171 208 269 335 398
#     4  12  23  47  70  91 137 173 225 284 330 412
#     4  10  26  50  66  92 134 186 234 282 334 390
#     4  10  21  37  62 102 134 168 213 269 346 406
#     4   9  19  34  65 101 129 166 207 266 343 408
#     4  10  23  47  65  92 123 183 228 270 339 381
#
# _framework density 21.161404000000001
#
# number of rings (size 3 to 8) (size 9 to 14) (size 15 to 20)
#    0.462    1.231    3.077    1.385    4.308    0.000 
#   11.077    0.000    0.000    0.000    0.000    0.000 
#    0.000    0.000    0.000    0.000    0.000    0.000 
#
# Total GULP energy -322108.467856 kJ/mol
# GULP energy per Si atom -12388.787225 kJ/mol
# Density = 2.111324 g / cm^3
# Si number density = 21.161404 Si / 1000 Ang^3
#
#
#
# Elastic Constant Matrix: (Units=GPa)
#
#
# Indices 1 2 3 4 5 6 
#
# 1 67.3308 37.5381 16.0129 0.0000 -1.6242 0.0000
# 2 37.5381 121.3765 50.1355 0.0000 -0.1623 0.0000
# 3 16.0129 50.1355 71.3757 -0.0001 -5.7965 0.0000
# 4 0.0000 0.0000 -0.0001 35.7804 0.0001 -4.6213
# 5 -1.6242 -0.1623 -5.7965 0.0001 27.3050 0.0000
# 6 0.0000 0.0000 0.0000 -4.6213 0.0000 35.1208
#
#
#
# Elastic Compliance Matrix: (Units=1/GPa)
#
#
# Indices 1 2 3 4 5 6 
#
# 1 0.017976 -0.005531 -0.000064 0.000000 0.001023 0.000000
# 2 -0.005531 0.013386 -0.008325 0.000000 -0.002017 0.000000
# 3 -0.000064 -0.008325 0.020217 0.000000 0.004238 0.000000
# 4 0.000000 0.000000 0.000000 0.028431 0.000000 0.003741
# 5 0.001023 -0.002017 0.004238 0.000000 0.037572 0.000000
# 6 0.000000 0.000000 0.000000 0.003741 0.000000 0.028965
#
#
# Mechanical properties :
#
#
# Convention : Reuss Voigt Hill
#
# Bulk Modulus (GPa) = 42.12946 51.93955 47.03451
# Shear Modulus (GPa) = 27.42714 30.06764 28.74739
#
# Velocity S-wave (km/s) = 3.60403 3.77353 3.68976
# Velocity P-wave (km/s) = 6.10497 6.60181 6.35824
#
# Compressibility (1/GPa) = 0.02373636
#
# Stress axis : x y z
#
# Youngs Moduli (GPa) = 55.63002 74.70721 49.46399
#
# Poissons Ratio (x) = 0.41324 0.00318
# Poissons Ratio (y) = 0.30771 0.41179
# Poissons Ratio (z) = 0.00358 0.62194
#
# Static dielectric constant tensor:
#      x y z
#    x 3.561080 0.000000 -0.048260 
#    y 0.000000 4.403440 0.000000 
#    z -0.048260 0.000000 3.587420 
# 
# 
# High freq. dielectric constant tensor:
#      x y z
#    x 1.805070 0.000000 -0.004270 
#    y 0.000000 1.851450 0.000000 
#    z -0.004270 0.000000 1.803280 
# 
# From -- ./inp_files/310749.got.cif
#   From: 2010.06.25/outbox.cif.g09.slc.cpg/sg15_156_cif.got.tgz:310749.got - 2010.06.28 07:06:18.
