data_PCOD8132112
_publ_section_title
;
Structure prediction by ZEFSAII (Michael W. Deem and Ramdas Pophale) SiO2 
 PCOD8132112
Probable space group: C 2/C
;
_chemical_formula_sum "Si O2"
_cell_formula_units_Z 64
_cell_length_a 12.185030
_cell_length_b 17.369454
_cell_length_c 23.443538
_cell_angle_alpha 90.000000
_cell_angle_beta 135.894348
_cell_angle_gamma 90.000000
_cell_volume 3453.305106
_symmetry_space_group_name_H-M "C 2/C"
_symmetry_group_IT_number 15
_symmetry_cell_setting 'monoclinic'
loop_
_space_group_symop_operation_xyz
x,y,z
-x,y,1/2-z
-x,-y,-z
x,-y,1/2+z
1/2+x,1/2+y,z
1/2-x,1/2+y,1/2-z
1/2-x,1/2-y,-z
1/2+x,1/2-y,1/2+z
loop_
_atom_site_type_symbol
_atom_site_label
_atom_site_fract_x
_atom_site_fract_y
_atom_site_fract_z
Si Si1 0.816054 0.482024 0.873924
Si Si2 0.200233 0.820501 0.441856
Si Si3 0.912844 0.250931 0.775566
Si Si4 0.864730 0.221417 0.125430
Si Si5 0.842120 0.653395 0.876727
Si Si6 0.289675 0.665808 0.214208
Si Si7 0.315895 0.141201 0.537198
Si Si8 0.321187 0.980283 0.502981
O O1 0.783620 0.567711 0.839746
O O2 0.703750 0.426096 0.794839
O O3 0.996529 0.455196 0.931977
O O4 0.772094 0.480096 0.924581
O O5 0.250000 0.750000 0.500000
O O6 0.318680 0.823649 0.433337
O O7 0.216140 0.904358 0.479067
O O8 0.024614 0.807190 0.352311
O O9 0.752380 0.207786 0.700785
O O10 0.855119 0.319063 0.795886
O O11 0.000000 0.281237 0.750000
O O12 0.755260 0.201987 0.138857
O O13 0.833223 0.312932 0.103370
O O14 0.046669 0.200515 0.203444
O O15 0.825387 0.174650 0.053390
O O16 0.026863 0.660035 0.938966
O O17 0.293924 0.048899 0.539302
#
# Coordination Sequence:
#
# PCOD8132112 Si02
#       8
#     8   8   8   8   8   8   8   8
#     4   9  17  30  55  79 108 141 175 233 273 316
#     4  10  20  31  53  84 102 145 184 224 280 314
#     4  10  21  36  53  75 111 145 172 226 274 330
#     4  10  22  31  56  84 107 151 173 236 270 324
#     4   9  19  35  53  76 112 141 180 225 280 326
#     4  11  20  36  53  85 111 135 194 225 273 328
#     4  10  18  36  53  79 110 144 182 218 292 321
#     4   9  17  31  53  81 110 141 181 229 275 332
#
# _framework density 18.532969999999999
#
# number of rings (size 3 to 8) (size 9 to 14) (size 15 to 20)
#    0.000    2.250    2.500    1.500    1.750    1.000 
#    4.500    0.000    0.000    6.750    3.250    0.000 
#    0.000    0.000    0.000    0.000    0.000    0.000 
#
# Total GULP energy -396522.615058 kJ/mol
# GULP energy per Si atom -12391.331721 kJ/mol
# Density = 1.849079 g / cm^3
# Si number density = 18.532970 Si / 1000 Ang^3
#
#
#
# Elastic Constant Matrix: (Units=GPa)
#
#
# Indices 1 2 3 4 5 6 
#
# 1 63.5762 35.3716 11.8014 0.0000 -10.3472 0.0000
# 2 35.3716 130.5626 38.7802 0.0000 -14.3167 0.0000
# 3 11.8014 38.7802 67.0279 0.0000 -3.8029 0.0000
# 4 0.0000 0.0000 0.0000 27.2905 0.0000 -4.8939
# 5 -10.3472 -14.3167 -3.8029 0.0000 16.6433 0.0000
# 6 0.0000 0.0000 0.0000 -4.8939 0.0000 25.8314
#
#
#
# Elastic Compliance Matrix: (Units=1/GPa)
#
#
# Indices 1 2 3 4 5 6 
#
# 1 0.019540 -0.004217 -0.000524 0.000000 0.008401 0.000000
# 2 -0.004217 0.010992 -0.005298 0.000000 0.005623 0.000000
# 3 -0.000524 -0.005298 0.018033 0.000000 -0.000763 0.000000
# 4 0.000000 0.000000 0.000000 0.037932 0.000000 0.007186
# 5 0.008401 0.005623 -0.000763 0.000000 0.069970 0.000000
# 6 0.000000 0.000000 0.000000 0.007186 0.000000 0.040074
#
#
# Mechanical properties :
#
#
# Convention : Reuss Voigt Hill
#
# Bulk Modulus (GPa) = 35.10332 48.11925 41.61129
# Shear Modulus (GPa) = 22.11277 25.63394 23.87335
#
# Velocity S-wave (km/s) = 3.45796 3.72311 3.59298
# Velocity P-wave (km/s) = 5.90978 6.67103 6.30191
#
# Compressibility (1/GPa) = 0.02848733
#
# Stress axis : x y z
#
# Youngs Moduli (GPa) = 51.17771 90.97686 55.45262
#
# Poissons Ratio (x) = 0.38363 0.02905
# Poissons Ratio (y) = 0.21581 0.29379
# Poissons Ratio (z) = 0.02681 0.48200
#
# Static dielectric constant tensor:
#      x y z
#    x 3.321130 0.000000 -0.004680 
#    y 0.000000 3.607060 0.000000 
#    z -0.004680 0.000000 3.434690 
# 
# 
# High freq. dielectric constant tensor:
#      x y z
#    x 1.688150 0.000000 0.013200 
#    y 0.000000 1.719020 0.000000 
#    z 0.013200 0.000000 1.717930 
# 
# From -- ./inp_files/239816.got.cif
#   From: 2010.06.25/outbox.cif.g09.slc.cpg/sg15_120_cif.got.tgz:239816.got - 2010.06.28 07:06:18.
