data_PCOD8132689
_publ_section_title
;
Structure prediction by ZEFSAII (Michael W. Deem and Ramdas Pophale) SiO2 
 PCOD8132689
Probable space group: C 2/C
;
_chemical_formula_sum "Si O2"
_cell_formula_units_Z 52
_cell_length_a 30.414617
_cell_length_b 8.022538
_cell_length_c 12.989417
_cell_angle_alpha 90.000000
_cell_angle_beta 47.752765
_cell_angle_gamma 90.000000
_cell_volume 2346.186582
_symmetry_space_group_name_H-M "C 2/C"
_symmetry_group_IT_number 15
_symmetry_cell_setting 'monoclinic'
loop_
_space_group_symop_operation_xyz
x,y,z
-x,y,1/2-z
-x,-y,-z
x,-y,1/2+z
1/2+x,1/2+y,z
1/2-x,1/2+y,1/2-z
1/2-x,1/2-y,-z
1/2+x,1/2-y,1/2+z
loop_
_atom_site_type_symbol
_atom_site_label
_atom_site_fract_x
_atom_site_fract_y
_atom_site_fract_z
Si Si1 0.903557 0.266375 0.912489
Si Si2 0.809529 0.485349 0.144450
Si Si3 0.777285 0.214447 0.346820
Si Si4 0.500000 0.974531 0.250000
Si Si5 0.592989 0.580499 0.386844
Si Si6 0.439817 0.561540 0.278629
Si Si7 0.087577 0.732813 0.503042
O O1 0.945756 0.409455 0.799810
O O2 0.903219 0.112395 0.834667
O O3 0.837734 0.341831 0.026767
O O4 0.926855 0.199010 0.987794
O O5 0.778658 0.393791 0.288676
O O6 0.762349 0.587859 0.155429
O O7 0.861804 0.602279 0.107706
O O8 0.750000 0.250000 0.500000
O O9 0.841206 0.127513 0.254667
O O10 0.477373 0.859020 0.381923
O O11 0.549380 0.610303 0.357516
O O12 0.587477 0.385846 0.424785
O O13 0.500000 0.536855 0.250000
O O14 0.399470 0.698908 0.400769
#
# Coordination Sequence:
#
# PCOD8132689 Si02
#       7
#     8   8   8   4   8   8   8
#     4   9  21  39  62  89 128 160 208 258 310 372
#     4  10  22  41  65  94 132 161 208 269 311 376
#     4  11  23  42  68  95 125 171 212 261 326 380
#     4  10  18  40  58  86 124 168 196 246 312 362
#     4  10  23  39  62  93 124 163 214 261 310 379
#     4  11  21  40  63  88 124 171 209 257 312 365
#     4  10  21  39  62  91 125 164 204 255 313 370
#
# _framework density 22.163627000000002
#
# number of rings (size 3 to 8) (size 9 to 14) (size 15 to 20)
#    0.000    1.846    1.538    1.846    0.000    6.154 
#    0.000    8.462    0.000    0.000    0.000    0.000 
#    0.000    0.000    0.000    0.000    0.000    0.000 
#
# Total GULP energy -322216.878505 kJ/mol
# GULP energy per Si atom -12392.956866 kJ/mol
# Density = 2.211318 g / cm^3
# Si number density = 22.163627 Si / 1000 Ang^3
#
#
#
# Elastic Constant Matrix: (Units=GPa)
#
#
# Indices 1 2 3 4 5 6 
#
# 1 85.9613 37.1194 46.4223 0.0000 9.1780 0.0000
# 2 37.1194 147.7057 63.5802 0.0000 0.3081 0.0000
# 3 46.4223 63.5802 128.2161 0.0000 3.7505 0.0000
# 4 0.0000 0.0000 0.0000 42.6713 0.0000 -10.8929
# 5 9.1780 0.3081 3.7505 0.0000 31.1345 0.0000
# 6 0.0000 0.0000 0.0000 -10.8929 0.0000 26.7924
#
#
#
# Elastic Compliance Matrix: (Units=1/GPa)
#
#
# Indices 1 2 3 4 5 6 
#
# 1 0.015297 -0.001909 -0.004476 0.000000 -0.003951 0.000000
# 2 -0.001909 0.008852 -0.003725 0.000000 0.000924 0.000000
# 3 -0.004476 -0.003725 0.011267 0.000000 -0.000001 0.000000
# 4 0.000000 0.000000 0.000000 0.026149 0.000000 0.010631
# 5 -0.003951 0.000924 -0.000001 0.000000 0.033274 0.000000
# 6 0.000000 0.000000 0.000000 0.010631 0.000000 0.041646
#
#
# Mechanical properties :
#
#
# Convention : Reuss Voigt Hill
#
# Bulk Modulus (GPa) = 65.81236 72.90297 69.35767
# Shear Modulus (GPa) = 30.90797 34.43706 32.67251
#
# Velocity S-wave (km/s) = 3.73840 3.94606 3.84363
# Velocity P-wave (km/s) = 6.95647 7.32982 7.14559
#
# Compressibility (1/GPa) = 0.01519471
#
# Stress axis : x y z
#
# Youngs Moduli (GPa) = 65.37380 112.97440 88.75329
#
# Poissons Ratio (x) = 0.21569 0.39726
# Poissons Ratio (y) = 0.12481 0.33062
# Poissons Ratio (z) = 0.29262 0.42084
#
# Static dielectric constant tensor:
#      x y z
#    x 3.592440 0.000000 -0.164860 
#    y 0.000000 4.533340 0.000000 
#    z -0.164860 0.000000 4.370350 
# 
# 
# High freq. dielectric constant tensor:
#      x y z
#    x 1.829850 0.000000 -0.018280 
#    y 0.000000 1.898670 0.000000 
#    z -0.018280 0.000000 1.883090 
# 
# From -- ./inp_files/121825.got.cif
#   From: 2010.06.25/outbox.cif.g09.slc.cpg/sg15_61_cif.got.tgz:121825.got - 2010.06.28 07:06:18.
