data_PCOD8132044
_publ_section_title
;
Structure prediction by ZEFSAII (Michael W. Deem and Ramdas Pophale) SiO2 
 PCOD8132044
Probable space group: C 2/C
;
_chemical_formula_sum "Si O2"
_cell_formula_units_Z 64
_cell_length_a 14.843359
_cell_length_b 13.347693
_cell_length_c 27.697666
_cell_angle_alpha 90.000000
_cell_angle_beta 35.650830
_cell_angle_gamma 90.000000
_cell_volume 3198.408767
_symmetry_space_group_name_H-M "C 2/C"
_symmetry_group_IT_number 15
_symmetry_cell_setting 'monoclinic'
loop_
_space_group_symop_operation_xyz
x,y,z
-x,y,1/2-z
-x,-y,-z
x,-y,1/2+z
1/2+x,1/2+y,z
1/2-x,1/2+y,1/2-z
1/2-x,1/2-y,-z
1/2+x,1/2-y,1/2+z
loop_
_atom_site_type_symbol
_atom_site_label
_atom_site_fract_x
_atom_site_fract_y
_atom_site_fract_z
Si Si1 0.785837 0.264844 0.103688
Si Si2 0.040093 0.402820 0.597749
Si Si3 0.828336 0.917303 0.178883
Si Si4 0.668524 0.581407 0.161968
Si Si5 0.832644 0.568777 0.656717
Si Si6 0.905408 0.744999 0.081275
Si Si7 0.344388 0.417443 0.413568
Si Si8 0.620223 0.910278 0.733503
O O1 0.863100 0.346685 0.104707
O O2 0.673984 0.319714 0.113247
O O3 0.684634 0.187340 0.178048
O O4 0.941957 0.217106 0.013642
O O5 0.223084 0.405051 0.510173
O O6 0.990197 0.510892 0.599074
O O7 0.962566 0.313687 0.602773
O O8 0.989464 0.380618 0.674159
O O9 0.724851 0.880619 0.268682
O O10 0.814280 0.842025 0.140075
O O11 0.999125 0.925246 0.125230
O O12 0.764982 0.023589 0.187156
O O13 0.500000 0.623507 0.250000
O O14 0.709405 0.511147 0.189776
O O15 0.786858 0.674359 0.103126
O O16 0.675538 0.517757 0.109532
O O17 0.500000 0.966896 0.750000
#
# Coordination Sequence:
#
# PCOD8132044 Si02
#       8
#     8   8   8   8   8   8   8   8
#     4  10  22  37  63  91 118 150 198 245 298 341
#     4   9  20  39  61  88 118 151 195 245 294 344
#     4  11  23  39  58  86 118 156 197 237 292 348
#     4  10  18  35  61  92 120 153 194 241 296 345
#     4   9  18  36  60  89 117 153 193 241 289 349
#     4  10  22  36  60  90 121 153 193 246 292 349
#     4  10  21  37  65  91 114 147 197 249 290 344
#     4  11  26  41  59  82 121 162 196 239 298 356
#
# _framework density 20.00995
#
# number of rings (size 3 to 8) (size 9 to 14) (size 15 to 20)
#    0.000    2.000    1.250    1.500    5.250    5.000 
#    0.000    0.000    0.000    1.500    0.000    0.000 
#    0.000    0.000    0.000    0.000    0.000    0.000 
#
# Total GULP energy -396588.354656 kJ/mol
# GULP energy per Si atom -12393.386083 kJ/mol
# Density = 1.996441 g / cm^3
# Si number density = 20.009950 Si / 1000 Ang^3
#
#
#
# Elastic Constant Matrix: (Units=GPa)
#
#
# Indices 1 2 3 4 5 6 
#
# 1 65.7905 33.4977 43.8882 -0.0001 -4.9501 0.0000
# 2 33.4977 69.0375 49.6616 0.0000 5.2502 0.0000
# 3 43.8882 49.6616 125.8510 -0.0002 11.9389 0.0001
# 4 -0.0001 0.0000 -0.0002 26.4711 0.0000 7.3091
# 5 -4.9501 5.2502 11.9389 0.0000 22.0267 0.0000
# 6 0.0000 0.0000 0.0001 7.3091 0.0000 20.5059
#
#
#
# Elastic Compliance Matrix: (Units=1/GPa)
#
#
# Indices 1 2 3 4 5 6 
#
# 1 0.024355 -0.008088 -0.006329 0.000000 0.010832 0.000000
# 2 -0.008088 0.022918 -0.005832 0.000000 -0.004119 0.000000
# 3 -0.006329 -0.005832 0.013133 0.000000 -0.007151 0.000000
# 4 0.000000 0.000000 0.000000 0.041901 0.000000 -0.014935
# 5 0.010832 -0.004119 -0.007151 0.000000 0.052691 0.000000
# 6 0.000000 0.000000 0.000000 -0.014935 0.000000 0.054090
#
#
# Mechanical properties :
#
#
# Convention : Reuss Voigt Hill
#
# Bulk Modulus (GPa) = 50.23461 57.19712 53.71587
# Shear Modulus (GPa) = 19.51425 22.70950 21.11188
#
# Velocity S-wave (km/s) = 3.12625 3.37250 3.25171
# Velocity P-wave (km/s) = 6.17985 6.61902 6.40320
#
# Compressibility (1/GPa) = 0.01990659
#
# Stress axis : x y z
#
# Youngs Moduli (GPa) = 41.05908 43.63397 76.14457
#
# Poissons Ratio (x) = 0.35292 0.48195
# Poissons Ratio (y) = 0.33209 0.44409
# Poissons Ratio (z) = 0.25988 0.25448
#
# Static dielectric constant tensor:
#      x y z
#    x 3.670020 0.000000 0.007390 
#    y 0.000000 3.504920 0.000000 
#    z 0.007390 0.000000 3.898550 
# 
# 
# High freq. dielectric constant tensor:
#      x y z
#    x 1.775200 0.000000 0.001390 
#    y 0.000000 1.760320 0.000000 
#    z 0.001390 0.000000 1.795040 
# 
# From -- ./inp_files/296395.got.cif
#   From: 2010.06.25/outbox.cif.g09.slc.cpg/sg15_149_cif.got.tgz:296395.got - 2010.06.28 07:06:18.
