data_PCOD8132431
_publ_section_title
;
Structure prediction by ZEFSAII (Michael W. Deem and Ramdas Pophale) SiO2 
 PCOD8132431
Probable space group: C 2/C
;
_chemical_formula_sum "Si O2"
_cell_formula_units_Z 64
_cell_length_a 16.854601
_cell_length_b 6.529640
_cell_length_c 29.386318
_cell_angle_alpha 90.000000
_cell_angle_beta 96.210786
_cell_angle_gamma 90.000000
_cell_volume 3215.113702
_symmetry_space_group_name_H-M "C 2/C"
_symmetry_group_IT_number 15
_symmetry_cell_setting 'monoclinic'
loop_
_space_group_symop_operation_xyz
x,y,z
-x,y,1/2-z
-x,-y,-z
x,-y,1/2+z
1/2+x,1/2+y,z
1/2-x,1/2+y,1/2-z
1/2-x,1/2-y,-z
1/2+x,1/2-y,1/2+z
loop_
_atom_site_type_symbol
_atom_site_label
_atom_site_fract_x
_atom_site_fract_y
_atom_site_fract_z
Si Si1 0.987707 0.563857 0.802454
Si Si2 0.299024 0.068593 0.980876
Si Si3 0.120853 0.394324 0.434160
Si Si4 0.590185 0.758262 0.868511
Si Si5 0.710096 0.431916 0.885268
Si Si6 0.561199 0.125667 0.572240
Si Si7 0.954953 0.052706 0.357260
Si Si8 0.630641 0.839963 0.649861
O O1 0.056118 0.418150 0.829025
O O2 0.000000 0.563869 0.750000
O O3 0.990566 0.798565 0.820184
O O4 0.899873 0.475832 0.809374
O O5 0.386564 0.144789 0.969946
O O6 0.251972 0.983261 0.935327
O O7 0.250000 0.250000 0.000000
O O8 0.317019 0.892262 0.019761
O O9 0.119231 0.623870 0.414909
O O10 0.146917 0.244705 0.394626
O O11 0.031619 0.344747 0.445813
O O12 0.667344 0.624948 0.858077
O O13 0.525356 0.591807 0.879650
O O14 0.775057 0.358702 0.852560
O O15 0.585400 0.315481 0.605607
O O16 0.579498 0.916948 0.602142
O O17 0.885219 0.896740 0.337589
#
# Coordination Sequence:
#
# PCOD8132431 Si02
#       8
#     8   8   8   8   8   8   8   8
#     4  10  21  39  68  97 118 148 196 250 305 376
#     4  11  24  37  54  88 125 164 209 264 298 348
#     4  12  21  39  57  85 121 167 212 252 296 358
#     4  11  20  39  64  88 122 155 203 246 303 363
#     4  11  23  39  62  87 125 168 202 251 311 352
#     4  10  20  38  57  82 121 162 208 251 303 352
#     4  10  18  37  62  90 114 157 202 242 305 361
#     4   9  21  37  62  92 119 157 200 245 301 366
#
# _framework density 19.905985000000001
#
# number of rings (size 3 to 8) (size 9 to 14) (size 15 to 20)
#    0.000    1.500    6.250    0.750    1.750    3.000 
#    0.000    1.250    5.500    0.000    0.000    0.000 
#    0.000    0.000    0.000    0.000    0.000    0.000 
#
# Total GULP energy -396499.103959 kJ/mol
# GULP energy per Si atom -12390.596999 kJ/mol
# Density = 1.986068 g / cm^3
# Si number density = 19.905985 Si / 1000 Ang^3
#
#
#
# Elastic Constant Matrix: (Units=GPa)
#
#
# Indices 1 2 3 4 5 6 
#
# 1 124.6076 52.8299 32.6155 0.0000 -22.4222 0.0000
# 2 52.8299 123.9747 40.8825 0.0000 -9.3364 0.0000
# 3 32.6155 40.8825 84.5460 0.0000 -20.2707 0.0000
# 4 0.0000 0.0000 0.0000 16.8750 0.0000 0.0954
# 5 -22.4222 -9.3364 -20.2707 0.0000 25.8339 0.0000
# 6 0.0000 0.0000 0.0000 0.0954 0.0000 29.2804
#
#
#
# Elastic Compliance Matrix: (Units=1/GPa)
#
#
# Indices 1 2 3 4 5 6 
#
# 1 0.011306 -0.004056 -0.000491 0.000000 0.007962 0.000000
# 2 -0.004056 0.011053 -0.004516 0.000000 -0.003069 0.000000
# 3 -0.000491 -0.004516 0.016884 0.000000 0.011190 0.000000
# 4 0.000000 0.000000 0.000000 0.059260 0.000000 -0.000193
# 5 0.007962 -0.003069 0.011190 0.000000 0.053290 0.000000
# 6 0.000000 0.000000 0.000000 -0.000193 0.000000 0.034153
#
#
# Mechanical properties :
#
#
# Convention : Reuss Voigt Hill
#
# Bulk Modulus (GPa) = 47.35737 65.08713 56.22225
# Shear Modulus (GPa) = 23.68420 28.18455 25.93437
#
# Velocity S-wave (km/s) = 3.45309 3.76690 3.61341
# Velocity P-wave (km/s) = 6.30402 7.18941 6.76122
#
# Compressibility (1/GPa) = 0.02111604
#
# Stress axis : x y z
#
# Youngs Moduli (GPa) = 88.44713 90.47592 59.22846
#
# Poissons Ratio (x) = 0.36700 0.02910
# Poissons Ratio (y) = 0.35877 0.26746
# Poissons Ratio (z) = 0.04345 0.40856
#
# Static dielectric constant tensor:
#      x y z
#    x 3.890070 0.000000 -0.156420 
#    y 0.000000 3.879220 0.000000 
#    z -0.156420 0.000000 3.269150 
# 
# 
# High freq. dielectric constant tensor:
#      x y z
#    x 1.782690 0.000000 -0.010490 
#    y 0.000000 1.787410 0.000000 
#    z -0.010490 0.000000 1.734910 
# 
# From -- ./inp_files/315101.got.cif
#   From: 2010.06.25/outbox.cif.g09.slc.cpg/sg15_158_cif.got.tgz:315101.got - 2010.06.28 07:06:18.
