data_PCOD8132467
_publ_section_title
;
Structure prediction by ZEFSAII (Michael W. Deem and Ramdas Pophale) SiO2 
 PCOD8132467
Probable space group: C 2/C
;
_chemical_formula_sum "Si O2"
_cell_formula_units_Z 64
_cell_length_a 8.793013
_cell_length_b 27.850809
_cell_length_c 19.081296
_cell_angle_alpha 90.000000
_cell_angle_beta 140.126348
_cell_angle_gamma 90.000000
_cell_volume 2995.759819
_symmetry_space_group_name_H-M "C 2/C"
_symmetry_group_IT_number 15
_symmetry_cell_setting 'monoclinic'
loop_
_space_group_symop_operation_xyz
x,y,z
-x,y,1/2-z
-x,-y,-z
x,-y,1/2+z
1/2+x,1/2+y,z
1/2-x,1/2+y,1/2-z
1/2-x,1/2-y,-z
1/2+x,1/2-y,1/2+z
loop_
_atom_site_type_symbol
_atom_site_label
_atom_site_fract_x
_atom_site_fract_y
_atom_site_fract_z
Si Si1 0.318132 0.477654 0.246263
Si Si2 0.521364 0.188144 0.928288
Si Si3 0.764277 0.874768 0.869899
Si Si4 0.010772 0.421187 0.038787
Si Si5 0.494497 0.421263 0.823551
Si Si6 0.970508 0.216044 0.003463
Si Si7 0.908613 0.915003 0.065155
Si Si8 0.239179 0.329814 0.298497
O O1 0.500000 0.462367 0.250000
O O2 0.303174 0.535152 0.249705
O O3 0.402953 0.457618 0.352191
O O4 0.080882 0.451236 0.133856
O O5 0.513051 0.135262 0.956042
O O6 0.446769 0.228865 0.958428
O O7 0.327998 0.193450 0.798789
O O8 0.787700 0.199268 0.998559
O O9 0.500000 0.882325 0.750000
O O10 0.931636 0.884970 0.862860
O O11 0.806370 0.820455 0.911625
O O12 0.830022 0.911821 0.956041
O O13 0.179669 0.425535 0.031472
O O14 0.755673 0.443377 0.929019
O O15 0.500000 0.393937 0.750000
O O16 0.842642 0.212679 0.883212
O O17 0.051793 0.867777 0.139132
O O18 0.000000 0.352389 0.250000
#
# Coordination Sequence:
#
# PCOD8132467 Si02
#       8
#     8   8   8   8   8   8   8   8
#     4   9  21  38  63  93 120 155 205 260 305 362
#     4  10  18  37  65  88 120 163 209 250 297 371
#     4  11  23  42  58  85 131 167 195 251 319 368
#     4  11  21  40  66  93 120 163 209 256 303 362
#     4  11  24  42  63  89 121 162 208 253 313 370
#     4   9  20  38  57  92 122 157 210 253 302 361
#     4  10  21  38  62  90 124 157 208 255 304 365
#     4   9  18  35  60  87 123 162 196 253 305 351
#
# _framework density 21.363527000000001
#
# number of rings (size 3 to 8) (size 9 to 14) (size 15 to 20)
#    0.000    2.000    2.500    0.750    0.000    6.000 
#    6.750    1.875    0.000    0.000    0.000    0.000 
#    0.000    0.000    0.000    0.000    0.000    0.000 
#
# Total GULP energy -396565.492474 kJ/mol
# GULP energy per Si atom -12392.671640 kJ/mol
# Density = 2.131490 g / cm^3
# Si number density = 21.363527 Si / 1000 Ang^3
#
#
#
# Elastic Constant Matrix: (Units=GPa)
#
#
# Indices 1 2 3 4 5 6 
#
# 1 46.4452 6.3615 26.5666 0.0000 -3.9886 0.0000
# 2 6.3615 81.2056 21.8117 0.0000 -11.7542 0.0000
# 3 26.5666 21.8117 131.2415 0.0000 -5.7500 0.0000
# 4 0.0000 0.0000 0.0000 28.5475 0.0000 -3.3884
# 5 -3.9886 -11.7542 -5.7500 0.0000 34.2165 0.0000
# 6 0.0000 0.0000 0.0000 -3.3884 0.0000 22.8219
#
#
#
# Elastic Compliance Matrix: (Units=1/GPa)
#
#
# Indices 1 2 3 4 5 6 
#
# 1 0.024499 -0.000346 -0.004817 0.000000 0.001927 0.000000
# 2 -0.000346 0.013492 -0.001985 0.000000 0.004261 0.000000
# 3 -0.004817 -0.001985 0.008936 0.000000 0.000258 0.000000
# 4 0.000000 0.000000 0.000000 0.035658 0.000000 0.005294
# 5 0.001927 0.004261 0.000258 0.000000 0.030957 0.000000
# 6 0.000000 0.000000 0.000000 0.005294 0.000000 0.044604
#
#
# Mechanical properties :
#
#
# Convention : Reuss Voigt Hill
#
# Bulk Modulus (GPa) = 30.64797 40.93023 35.78910
# Shear Modulus (GPa) = 27.27477 30.72734 29.00106
#
# Velocity S-wave (km/s) = 3.57697 3.79662 3.68843
# Velocity P-wave (km/s) = 5.60684 6.19835 5.91000
#
# Compressibility (1/GPa) = 0.03262859
#
# Stress axis : x y z
#
# Youngs Moduli (GPa) = 40.81772 74.12039 111.90752
#
# Poissons Ratio (x) = 0.02567 0.53909
# Poissons Ratio (y) = 0.01414 0.22219
# Poissons Ratio (z) = 0.19663 0.14716
#
# Static dielectric constant tensor:
#      x y z
#    x 3.690060 0.000000 -0.049340 
#    y 0.000000 3.682400 0.000000 
#    z -0.049340 0.000000 4.177800 
# 
# 
# High freq. dielectric constant tensor:
#      x y z
#    x 1.810810 0.000000 -0.003200 
#    y 0.000000 1.819870 0.000000 
#    z -0.003200 0.000000 1.859320 
# 
# From -- ./inp_files/194264.got.cif
#   From: 2010.06.25/outbox.cif.g09.slc.cpg/sg15_98_cif.got.tgz:194264.got - 2010.06.28 07:06:18.
