data_PCOD8132758
_publ_section_title
;
Structure prediction by ZEFSAII (Michael W. Deem and Ramdas Pophale) SiO2 
 PCOD8132758
Probable space group: C 2/C
;
_chemical_formula_sum "Si O2"
_cell_formula_units_Z 40
_cell_length_a 15.851505
_cell_length_b 10.686329
_cell_length_c 15.847507
_cell_angle_alpha 90.000000
_cell_angle_beta 127.170898
_cell_angle_gamma 90.000000
_cell_volume 2139.091864
_symmetry_space_group_name_H-M "C 2/C"
_symmetry_group_IT_number 15
_symmetry_cell_setting 'monoclinic'
loop_
_space_group_symop_operation_xyz
x,y,z
-x,y,1/2-z
-x,-y,-z
x,-y,1/2+z
1/2+x,1/2+y,z
1/2-x,1/2+y,1/2-z
1/2-x,1/2-y,-z
1/2+x,1/2-y,1/2+z
loop_
_atom_site_type_symbol
_atom_site_label
_atom_site_fract_x
_atom_site_fract_y
_atom_site_fract_z
Si Si1 0.886420 0.939149 0.709591
Si Si2 0.859559 0.298040 0.601120
Si Si3 0.715111 0.751036 0.609931
Si Si4 0.718172 0.941652 0.476337
Si Si5 0.079734 0.802280 0.188244
O O1 0.818556 0.824968 0.709087
O O2 0.823572 0.992063 0.589064
O O3 0.000000 0.886222 0.750000
O O4 0.902175 0.050373 0.786003
O O5 0.750000 0.250000 0.500000
O O6 0.865392 0.447265 0.588247
O O7 0.865004 0.276775 0.704527
O O8 0.955150 0.228494 0.611158
O O9 0.664748 0.832508 0.502084
O O10 0.749444 0.615936 0.594785
O O11 0.627881 0.736307 0.628464
#
# Coordination Sequence:
#
# PCOD8132758 Si02
#       5
#     8   8   8   8   8
#     4  10  18  41  59  81 122 154 192 240 294 354
#     4  11  20  40  61  83 123 157 190 248 300 342
#     4   9  22  40  57  88 118 151 202 241 291 356
#     4   9  20  40  59  79 126 154 187 242 301 347
#     4  11  22  37  62  92 111 151 210 239 286 357
#
# _framework density 18.699525000000001
#
# number of rings (size 3 to 8) (size 9 to 14) (size 15 to 20)
#    1.200    0.800    4.000    0.000    2.800    0.800 
#    7.200    2.000    0.000    0.000    0.000    0.000 
#    0.000    0.000    0.000    0.000    0.000    0.000 
#
# Total GULP energy -247860.891985 kJ/mol
# GULP energy per Si atom -12393.044599 kJ/mol
# Density = 1.865696 g / cm^3
# Si number density = 18.699525 Si / 1000 Ang^3
#
#
#
# Elastic Constant Matrix: (Units=GPa)
#
#
# Indices 1 2 3 4 5 6 
#
# 1 150.0617 47.1385 54.1070 0.0000 -11.6840 0.0000
# 2 47.1385 90.5653 25.8457 0.0000 4.9049 0.0000
# 3 54.1070 25.8457 73.8745 0.0000 13.1932 0.0000
# 4 0.0000 0.0000 0.0000 28.0776 0.0000 3.0484
# 5 -11.6840 4.9049 13.1932 0.0000 27.0882 0.0000
# 6 0.0000 0.0000 0.0000 3.0484 0.0000 21.6391
#
#
#
# Elastic Compliance Matrix: (Units=1/GPa)
#
#
# Indices 1 2 3 4 5 6 
#
# 1 0.012184 -0.004253 -0.009323 0.000000 0.010566 0.000000
# 2 -0.004253 0.013752 -0.001012 0.000000 -0.003832 0.000000
# 3 -0.009323 -0.001012 0.023443 0.000000 -0.015256 0.000000
# 4 0.000000 0.000000 0.000000 0.036169 0.000000 -0.005095
# 5 0.010566 -0.003832 -0.015256 0.000000 0.049598 0.000000
# 6 0.000000 0.000000 0.000000 -0.005095 0.000000 0.046930
#
#
# Mechanical properties :
#
#
# Convention : Reuss Voigt Hill
#
# Bulk Modulus (GPa) = 49.49630 63.18708 56.34169
# Shear Modulus (GPa) = 22.93711 27.85500 25.39606
#
# Velocity S-wave (km/s) = 3.50611 3.86373 3.68926
# Velocity P-wave (km/s) = 6.55112 7.33271 6.95291
#
# Compressibility (1/GPa) = 0.02020353
#
# Stress axis : x y z
#
# Youngs Moduli (GPa) = 82.07285 72.71738 42.65627
#
# Poissons Ratio (x) = 0.30930 0.39768
# Poissons Ratio (y) = 0.34910 0.04315
# Poissons Ratio (z) = 0.76516 0.07355
#
# Static dielectric constant tensor:
#      x y z
#    x 3.171990 0.000000 0.043270 
#    y 0.000000 3.677810 0.000000 
#    z 0.043270 0.000000 3.314470 
# 
# 
# High freq. dielectric constant tensor:
#      x y z
#    x 1.707850 0.000000 0.003950 
#    y 0.000000 1.734950 0.000000 
#    z 0.003950 0.000000 1.710150 
# 
# From -- ./inp_files/203695.got.cif
#   From: 2010.06.25/outbox.cif.g09.slc.cpg/sg15_102_cif.got.tgz:203695.got - 2010.06.28 07:06:18.
