data_PCOD8132255
_publ_section_title
;
Structure prediction by ZEFSAII (Michael W. Deem and Ramdas Pophale) SiO2 
 PCOD8132255
Probable space group: C 2/C
;
_chemical_formula_sum "Si O2"
_cell_formula_units_Z 48
_cell_length_a 28.930772
_cell_length_b 9.807285
_cell_length_c 17.320385
_cell_angle_alpha 90.000000
_cell_angle_beta 29.662956
_cell_angle_gamma 90.000000
_cell_volume 2432.098424
_symmetry_space_group_name_H-M "C 2/C"
_symmetry_group_IT_number 15
_symmetry_cell_setting 'monoclinic'
loop_
_space_group_symop_operation_xyz
x,y,z
-x,y,1/2-z
-x,-y,-z
x,-y,1/2+z
1/2+x,1/2+y,z
1/2-x,1/2+y,1/2-z
1/2-x,1/2-y,-z
1/2+x,1/2-y,1/2+z
loop_
_atom_site_type_symbol
_atom_site_label
_atom_site_fract_x
_atom_site_fract_y
_atom_site_fract_z
Si Si1 0.093303 0.643602 0.075956
Si Si2 0.895452 0.259084 0.114518
Si Si3 0.769075 0.010769 0.275319
Si Si4 0.327722 0.348071 0.419799
Si Si5 0.905221 0.811616 0.151312
Si Si6 0.306853 0.022216 0.284774
O O1 0.116086 0.776961 0.092730
O O2 0.000000 0.577521 0.250000
O O3 0.077327 0.691688 0.011277
O O4 0.177755 0.533185 0.957765
O O5 0.806852 0.158233 0.245702
O O6 0.870752 0.389565 0.202877
O O7 0.984206 0.186759 0.025629
O O8 0.743424 0.016534 0.223976
O O9 0.850155 0.897326 0.166965
O O10 0.250000 0.250000 0.500000
O O11 0.392995 0.385486 0.252755
O O12 0.274790 0.479524 0.532005
O O13 0.870094 0.656237 0.201505
#
# Coordination Sequence:
#
# PCOD8132255 Si02
#       6
#     8   8   8   8   8   8
#     4  11  20  36  62  88 114 159 202 239 280 355
#     4  11  22  35  60  92 122 152 193 247 302 344
#     4  11  21  37  57  91 122 153 191 250 303 337
#     4  10  18  36  61  85 112 149 206 238 275 340
#     4  11  21  37  63  86 115 159 205 240 281 363
#     4  10  20  37  59  86 121 156 196 242 296 347
#
# _framework density 19.736044
#
# number of rings (size 3 to 8) (size 9 to 14) (size 15 to 20)
#    0.000    1.333    6.667    2.000    0.000    0.000 
#    0.000    0.833    0.000    9.000    0.000    0.000 
#    0.000    0.000    0.000    0.000    0.000    0.000 
#
# Total GULP energy -297498.297531 kJ/mol
# GULP energy per Si atom -12395.762397 kJ/mol
# Density = 1.969112 g / cm^3
# Si number density = 19.736044 Si / 1000 Ang^3
#
#
#
# Elastic Constant Matrix: (Units=GPa)
#
#
# Indices 1 2 3 4 5 6 
#
# 1 63.7050 7.4643 40.7300 0.0002 -9.3528 0.0000
# 2 7.4643 59.6568 49.4857 -0.0001 -3.4354 0.0001
# 3 40.7300 49.4857 127.7912 0.0000 -12.8549 0.0000
# 4 0.0002 -0.0001 0.0000 16.1613 -0.0001 -10.3069
# 5 -9.3528 -3.4354 -12.8549 -0.0001 23.1220 0.0000
# 6 0.0000 0.0001 0.0000 -10.3069 0.0000 28.7545
#
#
#
# Elastic Compliance Matrix: (Units=1/GPa)
#
#
# Indices 1 2 3 4 5 6 
#
# 1 0.020878 0.004103 -0.007766 0.000000 0.004737 0.000000
# 2 0.004103 0.025568 -0.011291 0.000000 -0.000819 0.000000
# 3 -0.007766 -0.011291 0.015029 0.000000 0.003536 0.000000
# 4 0.000000 0.000000 0.000000 0.080212 0.000000 0.028752
# 5 0.004737 -0.000819 0.003536 0.000000 0.047009 0.000000
# 6 0.000000 0.000000 0.000000 0.028752 0.000000 0.045083
#
#
# Mechanical properties :
#
#
# Convention : Reuss Voigt Hill
#
# Bulk Modulus (GPa) = 31.68062 49.61257 40.64659
# Shear Modulus (GPa) = 18.23423 23.83910 21.03666
#
# Velocity S-wave (km/s) = 3.04288 3.47925 3.26836
# Velocity P-wave (km/s) = 5.33221 6.42906 5.90616
#
# Compressibility (1/GPa) = 0.03156504
#
# Stress axis : x y z
#
# Youngs Moduli (GPa) = 47.89828 39.11145 66.53958
#
# Poissons Ratio (x) = -0.16047 0.51678
# Poissons Ratio (y) = -0.19652 0.75130
# Poissons Ratio (z) = 0.37200 0.44161
#
# Static dielectric constant tensor:
#      x y z
#    x -1.573750 0.000020 -3.521420 
#    y 0.000020 3.647130 0.000010 
#    z -3.521420 0.000010 1.672210 
# 
# 
# High freq. dielectric constant tensor:
#      x y z
#    x 1.774650 0.000000 -0.013910 
#    y 0.000000 1.743820 0.000000 
#    z -0.013910 0.000000 1.767940 
# 
# From -- ./inp_files/209317.got.cif
#   From: 2010.06.25/outbox.cif.g09.slc.cpg/sg15_105_cif.got.tgz:209317.got - 2010.06.28 07:06:18.
