data_PCOD8132233
_publ_section_title
;
Structure prediction by ZEFSAII (Michael W. Deem and Ramdas Pophale) SiO2 
 PCOD8132233
Probable space group: C 2/C
;
_chemical_formula_sum "Si O2"
_cell_formula_units_Z 60
_cell_length_a 17.268367
_cell_length_b 27.853512
_cell_length_c 8.639610
_cell_angle_alpha 90.000000
_cell_angle_beta 133.667388
_cell_angle_gamma 90.000000
_cell_volume 3005.938027
_symmetry_space_group_name_H-M "C 2/C"
_symmetry_group_IT_number 15
_symmetry_cell_setting 'monoclinic'
loop_
_space_group_symop_operation_xyz
x,y,z
-x,y,1/2-z
-x,-y,-z
x,-y,1/2+z
1/2+x,1/2+y,z
1/2-x,1/2+y,1/2-z
1/2-x,1/2-y,-z
1/2+x,1/2-y,1/2+z
loop_
_atom_site_type_symbol
_atom_site_label
_atom_site_fract_x
_atom_site_fract_y
_atom_site_fract_z
Si Si1 0.000000 0.160398 0.250000
Si Si2 0.876346 0.876661 0.051668
Si Si3 0.164619 0.796494 0.747354
Si Si4 0.338617 0.188357 0.726050
Si Si5 0.000119 0.607323 0.925065
Si Si6 0.313418 0.043116 0.709072
Si Si7 0.208799 0.559989 0.186175
Si Si8 0.317293 0.618966 0.814417
O O1 0.079979 0.193884 0.265817
O O2 0.062921 0.127039 0.457580
O O3 0.814131 0.875676 0.126876
O O4 0.000000 0.887574 0.250000
O O5 0.858674 0.826468 0.938766
O O6 0.827412 0.920188 0.883639
O O7 0.149990 0.740785 0.683345
O O8 0.283664 0.808235 0.979019
O O9 0.454646 0.161896 0.876377
O O10 0.263490 0.158483 0.734136
O O11 0.923558 0.569946 0.911305
O O12 0.000000 0.589465 0.750000
O O13 0.125078 0.600004 0.140950
O O14 0.293930 0.051393 0.500534
O O15 0.217617 0.066279 0.676854
O O16 0.318449 0.987625 0.756295
#
# Coordination Sequence:
#
# PCOD8132233 Si02
#       8
#     4   8   8   8   8   8   8   8
#     4  10  18  36  60  86 114 166 196 252 294 362
#     4  12  24  41  59  87 124 167 202 256 310 360
#     4  10  20  37  61  90 125 159 211 247 307 362
#     4   9  20  38  62  93 119 163 207 253 300 370
#     4   9  18  35  62  91 125 159 200 250 304 365
#     4  10  21  39  63  93 121 158 204 251 316 371
#     4  11  22  40  62  90 124 160 206 257 307 373
#     4  10  21  39  61  86 123 157 203 248 310 363
#
# _framework density 19.960491000000001
#
# number of rings (size 3 to 8) (size 9 to 14) (size 15 to 20)
#    0.000    1.867    1.333    4.400    0.933    0.533 
#    3.600    8.000    0.000    0.000    0.000    0.000 
#    0.000    0.000    0.000    0.000    0.000    0.000 
#
# Total GULP energy -371886.112288 kJ/mol
# GULP energy per Si atom -12396.203743 kJ/mol
# Density = 1.991506 g / cm^3
# Si number density = 19.960491 Si / 1000 Ang^3
#
#
#
# Elastic Constant Matrix: (Units=GPa)
#
#
# Indices 1 2 3 4 5 6 
#
# 1 77.0095 47.7925 45.4011 0.0000 -4.3460 0.0000
# 2 47.7925 126.8916 44.7907 0.0000 8.1367 0.0000
# 3 45.4011 44.7907 92.5586 0.0000 -0.5711 0.0000
# 4 0.0000 0.0000 0.0000 30.3995 0.0000 -4.7003
# 5 -4.3460 8.1367 -0.5711 0.0000 32.6756 0.0000
# 6 0.0000 0.0000 0.0000 -4.7003 0.0000 26.1065
#
#
#
# Elastic Compliance Matrix: (Units=1/GPa)
#
#
# Indices 1 2 3 4 5 6 
#
# 1 0.021174 -0.005521 -0.007689 0.000000 0.004057 0.000000
# 2 -0.005521 0.011143 -0.002706 0.000000 -0.003556 0.000000
# 3 -0.007689 -0.002706 0.015885 0.000000 -0.000071 0.000000
# 4 0.000000 0.000000 0.000000 0.033837 0.000000 0.006092
# 5 0.004057 -0.003556 -0.000071 0.000000 0.032028 0.000000
# 6 0.000000 0.000000 0.000000 0.006092 0.000000 0.039401
#
#
# Mechanical properties :
#
#
# Convention : Reuss Voigt Hill
#
# Bulk Modulus (GPa) = 61.09101 63.60314 62.34708
# Shear Modulus (GPa) = 26.21117 28.40136 27.30626
#
# Velocity S-wave (km/s) = 3.62768 3.77620 3.70268
# Velocity P-wave (km/s) = 6.94400 7.13769 7.04151
#
# Compressibility (1/GPa) = 0.01636902
#
# Stress axis : x y z
#
# Youngs Moduli (GPa) = 47.22802 89.73853 62.95264
#
# Poissons Ratio (x) = 0.49543 0.48407
# Poissons Ratio (y) = 0.26074 0.17038
# Poissons Ratio (z) = 0.36315 0.24287
#
# Static dielectric constant tensor:
#      x y z
#    x 3.759720 0.000000 0.228560 
#    y 0.000000 3.587690 0.000000 
#    z 0.228560 0.000000 3.717010 
# 
# 
# High freq. dielectric constant tensor:
#      x y z
#    x 1.784770 0.000000 0.007220 
#    y 0.000000 1.773650 0.000000 
#    z 0.007220 0.000000 1.768710 
# 
# From -- ./inp_files/52191.got.cif
#   From: 2010.06.25/outbox.cif.g09.slc.cpg/sg15_27_cif.got.tgz:52191.got - 2010.06.28 07:06:18.
