data_PCOD8132042
_publ_section_title
;
Structure prediction by ZEFSAII (Michael W. Deem and Ramdas Pophale) SiO2 
 PCOD8132042
Probable space group: C 2/C
;
_chemical_formula_sum "Si O2"
_cell_formula_units_Z 64
_cell_length_a 8.933384
_cell_length_b 21.567168
_cell_length_c 16.570707
_cell_angle_alpha 90.000000
_cell_angle_beta 90.735455
_cell_angle_gamma 90.000000
_cell_volume 3192.378540
_symmetry_space_group_name_H-M "C 2/C"
_symmetry_group_IT_number 15
_symmetry_cell_setting 'monoclinic'
loop_
_space_group_symop_operation_xyz
x,y,z
-x,y,1/2-z
-x,-y,-z
x,-y,1/2+z
1/2+x,1/2+y,z
1/2-x,1/2+y,1/2-z
1/2-x,1/2-y,-z
1/2+x,1/2-y,1/2+z
loop_
_atom_site_type_symbol
_atom_site_label
_atom_site_fract_x
_atom_site_fract_y
_atom_site_fract_z
Si Si1 0.852614 0.085338 0.915174
Si Si2 0.316990 0.588268 0.608476
Si Si3 0.824232 0.207963 0.256660
Si Si4 0.147266 0.592462 0.206962
Si Si5 0.296852 0.271287 0.089132
Si Si6 0.857458 0.529181 0.456450
Si Si7 0.660072 0.485752 0.238564
Si Si8 0.904527 0.205957 0.828792
O O1 0.818614 0.029898 0.854055
O O2 0.816405 0.149498 0.869620
O O3 0.027627 0.086967 0.940695
O O4 0.747537 0.072372 0.989728
O O5 0.244070 0.656708 0.600170
O O6 0.220992 0.532864 0.573509
O O7 0.344908 0.575375 0.703798
O O8 0.783496 0.138276 0.229459
O O9 0.784227 0.225615 0.348221
O O10 0.727550 0.247402 0.192743
O O11 0.000000 0.219393 0.250000
O O12 0.106306 0.579059 0.113455
O O13 0.196256 0.526476 0.241471
O O14 0.000000 0.618488 0.250000
O O15 0.476148 0.265567 0.105892
O O16 0.250000 0.250000 0.000000
O O17 0.000000 0.500000 0.500000
O O18 0.500000 0.520651 0.250000
O O19 0.000000 0.186447 0.750000
#
# Coordination Sequence:
#
# PCOD8132042 Si02
#       8
#     8   8   8   8   8   8   8   8
#     4  10  18  35  61  85 111 146 188 236 288 347
#     4   9  20  37  57  83 117 152 189 228 286 360
#     4  11  24  41  61  87 118 158 206 251 302 371
#     4  11  23  40  57  78 115 158 196 242 301 362
#     4  10  21  38  63  90 118 158 201 247 299 357
#     4  11  24  37  55  89 122 151 194 250 303 349
#     4   9  17  33  58  82 107 146 188 228 281 349
#     4   9  19  39  62  86 118 157 197 240 298 367
#
# _framework density 20.047747999999999
#
# number of rings (size 3 to 8) (size 9 to 14) (size 15 to 20)
#    0.000    2.000    0.000    5.250    0.000    6.000 
#    0.000    4.375    0.000    0.000    0.000    0.000 
#    0.000    0.000    0.000    0.000    0.000    0.000 
#
# Total GULP energy -396516.618986 kJ/mol
# GULP energy per Si atom -12391.144343 kJ/mol
# Density = 2.000212 g / cm^3
# Si number density = 20.047748 Si / 1000 Ang^3
#
#
#
# Elastic Constant Matrix: (Units=GPa)
#
#
# Indices 1 2 3 4 5 6 
#
# 1 103.6112 34.7834 51.3571 0.0000 5.7571 0.0000
# 2 34.7834 93.7268 44.5420 0.0000 1.1644 0.0000
# 3 51.3571 44.5420 122.2053 0.0000 8.0919 0.0000
# 4 0.0000 0.0000 0.0000 28.6565 0.0000 4.0917
# 5 5.7571 1.1644 8.0919 0.0000 29.8918 0.0000
# 6 0.0000 0.0000 0.0000 4.0917 0.0000 26.3217
#
#
#
# Elastic Compliance Matrix: (Units=1/GPa)
#
#
# Indices 1 2 3 4 5 6 
#
# 1 0.012748 -0.002670 -0.004306 0.000000 -0.001186 0.000000
# 2 -0.002670 0.013482 -0.003860 0.000000 0.001034 0.000000
# 3 -0.004306 -0.003860 0.011541 0.000000 -0.002145 0.000000
# 4 0.000000 0.000000 0.000000 0.035688 0.000000 -0.005548
# 5 -0.001186 0.001034 -0.002145 0.000000 0.034223 0.000000
# 6 0.000000 0.000000 0.000000 -0.005548 0.000000 0.038854
#
#
# Mechanical properties :
#
#
# Convention : Reuss Voigt Hill
#
# Bulk Modulus (GPa) = 62.11476 64.54538 63.33007
# Shear Modulus (GPa) = 28.80610 29.56473 29.18541
#
# Velocity S-wave (km/s) = 3.79473 3.84437 3.81963
# Velocity P-wave (km/s) = 7.08876 7.20911 7.14919
#
# Compressibility (1/GPa) = 0.01609923
#
# Stress axis : x y z
#
# Youngs Moduli (GPa) = 78.44441 74.17351 86.64413
#
# Poissons Ratio (x) = 0.19804 0.37306
# Poissons Ratio (y) = 0.20945 0.33448
# Poissons Ratio (z) = 0.33775 0.28634
#
# Static dielectric constant tensor:
#      x y z
#    x 3.608260 0.000000 0.151500 
#    y 0.000000 3.611160 0.000000 
#    z 0.151500 0.000000 3.971160 
# 
# 
# High freq. dielectric constant tensor:
#      x y z
#    x 1.776790 0.000000 0.014820 
#    y 0.000000 1.785380 0.000000 
#    z 0.014820 0.000000 1.780100 
# 
# From -- ./inp_files/137839.got.cif
#   From: 2010.06.25/outbox.cif.g09.slc.cpg/sg15_69_cif.got.tgz:137839.got - 2010.06.28 07:06:18.
