data_PCOD8132451
_publ_section_title
;
Structure prediction by ZEFSAII (Michael W. Deem and Ramdas Pophale) SiO2 
 PCOD8132451
Probable space group: C 2/C
;
_chemical_formula_sum "Si O2"
_cell_formula_units_Z 48
_cell_length_a 15.807667
_cell_length_b 9.475356
_cell_length_c 28.917255
_cell_angle_alpha 90.000000
_cell_angle_beta 32.357713
_cell_angle_gamma 90.000000
_cell_volume 2318.138181
_symmetry_space_group_name_H-M "C 2/C"
_symmetry_group_IT_number 15
_symmetry_cell_setting 'monoclinic'
loop_
_space_group_symop_operation_xyz
x,y,z
-x,y,1/2-z
-x,-y,-z
x,-y,1/2+z
1/2+x,1/2+y,z
1/2-x,1/2+y,1/2-z
1/2-x,1/2-y,-z
1/2+x,1/2-y,1/2+z
loop_
_atom_site_type_symbol
_atom_site_label
_atom_site_fract_x
_atom_site_fract_y
_atom_site_fract_z
Si Si1 0.641274 0.525989 0.996976
Si Si2 0.676766 0.852568 0.171527
Si Si3 0.993940 0.735946 0.036255
Si Si4 0.577035 0.218542 0.895878
Si Si5 0.101867 0.640089 0.247961
Si Si6 0.428775 0.956211 0.917054
O O1 0.558624 0.396093 0.008666
O O2 0.511433 0.635645 0.074969
O O3 0.767450 0.599636 0.904877
O O4 0.743114 0.483154 0.994573
O O5 0.500000 0.786432 0.250000
O O6 0.803046 0.738332 0.132068
O O7 0.677287 0.986717 0.205005
O O8 0.074252 0.642241 0.037254
O O9 0.035330 0.670593 0.967276
O O10 0.764522 0.242725 0.804774
O O11 0.526051 0.098896 0.882911
O O12 0.000000 0.685021 0.250000
O O13 0.995899 0.630695 0.342634
#
# Coordination Sequence:
#
# PCOD8132451 Si02
#       6
#     8   8   8   8   8   8
#     4  11  20  39  64  85 112 167 199 232 281 370
#     4  10  18  37  64  82 110 155 208 231 276 349
#     4  11  22  40  62  90 119 159 195 242 300 354
#     4  11  23  41  61  88 123 156 197 245 296 352
#     4  11  21  40  62  84 116 160 205 235 287 357
#     4  12  25  36  61  94 124 148 192 260 302 336
#
# _framework density 20.706271999999998
#
# number of rings (size 3 to 8) (size 9 to 14) (size 15 to 20)
#    0.000    1.000    6.667    2.500    2.333    0.000 
#    0.000    0.833    0.000    0.000    0.000    0.000 
#    0.000    0.000    0.000    0.000    0.000    0.000 
#
# Total GULP energy -297619.028874 kJ/mol
# GULP energy per Si atom -12400.792870 kJ/mol
# Density = 2.065914 g / cm^3
# Si number density = 20.706272 Si / 1000 Ang^3
#
#
#
# Elastic Constant Matrix: (Units=GPa)
#
#
# Indices 1 2 3 4 5 6 
#
# 1 112.7646 17.5441 44.1289 0.0001 -9.1050 0.0002
# 2 17.5441 38.3790 16.7350 0.0002 0.2897 0.0005
# 3 44.1289 16.7350 78.3523 0.0001 -20.6453 0.0000
# 4 0.0001 0.0002 0.0001 8.4897 0.0000 -2.3167
# 5 -9.1050 0.2897 -20.6453 0.0000 24.8305 0.0001
# 6 0.0002 0.0005 0.0000 -2.3167 0.0001 38.5557
#
#
#
# Elastic Compliance Matrix: (Units=1/GPa)
#
#
# Indices 1 2 3 4 5 6 
#
# 1 0.011640 -0.002596 -0.006235 0.000000 -0.000885 0.000000
# 2 -0.002596 0.030283 -0.006851 -0.000001 -0.007001 0.000000
# 3 -0.006235 -0.006851 0.021969 0.000000 0.016060 0.000000
# 4 0.000000 -0.000001 0.000000 0.119754 0.000000 0.007196
# 5 -0.000885 -0.007001 0.016060 0.000000 0.053383 0.000000
# 6 0.000000 0.000000 0.000000 0.007196 0.000000 0.026369
#
#
# Mechanical properties :
#
#
# Convention : Reuss Voigt Hill
#
# Bulk Modulus (GPa) = 30.74126 42.92354 36.83240
# Shear Modulus (GPa) = 16.36104 24.44771 20.40438
#
# Velocity S-wave (km/s) = 2.81401 3.43985 3.14255
# Velocity P-wave (km/s) = 5.04349 6.04578 5.56724
#
# Compressibility (1/GPa) = 0.03252958
#
# Stress axis : x y z
#
# Youngs Moduli (GPa) = 85.90841 33.02226 45.51793
#
# Poissons Ratio (x) = 0.08572 0.28380
# Poissons Ratio (y) = 0.22300 0.31183
# Poissons Ratio (z) = 0.53562 0.22623
#
# Static dielectric constant tensor:
#      x y z
#    x 3.969190 0.000000 -0.253930 
#    y 0.000000 3.484100 0.000000 
#    z -0.253930 0.000000 3.791970 
# 
# 
# High freq. dielectric constant tensor:
#      x y z
#    x 1.826890 0.000000 -0.013260 
#    y 0.000000 1.780040 0.000000 
#    z -0.013260 0.000000 1.805540 
# 
# From -- ./inp_files/209275.got.cif
#   From: 2010.06.25/outbox.cif.g09.slc.cpg/sg15_105_cif.got.tgz:209275.got - 2010.06.28 07:06:18.
