data_PCOD8132223
_publ_section_title
;
Structure prediction by ZEFSAII (Michael W. Deem and Ramdas Pophale) SiO2 
 PCOD8132223
Probable space group: C 2/C
;
_chemical_formula_sum "Si O2"
_cell_formula_units_Z 64
_cell_length_a 19.452454
_cell_length_b 9.642921
_cell_length_c 20.714805
_cell_angle_alpha 90.000000
_cell_angle_beta 60.804795
_cell_angle_gamma 90.000000
_cell_volume 3392.029679
_symmetry_space_group_name_H-M "C 2/C"
_symmetry_group_IT_number 15
_symmetry_cell_setting 'monoclinic'
loop_
_space_group_symop_operation_xyz
x,y,z
-x,y,1/2-z
-x,-y,-z
x,-y,1/2+z
1/2+x,1/2+y,z
1/2-x,1/2+y,1/2-z
1/2-x,1/2-y,-z
1/2+x,1/2-y,1/2+z
loop_
_atom_site_type_symbol
_atom_site_label
_atom_site_fract_x
_atom_site_fract_y
_atom_site_fract_z
Si Si1 0.188288 0.086496 0.158479
Si Si2 0.705401 0.975475 0.639391
Si Si3 0.924550 0.345846 0.536885
Si Si4 0.078838 0.680011 0.749627
Si Si5 0.759597 0.193857 0.818791
Si Si6 0.919823 0.635001 0.601678
Si Si7 0.284555 0.897209 0.503026
Si Si8 0.303314 0.689179 0.654672
O O1 0.192705 0.950945 0.200657
O O2 0.107717 0.169619 0.208931
O O3 0.211359 0.031503 0.076084
O O4 0.258410 0.197606 0.132147
O O5 0.636233 0.053688 0.708378
O O6 0.701163 0.005779 0.565579
O O7 0.784050 0.034001 0.639083
O O8 0.701489 0.810730 0.653501
O O9 0.929900 0.471331 0.585805
O O10 0.868792 0.386448 0.501433
O O11 0.894215 0.217741 0.595471
O O12 0.010547 0.296318 0.472826
O O13 0.066349 0.684052 0.831640
O O14 0.000000 0.642290 0.750000
O O15 0.667812 0.180313 0.880078
O O16 0.772154 0.233027 0.738939
O O17 0.250000 0.750000 0.500000
#
# Coordination Sequence:
#
# PCOD8132223 Si02
#       8
#     8   8   8   8   8   8   8   8
#     4  10  21  36  60  86 115 154 196 245 290 348
#     4  11  22  33  62  90 115 159 200 246 292 359
#     4  10  21  37  59  89 121 159 193 254 303 338
#     4  11  22  38  62  90 112 158 207 246 291 358
#     4  12  21  38  60  92 120 153 200 243 306 358
#     4  11  21  35  60  89 124 150 197 251 303 352
#     4  11  18  37  60  83 116 153 204 243 287 353
#     4  10  18  36  60  82 116 154 201 237 282 354
#
# _framework density 18.867760000000001
#
# number of rings (size 3 to 8) (size 9 to 14) (size 15 to 20)
#    0.000    1.250    8.750    2.250    0.000    0.500 
#    0.000    1.250    2.750    0.000    0.000    0.000 
#    0.000    0.000    0.000    0.000    0.000    0.000 
#
# Total GULP energy -396440.381828 kJ/mol
# GULP energy per Si atom -12388.761932 kJ/mol
# Density = 1.882482 g / cm^3
# Si number density = 18.867760 Si / 1000 Ang^3
#
#
#
# Elastic Constant Matrix: (Units=GPa)
#
#
# Indices 1 2 3 4 5 6 
#
# 1 53.7448 23.1371 23.1082 0.0000 -14.6873 0.0000
# 2 23.1371 67.4381 16.9227 0.0000 -6.4104 0.0000
# 3 23.1082 16.9227 115.7510 0.0000 -18.8134 0.0000
# 4 0.0000 0.0000 0.0000 16.5702 0.0000 5.2661
# 5 -14.6873 -6.4104 -18.8134 0.0000 32.8292 0.0000
# 6 0.0000 0.0000 0.0000 5.2661 0.0000 14.5039
#
#
#
# Elastic Compliance Matrix: (Units=1/GPa)
#
#
# Indices 1 2 3 4 5 6 
#
# 1 0.025087 -0.007161 -0.002607 0.000000 0.008331 0.000000
# 2 -0.007161 0.017544 -0.001212 0.000000 -0.000473 0.000000
# 3 -0.002607 -0.001212 0.010044 0.000000 0.004353 0.000000
# 4 0.000000 0.000000 0.000000 0.068221 0.000000 -0.024770
# 5 0.008331 -0.000473 0.004353 0.000000 0.036590 0.000000
# 6 0.000000 0.000000 0.000000 -0.024770 0.000000 0.077940
#
#
# Mechanical properties :
#
#
# Convention : Reuss Voigt Hill
#
# Bulk Modulus (GPa) = 32.55714 40.36332 36.46023
# Shear Modulus (GPa) = 18.68276 24.36507 21.52391
#
# Velocity S-wave (km/s) = 3.15015 3.59745 3.38120
# Velocity P-wave (km/s) = 5.52487 6.22051 5.88298
#
# Compressibility (1/GPa) = 0.03071523
#
# Stress axis : x y z
#
# Youngs Moduli (GPa) = 39.86138 56.99802 99.55713
#
# Poissons Ratio (x) = 0.40815 0.25958
# Poissons Ratio (y) = 0.28544 0.12068
# Poissons Ratio (z) = 0.10393 0.06909
#
# Static dielectric constant tensor:
#      x y z
#    x 3.507490 0.000000 0.088730 
#    y 0.000000 3.333850 0.000000 
#    z 0.088730 0.000000 4.047220 
# 
# 
# High freq. dielectric constant tensor:
#      x y z
#    x 1.705600 0.000000 -0.001210 
#    y 0.000000 1.711920 0.000000 
#    z -0.001210 0.000000 1.758580 
# 
# From -- ./inp_files/251865.got.cif
#   From: 2010.06.25/outbox.cif.g09.slc.cpg/sg15_126_cif.got.tgz:251865.got - 2010.06.28 07:06:18.
