data_PCOD8132993
_publ_section_title
;
Structure prediction by ZEFSAII (Michael W. Deem and Ramdas Pophale) SiO2 
 PCOD8132993
Probable space group: C 2/C
;
_chemical_formula_sum "Si O2"
_cell_formula_units_Z 52
_cell_length_a 8.899846
_cell_length_b 15.473412
_cell_length_c 26.968996
_cell_angle_alpha 90.000000
_cell_angle_beta 55.803529
_cell_angle_gamma 90.000000
_cell_volume 3071.845425
_symmetry_space_group_name_H-M "C 2/C"
_symmetry_group_IT_number 15
_symmetry_cell_setting 'monoclinic'
loop_
_space_group_symop_operation_xyz
x,y,z
-x,y,1/2-z
-x,-y,-z
x,-y,1/2+z
1/2+x,1/2+y,z
1/2-x,1/2+y,1/2-z
1/2-x,1/2-y,-z
1/2+x,1/2-y,1/2+z
loop_
_atom_site_type_symbol
_atom_site_label
_atom_site_fract_x
_atom_site_fract_y
_atom_site_fract_z
Si Si1 0.439652 0.103686 0.061957
Si Si2 0.253765 0.073506 0.568243
Si Si3 0.848189 0.200223 0.438838
Si Si4 0.500000 0.191722 0.250000
Si Si5 0.888585 0.385158 0.866137
Si Si6 0.717747 0.224464 0.863738
Si Si7 0.971304 0.023756 0.062182
O O1 0.295669 0.180225 0.078168
O O2 0.481987 0.101208 0.111827
O O3 0.354618 0.012191 0.065676
O O4 0.621614 0.120859 0.996100
O O5 0.234221 0.132342 0.621021
O O6 0.055815 0.051941 0.581408
O O7 0.750000 0.250000 0.500000
O O8 0.920459 0.110786 0.447038
O O9 0.006141 0.263305 0.389046
O O10 0.480316 0.127132 0.206386
O O11 0.670708 0.256138 0.207955
O O12 0.772010 0.296961 0.894731
O O13 0.743981 0.464130 0.886457
O O14 0.000000 0.000000 0.000000
#
# Coordination Sequence:
#
# PCOD8132993 Si02
#       7
#     8   8   8   4   8   8   8
#     4  10  19  31  51  87 112 135 172 222 287 332
#     4  10  19  31  51  85 116 130 169 227 286 328
#     4  10  19  31  51  82 111 140 167 219 280 325
#     4   8  20  40  56  68 102 146 200 212 258 314
#     4   9  19  36  56  72 104 150 181 225 257 334
#     4   9  19  36  56  70 105 148 183 223 260 324
#     4  10  19  31  51  81 111 136 170 217 279 330
#
# _framework density 16.927935000000002
#
# number of rings (size 3 to 8) (size 9 to 14) (size 15 to 20)
#    0.923    1.538    3.077    0.000    0.000    1.846 
#    0.000    2.308    0.000    0.000    0.000    0.000 
#    0.000    0.000    0.000    0.000    0.000    0.000 
#
# Total GULP energy -322100.414361 kJ/mol
# GULP energy per Si atom -12388.477475 kJ/mol
# Density = 1.688941 g / cm^3
# Si number density = 16.927935 Si / 1000 Ang^3
#
#
#
# Elastic Constant Matrix: (Units=GPa)
#
#
# Indices 1 2 3 4 5 6 
#
# 1 124.8212 36.8113 59.4965 -0.0001 4.6602 0.0001
# 2 36.8113 47.7557 29.1308 -0.0001 -2.5774 0.0001
# 3 59.4965 29.1308 124.9691 -0.0002 -7.4979 0.0001
# 4 -0.0001 -0.0001 -0.0002 31.4055 0.0001 2.3506
# 5 4.6602 -2.5774 -7.4979 0.0001 27.1937 -0.0001
# 6 0.0001 0.0001 0.0001 2.3506 -0.0001 24.5899
#
#
#
# Elastic Compliance Matrix: (Units=1/GPa)
#
#
# Indices 1 2 3 4 5 6 
#
# 1 0.012373 -0.007011 -0.004498 0.000000 -0.004025 0.000000
# 2 -0.007011 0.028399 -0.003100 0.000000 0.003039 0.000000
# 3 -0.004498 -0.003100 0.011078 0.000000 0.003531 0.000000
# 4 0.000000 0.000000 0.000000 0.032071 0.000000 -0.003066
# 5 -0.004025 0.003039 0.003531 0.000000 0.038725 0.000000
# 6 0.000000 0.000000 0.000000 -0.003066 0.000000 0.040960
#
#
# Mechanical properties :
#
#
# Convention : Reuss Voigt Hill
#
# Bulk Modulus (GPa) = 44.18409 60.93591 52.56000
# Shear Modulus (GPa) = 24.95404 28.11165 26.53284
#
# Velocity S-wave (km/s) = 3.84361 4.07955 3.96334
# Velocity P-wave (km/s) = 6.77169 7.63320 7.21531
#
# Compressibility (1/GPa) = 0.02263258
#
# Stress axis : x y z
#
# Youngs Moduli (GPa) = 80.81831 35.21238 90.27020
#
# Poissons Ratio (x) = 0.24688 0.40604
# Poissons Ratio (y) = 0.56664 0.27981
# Poissons Ratio (z) = 0.36352 0.10915
#
# Static dielectric constant tensor:
#      x y z
#    x 3.408760 0.000000 -0.130140 
#    y 0.000000 3.271160 0.000000 
#    z -0.130140 0.000000 2.947590 
# 
# 
# High freq. dielectric constant tensor:
#      x y z
#    x 1.655770 0.000000 -0.002720 
#    y 0.000000 1.643150 0.000000 
#    z -0.002720 0.000000 1.625250 
# 
# From -- ./inp_files/264972.got.cif
#   From: 2010.06.25/outbox.cif.g09.slc.cpg/sg15_133_cif.got.tgz:264972.got - 2010.06.28 07:06:18.
