data_PCOD8132035
_publ_section_title
;
Structure prediction by ZEFSAII (Michael W. Deem and Ramdas Pophale) SiO2 
 PCOD8132035
Probable space group: C 2/C
;
_chemical_formula_sum "Si O2"
_cell_formula_units_Z 40
_cell_length_a 18.568880
_cell_length_b 19.827046
_cell_length_c 9.951588
_cell_angle_alpha 90.000000
_cell_angle_beta 36.377975
_cell_angle_gamma 90.000000
_cell_volume 2173.056128
_symmetry_space_group_name_H-M "C 2/C"
_symmetry_group_IT_number 15
_symmetry_cell_setting 'monoclinic'
loop_
_space_group_symop_operation_xyz
x,y,z
-x,y,1/2-z
-x,-y,-z
x,-y,1/2+z
1/2+x,1/2+y,z
1/2-x,1/2+y,1/2-z
1/2-x,1/2-y,-z
1/2+x,1/2-y,1/2+z
loop_
_atom_site_type_symbol
_atom_site_label
_atom_site_fract_x
_atom_site_fract_y
_atom_site_fract_z
Si Si1 0.802964 0.664177 0.821798
Si Si2 0.656848 0.315142 0.276771
Si Si3 0.013769 0.434328 0.069551
Si Si4 0.118835 0.186378 0.311911
Si Si5 0.274206 0.836024 0.828355
O O1 0.736156 0.659840 0.780827
O O2 0.866909 0.735722 0.751419
O O3 0.907515 0.610494 0.671019
O O4 0.705391 0.644926 0.082281
O O5 0.518307 0.339038 0.500858
O O6 0.651764 0.233974 0.273360
O O7 0.717464 0.351789 0.058402
O O8 0.000000 0.448802 0.250000
O O9 0.141146 0.396808 0.849403
O O10 0.000000 0.500000 0.000000
O O11 0.159858 0.173345 0.402111
#
# Coordination Sequence:
#
# PCOD8132035 Si02
#       5
#     8   8   8   8   8
#     4  10  21  34  61  89 121 155 202 243 303 361
#     4  10  20  33  60  94 125 152 188 252 312 363
#     4  12  26  44  63  84 122 166 209 250 289 361
#     4  10  18  35  60  90 124 157 186 253 310 359
#     4  10  21  36  57  90 125 157 197 245 304 359
#
# _framework density 18.407256
#
# number of rings (size 3 to 8) (size 9 to 14) (size 15 to 20)
#    0.000    1.600    4.000    1.200    2.800    0.000 
#    0.000    0.000    0.000    7.200    0.000    0.000 
#    0.000    0.000    0.000    0.000    0.000    0.000 
#
# Total GULP energy -247993.310688 kJ/mol
# GULP energy per Si atom -12399.665534 kJ/mol
# Density = 1.836536 g / cm^3
# Si number density = 18.407256 Si / 1000 Ang^3
#
#
#
# Elastic Constant Matrix: (Units=GPa)
#
#
# Indices 1 2 3 4 5 6 
#
# 1 79.3653 16.0527 44.5406 0.0000 -0.7375 0.0000
# 2 16.0527 62.6899 16.5895 0.0000 -5.2913 0.0000
# 3 44.5406 16.5895 89.5324 0.0000 -2.5529 0.0000
# 4 0.0000 0.0000 0.0000 22.7531 0.0000 2.2599
# 5 -0.7375 -5.2913 -2.5529 0.0000 40.2656 0.0000
# 6 0.0000 0.0000 0.0000 2.2599 0.0000 21.5606
#
#
#
# Elastic Compliance Matrix: (Units=1/GPa)
#
#
# Indices 1 2 3 4 5 6 
#
# 1 0.017809 -0.002372 -0.008435 0.000000 -0.000520 0.000000
# 2 -0.002372 0.017254 -0.001957 0.000000 0.002100 0.000000
# 3 -0.008435 -0.001957 0.015745 0.000000 0.000587 0.000000
# 4 0.000000 0.000000 0.000000 0.044412 0.000000 -0.004655
# 5 -0.000520 0.002100 0.000587 0.000000 0.025139 0.000000
# 6 0.000000 0.000000 0.000000 -0.004655 0.000000 0.046869
#
#
# Mechanical properties :
#
#
# Convention : Reuss Voigt Hill
#
# Bulk Modulus (GPa) = 39.55768 42.88368 41.22068
# Shear Modulus (GPa) = 24.85320 27.20953 26.03136
#
# Velocity S-wave (km/s) = 3.67847 3.84890 3.76465
# Velocity P-wave (km/s) = 6.29114 6.56504 6.42955
#
# Compressibility (1/GPa) = 0.02527954
#
# Stress axis : x y z
#
# Youngs Moduli (GPa) = 56.15276 57.95740 63.51374
#
# Poissons Ratio (x) = 0.13747 0.53572
# Poissons Ratio (y) = 0.13319 0.12430
# Poissons Ratio (z) = 0.47363 0.11343
#
# Static dielectric constant tensor:
#      x y z
#    x 3.448420 0.000000 0.096000 
#    y 0.000000 3.517490 0.000000 
#    z 0.096000 0.000000 3.544200 
# 
# 
# High freq. dielectric constant tensor:
#      x y z
#    x 1.732050 0.000000 0.004050 
#    y 0.000000 1.665730 0.000000 
#    z 0.004050 0.000000 1.730240 
# 
# From -- ./inp_files/30158.got.cif
#   From: 2010.06.25/outbox.cif.g09.slc.cpg/sg15_16_cif.got.tgz:30158.got - 2010.06.28 07:06:18.
