data_PCOD8132522
_publ_section_title
;
Structure prediction by ZEFSAII (Michael W. Deem and Ramdas Pophale) SiO2 
 PCOD8132522
Probable space group: C 2/C
;
_chemical_formula_sum "Si O2"
_cell_formula_units_Z 56
_cell_length_a 9.221196
_cell_length_b 16.642775
_cell_length_c 20.214223
_cell_angle_alpha 90.000000
_cell_angle_beta 67.759738
_cell_angle_gamma 90.000000
_cell_volume 2871.413032
_symmetry_space_group_name_H-M "C 2/C"
_symmetry_group_IT_number 15
_symmetry_cell_setting 'monoclinic'
loop_
_space_group_symop_operation_xyz
x,y,z
-x,y,1/2-z
-x,-y,-z
x,-y,1/2+z
1/2+x,1/2+y,z
1/2-x,1/2+y,1/2-z
1/2-x,1/2-y,-z
1/2+x,1/2-y,1/2+z
loop_
_atom_site_type_symbol
_atom_site_label
_atom_site_fract_x
_atom_site_fract_y
_atom_site_fract_z
Si Si1 0.310785 0.338224 0.982412
Si Si2 0.681938 0.734388 0.223500
Si Si3 0.866021 0.140433 0.148208
Si Si4 0.417015 0.956447 0.833072
Si Si5 0.209336 0.107573 0.866456
Si Si6 0.018247 0.010632 0.675579
Si Si7 0.189655 0.414697 0.881570
O O1 0.485420 0.335670 0.921745
O O2 0.183433 0.385500 0.959054
O O3 0.250000 0.250000 0.000000
O O4 0.319336 0.377636 0.052103
O O5 0.500000 0.750167 0.250000
O O6 0.707574 0.715046 0.297285
O O7 0.767853 0.813765 0.182492
O O8 0.737497 0.659283 0.171011
O O9 0.728082 0.103357 0.127175
O O10 0.919680 0.072749 0.192024
O O11 0.500000 0.931358 0.750000
O O12 0.527521 0.944355 0.877785
O O13 0.357893 0.047982 0.834684
O O14 0.047326 0.068471 0.869688
O O15 0.000000 0.052213 0.750000
O O16 0.201039 0.993358 0.634505
#
# Coordination Sequence:
#
# PCOD8132522 Si02
#       7
#     8   8   8   8   8   8   8
#     4  11  22  41  62  91 125 169 209 257 312 387
#     4  12  18  38  64  94 110 167 214 251 306 371
#     4  10  20  37  69  87 122 168 216 245 313 384
#     4  11  22  39  62  96 124 158 210 273 307 362
#     4  11  25  37  63  94 128 150 211 271 314 358
#     4  10  18  38  60  90 116 160 202 253 299 367
#     4  11  20  37  69  81 123 167 205 242 317 383
#
# _framework density 19.502593000000001
#
# number of rings (size 3 to 8) (size 9 to 14) (size 15 to 20)
#    0.000    1.143    7.143    1.286    0.000    5.714 
#    2.571    0.714    0.000    0.000    0.000    0.000 
#    0.000    0.000    0.000    0.000    0.000    0.000 
#
# Total GULP energy -347003.056559 kJ/mol
# GULP energy per Si atom -12392.966306 kJ/mol
# Density = 1.945820 g / cm^3
# Si number density = 19.502593 Si / 1000 Ang^3
#
#
#
# Elastic Constant Matrix: (Units=GPa)
#
#
# Indices 1 2 3 4 5 6 
#
# 1 146.1551 51.5098 48.8007 0.0000 18.3276 0.0000
# 2 51.5098 89.2713 47.6297 0.0000 2.3912 0.0000
# 3 48.8007 47.6297 114.8276 0.0000 13.8823 0.0000
# 4 0.0000 0.0000 0.0000 26.5710 0.0000 -0.5797
# 5 18.3276 2.3912 13.8823 0.0000 30.6012 0.0000
# 6 0.0000 0.0000 0.0000 -0.5797 0.0000 31.4901
#
#
#
# Elastic Compliance Matrix: (Units=1/GPa)
#
#
# Indices 1 2 3 4 5 6 
#
# 1 0.009561 -0.004525 -0.001626 0.000000 -0.004635 0.000000
# 2 -0.004525 0.016609 -0.005435 0.000000 0.003878 0.000000
# 3 -0.001626 -0.005435 0.012151 0.000000 -0.004114 0.000000
# 4 0.000000 0.000000 0.000000 0.037650 0.000000 0.000693
# 5 -0.004635 0.003878 -0.004114 0.000000 0.037018 0.000000
# 6 0.000000 0.000000 0.000000 0.000693 0.000000 0.031769
#
#
# Mechanical properties :
#
#
# Convention : Reuss Voigt Hill
#
# Bulk Modulus (GPa) = 66.00993 71.79270 68.90132
# Shear Modulus (GPa) = 28.90524 31.22006 30.06265
#
# Velocity S-wave (km/s) = 3.85401 4.00536 3.93041
# Velocity P-wave (km/s) = 7.32972 7.63429 7.48355
#
# Compressibility (1/GPa) = 0.01514924
#
# Stress axis : x y z
#
# Youngs Moduli (GPa) = 104.59220 60.20987 82.29463
#
# Poissons Ratio (x) = 0.27245 0.13381
# Poissons Ratio (y) = 0.47328 0.44726
# Poissons Ratio (z) = 0.17007 0.32723
#
# Static dielectric constant tensor:
#      x y z
#    x 7.535400 0.000000 -2.177350 
#    y 0.000000 3.495340 0.000000 
#    z -2.177350 0.000000 4.937710 
# 
# 
# High freq. dielectric constant tensor:
#      x y z
#    x 1.757870 0.000000 0.009210 
#    y 0.000000 1.749080 0.000000 
#    z 0.009210 0.000000 1.754440 
# 
# From -- ./inp_files/190908.got.cif
#   From: 2010.06.25/outbox.cif.g09.slc.cpg/sg15_96_cif.got.tgz:190908.got - 2010.06.28 07:06:18.
