data_PCOD8132334
_publ_section_title
;
Structure prediction by ZEFSAII (Michael W. Deem and Ramdas Pophale) SiO2 
 PCOD8132334
Probable space group: C 2/C
;
_chemical_formula_sum "Si O2"
_cell_formula_units_Z 60
_cell_length_a 30.895868
_cell_length_b 12.017935
_cell_length_c 18.849110
_cell_angle_alpha 90.000000
_cell_angle_beta 25.621320
_cell_angle_gamma 90.000000
_cell_volume 3026.412857
_symmetry_space_group_name_H-M "C 2/C"
_symmetry_group_IT_number 15
_symmetry_cell_setting 'monoclinic'
loop_
_space_group_symop_operation_xyz
x,y,z
-x,y,1/2-z
-x,-y,-z
x,-y,1/2+z
1/2+x,1/2+y,z
1/2-x,1/2+y,1/2-z
1/2-x,1/2-y,-z
1/2+x,1/2-y,1/2+z
loop_
_atom_site_type_symbol
_atom_site_label
_atom_site_fract_x
_atom_site_fract_y
_atom_site_fract_z
Si Si1 0.719411 0.431626 0.237833
Si Si2 0.728446 0.006272 0.540487
Si Si3 0.784665 0.113426 0.596205
Si Si4 0.500000 0.528740 0.250000
Si Si5 0.303177 0.344637 0.812852
Si Si6 0.416993 0.641051 0.767999
Si Si7 0.605273 0.129399 0.124798
Si Si8 0.980833 0.870182 0.023349
O O1 0.744939 0.432874 0.283216
O O2 0.701431 0.557437 0.238571
O O3 0.620356 0.353923 0.373053
O O4 0.811529 0.379143 0.059085
O O5 0.812309 0.913868 0.400604
O O6 0.627423 0.949708 0.660082
O O7 0.722219 0.037850 0.632401
O O8 0.752641 0.118795 0.461302
O O9 0.902937 0.104726 0.405555
O O10 0.755551 0.241493 0.632787
O O11 0.512709 0.451780 0.300261
O O12 0.419945 0.313382 0.656822
O O13 0.399883 0.742044 0.846360
O O14 0.468283 0.683021 0.620111
O O15 0.500000 0.087959 0.250000
O O16 0.000000 0.000000 0.000000
#
# Coordination Sequence:
#
# PCOD8132334 Si02
#       8
#     8   8   8   4   8   8   8   8
#     4  10  23  41  59  96 125 161 211 272 312 378
#     4  10  22  41  61  90 127 166 211 262 310 385
#     4  11  24  39  66  93 126 163 220 261 319 378
#     4  10  22  36  60  98 118 156 222 270 290 378
#     4  10  21  41  62  86 127 171 203 262 324 376
#     4  11  19  37  66  92 120 163 211 266 312 373
#     4  11  23  40  63  94 130 168 207 257 337 377
#     4  10  18  36  65  85 123 156 208 256 318 361
#
# _framework density 19.825451000000001
#
# number of rings (size 3 to 8) (size 9 to 14) (size 15 to 20)
#    0.000    1.600    4.667    2.400    3.733    2.133 
#    4.800    0.667    0.000    0.000    0.000    0.000 
#    0.000    0.000    0.000    0.000    0.000    0.000 
#
# Total GULP energy -371998.334549 kJ/mol
# GULP energy per Si atom -12399.944485 kJ/mol
# Density = 1.978033 g / cm^3
# Si number density = 19.825451 Si / 1000 Ang^3
#
#
#
# Elastic Constant Matrix: (Units=GPa)
#
#
# Indices 1 2 3 4 5 6 
#
# 1 139.5571 42.1701 50.9359 0.0000 -1.9205 0.0000
# 2 42.1701 78.1297 45.5347 0.0000 -9.6416 0.0000
# 3 50.9359 45.5347 82.2065 0.0000 -9.6844 0.0000
# 4 0.0000 0.0000 0.0000 14.6216 0.0000 2.2363
# 5 -1.9205 -9.6416 -9.6844 0.0000 41.8171 0.0000
# 6 0.0000 0.0000 0.0000 2.2363 0.0000 33.4763
#
#
#
# Elastic Compliance Matrix: (Units=1/GPa)
#
#
# Indices 1 2 3 4 5 6 
#
# 1 0.009649 -0.002646 -0.004660 0.000000 -0.001246 0.000000
# 2 -0.002646 0.019788 -0.009045 0.000000 0.002346 0.000000
# 3 -0.004660 -0.009045 0.020346 0.000000 0.002412 0.000000
# 4 0.000000 0.000000 0.000000 0.069098 0.000000 -0.004616
# 5 -0.001246 0.002346 0.002412 0.000000 0.024956 0.000000
# 6 0.000000 0.000000 0.000000 -0.004616 0.000000 0.030180
#
#
# Mechanical properties :
#
#
# Convention : Reuss Voigt Hill
#
# Bulk Modulus (GPa) = 58.54182 64.13053 61.33618
# Shear Modulus (GPa) = 23.53914 28.73317 26.13616
#
# Velocity S-wave (km/s) = 3.44949 3.81111 3.63480
# Velocity P-wave (km/s) = 6.74226 7.19610 6.97287
#
# Compressibility (1/GPa) = 0.01708181
#
# Stress axis : x y z
#
# Youngs Moduli (GPa) = 103.64257 50.53451 49.14985
#
# Poissons Ratio (x) = 0.13371 0.22902
# Poissons Ratio (y) = 0.27423 0.44457
# Poissons Ratio (z) = 0.48293 0.45709
#
# Static dielectric constant tensor:
#      x y z
#    x 3.895890 0.000000 -0.142020 
#    y 0.000000 3.309490 0.000000 
#    z -0.142020 0.000000 3.834590 
# 
# 
# High freq. dielectric constant tensor:
#      x y z
#    x 1.788270 0.000000 -0.001690 
#    y 0.000000 1.745900 0.000000 
#    z -0.001690 0.000000 1.765550 
# 
# From -- ./inp_files/224993.got.cif
#   From: 2010.06.25/outbox.cif.g09.slc.cpg/sg15_113_cif.got.tgz:224993.got - 2010.06.28 07:06:18.
