data_PCOD8132007
_publ_section_title
;
Structure prediction by ZEFSAII (Michael W. Deem and Ramdas Pophale) SiO2 
 PCOD8132007
Probable space group: C 2/C
;
_chemical_formula_sum "Si O2"
_cell_formula_units_Z 48
_cell_length_a 14.870987
_cell_length_b 12.188054
_cell_length_c 16.992497
_cell_angle_alpha 90.000000
_cell_angle_beta 39.106259
_cell_angle_gamma 90.000000
_cell_volume 1942.656023
_symmetry_space_group_name_H-M "C 2/C"
_symmetry_group_IT_number 15
_symmetry_cell_setting 'monoclinic'
loop_
_space_group_symop_operation_xyz
x,y,z
-x,y,1/2-z
-x,-y,-z
x,-y,1/2+z
1/2+x,1/2+y,z
1/2-x,1/2+y,1/2-z
1/2-x,1/2-y,-z
1/2+x,1/2-y,1/2+z
loop_
_atom_site_type_symbol
_atom_site_label
_atom_site_fract_x
_atom_site_fract_y
_atom_site_fract_z
Si Si1 0.728146 0.772031 0.635566
Si Si2 0.038183 0.234733 0.986007
Si Si3 0.376915 0.468792 0.146020
Si Si4 0.275541 0.931938 0.009467
Si Si5 0.416892 0.913002 0.654877
Si Si6 0.449114 0.610665 0.366479
O O1 0.870867 0.790014 0.590081
O O2 0.735654 0.854678 0.557947
O O3 0.713014 0.643542 0.623228
O O4 0.593807 0.807684 0.779447
O O5 0.077720 0.204498 0.049448
O O6 0.128954 0.162686 0.859930
O O7 0.074654 0.361943 0.939950
O O8 0.215299 0.507275 0.239914
O O9 0.429536 0.520993 0.192230
O O10 0.500000 0.500000 0.000000
O O11 0.195994 0.045313 0.049629
O O12 0.435393 0.970757 0.923015
O O13 0.500000 0.666337 0.250000
#
# Coordination Sequence:
#
# PCOD8132007 Si02
#       6
#     8   8   8   8   8   8
#     4  10  18  35  58  95 139 168 208 281 349 397
#     4  10  21  39  64  93 135 184 222 266 351 416
#     4  10  19  40  66  93 130 184 225 264 347 412
#     4  10  22  32  58 105 134 160 228 286 334 394
#     4  11  21  37  68  99 136 172 223 285 340 408
#     4  11  22  39  63  90 129 185 232 275 332 411
#
# _framework density 24.708441000000001
#
# number of rings (size 3 to 8) (size 9 to 14) (size 15 to 20)
#    0.000    1.667    5.000    1.500    2.333    0.000 
#    0.000    1.667    0.000    2.000    0.000    1.167 
#    0.000    0.000    0.000    0.000    0.000    0.000 
#
# Total GULP energy -297385.898966 kJ/mol
# GULP energy per Si atom -12391.079124 kJ/mol
# Density = 2.465220 g / cm^3
# Si number density = 24.708441 Si / 1000 Ang^3
#
#
#
# Elastic Constant Matrix: (Units=GPa)
#
#
# Indices 1 2 3 4 5 6 
#
# 1 123.8977 38.9621 53.5575 0.0000 -8.8602 0.0000
# 2 38.9621 43.5007 20.3656 0.0000 -12.4041 0.0000
# 3 53.5575 20.3656 56.3065 0.0000 -14.3836 0.0000
# 4 0.0000 0.0000 0.0000 26.6223 0.0000 -0.7761
# 5 -8.8602 -12.4041 -14.3836 0.0000 46.1260 0.0000
# 6 0.0000 0.0000 0.0000 -0.7761 0.0000 37.0798
#
#
#
# Elastic Compliance Matrix: (Units=1/GPa)
#
#
# Indices 1 2 3 4 5 6 
#
# 1 0.016535 -0.009666 -0.013130 0.000000 -0.003518 0.000000
# 2 -0.009666 0.034293 -0.001443 0.000000 0.006915 0.000000
# 3 -0.013130 -0.001443 0.032627 0.000000 0.007264 0.000000
# 4 0.000000 0.000000 0.000000 0.037585 0.000000 0.000787
# 5 -0.003518 0.006915 0.007264 0.000000 0.025129 0.000000
# 6 0.000000 0.000000 0.000000 0.000787 0.000000 0.026985
#
#
# Mechanical properties :
#
#
# Convention : Reuss Voigt Hill
#
# Bulk Modulus (GPa) = 28.59077 49.94172 39.26625
# Shear Modulus (GPa) = 21.43240 29.35359 25.39300
#
# Velocity S-wave (km/s) = 2.94838 3.45047 3.20926
# Velocity P-wave (km/s) = 4.81529 6.01088 5.44599
#
# Compressibility (1/GPa) = 0.03497632
#
# Stress axis : x y z
#
# Youngs Moduli (GPa) = 60.47742 29.16057 30.64967
#
# Poissons Ratio (x) = 0.28186 0.40244
# Poissons Ratio (y) = 0.58456 0.04423
# Poissons Ratio (z) = 0.79409 0.04208
#
# Static dielectric constant tensor:
#      x y z
#    x 4.520680 0.000000 0.181770 
#    y 0.000000 4.475980 0.000000 
#    z 0.181770 0.000000 4.422820 
# 
# 
# High freq. dielectric constant tensor:
#      x y z
#    x 1.981440 0.000000 0.004530 
#    y 0.000000 1.961100 0.000000 
#    z 0.004530 0.000000 1.986350 
# 
# From -- ./inp_files/205288.got.cif
#   From: 2010.06.25/outbox.cif.g09.slc.cpg/sg15_103_cif.got.tgz:205288.got - 2010.06.28 07:06:18.
