data_PCOD8132440
_publ_section_title
;
Structure prediction by ZEFSAII (Michael W. Deem and Ramdas Pophale) SiO2 
 PCOD8132440
Probable space group: C 2/C
;
_chemical_formula_sum "Si O2"
_cell_formula_units_Z 56
_cell_length_a 17.801330
_cell_length_b 9.455821
_cell_length_c 21.065814
_cell_angle_alpha 90.000000
_cell_angle_beta 52.111219
_cell_angle_gamma 90.000000
_cell_volume 2798.461976
_symmetry_space_group_name_H-M "C 2/C"
_symmetry_group_IT_number 15
_symmetry_cell_setting 'monoclinic'
loop_
_space_group_symop_operation_xyz
x,y,z
-x,y,1/2-z
-x,-y,-z
x,-y,1/2+z
1/2+x,1/2+y,z
1/2-x,1/2+y,1/2-z
1/2-x,1/2-y,-z
1/2+x,1/2-y,1/2+z
loop_
_atom_site_type_symbol
_atom_site_label
_atom_site_fract_x
_atom_site_fract_y
_atom_site_fract_z
Si Si1 0.520696 0.245826 0.164992
Si Si2 0.715915 0.358758 0.581602
Si Si3 0.463504 0.442072 0.889072
Si Si4 0.828648 0.781266 0.201754
Si Si5 0.322429 0.574550 0.255235
Si Si6 0.325954 0.404381 0.061786
Si Si7 0.290025 0.898857 0.957215
O O1 0.500000 0.253222 0.250000
O O2 0.557311 0.399535 0.124539
O O3 0.427916 0.209222 0.170604
O O4 0.597572 0.122495 0.113365
O O5 0.608394 0.341669 0.612043
O O6 0.703499 0.376808 0.662327
O O7 0.775862 0.214194 0.542315
O O8 0.773875 0.489722 0.522187
O O9 0.570483 0.390317 0.822662
O O10 0.432998 0.430816 0.979210
O O11 0.748349 0.663366 0.252771
O O12 0.834620 0.858306 0.129877
O O13 0.803572 0.907533 0.262689
O O14 0.261956 0.544984 0.080819
O O15 0.250000 0.750000 0.000000
#
# Coordination Sequence:
#
# PCOD8132440 Si02
#       7
#     8   8   8   8   8   8   8
#     4  11  23  39  61  92 124 156 209 263 300 368
#     4  10  20  40  60  90 124 154 203 255 305 374
#     4  10  18  37  63  86 113 162 205 242 309 367
#     4  10  24  42  58  88 128 162 209 255 314 369
#     4  10  22  39  61  84 121 166 201 256 307 371
#     4  10  22  40  60  91 127 157 204 260 305 377
#     4  11  21  37  64  93 115 158 205 251 313 361
#
# _framework density 20.010991000000001
#
# number of rings (size 3 to 8) (size 9 to 14) (size 15 to 20)
#    0.000    1.714    2.857    3.857    2.000    2.286 
#    7.714    1.429    0.000    0.000    0.000    0.000 
#    0.000    0.000    0.000    0.000    0.000    0.000 
#
# Total GULP energy -347019.719994 kJ/mol
# GULP energy per Si atom -12393.561428 kJ/mol
# Density = 1.996545 g / cm^3
# Si number density = 20.010991 Si / 1000 Ang^3
#
#
#
# Elastic Constant Matrix: (Units=GPa)
#
#
# Indices 1 2 3 4 5 6 
#
# 1 109.8462 32.6464 41.2866 0.0000 -15.6093 0.0000
# 2 32.6464 78.2670 37.9083 0.0000 -20.6824 0.0001
# 3 41.2866 37.9083 90.7870 0.0000 -29.8733 0.0000
# 4 0.0000 0.0000 0.0000 35.3505 0.0000 -8.5752
# 5 -15.6093 -20.6824 -29.8733 0.0000 23.4940 0.0000
# 6 0.0000 0.0001 0.0000 -8.5752 0.0000 30.6581
#
#
#
# Elastic Compliance Matrix: (Units=1/GPa)
#
#
# Indices 1 2 3 4 5 6 
#
# 1 0.011459 -0.002828 -0.004031 0.000000 -0.000001 0.000000
# 2 -0.002828 0.018087 -0.002829 0.000000 0.010447 0.000000
# 3 -0.004031 -0.002829 0.021197 0.000000 0.021785 0.000000
# 4 0.000000 0.000000 0.000000 0.030347 0.000000 0.008488
# 5 -0.000001 0.010447 0.021785 0.000000 0.079460 0.000000
# 6 0.000000 0.000000 0.000000 0.008488 0.000000 0.034992
#
#
# Mechanical properties :
#
#
# Convention : Reuss Voigt Hill
#
# Bulk Modulus (GPa) = 31.87924 55.84253 43.86088
# Shear Modulus (GPa) = 22.18549 29.03778 25.61163
#
# Velocity S-wave (km/s) = 3.33327 3.81345 3.58142
# Velocity P-wave (km/s) = 5.54795 6.88160 6.25045
#
# Compressibility (1/GPa) = 0.03136838
#
# Stress axis : x y z
#
# Youngs Moduli (GPa) = 87.26877 55.28835 47.17608
#
# Poissons Ratio (x) = 0.15634 0.19016
# Poissons Ratio (y) = 0.24677 0.13345
# Poissons Ratio (z) = 0.35176 0.15640
#
# Static dielectric constant tensor:
#      x y z
#    x 3.786390 0.000000 -0.074250 
#    y 0.000000 3.981400 0.000000 
#    z -0.074250 0.000000 3.744430 
# 
# 
# High freq. dielectric constant tensor:
#      x y z
#    x 1.784380 0.000000 0.002070 
#    y 0.000000 1.773780 0.000000 
#    z 0.002070 0.000000 1.792490 
# 
# From -- ./inp_files/276517.got.cif
#   From: 2010.06.25/outbox.cif.g09.slc.cpg/sg15_139_cif.got.tgz:276517.got - 2010.06.28 07:06:18.
