data_PCOD8132764
_publ_section_title
;
Structure prediction by ZEFSAII (Michael W. Deem and Ramdas Pophale) SiO2 
 PCOD8132764
Probable space group: C 2/C
;
_chemical_formula_sum "Si O2"
_cell_formula_units_Z 48
_cell_length_a 30.018662
_cell_length_b 6.560969
_cell_length_c 15.238183
_cell_angle_alpha 90.000000
_cell_angle_beta 129.115225
_cell_angle_gamma 90.000000
_cell_volume 2328.554369
_symmetry_space_group_name_H-M "C 2/C"
_symmetry_group_IT_number 15
_symmetry_cell_setting 'monoclinic'
loop_
_space_group_symop_operation_xyz
x,y,z
-x,y,1/2-z
-x,-y,-z
x,-y,1/2+z
1/2+x,1/2+y,z
1/2-x,1/2+y,1/2-z
1/2-x,1/2-y,-z
1/2+x,1/2-y,1/2+z
loop_
_atom_site_type_symbol
_atom_site_label
_atom_site_fract_x
_atom_site_fract_y
_atom_site_fract_z
Si Si1 0.444614 0.157833 0.336213
Si Si2 0.211100 0.289705 0.772074
Si Si3 0.620105 0.459242 0.703154
Si Si4 0.927784 0.619072 0.979310
Si Si5 0.155979 0.580246 0.846238
Si Si6 0.186332 0.475398 0.071484
O O1 0.426865 0.394460 0.310287
O O2 0.511591 0.141970 0.395430
O O3 0.431335 0.071553 0.417359
O O4 0.406451 0.027811 0.220323
O O5 0.190198 0.467494 0.810786
O O6 0.211798 0.366381 0.673116
O O7 0.170973 0.091361 0.724939
O O8 0.275784 0.229900 0.878985
O O9 0.587460 0.326661 0.589944
O O10 0.648065 0.316195 0.812197
O O11 0.879747 0.576251 0.991715
O O12 0.190710 0.571344 0.980025
#
# Coordination Sequence:
#
# PCOD8132764 Si02
#       6
#     8   8   8   8   8   8
#     4   9  19  38  64  92 126 162 209 257 313 375
#     4  11  24  44  61  95 125 164 214 261 318 381
#     4  10  18  41  62  92 127 161 209 258 322 368
#     4  10  19  37  65  91 125 168 206 258 312 376
#     4  10  23  42  64  92 127 165 206 268 314 375
#     4  12  23  42  66  89 127 171 211 261 319 382
#
# _framework density 20.613647
#
# number of rings (size 3 to 8) (size 9 to 14) (size 15 to 20)
#    0.000    1.667    5.000    2.000    0.000    1.333 
#   12.000    0.000    0.000    0.000    0.000    0.000 
#    0.000    0.000    0.000    0.000    0.000    0.000 
#
# Total GULP energy -297638.314287 kJ/mol
# GULP energy per Si atom -12401.596429 kJ/mol
# Density = 2.056673 g / cm^3
# Si number density = 20.613647 Si / 1000 Ang^3
#
#
#
# Elastic Constant Matrix: (Units=GPa)
#
#
# Indices 1 2 3 4 5 6 
#
# 1 79.5822 30.9044 32.9628 0.0000 23.3045 0.0000
# 2 30.9044 126.0806 38.1389 0.0000 0.4291 -0.0001
# 3 32.9628 38.1389 118.6594 0.0000 -9.0578 0.0000
# 4 0.0000 0.0000 0.0000 24.0704 0.0000 8.7802
# 5 23.3045 0.4291 -9.0578 0.0000 30.1706 0.0000
# 6 0.0000 -0.0001 0.0000 8.7802 0.0000 23.1672
#
#
#
# Elastic Compliance Matrix: (Units=1/GPa)
#
#
# Indices 1 2 3 4 5 6 
#
# 1 0.022151 -0.003394 -0.006514 0.000000 -0.019017 0.000000
# 2 -0.003394 0.009335 -0.001911 0.000000 0.001915 0.000000
# 3 -0.006514 -0.001911 0.011501 0.000000 0.008512 0.000000
# 4 0.000000 0.000000 0.000000 0.048210 0.000000 -0.018271
# 5 -0.019017 0.001915 0.008512 0.000000 0.050362 0.000000
# 6 0.000000 0.000000 0.000000 -0.018271 0.000000 0.050089
#
#
# Mechanical properties :
#
#
# Convention : Reuss Voigt Hill
#
# Bulk Modulus (GPa) = 51.68593 58.70383 55.19488
# Shear Modulus (GPa) = 22.54934 30.30272 26.42603
#
# Velocity S-wave (km/s) = 3.31101 3.83826 3.58434
# Velocity P-wave (km/s) = 6.30437 6.94139 6.63054
#
# Compressibility (1/GPa) = 0.01934762
#
# Stress axis : x y z
#
# Youngs Moduli (GPa) = 45.14529 107.12282 86.94837
#
# Poissons Ratio (x) = 0.36361 0.56638
# Poissons Ratio (y) = 0.15324 0.16619
# Poissons Ratio (z) = 0.29408 0.20475
#
# Static dielectric constant tensor:
#      x y z
#    x 3.742050 0.000000 0.380690 
#    y 0.000000 3.755080 0.000000 
#    z 0.380690 0.000000 3.701100 
# 
# 
# High freq. dielectric constant tensor:
#      x y z
#    x 1.800670 0.000000 0.023710 
#    y 0.000000 1.809710 0.000000 
#    z 0.023710 0.000000 1.798290 
# 
# From -- ./inp_files/179995.got.cif
#   From: 2010.06.25/outbox.cif.g09.slc.cpg/sg15_90_cif.got.tgz:179995.got - 2010.06.28 07:06:18.
