data_PCOD8132538
_publ_section_title
;
Structure prediction by ZEFSAII (Michael W. Deem and Ramdas Pophale) SiO2 
 PCOD8132538
Probable space group: C 2/C
;
_chemical_formula_sum "Si O2"
_cell_formula_units_Z 60
_cell_length_a 11.018537
_cell_length_b 10.779249
_cell_length_c 24.000806
_cell_angle_alpha 90.000000
_cell_angle_beta 72.500464
_cell_angle_gamma 90.000000
_cell_volume 2718.684903
_symmetry_space_group_name_H-M "C 2/C"
_symmetry_group_IT_number 15
_symmetry_cell_setting 'monoclinic'
loop_
_space_group_symop_operation_xyz
x,y,z
-x,y,1/2-z
-x,-y,-z
x,-y,1/2+z
1/2+x,1/2+y,z
1/2-x,1/2+y,1/2-z
1/2-x,1/2-y,-z
1/2+x,1/2-y,1/2+z
loop_
_atom_site_type_symbol
_atom_site_label
_atom_site_fract_x
_atom_site_fract_y
_atom_site_fract_z
Si Si1 0.353218 0.084938 0.626036
Si Si2 0.778831 0.209514 0.579091
Si Si3 0.959901 0.258278 0.459274
Si Si4 0.389584 0.816553 0.670048
Si Si5 0.294557 0.313336 0.708316
Si Si6 0.876859 0.035733 0.096081
Si Si7 0.076901 0.106106 0.637822
Si Si8 0.500000 0.554295 0.250000
O O1 0.466020 0.117653 0.567762
O O2 0.337057 0.180419 0.679324
O O3 0.226911 0.093493 0.604839
O O4 0.393958 0.956585 0.648351
O O5 0.892838 0.274048 0.528126
O O6 0.646072 0.262811 0.574469
O O7 0.792963 0.243713 0.641976
O O8 0.790320 0.058697 0.571405
O O9 0.062569 0.146588 0.448229
O O10 0.339461 0.806074 0.740609
O O11 0.528410 0.749471 0.650070
O O12 0.289809 0.412165 0.658379
O O13 0.395617 0.355732 0.739490
O O14 0.997797 0.958113 0.100437
O O15 0.065060 0.034651 0.697104
#
# Coordination Sequence:
#
# PCOD8132538 Si02
#       8
#     8   8   8   8   8   8   8   4
#     4  11  23  38  56  89 128 155 201 258 312 374
#     4  10  22  40  64  86 117 160 216 253 313 370
#     4  10  22  40  61  89 119 159 206 270 305 364
#     4  11  23  38  62  89 122 166 202 252 314 380
#     4  10  22  35  61  90 119 161 204 250 310 372
#     4   9  20  39  63  87 115 164 210 256 307 376
#     4  10  20  37  59  85 120 160 204 247 310 374
#     4  10  18  38  62  80 118 164 202 246 300 374
#
# _framework density 22.069496000000001
#
# number of rings (size 3 to 8) (size 9 to 14) (size 15 to 20)
#    0.000    1.867    1.333    2.000    7.467    2.667 
#    0.000    4.667    0.000    0.000    0.000    0.000 
#    0.000    0.000    0.000    0.000    0.000    0.000 
#
# Total GULP energy -371893.567211 kJ/mol
# GULP energy per Si atom -12396.452240 kJ/mol
# Density = 2.201926 g / cm^3
# Si number density = 22.069496 Si / 1000 Ang^3
#
#
#
# Elastic Constant Matrix: (Units=GPa)
#
#
# Indices 1 2 3 4 5 6 
#
# 1 33.0694 10.6587 12.1313 0.0000 -7.6901 0.0000
# 2 10.6587 112.2764 -5.0118 0.0000 -1.6849 0.0000
# 3 12.1313 -5.0118 54.7013 0.0000 -16.4898 0.0000
# 4 0.0000 0.0000 0.0000 18.3356 0.0000 2.2712
# 5 -7.6901 -1.6849 -16.4898 0.0000 31.2208 0.0000
# 6 0.0000 0.0000 0.0000 2.2712 0.0000 29.7555
#
#
#
# Elastic Compliance Matrix: (Units=1/GPa)
#
#
# Indices 1 2 3 4 5 6 
#
# 1 0.034944 -0.003537 -0.006585 0.000000 0.004938 0.000000
# 2 -0.003537 0.009332 0.001818 0.000000 0.000593 0.000000
# 3 -0.006585 0.001818 0.023132 0.000000 0.010694 0.000000
# 4 0.000000 0.000000 0.000000 0.055059 0.000000 -0.004203
# 5 0.004938 0.000593 0.010694 0.000000 0.038926 0.000000
# 6 0.000000 0.000000 0.000000 -0.004203 0.000000 0.033928
#
#
# Mechanical properties :
#
#
# Convention : Reuss Voigt Hill
#
# Bulk Modulus (GPa) = 19.68515 26.17818 22.93167
# Shear Modulus (GPa) = 21.84720 28.01364 24.93042
#
# Velocity S-wave (km/s) = 3.14972 3.56664 3.36465
# Velocity P-wave (km/s) = 4.70815 5.37110 5.05051
#
# Compressibility (1/GPa) = 0.05079971
#
# Stress axis : x y z
#
# Youngs Moduli (GPa) = 28.61758 107.15323 43.23081
#
# Poissons Ratio (x) = 0.37901 0.28468
# Poissons Ratio (y) = 0.10122 -0.07860
# Poissons Ratio (z) = 0.18845 -0.19482
#
# Static dielectric constant tensor:
#      x y z
#    x 3.986010 0.000000 -0.132750 
#    y 0.000000 4.169230 0.000000 
#    z -0.132750 0.000000 3.939270 
# 
# 
# High freq. dielectric constant tensor:
#      x y z
#    x 1.855540 0.000000 -0.006830 
#    y 0.000000 1.875270 0.000000 
#    z -0.006830 0.000000 1.860460 
# 
# From -- ./inp_files/291999.got.cif
#   From: 2010.06.25/outbox.cif.g09.slc.cpg/sg15_146_cif.got.tgz:291999.got - 2010.06.28 07:06:18.
