data_PCOD8132226
_publ_section_title
;
Structure prediction by ZEFSAII (Michael W. Deem and Ramdas Pophale) SiO2 
 PCOD8132226
Probable space group: C 2/C
;
_chemical_formula_sum "Si O2"
_cell_formula_units_Z 48
_cell_length_a 9.177769
_cell_length_b 15.500446
_cell_length_c 15.681957
_cell_angle_alpha 90.000000
_cell_angle_beta 91.073836
_cell_angle_gamma 90.000000
_cell_volume 2230.515758
_symmetry_space_group_name_H-M "C 2/C"
_symmetry_group_IT_number 15
_symmetry_cell_setting 'monoclinic'
loop_
_space_group_symop_operation_xyz
x,y,z
-x,y,1/2-z
-x,-y,-z
x,-y,1/2+z
1/2+x,1/2+y,z
1/2-x,1/2+y,1/2-z
1/2-x,1/2-y,-z
1/2+x,1/2-y,1/2+z
loop_
_atom_site_type_symbol
_atom_site_label
_atom_site_fract_x
_atom_site_fract_y
_atom_site_fract_z
Si Si1 0.579535 0.322314 0.332948
Si Si2 0.700304 0.530248 0.931599
Si Si3 0.698170 0.864383 0.787934
Si Si4 0.947043 0.895059 0.908834
Si Si5 0.062397 0.590048 0.114568
Si Si6 0.918855 0.754576 0.483629
O O1 0.500000 0.360098 0.250000
O O2 0.697895 0.391949 0.363970
O O3 0.657914 0.232246 0.315717
O O4 0.453428 0.315605 0.403199
O O5 0.586118 0.456399 0.902626
O O6 0.864833 0.493103 0.929010
O O7 0.668493 0.564996 0.025529
O O8 0.862998 0.886863 0.817524
O O9 0.587043 0.929549 0.836366
O O10 0.678988 0.872120 0.685863
O O11 0.996225 0.797964 0.936096
O O12 0.027881 0.658229 0.038438
O O13 0.750000 0.750000 0.500000
#
# Coordination Sequence:
#
# PCOD8132226 Si02
#       6
#     8   8   8   8   8   8
#     4  10  20  37  59  85 117 158 194 241 299 356
#     4  10  22  36  58  90 117 149 199 249 307 338
#     4  10  21  40  60  85 117 161 206 235 294 371
#     4  10  22  37  59  93 115 154 205 247 289 366
#     4  10  20  38  60  84 121 161 191 247 304 350
#     4  10  18  36  60  83 120 153 199 238 289 355
#
# _framework density 21.519687000000001
#
# number of rings (size 3 to 8) (size 9 to 14) (size 15 to 20)
#    0.000    2.000    5.000    0.000    2.333    6.667 
#    0.000    0.000    0.000    4.000    0.000    0.000 
#    0.000    0.000    0.000    0.000    0.000    0.000 
#
# Total GULP energy -297474.835432 kJ/mol
# GULP energy per Si atom -12394.784810 kJ/mol
# Density = 2.147071 g / cm^3
# Si number density = 21.519687 Si / 1000 Ang^3
#
#
#
# Elastic Constant Matrix: (Units=GPa)
#
#
# Indices 1 2 3 4 5 6 
#
# 1 59.7520 22.8758 8.3193 0.0000 3.0845 0.0000
# 2 22.8758 72.9613 3.1841 0.0000 -4.7083 0.0000
# 3 8.3193 3.1841 31.8361 0.0000 16.3826 0.0000
# 4 0.0000 0.0000 0.0000 20.1059 0.0000 0.3988
# 5 3.0845 -4.7083 16.3826 0.0000 36.7223 0.0000
# 6 0.0000 0.0000 0.0000 0.3988 0.0000 37.4657
#
#
#
# Elastic Compliance Matrix: (Units=1/GPa)
#
#
# Indices 1 2 3 4 5 6 
#
# 1 0.019658 -0.006010 -0.004270 0.000000 -0.000517 0.000000
# 2 -0.006010 0.015879 -0.001720 0.000000 0.003308 0.000000
# 3 -0.004270 -0.001720 0.042350 0.000000 -0.018755 0.000000
# 4 0.000000 0.000000 0.000000 0.049747 0.000000 -0.000529
# 5 -0.000517 0.003308 -0.018755 0.000000 0.036066 0.000000
# 6 0.000000 0.000000 0.000000 -0.000529 0.000000 0.026697
#
#
# Mechanical properties :
#
#
# Convention : Reuss Voigt Hill
#
# Bulk Modulus (GPa) = 18.55746 25.92310 22.24028
# Shear Modulus (GPa) = 21.51842 27.53680 24.52761
#
# Velocity S-wave (km/s) = 3.16562 3.58104 3.37972
# Velocity P-wave (km/s) = 4.69081 5.40101 5.05839
#
# Compressibility (1/GPa) = 0.05388669
#
# Stress axis : x y z
#
# Youngs Moduli (GPa) = 50.86955 62.97664 23.61281
#
# Poissons Ratio (x) = 0.37852 0.10082
# Poissons Ratio (y) = 0.30575 0.04061
# Poissons Ratio (z) = 0.21721 0.10830
#
# Static dielectric constant tensor:
#      x y z
#    x 3.716780 0.000000 -0.059690 
#    y 0.000000 3.968340 0.000000 
#    z -0.059690 0.000000 3.989760 
# 
# 
# High freq. dielectric constant tensor:
#      x y z
#    x 1.832600 0.000000 -0.003040 
#    y 0.000000 1.831210 0.000000 
#    z -0.003040 0.000000 1.840940 
# 
# From -- ./inp_files/189913.got.cif
#   From: 2010.06.25/outbox.cif.g09.slc.cpg/sg15_95_cif.got.tgz:189913.got - 2010.06.28 07:06:18.
