data_PCOD8132879
_publ_section_title
;
Structure prediction by ZEFSAII (Michael W. Deem and Ramdas Pophale) SiO2 
 PCOD8132879
Probable space group: C 2/C
;
_chemical_formula_sum "Si O2"
_cell_formula_units_Z 64
_cell_length_a 11.090488
_cell_length_b 17.828116
_cell_length_c 25.595262
_cell_angle_alpha 90.000000
_cell_angle_beta 49.462117
_cell_angle_gamma 90.000000
_cell_volume 3846.057655
_symmetry_space_group_name_H-M "C 2/C"
_symmetry_group_IT_number 15
_symmetry_cell_setting 'monoclinic'
loop_
_space_group_symop_operation_xyz
x,y,z
-x,y,1/2-z
-x,-y,-z
x,-y,1/2+z
1/2+x,1/2+y,z
1/2-x,1/2+y,1/2-z
1/2-x,1/2-y,-z
1/2+x,1/2-y,1/2+z
loop_
_atom_site_type_symbol
_atom_site_label
_atom_site_fract_x
_atom_site_fract_y
_atom_site_fract_z
Si Si1 0.665494 0.904991 0.556822
Si Si2 0.158211 0.470405 0.673596
Si Si3 0.047592 0.810422 0.994926
Si Si4 0.710994 0.125000 0.609341
Si Si5 0.428995 0.720407 0.326405
Si Si6 0.554300 0.625002 0.380467
Si Si7 0.414040 0.845010 0.556821
Si Si8 0.282361 0.060424 0.005075
O O1 0.645194 0.932555 0.621091
O O2 0.800827 0.840814 0.515518
O O3 0.495490 0.875004 0.586338
O O4 0.710560 0.971448 0.504319
O O5 0.187391 0.558763 0.657769
O O6 0.300767 0.433128 0.666371
O O7 0.000000 0.455432 0.750000
O O8 0.072364 0.826534 0.927289
O O9 0.893982 0.851355 0.061859
O O10 0.026493 0.721446 0.004318
O O11 0.589307 0.191233 0.657773
O O12 0.670461 0.101360 0.561855
O O13 0.500000 0.705428 0.250000
O O14 0.549875 0.683135 0.333633
O O15 0.258465 0.682558 0.378911
O O16 0.395774 0.576533 0.427285
O O17 0.402615 0.909184 0.515516
#
# Coordination Sequence:
#
# PCOD8132879 Si02
#       8
#     8   8   8   8   8   8   8   8
#     4  10  19  30  47  71  98 124 155 191 239 282
#     4  10  20  31  48  68  97 127 159 194 230 283
#     4   9  17  31  50  71  94 119 154 202 240 280
#     4   9  17  32  51  72  90 118 162 202 238 268
#     4  10  20  31  48  68  97 127 159 194 230 283
#     4   9  18  32  49  70  93 124 156 194 248 274
#     4  10  19  30  47  71  98 124 155 191 239 282
#     4   9  17  31  50  71  94 119 154 202 240 280
#
# _framework density 16.640415999999998
#
# number of rings (size 3 to 8) (size 9 to 14) (size 15 to 20)
#    0.000    2.500    0.000    2.625    1.750    6.000 
#    0.000    0.000    0.000    0.000    0.000    0.000 
#    0.000    0.000    0.000    0.000    0.000    0.000 
#
# Total GULP energy -396764.236769 kJ/mol
# GULP energy per Si atom -12398.882399 kJ/mol
# Density = 1.660254 g / cm^3
# Si number density = 16.640416 Si / 1000 Ang^3
#
#
#
# Elastic Constant Matrix: (Units=GPa)
#
#
# Indices 1 2 3 4 5 6 
#
# 1 111.3144 57.0036 29.8107 -0.0001 3.7294 0.0001
# 2 57.0036 98.5519 40.1053 0.0000 1.1075 0.0000
# 3 29.8107 40.1053 76.3418 -0.0001 -1.4422 0.0001
# 4 -0.0001 0.0000 -0.0001 4.5701 0.0001 1.3719
# 5 3.7294 1.1075 -1.4422 0.0001 12.6224 -0.0001
# 6 0.0001 0.0000 0.0001 1.3719 -0.0001 25.5269
#
#
#
# Elastic Compliance Matrix: (Units=1/GPa)
#
#
# Indices 1 2 3 4 5 6 
#
# 1 0.013030 -0.006870 -0.001544 0.000000 -0.003423 0.000000
# 2 -0.006870 0.016574 -0.006027 0.000000 -0.000113 0.000000
# 3 -0.001544 -0.006027 0.016923 0.000000 0.002918 0.000000
# 4 0.000000 0.000000 0.000000 0.222402 -0.000002 -0.011953
# 5 -0.003423 -0.000113 0.002918 -0.000002 0.080579 0.000000
# 6 0.000000 0.000000 0.000000 -0.011953 0.000000 0.039817
#
#
# Mechanical properties :
#
#
# Convention : Reuss Voigt Hill
#
# Bulk Modulus (GPa) = 56.66802 60.00524 58.33663
# Shear Modulus (GPa) = 11.79002 19.16311 15.47656
#
# Velocity S-wave (km/s) = 2.66469 3.39720 3.05299
# Velocity P-wave (km/s) = 6.60271 7.17818 6.89645
#
# Compressibility (1/GPa) = 0.01764664
#
# Stress axis : x y z
#
# Youngs Moduli (GPa) = 76.74780 60.33413 59.09140
#
# Poissons Ratio (x) = 0.41449 0.09121
# Poissons Ratio (y) = 0.52725 0.35612
# Poissons Ratio (z) = 0.11847 0.36361
#
# Static dielectric constant tensor:
#      x y z
#    x 3.212860 0.000000 0.019540 
#    y 0.000000 3.283220 0.000000 
#    z 0.019540 0.000000 2.914600 
# 
# 
# High freq. dielectric constant tensor:
#      x y z
#    x 1.642150 0.000000 0.001170 
#    y 0.000000 1.648390 0.000000 
#    z 0.001170 0.000000 1.624300 
# 
# From -- ./inp_files/199191.got.cif
#   From: 2010.06.25/outbox.cif.g09.slc.cpg/sg15_100_cif.got.tgz:199191.got - 2010.06.28 07:06:18.
