data_PCOD8132040
_publ_section_title
;
Structure prediction by ZEFSAII (Michael W. Deem and Ramdas Pophale) SiO2 
 PCOD8132040
Probable space group: C 2/C
;
_chemical_formula_sum "Si O2"
_cell_formula_units_Z 64
_cell_length_a 33.521732
_cell_length_b 19.694014
_cell_length_c 17.455437
_cell_angle_alpha 90.000000
_cell_angle_beta 163.312367
_cell_angle_gamma 90.000000
_cell_volume 3309.069918
_symmetry_space_group_name_H-M "C 2/C"
_symmetry_group_IT_number 15
_symmetry_cell_setting 'monoclinic'
loop_
_space_group_symop_operation_xyz
x,y,z
-x,y,1/2-z
-x,-y,-z
x,-y,1/2+z
1/2+x,1/2+y,z
1/2-x,1/2+y,1/2-z
1/2-x,1/2-y,-z
1/2+x,1/2-y,1/2+z
loop_
_atom_site_type_symbol
_atom_site_label
_atom_site_fract_x
_atom_site_fract_y
_atom_site_fract_z
Si Si1 0.443315 0.804551 0.060699
Si Si2 0.277489 0.419003 0.231254
Si Si3 0.326000 0.841963 0.310506
Si Si4 0.352127 0.553160 0.446905
Si Si5 0.069050 0.568093 0.214197
Si Si6 0.397046 0.062322 0.398560
Si Si7 0.140744 0.204831 0.053830
Si Si8 0.035526 0.164365 0.226391
O O1 0.500000 0.820683 0.250000
O O2 0.517238 0.739677 0.157301
O O3 0.477061 0.869332 0.070346
O O4 0.278295 0.788441 0.755006
O O5 0.196810 0.376676 0.148274
O O6 0.290874 0.498185 0.276239
O O7 0.431418 0.389635 0.497254
O O8 0.194413 0.413176 0.000196
O O9 0.460129 0.870434 0.515207
O O10 0.343911 0.760320 0.350472
O O11 0.195280 0.859460 0.014515
O O12 0.252225 0.558831 0.336175
O O13 0.366474 0.626287 0.430212
O O14 0.500000 0.527417 0.750000
O O15 0.130192 0.559921 0.242015
O O16 0.992771 0.499901 0.101820
O O17 0.000000 0.222886 0.750000
O O18 0.000000 0.173447 0.250000
#
# Coordination Sequence:
#
# PCOD8132040 Si02
#       8
#     8   8   8   8   8   8   8   8
#     4  10  18  35  61  81 109 150 192 239 288 332
#     4  11  20  34  61  88 109 151 203 234 279 348
#     4  11  19  34  60  85 118 148 195 239 283 332
#     4  10  21  37  63  87 115 148 197 245 285 330
#     4  11  24  38  55  86 121 158 184 234 296 347
#     4  10  24  39  57  82 126 150 187 239 294 345
#     4  10  19  31  54  87 115 138 185 247 281 322
#     4   9  18  33  56  88 113 140 189 249 279 319
#
# _framework density 19.340782000000001
#
# number of rings (size 3 to 8) (size 9 to 14) (size 15 to 20)
#    0.000    1.750    5.000    2.250    3.500    0.000 
#    0.000    1.875    0.000    0.000    0.000    0.000 
#    0.000    0.000    0.000    0.000    0.000    0.000 
#
# Total GULP energy -396723.875129 kJ/mol
# GULP energy per Si atom -12397.621098 kJ/mol
# Density = 1.929676 g / cm^3
# Si number density = 19.340782 Si / 1000 Ang^3
#
#
#
# Elastic Constant Matrix: (Units=GPa)
#
#
# Indices 1 2 3 4 5 6 
#
# 1 41.3489 31.3691 36.9401 0.0000 1.2809 0.0000
# 2 31.3691 124.2157 39.6275 0.0000 1.6830 0.0000
# 3 36.9401 39.6275 140.7533 0.0000 0.6968 0.0000
# 4 0.0000 0.0000 0.0000 32.5839 0.0000 -4.5647
# 5 1.2809 1.6830 0.6968 0.0000 14.2542 0.0000
# 6 0.0000 0.0000 0.0000 -4.5647 0.0000 11.7702
#
#
#
# Elastic Compliance Matrix: (Units=1/GPa)
#
#
# Indices 1 2 3 4 5 6 
#
# 1 0.036078 -0.006664 -0.007582 0.000000 -0.002085 0.000000
# 2 -0.006664 0.010088 -0.001089 0.000000 -0.000539 0.000000
# 3 -0.007582 -0.001089 0.009399 0.000000 0.000350 0.000000
# 4 0.000000 0.000000 0.000000 0.032453 0.000000 0.012586
# 5 -0.002085 -0.000539 0.000350 0.000000 0.070389 0.000000
# 6 0.000000 0.000000 0.000000 0.012586 0.000000 0.089841
#
#
# Mechanical properties :
#
#
# Convention : Reuss Voigt Hill
#
# Bulk Modulus (GPa) = 40.16674 58.02126 49.09400
# Shear Modulus (GPa) = 17.40845 24.94706 21.17776
#
# Velocity S-wave (km/s) = 3.00341 3.59537 3.31264
# Velocity P-wave (km/s) = 5.73064 6.87751 6.33010
#
# Compressibility (1/GPa) = 0.02489622
#
# Stress axis : x y z
#
# Youngs Moduli (GPa) = 27.71750 99.12768 106.39145
#
# Poissons Ratio (x) = 0.66059 0.80667
# Poissons Ratio (y) = 0.18471 0.11581
# Poissons Ratio (z) = 0.21016 0.10791
#
# Static dielectric constant tensor:
#      x y z
#    x 2.969350 0.000000 0.153850 
#    y 0.000000 3.929270 0.000000 
#    z 0.153850 0.000000 3.747000 
# 
# 
# High freq. dielectric constant tensor:
#      x y z
#    x 1.686380 0.000000 0.011510 
#    y 0.000000 1.777040 0.000000 
#    z 0.011510 0.000000 1.766720 
# 
# From -- ./inp_files/183168.got.cif
#   From: 2010.06.25/outbox.cif.g09.slc.cpg/sg15_92_cif.got.tgz:183168.got - 2010.06.28 07:06:18.
