data_PCOD8132221
_publ_section_title
;
Structure prediction by ZEFSAII (Michael W. Deem and Ramdas Pophale) SiO2 
 PCOD8132221
Probable space group: C 2/C
;
_chemical_formula_sum "Si O2"
_cell_formula_units_Z 56
_cell_length_a 9.253725
_cell_length_b 27.889046
_cell_length_c 18.989075
_cell_angle_alpha 90.000000
_cell_angle_beta 35.942220
_cell_angle_gamma 90.000000
_cell_volume 2876.532573
_symmetry_space_group_name_H-M "C 2/C"
_symmetry_group_IT_number 15
_symmetry_cell_setting 'monoclinic'
loop_
_space_group_symop_operation_xyz
x,y,z
-x,y,1/2-z
-x,-y,-z
x,-y,1/2+z
1/2+x,1/2+y,z
1/2-x,1/2+y,1/2-z
1/2-x,1/2-y,-z
1/2+x,1/2-y,1/2+z
loop_
_atom_site_type_symbol
_atom_site_label
_atom_site_fract_x
_atom_site_fract_y
_atom_site_fract_z
Si Si1 0.203424 0.005589 0.605678
Si Si2 0.865570 0.189115 0.730099
Si Si3 0.429908 0.858120 0.700688
Si Si4 0.976477 0.093413 0.343376
Si Si5 0.442082 0.162722 0.982764
Si Si6 0.212125 0.891008 0.053138
Si Si7 0.727835 0.226384 0.331619
O O1 0.157745 0.052368 0.575971
O O2 0.000000 0.008474 0.750000
O O3 0.500000 0.000000 0.500000
O O4 0.134703 0.957634 0.589790
O O5 0.575544 0.181665 0.859811
O O6 0.901418 0.228209 0.654532
O O7 0.000000 0.204726 0.750000
O O8 0.963135 0.138464 0.663374
O O9 0.500000 0.840240 0.750000
O O10 0.678470 0.874553 0.564451
O O11 0.276019 0.816584 0.722794
O O12 0.243598 0.903270 0.774557
O O13 0.814812 0.138134 0.435712
O O14 0.000000 0.098440 0.250000
O O15 0.599188 0.120942 0.958467
O O16 0.425734 0.209291 0.039891
O O17 0.000000 0.239175 0.250000
#
# Coordination Sequence:
#
# PCOD8132221 Si02
#       7
#     8   8   8   8   8   8   8
#     4  11  20  32  65  99 123 158 207 253 316 360
#     4  10  23  36  55  86 121 161 188 234 309 361
#     4  11  22  39  63  83 115 159 206 246 300 360
#     4  11  18  37  61  92 115 151 200 258 293 349
#     4  10  18  36  60  81 121 147 195 249 293 343
#     4  10  20  38  56  88 127 151 193 253 295 361
#     4  11  21  38  59  85 115 152 204 252 292 350
#
# _framework density 19.467883
#
# number of rings (size 3 to 8) (size 9 to 14) (size 15 to 20)
#    0.000    1.429    5.714    2.571    0.000    6.857 
#    2.571    0.714    0.000    0.857    0.000    0.000 
#    0.000    0.000    0.000    0.000    0.000    0.000 
#
# Total GULP energy -346992.114702 kJ/mol
# GULP energy per Si atom -12392.575525 kJ/mol
# Density = 1.942357 g / cm^3
# Si number density = 19.467883 Si / 1000 Ang^3
#
#
#
# Elastic Constant Matrix: (Units=GPa)
#
#
# Indices 1 2 3 4 5 6 
#
# 1 59.7802 28.7241 30.2487 0.0000 -2.6638 0.0000
# 2 28.7241 127.4170 47.2365 0.0000 -1.7725 0.0000
# 3 30.2487 47.2365 122.9081 0.0001 -9.4481 0.0000
# 4 0.0000 0.0000 0.0001 25.0640 -0.0001 -6.8597
# 5 -2.6638 -1.7725 -9.4481 -0.0001 21.0629 0.0000
# 6 0.0000 0.0000 0.0000 -6.8597 0.0000 19.5677
#
#
#
# Elastic Compliance Matrix: (Units=1/GPa)
#
#
# Indices 1 2 3 4 5 6 
#
# 1 0.020145 -0.003163 -0.003694 0.000000 0.000624 0.000000
# 2 -0.003163 0.009663 -0.003007 0.000000 -0.000936 0.000000
# 3 -0.003694 -0.003007 0.010508 0.000000 0.003993 0.000000
# 4 0.000000 0.000000 0.000000 0.044132 0.000000 0.015471
# 5 0.000624 -0.000936 0.003993 0.000000 0.049268 0.000000
# 6 0.000000 0.000000 0.000000 0.015471 0.000000 0.056528
#
#
# Mechanical properties :
#
#
# Convention : Reuss Voigt Hill
#
# Bulk Modulus (GPa) = 48.57430 58.05821 53.31626
# Shear Modulus (GPa) = 23.05888 26.73198 24.89543
#
# Velocity S-wave (km/s) = 3.44533 3.70960 3.57990
# Velocity P-wave (km/s) = 6.39001 6.94518 6.67337
#
# Compressibility (1/GPa) = 0.02058702
#
# Stress axis : x y z
#
# Youngs Moduli (GPa) = 49.64038 103.48580 95.16513
#
# Poissons Ratio (x) = 0.32734 0.35155
# Poissons Ratio (y) = 0.15702 0.28618
# Poissons Ratio (z) = 0.18338 0.31121
#
# Static dielectric constant tensor:
#      x y z
#    x 3.243820 0.000000 -0.241340 
#    y 0.000000 3.714380 0.000000 
#    z -0.241340 0.000000 3.859180 
# 
# 
# High freq. dielectric constant tensor:
#      x y z
#    x 1.710620 0.000000 -0.022650 
#    y 0.000000 1.761130 0.000000 
#    z -0.022650 0.000000 1.770130 
# 
# From -- ./inp_files/193817.got.cif
#   From: 2010.06.25/outbox.cif.g09.slc.cpg/sg15_97_cif.got.tgz:193817.got - 2010.06.28 07:06:18.
