data_PCOD8132182
_publ_section_title
;
Structure prediction by ZEFSAII (Michael W. Deem and Ramdas Pophale) SiO2 
 PCOD8132182
Probable space group: C 2/C
;
_chemical_formula_sum "Si O2"
_cell_formula_units_Z 36
_cell_length_a 11.887721
_cell_length_b 15.011711
_cell_length_c 17.607270
_cell_angle_alpha 90.000000
_cell_angle_beta 33.411176
_cell_angle_gamma 90.000000
_cell_volume 1730.180439
_symmetry_space_group_name_H-M "C 2/C"
_symmetry_group_IT_number 15
_symmetry_cell_setting 'monoclinic'
loop_
_space_group_symop_operation_xyz
x,y,z
-x,y,1/2-z
-x,-y,-z
x,-y,1/2+z
1/2+x,1/2+y,z
1/2-x,1/2+y,1/2-z
1/2-x,1/2-y,-z
1/2+x,1/2-y,1/2+z
loop_
_atom_site_type_symbol
_atom_site_label
_atom_site_fract_x
_atom_site_fract_y
_atom_site_fract_z
Si Si1 0.769442 0.525962 0.370778
Si Si2 0.607621 0.601077 0.847270
Si Si3 0.453054 0.774545 0.189802
Si Si4 0.500000 0.530562 0.750000
Si Si5 0.805983 0.108133 0.457095
O O1 0.613770 0.603765 0.485355
O O2 0.728712 0.487903 0.308750
O O3 0.725155 0.437910 0.444829
O O4 0.000000 0.561698 0.250000
O O5 0.724525 0.693883 0.797534
O O6 0.586812 0.592282 0.768233
O O7 0.500000 0.798674 0.250000
O O8 0.487189 0.669152 0.156177
O O9 0.612733 0.829200 0.046759
O O10 0.678061 0.467039 0.616504
#
# Coordination Sequence:
#
# PCOD8132182 Si02
#       5
#     8   8   8   4   8
#     4  10  18  36  58  86 113 155 199 240 289 351
#     4  10  20  34  56  85 122 148 191 245 297 346
#     4  11  19  34  58  87 118 148 192 248 293 341
#     4  10  22  34  52  94 114 154 194 240 298 344
#     4  10  19  33  56  87 115 143 196 245 285 339
#
# _framework density 20.807079000000002
#
# number of rings (size 3 to 8) (size 9 to 14) (size 15 to 20)
#    0.000    1.778    5.556    0.000    0.000    0.889 
#    0.000    0.000    0.000    1.333   37.556    0.000 
#    0.000    0.000    0.000    0.000    0.000    0.000 
#
# Total GULP energy -223079.634499 kJ/mol
# GULP energy per Si atom -12393.313028 kJ/mol
# Density = 2.075972 g / cm^3
# Si number density = 20.807079 Si / 1000 Ang^3
#
#
#
# Elastic Constant Matrix: (Units=GPa)
#
#
# Indices 1 2 3 4 5 6 
#
# 1 112.2625 23.5984 50.2320 0.0059 0.8010 0.0033
# 2 23.5984 61.8975 35.7297 0.0069 -9.9696 0.0038
# 3 50.2320 35.7297 95.9595 0.0123 -21.7066 0.0066
# 4 0.0059 0.0069 0.0123 33.0603 -0.0057 -14.6947
# 5 0.8010 -9.9696 -21.7066 -0.0057 45.9476 -0.0027
# 6 0.0033 0.0038 0.0066 -14.6947 -0.0027 17.6888
#
#
#
# Elastic Compliance Matrix: (Units=1/GPa)
#
#
# Indices 1 2 3 4 5 6 
#
# 1 0.012233 -0.001375 -0.006726 0.000000 -0.003689 0.000000
# 2 -0.001375 0.020770 -0.006705 -0.000003 0.001363 -0.000004
# 3 -0.006726 -0.006705 0.018067 -0.000007 0.007197 -0.000008
# 4 0.000000 -0.000003 -0.000007 0.047955 0.000004 0.039838
# 5 -0.003689 0.001363 0.007197 0.000004 0.025524 0.000005
# 6 0.000000 -0.000004 -0.000008 0.039838 0.000005 0.089628
#
#
# Mechanical properties :
#
#
# Convention : Reuss Voigt Hill
#
# Bulk Modulus (GPa) = 46.60632 54.35997 50.48314
# Shear Modulus (GPa) = 19.92497 30.04331 24.98414
#
# Velocity S-wave (km/s) = 3.09788 3.80399 3.46895
# Velocity P-wave (km/s) = 5.93664 6.74360 6.35295
#
# Compressibility (1/GPa) = 0.02145632
#
# Stress axis : x y z
#
# Youngs Moduli (GPa) = 81.74875 48.14584 55.35091
#
# Poissons Ratio (x) = 0.06622 0.37228
# Poissons Ratio (y) = 0.11244 0.37114
# Poissons Ratio (z) = 0.54982 0.32283
#
# Static dielectric constant tensor:
#      x y z
#    x 3.628590 0.000000 0.029740 
#    y 0.000000 3.489760 0.000010 
#    z 0.029740 0.000010 4.128880 
# 
# 
# High freq. dielectric constant tensor:
#      x y z
#    x 1.789690 0.000000 0.010230 
#    y 0.000000 1.778560 0.000000 
#    z 0.010230 0.000000 1.822880 
# 
# From -- ./inp_files/85125.got.cif
#   From: 2010.06.25/outbox.cif.g09.slc.cpg/sg15_43_cif.got.tgz:85125.got - 2010.06.28 07:06:18.
