data_PCOD8132680
_publ_section_title
;
Structure prediction by ZEFSAII (Michael W. Deem and Ramdas Pophale) SiO2 
 PCOD8132680
Probable space group: C 2/C
;
_chemical_formula_sum "Si O2"
_cell_formula_units_Z 60
_cell_length_a 17.752445
_cell_length_b 9.068399
_cell_length_c 18.745118
_cell_angle_alpha 90.000000
_cell_angle_beta 73.442918
_cell_angle_gamma 90.000000
_cell_volume 2892.581077
_symmetry_space_group_name_H-M "C 2/C"
_symmetry_group_IT_number 15
_symmetry_cell_setting 'monoclinic'
loop_
_space_group_symop_operation_xyz
x,y,z
-x,y,1/2-z
-x,-y,-z
x,-y,1/2+z
1/2+x,1/2+y,z
1/2-x,1/2+y,1/2-z
1/2-x,1/2-y,-z
1/2+x,1/2-y,1/2+z
loop_
_atom_site_type_symbol
_atom_site_label
_atom_site_fract_x
_atom_site_fract_y
_atom_site_fract_z
Si Si1 0.917620 0.476165 0.559014
Si Si2 0.763987 0.710904 0.782340
Si Si3 0.310512 0.957742 0.863040
Si Si4 0.662275 0.193713 0.532586
Si Si5 0.500000 0.393023 0.250000
Si Si6 0.898808 0.344234 0.708525
Si Si7 0.860083 0.922703 0.849334
Si Si8 0.272753 0.843486 0.117988
O O1 0.878532 0.330729 0.532946
O O2 0.934556 0.452179 0.638861
O O3 0.857824 0.614215 0.562506
O O4 0.000000 0.500000 0.500000
O O5 0.753934 0.571943 0.837352
O O6 0.683076 0.796565 0.803315
O O7 0.832087 0.820173 0.791353
O O8 0.785197 0.650009 0.699320
O O9 0.383707 0.917601 0.790497
O O10 0.257919 0.816408 0.898952
O O11 0.342734 0.035474 0.925349
O O12 0.750000 0.250000 0.500000
O O13 0.617592 0.320021 0.589401
O O14 0.543721 0.293664 0.296910
O O15 0.561535 0.493128 0.192183
O O16 0.791557 0.036832 0.889118
#
# Coordination Sequence:
#
# PCOD8132680 Si02
#       8
#     8   8   8   8   4   8   8   8
#     4  12  26  43  64  96 144 181 218 279 347 410
#     4  10  18  39  72  97 129 175 225 277 333 402
#     4  10  21  38  75 100 120 178 235 278 327 402
#     4  11  24  47  68  94 139 183 218 273 351 416
#     4  12  26  40  70 108 136 162 236 304 334 380
#     4  11  23  43  67  99 139 176 224 286 342 396
#     4  11  22  42  68  99 137 175 222 280 341 403
#     4  11  19  39  67  98 125 175 231 269 328 409
#
# _framework density 20.742719999999998
#
# number of rings (size 3 to 8) (size 9 to 14) (size 15 to 20)
#    0.000    1.067    6.667    1.600    1.867    1.600 
#    2.400    0.667    0.000    0.000    0.000    0.000 
#    0.000    0.000    0.000    0.000    0.000    0.000 
#
# Total GULP energy -371960.832477 kJ/mol
# GULP energy per Si atom -12398.694416 kJ/mol
# Density = 2.069551 g / cm^3
# Si number density = 20.742720 Si / 1000 Ang^3
#
#
#
# Elastic Constant Matrix: (Units=GPa)
#
#
# Indices 1 2 3 4 5 6 
#
# 1 65.6634 28.5452 41.1553 0.0000 -19.7266 0.0000
# 2 28.5452 120.0629 43.5849 0.0000 -10.6005 0.0000
# 3 41.1553 43.5849 98.8681 0.0000 -20.3090 0.0000
# 4 0.0000 0.0000 0.0000 32.6524 0.0000 4.4139
# 5 -19.7266 -10.6005 -20.3090 0.0000 41.0776 0.0000
# 6 0.0000 0.0000 0.0000 4.4139 0.0000 32.2654
#
#
#
# Elastic Compliance Matrix: (Units=1/GPa)
#
#
# Indices 1 2 3 4 5 6 
#
# 1 0.022667 -0.002227 -0.007052 0.000000 0.006824 0.000000
# 2 -0.002227 0.010142 -0.003591 0.000000 -0.000227 0.000000
# 3 -0.007052 -0.003591 0.015301 0.000000 0.003252 0.000000
# 4 0.000000 0.000000 0.000000 0.031203 0.000000 -0.004268
# 5 0.006824 -0.000227 0.003252 0.000000 0.029170 0.000000
# 6 0.000000 0.000000 0.000000 -0.004268 0.000000 0.031577
#
#
# Mechanical properties :
#
#
# Convention : Reuss Voigt Hill
#
# Bulk Modulus (GPa) = 44.70094 56.79611 50.74852
# Shear Modulus (GPa) = 28.85905 32.61969 30.73937
#
# Velocity S-wave (km/s) = 3.73404 3.96989 3.85377
# Velocity P-wave (km/s) = 6.33938 6.96089 6.65739
#
# Compressibility (1/GPa) = 0.02237090
#
# Stress axis : x y z
#
# Youngs Moduli (GPa) = 44.11635 98.60212 65.35542
#
# Poissons Ratio (x) = 0.21955 0.46090
# Poissons Ratio (y) = 0.09823 0.23467
# Poissons Ratio (z) = 0.31112 0.35405
#
# Static dielectric constant tensor:
#      x y z
#    x 4.065050 0.000000 0.347160 
#    y 0.000000 4.091070 0.000000 
#    z 0.347160 0.000000 4.107520 
# 
# 
# High freq. dielectric constant tensor:
#      x y z
#    x 1.796100 0.000000 0.007290 
#    y 0.000000 1.819100 0.000000 
#    z 0.007290 0.000000 1.812280 
# 
# From -- ./inp_files/247807.got.cif
#   From: 2010.06.25/outbox.cif.g09.slc.cpg/sg15_124_cif.got.tgz:247807.got - 2010.06.28 07:06:18.
