data_PCOD8132587
_publ_section_title
;
Structure prediction by ZEFSAII (Michael W. Deem and Ramdas Pophale) SiO2 
 PCOD8132587
Probable space group: C 2/C
;
_chemical_formula_sum "Si O2"
_cell_formula_units_Z 52
_cell_length_a 21.666475
_cell_length_b 13.455642
_cell_length_c 27.104425
_cell_angle_alpha 90.000000
_cell_angle_beta 17.566194
_cell_angle_gamma 90.000000
_cell_volume 2384.859568
_symmetry_space_group_name_H-M "C 2/C"
_symmetry_group_IT_number 15
_symmetry_cell_setting 'monoclinic'
loop_
_space_group_symop_operation_xyz
x,y,z
-x,y,1/2-z
-x,-y,-z
x,-y,1/2+z
1/2+x,1/2+y,z
1/2-x,1/2+y,1/2-z
1/2-x,1/2-y,-z
1/2+x,1/2-y,1/2+z
loop_
_atom_site_type_symbol
_atom_site_label
_atom_site_fract_x
_atom_site_fract_y
_atom_site_fract_z
Si Si1 0.043685 0.811003 0.160454
Si Si2 0.500000 0.997002 0.250000
Si Si3 0.314476 0.869663 0.807167
Si Si4 0.595492 0.547696 0.878468
Si Si5 0.519817 0.025201 0.584486
Si Si6 0.234806 0.867498 0.515543
Si Si7 0.405209 0.488827 0.728207
O O1 0.000000 0.837015 0.250000
O O2 0.869913 0.745745 0.266778
O O3 0.250000 0.750000 0.000000
O O4 0.051553 0.915693 0.126557
O O5 0.320240 0.921697 0.401865
O O6 0.573471 0.068662 0.236316
O O7 0.404718 0.923485 0.689407
O O8 0.070392 0.865125 0.003026
O O9 0.598376 0.473597 0.828395
O O10 0.825965 0.589767 0.711663
O O11 0.500000 0.500000 0.000000
O O12 0.640859 0.089933 0.532603
O O13 0.674426 0.994263 0.423252
O O14 0.250000 0.750000 0.500000
O O15 0.995164 0.897667 0.693193
#
# Coordination Sequence:
#
# PCOD8132587 Si02
#       7
#     8   4   8   8   8   8   8
#     4  12  22  35  63 101 134 163 202 265 331 400
#     4  10  18  38  64  92 122 168 216 260 310 388
#     4  10  19  39  64  94 128 170 211 249 324 401
#     4  10  22  43  66  88 127 177 217 262 327 396
#     4  10  23  41  63  94 130 166 215 275 331 381
#     4  11  24  40  66  95 126 169 226 275 322 377
#     4  12  23  42  64  95 130 166 213 278 332 380
#
# _framework density 21.804219
#
# number of rings (size 3 to 8) (size 9 to 14) (size 15 to 20)
#    0.000    1.231    2.308    5.538    2.154    0.000 
#    0.000    6.154    0.000    0.000    0.000    0.000 
#    0.000    0.000    0.000    0.000    0.000    0.000 
#
# Total GULP energy -322119.080533 kJ/mol
# GULP energy per Si atom -12389.195405 kJ/mol
# Density = 2.175459 g / cm^3
# Si number density = 21.804219 Si / 1000 Ang^3
#
#
#
# Elastic Constant Matrix: (Units=GPa)
#
#
# Indices 1 2 3 4 5 6 
#
# 1 110.4503 27.4526 53.6394 0.0480 -4.3817 0.0079
# 2 27.4526 104.7806 21.2973 0.8697 -3.4129 0.2532
# 3 53.6394 21.2973 130.3358 1.5191 -15.9175 0.5275
# 4 0.0480 0.8697 1.5191 22.9130 0.2708 -1.3836
# 5 -4.3817 -3.4129 -15.9175 0.2708 39.5729 -0.0449
# 6 0.0079 0.2532 0.5275 -1.3836 -0.0449 8.8738
#
#
#
# Elastic Compliance Matrix: (Units=1/GPa)
#
#
# Indices 1 2 3 4 5 6 
#
# 1 0.011799 -0.002186 -0.004594 0.000395 -0.000732 0.000383
# 2 -0.002186 0.010280 -0.000732 -0.000359 0.000352 -0.000302
# 3 -0.004594 -0.000732 0.010122 -0.000716 0.003504 -0.000671
# 4 0.000395 -0.000359 -0.000716 0.044129 -0.000569 0.006930
# 5 -0.000732 0.000352 0.003504 -0.000569 0.026632 -0.000172
# 6 0.000383 -0.000302 -0.000671 0.006930 -0.000172 0.113820
#
#
# Mechanical properties :
#
#
# Convention : Reuss Voigt Hill
#
# Bulk Modulus (GPa) = 58.21565 61.14949 59.68257
# Shear Modulus (GPa) = 21.04988 30.48377 25.76682
#
# Velocity S-wave (km/s) = 3.11047 3.74313 3.44137
# Velocity P-wave (km/s) = 6.29740 6.84011 6.57435
#
# Compressibility (1/GPa) = 0.01717751
#
# Stress axis : x y z
#
# Youngs Moduli (GPa) = 84.75280 97.27311 98.79664
#
# Poissons Ratio (x) = 0.21260 0.45390
# Poissons Ratio (y) = 0.18523 0.07231
# Poissons Ratio (z) = 0.38938 0.07120
#
# Static dielectric constant tensor:
#      x y z
#    x 5.046140 0.000970 -0.196530 
#    y 0.000970 3.793590 0.001090 
#    z -0.196530 0.001090 4.601540 
# 
# 
# High freq. dielectric constant tensor:
#      x y z
#    x 1.862080 0.000000 0.002310 
#    y 0.000000 1.814310 0.000090 
#    z 0.002310 0.000090 1.884490 
# 
# From -- ./inp_files/301133.got.cif
#   From: 2010.06.25/outbox.cif.g09.slc.cpg/sg15_151_cif.got.tgz:301133.got - 2010.06.28 07:06:18.
