data_PCOD8132442
_publ_section_title
;
Structure prediction by ZEFSAII (Michael W. Deem and Ramdas Pophale) SiO2 
 PCOD8132442
Probable space group: C 2/C
;
_chemical_formula_sum "Si O2"
_cell_formula_units_Z 56
_cell_length_a 9.253388
_cell_length_b 29.011688
_cell_length_c 11.619825
_cell_angle_alpha 90.000000
_cell_angle_beta 65.039184
_cell_angle_gamma 90.000000
_cell_volume 2828.052349
_symmetry_space_group_name_H-M "C 2/C"
_symmetry_group_IT_number 15
_symmetry_cell_setting 'monoclinic'
loop_
_space_group_symop_operation_xyz
x,y,z
-x,y,1/2-z
-x,-y,-z
x,-y,1/2+z
1/2+x,1/2+y,z
1/2-x,1/2+y,1/2-z
1/2-x,1/2-y,-z
1/2+x,1/2-y,1/2+z
loop_
_atom_site_type_symbol
_atom_site_label
_atom_site_fract_x
_atom_site_fract_y
_atom_site_fract_z
Si Si1 0.185756 0.579075 0.397227
Si Si2 0.185181 0.412778 0.164788
Si Si3 0.814900 0.843454 0.277920
Si Si4 0.187586 0.745343 0.152901
Si Si5 0.315802 0.517420 0.803805
Si Si6 0.679595 0.911783 0.504217
Si Si7 0.811767 0.353663 0.789272
O O1 0.220849 0.579153 0.519704
O O2 0.274252 0.536084 0.309760
O O3 0.240967 0.626897 0.317718
O O4 0.003342 0.574742 0.423498
O O5 0.285889 0.366681 0.163473
O O6 0.242274 0.457163 0.217455
O O7 0.000000 0.404151 0.250000
O O8 0.749469 0.790951 0.302371
O O9 0.703649 0.873211 0.399053
O O10 0.000000 0.846640 0.250000
O O11 0.264735 0.697453 0.172026
O O12 0.000000 0.743969 0.250000
O O13 0.250000 0.750000 0.000000
O O14 0.500000 0.525505 0.750000
O O15 0.257694 0.539872 0.943131
O O16 0.754211 0.890687 0.595627
O O17 0.000000 0.349116 0.750000
#
# Coordination Sequence:
#
# PCOD8132442 Si02
#       7
#     8   8   8   8   8   8   8
#     4  11  23  39  59  87 122 161 202 253 308 370
#     4  11  22  38  64  88 118 158 206 253 306 376
#     4  10  20  37  62  94 122 159 203 259 308 362
#     4  10  19  35  62  97 126 163 214 261 309 367
#     4  11  25  41  58  89 119 159 204 252 313 366
#     4  10  18  37  63  86 118 155 209 252 295 364
#     4   9  20  35  60  90 120 156 204 256 296 358
#
# _framework density 19.801613
#
# number of rings (size 3 to 8) (size 9 to 14) (size 15 to 20)
#    0.000    1.714    4.286    2.143    2.000    1.143 
#    2.571    0.714    0.000    0.857    0.000    0.000 
#    0.000    0.000    0.000    0.000    0.000    0.000 
#
# Total GULP energy -346883.743498 kJ/mol
# GULP energy per Si atom -12388.705125 kJ/mol
# Density = 1.975654 g / cm^3
# Si number density = 19.801613 Si / 1000 Ang^3
#
#
#
# Elastic Constant Matrix: (Units=GPa)
#
#
# Indices 1 2 3 4 5 6 
#
# 1 63.5356 20.1339 15.1787 0.0000 14.5214 0.0000
# 2 20.1339 126.5020 33.7956 0.0000 27.0814 0.0000
# 3 15.1787 33.7956 93.2789 0.0000 20.9383 0.0000
# 4 0.0000 0.0000 0.0000 26.9861 0.0000 -2.7692
# 5 14.5214 27.0814 20.9383 0.0000 24.8576 0.0000
# 6 0.0000 0.0000 0.0000 -2.7692 0.0000 20.7765
#
#
#
# Elastic Compliance Matrix: (Units=1/GPa)
#
#
# Indices 1 2 3 4 5 6 
#
# 1 0.018255 -0.000743 -0.000603 0.000000 -0.009346 0.000000
# 2 -0.000743 0.010512 -0.001498 0.000000 -0.009757 0.000000
# 3 -0.000603 -0.001498 0.013461 0.000000 -0.009355 0.000000
# 4 0.000000 0.000000 0.000000 0.037570 0.000000 0.005007
# 5 -0.009346 -0.009757 -0.009355 0.000000 0.064198 0.000000
# 6 0.000000 0.000000 0.000000 0.005007 0.000000 0.048799
#
#
# Mechanical properties :
#
#
# Convention : Reuss Voigt Hill
#
# Bulk Modulus (GPa) = 27.36739 46.83697 37.10218
# Shear Modulus (GPa) = 23.73451 28.80461 26.26956
#
# Velocity S-wave (km/s) = 3.46586 3.81814 3.64625
# Velocity P-wave (km/s) = 5.46507 6.56826 6.04190
#
# Compressibility (1/GPa) = 0.03653984
#
# Stress axis : x y z
#
# Youngs Moduli (GPa) = 54.77942 95.12813 74.28792
#
# Poissons Ratio (x) = 0.07073 0.04481
# Poissons Ratio (y) = 0.04073 0.11125
# Poissons Ratio (z) = 0.03304 0.14246
#
# Static dielectric constant tensor:
#      x y z
#    x 3.296460 0.000000 -0.129430 
#    y 0.000000 4.112650 0.000000 
#    z -0.129430 0.000000 3.447020 
# 
# 
# High freq. dielectric constant tensor:
#      x y z
#    x 1.733030 0.000000 -0.009670 
#    y 0.000000 1.788690 0.000000 
#    z -0.009670 0.000000 1.778860 
# 
# From -- ./inp_files/81266.got.cif
#   From: 2010.06.25/outbox.cif.g09.slc.cpg/sg15_41_cif.got.tgz:81266.got - 2010.06.28 07:06:18.
