data_PCOD8132834
_publ_section_title
;
Structure prediction by ZEFSAII (Michael W. Deem and Ramdas Pophale) SiO2 
 PCOD8132834
Probable space group: C 2/C
;
_chemical_formula_sum "Si O2"
_cell_formula_units_Z 40
_cell_length_a 12.843529
_cell_length_b 23.415163
_cell_length_c 11.916227
_cell_angle_alpha 90.000000
_cell_angle_beta 35.196589
_cell_angle_gamma 90.000000
_cell_volume 2065.532298
_symmetry_space_group_name_H-M "C 2/C"
_symmetry_group_IT_number 15
_symmetry_cell_setting 'monoclinic'
loop_
_space_group_symop_operation_xyz
x,y,z
-x,y,1/2-z
-x,-y,-z
x,-y,1/2+z
1/2+x,1/2+y,z
1/2-x,1/2+y,1/2-z
1/2-x,1/2-y,-z
1/2+x,1/2-y,1/2+z
loop_
_atom_site_type_symbol
_atom_site_label
_atom_site_fract_x
_atom_site_fract_y
_atom_site_fract_z
Si Si1 0.696300 0.991817 0.064372
Si Si2 0.290331 0.815568 0.444442
Si Si3 0.291113 0.894695 0.258059
Si Si4 0.044766 0.943820 0.028374
Si Si5 0.799632 0.598232 0.122163
O O1 0.500000 0.021720 0.250000
O O2 0.703884 0.943005 0.151417
O O3 0.855241 0.038585 0.943531
O O4 0.721489 0.963576 0.920088
O O5 0.500000 0.829012 0.250000
O O6 0.250000 0.750000 0.500000
O O7 0.217209 0.837747 0.388165
O O8 0.217106 0.852030 0.614807
O O9 0.145063 0.909538 0.288813
O O10 0.491082 0.888903 0.029124
O O11 0.183055 0.903701 0.837193
O O12 0.000000 0.000000 0.000000
#
# Coordination Sequence:
#
# PCOD8132834 Si02
#       5
#     8   8   8   8   8
#     4   8  16  29  43  63  89 124 161 186 228 282
#     4   9  18  29  46  69  92 130 161 188 239 286
#     4   8  17  30  41  62  92 121 158 188 223 282
#     4  10  19  28  46  67  87 133 165 187 233 277
#     4   9  18  33  44  61 102 128 149 200 231 273
#
# _framework density 19.365469000000001
#
# number of rings (size 3 to 8) (size 9 to 14) (size 15 to 20)
#    0.000    3.200    0.000    2.400    2.800   13.600 
#    0.000    2.000    0.000    0.000    0.000    0.000 
#    0.000    1.600    3.600    5.000    0.800    0.000 
#
# Total GULP energy -247772.226236 kJ/mol
# GULP energy per Si atom -12388.611312 kJ/mol
# Density = 1.932139 g / cm^3
# Si number density = 19.365469 Si / 1000 Ang^3
#
#
#
# Elastic Constant Matrix: (Units=GPa)
#
#
# Indices 1 2 3 4 5 6 
#
# 1 75.1253 34.4779 16.4535 0.0003 -27.4600 -0.0001
# 2 34.4779 76.0117 15.8963 0.0000 -10.3312 0.0000
# 3 16.4535 15.8963 58.3823 0.0016 -14.0465 -0.0004
# 4 0.0003 0.0000 0.0016 23.4881 -0.0009 -2.3901
# 5 -27.4600 -10.3312 -14.0465 -0.0009 22.8222 0.0002
# 6 -0.0001 0.0000 -0.0004 -2.3901 0.0002 19.2809
#
#
#
# Elastic Compliance Matrix: (Units=1/GPa)
#
#
# Indices 1 2 3 4 5 6 
#
# 1 0.028544 -0.009090 0.002000 0.000001 0.031461 0.000000
# 2 -0.009090 0.017282 -0.003396 0.000000 -0.005204 0.000000
# 3 0.002000 -0.003396 0.020775 -0.000001 0.013655 0.000000
# 4 0.000001 0.000000 -0.000001 0.043119 0.000002 0.005345
# 5 0.031461 -0.005204 0.013655 0.000002 0.087721 0.000000
# 6 0.000000 0.000000 0.000000 0.005345 0.000000 0.052527
#
#
# Mechanical properties :
#
#
# Convention : Reuss Voigt Hill
#
# Bulk Modulus (GPa) = 21.91540 38.13052 30.02296
# Shear Modulus (GPa) = 17.47345 22.63102 20.05223
#
# Velocity S-wave (km/s) = 3.00709 3.42223 3.22135
# Velocity P-wave (km/s) = 4.83716 5.94544 5.41970
#
# Compressibility (1/GPa) = 0.04563002
#
# Stress axis : x y z
#
# Youngs Moduli (GPa) = 35.03311 57.86484 48.13505
#
# Poissons Ratio (x) = 0.52596 -0.09626
# Poissons Ratio (y) = 0.31843 0.16345
# Poissons Ratio (z) = -0.07006 0.19649
#
# Static dielectric constant tensor:
#      x y z
#    x 3.916660 0.000000 -0.468430 
#    y 0.000000 2.608070 0.000000 
#    z -0.468430 0.000000 3.605570 
# 
# 
# High freq. dielectric constant tensor:
#      x y z
#    x 1.729540 0.000000 -0.031040 
#    y 0.000000 1.701430 0.000000 
#    z -0.031040 0.000000 1.757070 
# 
# From -- ./inp_files/31721.got.cif
#   From: 2010.06.25/outbox.cif.g09.slc.cpg/sg15_16_cif.got.tgz:31721.got - 2010.06.28 07:06:18.
