data_PCOD8132906
_publ_section_title
;
Structure prediction by ZEFSAII (Michael W. Deem and Ramdas Pophale) SiO2 
 PCOD8132906
Probable space group: C 2/C
;
_chemical_formula_sum "Si O2"
_cell_formula_units_Z 52
_cell_length_a 8.862813
_cell_length_b 15.356099
_cell_length_c 23.869383
_cell_angle_alpha 90.000000
_cell_angle_beta 111.580505
_cell_angle_gamma 90.000000
_cell_volume 3020.860831
_symmetry_space_group_name_H-M "C 2/C"
_symmetry_group_IT_number 15
_symmetry_cell_setting 'monoclinic'
loop_
_space_group_symop_operation_xyz
x,y,z
-x,y,1/2-z
-x,-y,-z
x,-y,1/2+z
1/2+x,1/2+y,z
1/2-x,1/2+y,1/2-z
1/2-x,1/2-y,-z
1/2+x,1/2-y,1/2+z
loop_
_atom_site_type_symbol
_atom_site_label
_atom_site_fract_x
_atom_site_fract_y
_atom_site_fract_z
Si Si1 0.885791 0.734463 0.443572
Si Si2 0.500000 0.751984 0.750000
Si Si3 0.062831 0.087852 0.940845
Si Si4 0.276337 0.676250 0.635960
Si Si5 0.550506 0.839119 0.866000
Si Si6 0.415711 0.833093 0.067447
Si Si7 0.760717 0.989111 0.933004
O O1 0.983130 0.823023 0.449604
O O2 0.917398 0.668069 0.396947
O O3 0.693741 0.755867 0.421010
O O4 0.948776 0.685921 0.507125
O O5 0.358077 0.686624 0.708941
O O6 0.453345 0.817188 0.794932
O O7 0.144251 0.097945 0.890311
O O8 0.924545 0.012236 0.920554
O O9 0.199438 0.063308 0.004819
O O10 0.307924 0.766322 0.606201
O O11 0.087512 0.662033 0.622060
O O12 0.639200 0.932503 0.877706
O O13 0.328951 0.924374 0.061083
#
# Coordination Sequence:
#
# PCOD8132906 Si02
#       7
#     8   4   8   8   8   8   8
#     4   9  18  32  51  77 108 135 166 205 259 324
#     4   8  20  36  56  68  88 140 196 214 222 300
#     4   9  18  32  51  76 106 137 163 202 264 327
#     4   9  18  35  54  68  98 140 181 210 244 302
#     4   9  18  35  54  66 101 139 180 209 250 303
#     4  10  19  30  50  86 108 128 162 214 272 316
#     4  10  19  30  50  84 108 128 159 212 277 320
#
# _framework density 17.213636000000001
#
# number of rings (size 3 to 8) (size 9 to 14) (size 15 to 20)
#    0.923    1.846    0.000    1.846    0.000    6.154 
#    0.000    2.308    0.000    0.000    0.000    0.000 
#    0.000    0.000    0.000    0.000    0.000    0.000 
#
# Total GULP energy -322150.317548 kJ/mol
# GULP energy per Si atom -12390.396829 kJ/mol
# Density = 1.717446 g / cm^3
# Si number density = 17.213636 Si / 1000 Ang^3
#
#
#
# Elastic Constant Matrix: (Units=GPa)
#
#
# Indices 1 2 3 4 5 6 
#
# 1 77.8780 16.2838 45.8255 0.0000 10.2052 0.0000
# 2 16.2838 44.5472 24.1691 0.0000 0.9663 0.0000
# 3 45.8255 24.1691 111.3513 0.0000 8.4951 0.0000
# 4 0.0000 0.0000 0.0000 27.9154 0.0000 2.0200
# 5 10.2052 0.9663 8.4951 0.0000 19.3118 0.0000
# 6 0.0000 0.0000 0.0000 2.0200 0.0000 17.0984
#
#
#
# Elastic Compliance Matrix: (Units=1/GPa)
#
#
# Indices 1 2 3 4 5 6 
#
# 1 0.018025 -0.003054 -0.006250 0.000000 -0.006623 0.000000
# 2 -0.003054 0.025989 -0.004561 0.000000 0.002320 0.000000
# 3 -0.006250 -0.004561 0.012699 0.000000 -0.002056 0.000000
# 4 0.000000 0.000000 0.000000 0.036131 0.000000 -0.004269
# 5 -0.006623 0.002320 -0.002056 0.000000 0.056070 0.000000
# 6 0.000000 0.000000 0.000000 -0.004269 0.000000 0.058989
#
#
# Mechanical properties :
#
#
# Convention : Reuss Voigt Hill
#
# Bulk Modulus (GPa) = 34.50304 45.14812 39.82558
# Shear Modulus (GPa) = 20.38370 22.69831 21.54101
#
# Velocity S-wave (km/s) = 3.44490 3.63523 3.54134
# Velocity P-wave (km/s) = 5.99255 6.62608 6.31726
#
# Compressibility (1/GPa) = 0.02898295
#
# Stress axis : x y z
#
# Youngs Moduli (GPa) = 55.47989 38.47815 78.74427
#
# Poissons Ratio (x) = 0.11752 0.49212
# Poissons Ratio (y) = 0.16945 0.35915
# Poissons Ratio (z) = 0.34673 0.17550
#
# Static dielectric constant tensor:
#      x y z
#    x 3.304790 0.000000 0.017380 
#    y 0.000000 3.138050 0.000000 
#    z 0.017380 0.000000 2.964190 
# 
# 
# High freq. dielectric constant tensor:
#      x y z
#    x 1.662270 0.000000 0.003260 
#    y 0.000000 1.656260 0.000000 
#    z 0.003260 0.000000 1.636760 
# 
# From -- ./inp_files/307660.got.cif
#   From: 2010.06.25/outbox.cif.g09.slc.cpg/sg15_154_cif.got.tgz:307660.got - 2010.06.28 07:06:18.
