data_PCOD8132194
_publ_section_title
;
Structure prediction by ZEFSAII (Michael W. Deem and Ramdas Pophale) SiO2 
 PCOD8132194
Probable space group: C 2/C
;
_chemical_formula_sum "Si O2"
_cell_formula_units_Z 44
_cell_length_a 16.247364
_cell_length_b 22.056788
_cell_length_c 5.103434
_cell_angle_alpha 90.000000
_cell_angle_beta 112.925910
_cell_angle_gamma 90.000000
_cell_volume 1684.425154
_symmetry_space_group_name_H-M "C 2/C"
_symmetry_group_IT_number 15
_symmetry_cell_setting 'monoclinic'
loop_
_space_group_symop_operation_xyz
x,y,z
-x,y,1/2-z
-x,-y,-z
x,-y,1/2+z
1/2+x,1/2+y,z
1/2-x,1/2+y,1/2-z
1/2-x,1/2-y,-z
1/2+x,1/2-y,1/2+z
loop_
_atom_site_type_symbol
_atom_site_label
_atom_site_fract_x
_atom_site_fract_y
_atom_site_fract_z
Si Si1 0.667576 0.560292 0.240815
Si Si2 0.500000 0.427507 0.250000
Si Si3 0.329337 0.030666 0.733664
Si Si4 0.380152 0.659906 0.945646
Si Si5 0.444878 0.209144 0.447631
Si Si6 0.708548 0.869001 0.965355
O O1 0.716892 0.524752 0.547928
O O2 0.638717 0.628184 0.298421
O O3 0.750737 0.573721 0.144559
O O4 0.576025 0.531395 0.998645
O O5 0.553630 0.385157 0.119654
O O6 0.371806 0.015020 0.505301
O O7 0.345258 0.099133 0.856923
O O8 0.422244 0.725277 0.039297
O O9 0.288474 0.671911 0.673654
O O10 0.500000 0.215158 0.250000
O O11 0.355676 0.171057 0.290411
O O12 0.500000 0.176515 0.750000
#
# Coordination Sequence:
#
# PCOD8132194 Si02
#       6
#     8   4   8   8   8   8
#     4  10  21  37  66  96 128 173 221 260 318 383
#     4  10  18  36  58  94 134 178 208 258 308 378
#     4  11  22  42  69  93 123 167 220 271 331 385
#     4  10  21  39  64  91 139 179 219 243 315 385
#     4  12  27  42  65  99 139 171 214 267 320 376
#     4  10  24  42  69  96 129 173 218 267 317 392
#
# _framework density 26.121672
#
# number of rings (size 3 to 8) (size 9 to 14) (size 15 to 20)
#    0.000    1.455    2.727    2.182    7.636    0.727 
#    0.000    0.909    0.000    3.273    0.000    0.000 
#    0.000    0.000    0.000    0.000    0.000    0.000 
#
# Total GULP energy -272582.375962 kJ/mol
# GULP energy per Si atom -12390.107998 kJ/mol
# Density = 2.606222 g / cm^3
# Si number density = 26.121672 Si / 1000 Ang^3
#
#
#
# Elastic Constant Matrix: (Units=GPa)
#
#
# Indices 1 2 3 4 5 6 
#
# 1 43.2363 5.4463 15.9626 0.0000 1.6928 0.0000
# 2 5.4463 47.0676 20.2504 0.0000 3.1942 0.0000
# 3 15.9626 20.2504 150.2386 0.0000 -0.0691 0.0000
# 4 0.0000 0.0000 0.0000 37.6150 0.0000 -0.9744
# 5 1.6928 3.1942 -0.0691 0.0000 40.9633 0.0000
# 6 0.0000 0.0000 0.0000 -0.9744 0.0000 6.9782
#
#
#
# Elastic Compliance Matrix: (Units=1/GPa)
#
#
# Indices 1 2 3 4 5 6 
#
# 1 0.024247 -0.001739 -0.002342 0.000000 -0.000870 0.000000
# 2 -0.001739 0.022807 -0.002890 0.000000 -0.001711 0.000000
# 3 -0.002342 -0.002890 0.007295 0.000000 0.000334 0.000000
# 4 0.000000 0.000000 0.000000 0.026682 0.000000 0.003726
# 5 -0.000870 -0.001711 0.000334 0.000000 0.024582 0.000000
# 6 0.000000 0.000000 0.000000 0.003726 0.000000 0.143824
#
#
# Mechanical properties :
#
#
# Convention : Reuss Voigt Hill
#
# Bulk Modulus (GPa) = 24.74897 35.98456 30.36677
# Shear Modulus (GPa) = 18.06054 30.37017 24.21535
#
# Velocity S-wave (km/s) = 2.63230 3.41345 3.04801
# Velocity P-wave (km/s) = 4.32825 5.41675 4.90280
#
# Compressibility (1/GPa) = 0.04040572
#
# Stress axis : x y z
#
# Youngs Moduli (GPa) = 41.24299 43.84646 137.08693
#
# Poissons Ratio (x) = 0.07624 0.32108
# Poissons Ratio (y) = 0.07172 0.39620
# Poissons Ratio (z) = 0.09660 0.12672
#
# Static dielectric constant tensor:
#      x y z
#    x 4.461820 0.000000 -0.049940 
#    y 0.000000 4.389220 0.000000 
#    z -0.049940 0.000000 5.220740 
# 
# 
# High freq. dielectric constant tensor:
#      x y z
#    x 2.011310 0.000000 -0.002500 
#    y 0.000000 2.036970 0.000000 
#    z -0.002500 0.000000 2.080090 
# 
# From -- ./inp_files/10954.got.cif
#   From: 2010.06.25/outbox.cif.g09.slc.cpg/sg15_6_cif.got.tgz:10954.got - 2010.06.28 07:06:18.
