data_PCOD8132419
_publ_section_title
;
Structure prediction by ZEFSAII (Michael W. Deem and Ramdas Pophale) SiO2 
 PCOD8132419
Probable space group: C 2/C
;
_chemical_formula_sum "Si O2"
_cell_formula_units_Z 56
_cell_length_a 18.306296
_cell_length_b 8.773613
_cell_length_c 26.003271
_cell_angle_alpha 90.000000
_cell_angle_beta 41.364949
_cell_angle_gamma 90.000000
_cell_volume 2760.016691
_symmetry_space_group_name_H-M "C 2/C"
_symmetry_group_IT_number 15
_symmetry_cell_setting 'monoclinic'
loop_
_space_group_symop_operation_xyz
x,y,z
-x,y,1/2-z
-x,-y,-z
x,-y,1/2+z
1/2+x,1/2+y,z
1/2-x,1/2+y,1/2-z
1/2-x,1/2-y,-z
1/2+x,1/2-y,1/2+z
loop_
_atom_site_type_symbol
_atom_site_label
_atom_site_fract_x
_atom_site_fract_y
_atom_site_fract_z
Si Si1 0.317058 0.399016 0.476655
Si Si2 0.786091 0.951105 0.159901
Si Si3 0.103456 0.229774 0.227432
Si Si4 0.730632 0.048195 0.429686
Si Si5 0.959814 0.020483 0.145356
Si Si6 0.552220 0.717637 0.002970
Si Si7 0.680398 0.720377 0.418634
O O1 0.250000 0.250000 0.500000
O O2 0.259995 0.537659 0.475186
O O3 0.447294 0.391673 0.391539
O O4 0.309166 0.409228 0.542297
O O5 0.669604 0.863234 0.222469
O O6 0.846954 0.943756 0.183336
O O7 0.764772 0.131239 0.158677
O O8 0.869708 0.886172 0.073259
O O9 0.180938 0.152477 0.144749
O O10 0.065312 0.107484 0.289055
O O11 0.000000 0.297917 0.250000
O O12 0.610617 0.123812 0.487800
O O13 0.739583 0.879487 0.399970
O O14 0.016240 0.131969 0.073763
O O15 0.446901 0.760886 0.024510
#
# Coordination Sequence:
#
# PCOD8132419 Si02
#       7
#     8   8   8   8   8   8   8
#     4  10  19  33  58  90 116 149 193 247 302 348
#     4  10  21  38  63  82 114 156 198 242 291 360
#     4  11  24  40  59  85 121 162 199 241 301 356
#     4  10  22  35  58  88 120 150 191 244 297 355
#     4  11  20  38  62  83 120 157 197 245 302 351
#     4  10  19  35  61  89 108 148 195 247 291 346
#     4  10  18  37  61  86 113 146 196 245 298 344
#
# _framework density 20.289732000000001
#
# number of rings (size 3 to 8) (size 9 to 14) (size 15 to 20)
#    0.000    1.714    4.286    1.286    0.000    4.000 
#    0.000    0.714   12.571    0.000    0.000    0.000 
#    0.000    0.000    0.000    0.000    0.000    0.000 
#
# Total GULP energy -346939.149994 kJ/mol
# GULP energy per Si atom -12390.683928 kJ/mol
# Density = 2.024355 g / cm^3
# Si number density = 20.289732 Si / 1000 Ang^3
#
#
#
# Elastic Constant Matrix: (Units=GPa)
#
#
# Indices 1 2 3 4 5 6 
#
# 1 153.8989 43.9054 26.3557 0.0001 -20.8425 0.0000
# 2 43.9054 75.2193 16.4633 0.0003 -18.7207 -0.0006
# 3 26.3557 16.4633 46.5967 0.0000 -10.4349 0.0000
# 4 0.0001 0.0003 0.0000 26.4700 0.0000 -11.4609
# 5 -20.8425 -18.7207 -10.4349 0.0000 29.0211 0.0000
# 6 0.0000 -0.0006 0.0000 -11.4609 0.0000 33.7619
#
#
#
# Elastic Compliance Matrix: (Units=1/GPa)
#
#
# Indices 1 2 3 4 5 6 
#
# 1 0.008376 -0.003598 -0.002870 0.000000 0.002663 0.000000
# 2 -0.003598 0.017957 -0.002495 0.000000 0.008102 0.000000
# 3 -0.002870 -0.002495 0.025170 0.000000 0.005380 0.000000
# 4 0.000000 0.000000 0.000000 0.044288 0.000000 0.015034
# 5 0.002663 0.008102 0.005380 0.000000 0.043531 0.000000
# 6 0.000000 0.000000 0.000000 0.015034 0.000000 0.034723
#
#
# Mechanical properties :
#
#
# Convention : Reuss Voigt Hill
#
# Bulk Modulus (GPa) = 29.78203 49.90707 39.84455
# Shear Modulus (GPa) = 24.61049 30.44997 27.53023
#
# Velocity S-wave (km/s) = 3.48653 3.87816 3.68755
# Velocity P-wave (km/s) = 5.56040 6.68612 6.14907
#
# Compressibility (1/GPa) = 0.03357729
#
# Stress axis : x y z
#
# Youngs Moduli (GPa) = 119.38177 55.68710 39.72926
#
# Poissons Ratio (x) = 0.20039 0.11403
# Poissons Ratio (y) = 0.42959 0.09912
# Poissons Ratio (z) = 0.34265 0.13893
#
# Static dielectric constant tensor:
#      x y z
#    x 4.604180 0.000000 -0.020060 
#    y 0.000000 3.628930 0.000000 
#    z -0.020060 0.000000 3.470730 
# 
# 
# High freq. dielectric constant tensor:
#      x y z
#    x 1.824870 0.000000 -0.003590 
#    y 0.000000 1.777580 0.000000 
#    z -0.003590 0.000000 1.760610 
# 
# From -- ./inp_files/247010.got.cif
#   From: 2010.06.25/outbox.cif.g09.slc.cpg/sg15_124_cif.got.tgz:247010.got - 2010.06.28 07:06:18.
