data_PCOD8132535
_publ_section_title
;
Structure prediction by ZEFSAII (Michael W. Deem and Ramdas Pophale) SiO2 
 PCOD8132535
Probable space group: C 2/C
;
_chemical_formula_sum "Si O2"
_cell_formula_units_Z 36
_cell_length_a 20.448622
_cell_length_b 14.416009
_cell_length_c 5.296781
_cell_angle_alpha 90.000000
_cell_angle_beta 93.874619
_cell_angle_gamma 90.000000
_cell_volume 1557.855996
_symmetry_space_group_name_H-M "C 2/C"
_symmetry_group_IT_number 15
_symmetry_cell_setting 'monoclinic'
loop_
_space_group_symop_operation_xyz
x,y,z
-x,y,1/2-z
-x,-y,-z
x,-y,1/2+z
1/2+x,1/2+y,z
1/2-x,1/2+y,1/2-z
1/2-x,1/2-y,-z
1/2+x,1/2-y,1/2+z
loop_
_atom_site_type_symbol
_atom_site_label
_atom_site_fract_x
_atom_site_fract_y
_atom_site_fract_z
Si Si1 0.812761 0.398603 0.931917
Si Si2 0.242433 0.605396 0.582615
Si Si3 0.036390 0.626966 0.015156
Si Si4 0.888753 0.940040 0.108971
Si Si5 0.000000 0.804409 0.250000
O O1 0.779072 0.498597 0.895856
O O2 0.792628 0.345290 0.667360
O O3 0.890122 0.410239 0.978573
O O4 0.783021 0.344802 0.167299
O O5 0.320167 0.613800 0.574959
O O6 0.000000 0.580657 0.250000
O O7 0.035293 0.739009 0.049395
O O8 0.000000 0.597558 0.750000
O O9 0.946301 0.865860 0.093563
O O10 0.895484 0.988216 0.382421
#
# Coordination Sequence:
#
# PCOD8132535 Si02
#       5
#     8   8   8   8   4
#     4  10  18  38  61  87 124 154 198 250 298 352
#     4  10  19  36  62  92 119 148 201 258 301 344
#     4  10  23  42  59  84 127 165 204 237 292 368
#     4  12  22  41  65  95 120 150 203 255 307 351
#     4  10  28  40  64  86 126 166 200 242 298 362
#
# _framework density 23.108684
#
# number of rings (size 3 to 8) (size 9 to 14) (size 15 to 20)
#    0.667    0.889    4.444    2.000    3.111    0.000 
#    0.000   15.556    0.000    0.000    0.000    0.000 
#    0.000    0.000    0.000    0.000    0.000    0.000 
#
# Total GULP energy -223127.876843 kJ/mol
# GULP energy per Si atom -12395.993158 kJ/mol
# Density = 2.305609 g / cm^3
# Si number density = 23.108684 Si / 1000 Ang^3
#
#
#
# Elastic Constant Matrix: (Units=GPa)
#
#
# Indices 1 2 3 4 5 6 
#
# 1 134.4635 20.1347 32.8917 0.0000 27.2157 0.0000
# 2 20.1347 26.4294 4.0754 0.0000 2.8830 0.0000
# 3 32.8917 4.0754 197.2587 0.0000 1.1308 0.0000
# 4 0.0000 0.0000 0.0000 34.8844 0.0000 -5.3661
# 5 27.2157 2.8830 1.1308 0.0000 45.9318 0.0000
# 6 0.0000 0.0000 0.0000 -5.3661 0.0000 13.4921
#
#
#
# Elastic Compliance Matrix: (Units=1/GPa)
#
#
# Indices 1 2 3 4 5 6 
#
# 1 0.009901 -0.006724 -0.001481 0.000000 -0.005408 0.000000
# 2 -0.006724 0.042783 0.000230 0.000000 0.001293 0.000000
# 3 -0.001481 0.000230 0.005307 0.000000 0.000732 0.000000
# 4 0.000000 0.000000 0.000000 0.030534 0.000000 0.012144
# 5 -0.005408 0.001293 0.000732 0.000000 0.024876 0.000000
# 6 0.000000 0.000000 0.000000 0.012144 0.000000 0.078948
#
#
# Mechanical properties :
#
#
# Convention : Reuss Voigt Hill
#
# Bulk Modulus (GPa) = 23.78668 52.48391 38.13529
# Shear Modulus (GPa) = 22.49073 38.93166 30.71119
#
# Velocity S-wave (km/s) = 3.12309 4.10899 3.64949
# Velocity P-wave (km/s) = 4.82915 6.72850 5.85634
#
# Compressibility (1/GPa) = 0.04204034
#
# Stress axis : x y z
#
# Youngs Moduli (GPa) = 101.00290 23.37379 188.41345
#
# Poissons Ratio (x) = 0.15717 0.27903
# Poissons Ratio (y) = 0.67918 -0.04332
# Poissons Ratio (z) = 0.14958 -0.00537
#
# Static dielectric constant tensor:
#      x y z
#    x 4.153400 0.000000 -0.319640 
#    y 0.000000 3.580400 0.000000 
#    z -0.319640 0.000000 5.941620 
# 
# 
# High freq. dielectric constant tensor:
#      x y z
#    x 1.920570 0.000000 0.002100 
#    y 0.000000 1.869260 0.000000 
#    z 0.002100 0.000000 1.940560 
# 
# From -- ./inp_files/9725.got.cif
#   From: 2010.06.25/outbox.cif.g09.slc.cpg/sg15_5_cif.got.tgz:9725.got - 2010.06.28 07:06:18.
