data_PCOD8132897
_publ_section_title
;
Structure prediction by ZEFSAII (Michael W. Deem and Ramdas Pophale) SiO2 
 PCOD8132897
Probable space group: C 2/C
;
_chemical_formula_sum "Si O2"
_cell_formula_units_Z 44
_cell_length_a 13.786381
_cell_length_b 23.434933
_cell_length_c 13.007308
_cell_angle_alpha 90.000000
_cell_angle_beta 32.098808
_cell_angle_gamma 90.000000
_cell_volume 2233.096044
_symmetry_space_group_name_H-M "C 2/C"
_symmetry_group_IT_number 15
_symmetry_cell_setting 'monoclinic'
loop_
_space_group_symop_operation_xyz
x,y,z
-x,y,1/2-z
-x,-y,-z
x,-y,1/2+z
1/2+x,1/2+y,z
1/2-x,1/2+y,1/2-z
1/2-x,1/2-y,-z
1/2+x,1/2-y,1/2+z
loop_
_atom_site_type_symbol
_atom_site_label
_atom_site_fract_x
_atom_site_fract_y
_atom_site_fract_z
Si Si1 0.070175 0.573282 0.485031
Si Si2 0.000000 0.499742 0.250000
Si Si3 0.227125 0.686477 0.416366
Si Si4 0.821023 0.033118 0.081005
Si Si5 0.827089 0.080114 0.676178
Si Si6 0.362157 0.311236 0.013875
O O1 0.059099 0.538734 0.600937
O O2 0.095490 0.639417 0.487556
O O3 0.234327 0.551890 0.267613
O O4 0.876274 0.565846 0.597655
O O5 0.826935 0.540307 0.377064
O O6 0.433676 0.674282 0.200765
O O7 0.218215 0.683911 0.548764
O O8 0.154169 0.745880 0.433978
O O9 0.872194 0.965651 0.044188
O O10 0.004787 0.070868 0.893824
O O11 0.813074 0.144404 0.647227
#
# Coordination Sequence:
#
# PCOD8132897 Si02
#       6
#     8   4   8   8   8   8
#     4  11  20  36  53  77 111 141 175 219 265 315
#     4  10  20  34  56  76 106 146 176 222 268 306
#     4  10  19  30  49  74 109 143 173 211 261 317
#     4  10  21  36  52  77 107 141 180 220 263 316
#     4  10  19  34  51  73 106 139 177 217 256 312
#     4  10  19  31  47  76 108 142 177 210 256 322
#
# _framework density 19.703586999999999
#
# number of rings (size 3 to 8) (size 9 to 14) (size 15 to 20)
#    0.000    1.818    1.818    5.455    0.000    2.909 
#    0.000    6.364    0.000    0.000    0.000    1.273 
#    0.000    0.000    0.000    0.000    0.000    0.000 
#
# Total GULP energy -272620.485808 kJ/mol
# GULP energy per Si atom -12391.840264 kJ/mol
# Density = 1.965874 g / cm^3
# Si number density = 19.703587 Si / 1000 Ang^3
#
#
#
# Elastic Constant Matrix: (Units=GPa)
#
#
# Indices 1 2 3 4 5 6 
#
# 1 87.0539 37.8134 36.1397 0.0016 -33.6777 -0.0031
# 2 37.8134 103.4843 5.9752 -0.0014 -11.8816 -0.0036
# 3 36.1397 5.9752 67.7519 0.0029 -26.1465 -0.0198
# 4 0.0016 -0.0014 0.0029 26.1685 -0.0059 -11.1083
# 5 -33.6777 -11.8816 -26.1465 -0.0059 36.8916 0.0071
# 6 -0.0031 -0.0036 -0.0198 -11.1083 0.0071 24.0081
#
#
#
# Elastic Compliance Matrix: (Units=1/GPa)
#
#
# Indices 1 2 3 4 5 6 
#
# 1 0.021925 -0.006074 -0.005768 -0.000001 0.013970 -0.000007
# 2 -0.006074 0.011729 0.002097 0.000002 -0.000281 0.000004
# 3 -0.005768 0.002097 0.021859 0.000008 0.010902 0.000018
# 4 -0.000001 0.000002 0.000008 0.047554 0.000009 0.022003
# 5 0.013970 -0.000281 0.010902 0.000009 0.047496 0.000001
# 6 -0.000007 0.000004 0.000018 0.022003 0.000001 0.051833
#
#
# Mechanical properties :
#
#
# Convention : Reuss Voigt Hill
#
# Bulk Modulus (GPa) = 27.75994 46.46075 37.11034
# Shear Modulus (GPa) = 21.37728 29.30444 25.34086
#
# Velocity S-wave (km/s) = 3.29742 3.86069 3.59012
# Velocity P-wave (km/s) = 5.34946 6.59578 6.00504
#
# Compressibility (1/GPa) = 0.03602314
#
# Stress axis : x y z
#
# Youngs Moduli (GPa) = 45.61070 85.25518 45.74836
#
# Poissons Ratio (x) = 0.51786 0.26387
# Poissons Ratio (y) = 0.27705 -0.09594
# Poissons Ratio (z) = 0.26307 -0.17880
#
# Static dielectric constant tensor:
#      x y z
#    x 3.501740 -0.000010 -0.511030 
#    y -0.000010 3.653770 0.000010 
#    z -0.511030 0.000010 3.676730 
# 
# 
# High freq. dielectric constant tensor:
#      x y z
#    x 1.725460 0.000000 -0.045100 
#    y 0.000000 1.764130 0.000000 
#    z -0.045100 0.000000 1.775400 
# 
# From -- ./inp_files/63890.got.cif
#   From: 2010.06.25/outbox.cif.g09.slc.cpg/sg15_32_cif.got.tgz:63890.got - 2010.06.28 07:06:18.
