data_PCOD8132635
_publ_section_title
;
Structure prediction by ZEFSAII (Michael W. Deem and Ramdas Pophale) SiO2 
 PCOD8132635
Probable space group: C 2/C
;
_chemical_formula_sum "Si O2"
_cell_formula_units_Z 60
_cell_length_a 11.534774
_cell_length_b 14.590105
_cell_length_c 23.909606
_cell_angle_alpha 90.000000
_cell_angle_beta 48.546496
_cell_angle_gamma 90.000000
_cell_volume 3015.835307
_symmetry_space_group_name_H-M "C 2/C"
_symmetry_group_IT_number 15
_symmetry_cell_setting 'monoclinic'
loop_
_space_group_symop_operation_xyz
x,y,z
-x,y,1/2-z
-x,-y,-z
x,-y,1/2+z
1/2+x,1/2+y,z
1/2-x,1/2+y,1/2-z
1/2-x,1/2-y,-z
1/2+x,1/2-y,1/2+z
loop_
_atom_site_type_symbol
_atom_site_label
_atom_site_fract_x
_atom_site_fract_y
_atom_site_fract_z
Si Si1 0.000000 0.946639 0.750000
Si Si2 0.279107 0.297220 0.932184
Si Si3 0.615056 0.507263 0.411324
Si Si4 0.326453 0.826796 0.823681
Si Si5 0.877529 0.792109 0.717609
Si Si6 0.320676 0.309837 0.136611
Si Si7 0.157561 0.801420 0.076935
Si Si8 0.860848 0.996282 0.902465
O O1 0.121878 0.885042 0.746009
O O2 0.094718 0.009483 0.676888
O O3 0.451391 0.270780 0.858376
O O4 0.164714 0.257183 0.921740
O O5 0.250605 0.407336 0.945511
O O6 0.250000 0.250000 0.000000
O O7 0.500000 0.500000 0.500000
O O8 0.742438 0.586156 0.379193
O O9 0.706568 0.412358 0.376522
O O10 0.515605 0.527857 0.387763
O O11 0.500000 0.852725 0.750000
O O12 0.238642 0.796259 0.796521
O O13 0.317680 0.743800 0.870607
O O14 0.822130 0.712457 0.777156
O O15 0.476808 0.299934 0.121817
O O16 0.217365 0.907555 0.055639
O O17 0.250000 0.750000 0.000000
#
# Coordination Sequence:
#
# PCOD8132635 Si02
#       8
#     4   8   8   8   8   8   8   8
#     4  10  18  38  72  88 120 162 228 256 314 392
#     4  11  22  38  71  96 126 166 229 270 320 392
#     4  11  23  41  67  93 130 174 220 262 330 397
#     4  12  24  41  65  99 132 171 221 269 326 402
#     4  11  21  41  63  97 129 164 206 279 330 372
#     4  11  22  41  67  94 127 171 215 272 330 381
#     4  11  26  42  64  92 139 175 216 268 333 399
#     4  10  21  40  67  92 121 177 218 256 330 389
#
# _framework density 19.894985999999999
#
# number of rings (size 3 to 8) (size 9 to 14) (size 15 to 20)
#    0.000    1.067    6.667    2.400    2.800    1.067 
#    0.000    0.667    2.933    0.000    0.000    0.000 
#    0.000    0.000    0.000    0.000    0.000    0.000 
#
# Total GULP energy -371968.433367 kJ/mol
# GULP energy per Si atom -12398.947779 kJ/mol
# Density = 1.984970 g / cm^3
# Si number density = 19.894986 Si / 1000 Ang^3
#
#
#
# Elastic Constant Matrix: (Units=GPa)
#
#
# Indices 1 2 3 4 5 6 
#
# 1 91.5789 37.4911 17.2074 0.0000 25.7825 0.0000
# 2 37.4911 162.1060 46.7227 0.0000 11.6221 0.0000
# 3 17.2074 46.7227 116.9217 -0.0001 20.1147 0.0000
# 4 0.0000 0.0000 -0.0001 38.2840 0.0000 4.1141
# 5 25.7825 11.6221 20.1147 0.0000 32.7616 0.0000
# 6 0.0000 0.0000 0.0000 4.1141 0.0000 30.1676
#
#
#
# Elastic Compliance Matrix: (Units=1/GPa)
#
#
# Indices 1 2 3 4 5 6 
#
# 1 0.015184 -0.002954 0.000918 0.000000 -0.011466 0.000000
# 2 -0.002954 0.007568 -0.002826 0.000000 0.001375 0.000000
# 3 0.000918 -0.002826 0.010621 0.000000 -0.006241 0.000000
# 4 0.000000 0.000000 0.000000 0.026509 0.000000 -0.003615
# 5 -0.011466 0.001375 -0.006241 0.000000 0.042891 0.000000
# 6 0.000000 0.000000 0.000000 -0.003615 0.000000 0.033641
#
#
# Mechanical properties :
#
#
# Convention : Reuss Voigt Hill
#
# Bulk Modulus (GPa) = 42.28550 63.71656 53.00103
# Shear Modulus (GPa) = 32.46314 38.18833 35.32573
#
# Velocity S-wave (km/s) = 4.04384 4.38596 4.21837
# Velocity P-wave (km/s) = 6.56537 7.59900 7.10102
#
# Compressibility (1/GPa) = 0.02364877
#
# Stress axis : x y z
#
# Youngs Moduli (GPa) = 65.85687 132.13489 94.15713
#
# Poissons Ratio (x) = 0.39039 -0.08648
# Poissons Ratio (y) = 0.19457 0.26609
# Poissons Ratio (z) = -0.06048 0.37342
#
# Static dielectric constant tensor:
#      x y z
#    x 4.767490 0.000010 0.033230 
#    y 0.000010 3.807490 0.000000 
#    z 0.033230 0.000000 3.788180 
# 
# 
# High freq. dielectric constant tensor:
#      x y z
#    x 1.773220 0.000000 0.025660 
#    y 0.000000 1.778700 0.000000 
#    z 0.025660 0.000000 1.781360 
# 
# From -- ./inp_files/269930.got.cif
#   From: 2010.06.25/outbox.cif.g09.slc.cpg/sg15_135_cif.got.tgz:269930.got - 2010.06.28 07:06:18.
