data_PCOD8132675
_publ_section_title
;
Structure prediction by ZEFSAII (Michael W. Deem and Ramdas Pophale) SiO2 
 PCOD8132675
Probable space group: C 2/C
;
_chemical_formula_sum "Si O2"
_cell_formula_units_Z 64
_cell_length_a 8.447755
_cell_length_b 24.322238
_cell_length_c 15.158835
_cell_angle_alpha 90.000000
_cell_angle_beta 71.631949
_cell_angle_gamma 90.000000
_cell_volume 2955.974077
_symmetry_space_group_name_H-M "C 2/C"
_symmetry_group_IT_number 15
_symmetry_cell_setting 'monoclinic'
loop_
_space_group_symop_operation_xyz
x,y,z
-x,y,1/2-z
-x,-y,-z
x,-y,1/2+z
1/2+x,1/2+y,z
1/2-x,1/2+y,1/2-z
1/2-x,1/2-y,-z
1/2+x,1/2-y,1/2+z
loop_
_atom_site_type_symbol
_atom_site_label
_atom_site_fract_x
_atom_site_fract_y
_atom_site_fract_z
Si Si1 0.979185 0.538570 0.155966
Si Si2 0.483739 0.237897 0.032488
Si Si3 0.480628 0.376801 0.651673
Si Si4 0.235603 0.830449 0.470848
Si Si5 0.457452 0.915029 0.354129
Si Si6 0.883102 0.991915 0.846553
Si Si7 0.296621 0.912838 0.034070
Si Si8 0.752362 0.818279 0.574968
O O1 0.783870 0.533611 0.167379
O O2 0.000000 0.564986 0.250000
O O3 0.073636 0.480080 0.139502
O O4 0.066241 0.574386 0.065459
O O5 0.349391 0.285613 0.080649
O O6 0.560398 0.204330 0.103450
O O7 0.404516 0.193803 0.980809
O O8 0.633974 0.264448 0.950413
O O9 0.500000 0.361782 0.750000
O O10 0.611667 0.341963 0.572757
O O11 0.510383 0.441837 0.629207
O O12 0.295984 0.356027 0.653018
O O13 0.284307 0.886130 0.412009
O O14 0.500000 0.893033 0.250000
O O15 0.611547 0.900896 0.390483
O O16 0.000000 0.018825 0.750000
O O17 0.836598 0.037719 0.927746
O O18 0.205193 0.857589 0.017592
#
# Coordination Sequence:
#
# PCOD8132675 Si02
#       8
#     8   8   8   8   8   8   8   8
#     4  10  22  38  63  94 129 168 213 253 306 385
#     4   9  20  38  63  86 120 153 207 262 321 364
#     4  10  22  38  60  90 125 159 208 254 310 377
#     4  10  18  39  68  87 114 166 197 258 318 380
#     4  10  20  38  63  94 122 160 209 249 301 382
#     4  10  22  39  56  91 134 161 211 261 299 375
#     4  11  21  39  65  90 127 178 203 252 319 379
#     4  10  21  39  62  87 121 162 202 264 315 369
#
# _framework density 21.651069
#
# number of rings (size 3 to 8) (size 9 to 14) (size 15 to 20)
#    0.000    2.000    1.250    3.000    3.500    0.500 
#   13.500    6.250    2.750    0.000    0.000    0.000 
#    0.000    0.000    0.000    0.000    0.000    0.000 
#
# Total GULP energy -396554.221247 kJ/mol
# GULP energy per Si atom -12392.319414 kJ/mol
# Density = 2.160179 g / cm^3
# Si number density = 21.651069 Si / 1000 Ang^3
#
#
#
# Elastic Constant Matrix: (Units=GPa)
#
#
# Indices 1 2 3 4 5 6 
#
# 1 103.2354 41.6357 39.4346 0.0000 10.6502 0.0000
# 2 41.6357 89.7839 33.9119 0.0000 4.4300 0.0000
# 3 39.4346 33.9119 108.9330 0.0000 9.4562 0.0000
# 4 0.0000 0.0000 0.0000 10.0998 0.0000 5.9877
# 5 10.6502 4.4300 9.4562 0.0000 37.5112 0.0000
# 6 0.0000 0.0000 0.0000 5.9877 0.0000 48.3330
#
#
#
# Elastic Compliance Matrix: (Units=1/GPa)
#
#
# Indices 1 2 3 4 5 6 
#
# 1 0.013010 -0.004777 -0.003017 0.000000 -0.002369 0.000000
# 2 -0.004777 0.014385 -0.002780 0.000000 0.000358 0.000000
# 3 -0.003017 -0.002780 0.011282 0.000000 -0.001659 0.000000
# 4 0.000000 0.000000 0.000000 0.106860 0.000000 -0.013238
# 5 -0.002369 0.000358 -0.001659 0.000000 0.027707 0.000000
# 6 0.000000 0.000000 0.000000 -0.013238 0.000000 0.022330
#
#
# Mechanical properties :
#
#
# Convention : Reuss Voigt Hill
#
# Bulk Modulus (GPa) = 57.04774 59.10185 58.07480
# Shear Modulus (GPa) = 22.46531 31.65348 27.05939
#
# Velocity S-wave (km/s) = 3.22469 3.82774 3.53908
# Velocity P-wave (km/s) = 6.34592 6.84778 6.60162
#
# Compressibility (1/GPa) = 0.01752918
#
# Stress axis : x y z
#
# Youngs Moduli (GPa) = 76.86427 69.51494 88.63942
#
# Poissons Ratio (x) = 0.33205 0.26743
# Poissons Ratio (y) = 0.36716 0.24644
# Poissons Ratio (z) = 0.23190 0.19327
#
# Static dielectric constant tensor:
#      x y z
#    x 4.180830 0.000000 0.176000 
#    y 0.000000 4.192750 0.000000 
#    z 0.176000 0.000000 3.689190 
# 
# 
# High freq. dielectric constant tensor:
#      x y z
#    x 1.859530 0.000000 0.007910 
#    y 0.000000 1.858660 0.000000 
#    z 0.007910 0.000000 1.811840 
# 
# From -- ./inp_files/138573.got.cif
#   From: 2010.06.25/outbox.cif.g09.slc.cpg/sg15_70_cif.got.tgz:138573.got - 2010.06.28 07:06:18.
