data_PCOD8132206
_publ_section_title
;
Structure prediction by ZEFSAII (Michael W. Deem and Ramdas Pophale) SiO2 
 PCOD8132206
Probable space group: C 2/C
;
_chemical_formula_sum "Si O2"
_cell_formula_units_Z 56
_cell_length_a 13.576060
_cell_length_b 12.041681
_cell_length_c 28.040819
_cell_angle_alpha 90.000000
_cell_angle_beta 141.541390
_cell_angle_gamma 90.000000
_cell_volume 2851.060424
_symmetry_space_group_name_H-M "C 2/C"
_symmetry_group_IT_number 15
_symmetry_cell_setting 'monoclinic'
loop_
_space_group_symop_operation_xyz
x,y,z
-x,y,1/2-z
-x,-y,-z
x,-y,1/2+z
1/2+x,1/2+y,z
1/2-x,1/2+y,1/2-z
1/2-x,1/2-y,-z
1/2+x,1/2-y,1/2+z
loop_
_atom_site_type_symbol
_atom_site_label
_atom_site_fract_x
_atom_site_fract_y
_atom_site_fract_z
Si Si1 0.774462 0.525951 0.405135
Si Si2 0.440179 0.482734 0.811329
Si Si3 0.943773 0.228137 0.804039
Si Si4 0.748121 0.723371 0.864756
Si Si5 0.520617 0.667688 0.425768
Si Si6 0.385881 0.922848 0.851618
Si Si7 0.355062 0.093569 0.542131
O O1 0.586526 0.553399 0.332637
O O2 0.805815 0.396795 0.404577
O O3 0.874018 0.597868 0.404180
O O4 0.840428 0.560558 0.481322
O O5 0.473064 0.609241 0.839956
O O6 0.424836 0.403448 0.850807
O O7 0.277628 0.485048 0.721176
O O8 0.813635 0.217368 0.713184
O O9 0.890248 0.307600 0.825965
O O10 0.110529 0.271945 0.846056
O O11 0.898893 0.808082 0.923168
O O12 0.565487 0.786885 0.420287
O O13 0.680705 0.600335 0.500972
O O14 0.534485 0.999776 0.891933
#
# Coordination Sequence:
#
# PCOD8132206 Si02
#       7
#     8   8   8   8   8   8   8
#     4  10  20  36  62  87 113 145 201 238 278 336
#     4  10  20  36  59  87 111 152 194 237 285 337
#     4  10  21  34  58  88 112 144 202 241 283 333
#     4  10  18  36  59  84 109 156 193 240 279 337
#     4  10  19  37  61  81 119 151 189 233 291 341
#     4  12  20  34  59  86 116 146 193 249 277 336
#     4  10  22  35  60  93 113 150 190 240 291 336
#
# _framework density 19.641812999999999
#
# number of rings (size 3 to 8) (size 9 to 14) (size 15 to 20)
#    0.000    1.714    4.286    0.857    0.000    0.000 
#    0.000    7.143    9.429    0.000    0.000    0.000 
#    0.000    0.000    0.000    0.000    0.000    0.000 
#
# Total GULP energy -346997.724248 kJ/mol
# GULP energy per Si atom -12392.775866 kJ/mol
# Density = 1.959711 g / cm^3
# Si number density = 19.641813 Si / 1000 Ang^3
#
#
#
# Elastic Constant Matrix: (Units=GPa)
#
#
# Indices 1 2 3 4 5 6 
#
# 1 104.7466 48.2187 28.0444 0.0000 14.3788 0.0000
# 2 48.2187 85.7521 29.7437 0.0000 -3.9064 0.0000
# 3 28.0444 29.7437 72.4512 0.0000 17.7315 0.0000
# 4 0.0000 0.0000 0.0000 27.9163 0.0000 0.6370
# 5 14.3788 -3.9064 17.7315 0.0000 24.4358 0.0000
# 6 0.0000 0.0000 0.0000 0.6370 0.0000 37.0691
#
#
#
# Elastic Compliance Matrix: (Units=1/GPa)
#
#
# Indices 1 2 3 4 5 6 
#
# 1 0.015096 -0.009169 0.000552 0.000000 -0.010749 0.000000
# 2 -0.009169 0.020425 -0.008458 0.000000 0.014798 0.000000
# 3 0.000552 -0.008458 0.021244 0.000000 -0.017092 0.000000
# 4 0.000000 0.000000 0.000000 0.035835 0.000000 -0.000616
# 5 -0.010749 0.014798 -0.017092 0.000000 0.062017 0.000000
# 6 0.000000 0.000000 0.000000 -0.000616 0.000000 0.026987
#
#
# Mechanical properties :
#
#
# Convention : Reuss Voigt Hill
#
# Bulk Modulus (GPa) = 44.21922 52.77370 48.49646
# Shear Modulus (GPa) = 22.39207 28.34711 25.36959
#
# Velocity S-wave (km/s) = 3.38008 3.80307 3.59780
# Velocity P-wave (km/s) = 6.14776 6.79786 6.48096
#
# Compressibility (1/GPa) = 0.02261460
#
# Stress axis : x y z
#
# Youngs Moduli (GPa) = 66.24413 48.95907 47.07200
#
# Poissons Ratio (x) = 0.44893 -0.02598
# Poissons Ratio (y) = 0.60742 0.39812
# Poissons Ratio (z) = -0.03656 0.41408
#
# Static dielectric constant tensor:
#      x y z
#    x 3.741210 0.000000 0.439740 
#    y 0.000000 3.436990 0.000000 
#    z 0.439740 0.000000 3.629060 
# 
# 
# High freq. dielectric constant tensor:
#      x y z
#    x 1.759060 0.000000 0.036110 
#    y 0.000000 1.748770 0.000000 
#    z 0.036110 0.000000 1.761290 
# 
# From -- ./inp_files/313456.got.cif
#   From: 2010.06.25/outbox.cif.g09.slc.cpg/sg15_157_cif.got.tgz:313456.got - 2010.06.28 07:06:18.
