data_PCOD8132331
_publ_section_title
;
Structure prediction by ZEFSAII (Michael W. Deem and Ramdas Pophale) SiO2 
 PCOD8132331
Probable space group: C 2/C
;
_chemical_formula_sum "Si O2"
_cell_formula_units_Z 44
_cell_length_a 24.610049
_cell_length_b 11.721178
_cell_length_c 9.695645
_cell_angle_alpha 90.000000
_cell_angle_beta 134.141669
_cell_angle_gamma 90.000000
_cell_volume 2007.035147
_symmetry_space_group_name_H-M "C 2/C"
_symmetry_group_IT_number 15
_symmetry_cell_setting 'monoclinic'
loop_
_space_group_symop_operation_xyz
x,y,z
-x,y,1/2-z
-x,-y,-z
x,-y,1/2+z
1/2+x,1/2+y,z
1/2-x,1/2+y,1/2-z
1/2-x,1/2-y,-z
1/2+x,1/2-y,1/2+z
loop_
_atom_site_type_symbol
_atom_site_label
_atom_site_fract_x
_atom_site_fract_y
_atom_site_fract_z
Si Si1 0.500000 0.441292 0.750000
Si Si2 0.719051 0.377590 0.083819
Si Si3 0.364408 0.250606 0.797031
Si Si4 0.883849 0.205614 0.874780
Si Si5 0.132655 0.096025 0.935607
Si Si6 0.497315 0.112957 0.583627
O O1 0.454928 0.366505 0.558933
O O2 0.559189 0.519640 0.773184
O O3 0.808562 0.355541 0.231072
O O4 0.686058 0.294134 0.143314
O O5 0.677396 0.345703 0.868112
O O6 0.702943 0.510347 0.093070
O O7 0.436920 0.200847 0.846214
O O8 0.386292 0.315799 0.975798
O O9 0.849061 0.162946 0.670577
O O10 0.915435 0.332388 0.907752
O O11 0.500000 0.083562 0.750000
O O12 0.500000 0.000000 0.500000
#
# Coordination Sequence:
#
# PCOD8132331 Si02
#       6
#     4   8   8   8   8   8
#     4  10  18  36  64  96 134 164 204 280 328 378
#     4  10  22  43  65  93 136 175 213 272 329 383
#     4  11  24  44  66  93 137 174 216 272 327 391
#     4  11  21  40  66  94 132 166 219 275 318 386
#     4  11  22  37  67 105 125 167 223 263 334 387
#     4  12  26  46  66  93 130 176 217 265 329 394
#
# _framework density 21.922882999999999
#
# number of rings (size 3 to 8) (size 9 to 14) (size 15 to 20)
#    0.000    1.091    2.727    4.909    2.545    2.182 
#    3.273    0.000    0.000    0.000    0.000    0.000 
#    0.000    0.000    0.000    0.000    0.000    0.000 
#
# Total GULP energy -272816.616895 kJ/mol
# GULP energy per Si atom -12400.755313 kJ/mol
# Density = 2.187299 g / cm^3
# Si number density = 21.922883 Si / 1000 Ang^3
#
#
#
# Elastic Constant Matrix: (Units=GPa)
#
#
# Indices 1 2 3 4 5 6 
#
# 1 111.5510 28.1606 36.2396 0.0000 -21.7218 0.0000
# 2 28.1606 88.6023 28.3760 0.0000 -13.4488 0.0000
# 3 36.2396 28.3760 62.6279 0.0000 -26.1500 0.0000
# 4 0.0000 0.0000 0.0000 17.2741 0.0000 -17.8823
# 5 -21.7218 -13.4488 -26.1500 0.0000 31.4344 0.0000
# 6 0.0000 0.0000 0.0000 -17.8823 0.0000 35.7149
#
#
#
# Elastic Compliance Matrix: (Units=1/GPa)
#
#
# Indices 1 2 3 4 5 6 
#
# 1 0.011521 -0.001710 -0.004402 0.000000 0.003567 0.000000
# 2 -0.001710 0.013478 -0.004907 0.000000 0.000502 0.000000
# 3 -0.004402 -0.004907 0.028486 0.000000 0.018556 0.000000
# 4 0.000000 0.000000 0.000000 0.120185 0.000000 0.060176
# 5 0.003567 0.000502 0.018556 0.000000 0.049928 0.000000
# 6 0.000000 0.000000 0.000000 0.060176 0.000000 0.058129
#
#
# Mechanical properties :
#
#
# Convention : Reuss Voigt Hill
#
# Bulk Modulus (GPa) = 31.80147 49.81483 40.80815
# Shear Modulus (GPa) = 15.91096 28.21834 22.06465
#
# Velocity S-wave (km/s) = 2.69693 3.59160 3.17593
# Velocity P-wave (km/s) = 4.92296 6.32230 5.66600
#
# Compressibility (1/GPa) = 0.03144509
#
# Stress axis : x y z
#
# Youngs Moduli (GPa) = 86.79731 74.19581 35.10507
#
# Poissons Ratio (x) = 0.12691 0.15454
# Poissons Ratio (y) = 0.14846 0.17227
# Poissons Ratio (z) = 0.38209 0.36410
#
# Static dielectric constant tensor:
#      x y z
#    x 4.164410 0.000000 -0.005670 
#    y 0.000000 3.984950 0.000000 
#    z -0.005670 0.000000 3.771830 
# 
# 
# High freq. dielectric constant tensor:
#      x y z
#    x 1.876490 0.000000 -0.014610 
#    y 0.000000 1.854520 0.000000 
#    z -0.014610 0.000000 1.847750 
# 
# From -- ./inp_files/60930.got.cif
#   From: 2010.06.25/outbox.cif.g09.slc.cpg/sg15_31_cif.got.tgz:60930.got - 2010.06.28 07:06:18.
