data_PCOD8132630
_publ_section_title
;
Structure prediction by ZEFSAII (Michael W. Deem and Ramdas Pophale) SiO2 
 PCOD8132630
Probable space group: C 2/C
;
_chemical_formula_sum "Si O2"
_cell_formula_units_Z 56
_cell_length_a 16.727446
_cell_length_b 9.872757
_cell_length_c 16.989256
_cell_angle_alpha 90.000000
_cell_angle_beta 101.276369
_cell_angle_gamma 90.000000
_cell_volume 2751.544741
_symmetry_space_group_name_H-M "C 2/C"
_symmetry_group_IT_number 15
_symmetry_cell_setting 'monoclinic'
loop_
_space_group_symop_operation_xyz
x,y,z
-x,y,1/2-z
-x,-y,-z
x,-y,1/2+z
1/2+x,1/2+y,z
1/2-x,1/2+y,1/2-z
1/2-x,1/2-y,-z
1/2+x,1/2-y,1/2+z
loop_
_atom_site_type_symbol
_atom_site_label
_atom_site_fract_x
_atom_site_fract_y
_atom_site_fract_z
Si Si1 0.674945 0.949051 0.023931
Si Si2 0.428191 0.985703 0.140397
Si Si3 0.078883 0.357625 0.601236
Si Si4 0.409648 0.240069 0.235228
Si Si5 0.036676 0.823228 0.839084
Si Si6 0.551222 0.712639 0.022045
Si Si7 0.640362 0.436521 0.406591
O O1 0.657394 0.067269 0.082913
O O2 0.626931 0.815024 0.040715
O O3 0.770962 0.927599 0.038456
O O4 0.646705 0.996708 0.933086
O O5 0.513002 0.032674 0.118219
O O6 0.408688 0.081577 0.210612
O O7 0.434479 0.830867 0.167821
O O8 0.114527 0.259690 0.677071
O O9 0.034455 0.276511 0.522909
O O10 0.500000 0.302021 0.250000
O O11 0.356425 0.331004 0.166246
O O12 0.000000 0.876355 0.750000
O O13 0.967903 0.841812 0.894065
O O14 0.116175 0.914362 0.872637
O O15 0.575355 0.600028 0.962293
#
# Coordination Sequence:
#
# PCOD8132630 Si02
#       7
#     8   8   8   8   8   8   8
#     4  11  21  40  66  96 127 160 220 263 308 374
#     4  10  19  38  65  90 116 174 222 255 295 380
#     4  10  18  38  69  88 119 169 227 248 292 386
#     4  10  19  37  66  90 121 170 223 252 301 380
#     4  12  25  41  65  94 132 161 214 265 317 371
#     4  11  21  42  70  88 117 180 216 243 310 392
#     4  12  25  40  62  99 134 163 199 274 328 362
#
# _framework density 20.352202999999999
#
# number of rings (size 3 to 8) (size 9 to 14) (size 15 to 20)
#    0.000    1.143    7.143    3.429    0.000    0.571 
#    2.571    0.000    0.000    0.000    0.000    0.000 
#    0.000    0.000    0.000    0.000    0.000    0.000 
#
# Total GULP energy -347115.301108 kJ/mol
# GULP energy per Si atom -12396.975040 kJ/mol
# Density = 2.030588 g / cm^3
# Si number density = 20.352203 Si / 1000 Ang^3
#
#
#
# Elastic Constant Matrix: (Units=GPa)
#
#
# Indices 1 2 3 4 5 6 
#
# 1 52.6837 24.5371 31.6817 0.0000 12.2372 0.0000
# 2 24.5371 76.0019 21.0531 0.0000 4.1673 0.0000
# 3 31.6817 21.0531 123.2022 0.0000 0.3254 0.0000
# 4 0.0000 0.0000 0.0000 25.3149 0.0000 5.8955
# 5 12.2372 4.1673 0.3254 0.0000 29.0857 0.0000
# 6 0.0000 0.0000 0.0000 5.8955 0.0000 16.5175
#
#
#
# Elastic Compliance Matrix: (Units=1/GPa)
#
#
# Indices 1 2 3 4 5 6 
#
# 1 0.028377 -0.006877 -0.006093 0.000000 -0.010885 0.000000
# 2 -0.006877 0.015590 -0.000897 0.000000 0.000670 0.000000
# 3 -0.006093 -0.000897 0.009830 0.000000 0.002582 0.000000
# 4 0.000000 0.000000 0.000000 0.043084 0.000000 -0.015378
# 5 -0.010885 0.000670 0.002582 0.000000 0.038836 0.000000
# 6 0.000000 0.000000 0.000000 -0.015378 0.000000 0.066031
#
#
# Mechanical properties :
#
#
# Convention : Reuss Voigt Hill
#
# Bulk Modulus (GPa) = 38.37043 45.15908 41.76476
# Shear Modulus (GPa) = 20.99353 25.82466 23.40910
#
# Velocity S-wave (km/s) = 3.21520 3.56601 3.39514
# Velocity P-wave (km/s) = 5.71642 6.26037 5.99457
#
# Compressibility (1/GPa) = 0.02606174
#
# Stress axis : x y z
#
# Youngs Moduli (GPa) = 35.24028 64.14549 101.72760
#
# Poissons Ratio (x) = 0.44110 0.61985
# Poissons Ratio (y) = 0.24233 0.09129
# Poissons Ratio (z) = 0.21473 0.05757
#
# Static dielectric constant tensor:
#      x y z
#    x 3.225120 0.000000 -0.032900 
#    y 0.000000 3.649130 0.000000 
#    z -0.032900 0.000000 3.958730 
# 
# 
# High freq. dielectric constant tensor:
#      x y z
#    x 1.751710 0.000000 0.001190 
#    y 0.000000 1.791910 0.000000 
#    z 0.001190 0.000000 1.814580 
# 
# From -- ./inp_files/209626.got.cif
#   From: 2010.06.25/outbox.cif.g09.slc.cpg/sg15_105_cif.got.tgz:209626.got - 2010.06.28 07:06:18.
