data_PCOD8132397
_publ_section_title
;
Structure prediction by ZEFSAII (Michael W. Deem and Ramdas Pophale) SiO2 
 PCOD8132397
Probable space group: C 2/C
;
_chemical_formula_sum "Si O2"
_cell_formula_units_Z 44
_cell_length_a 16.087213
_cell_length_b 9.456256
_cell_length_c 30.034490
_cell_angle_alpha 90.000000
_cell_angle_beta 151.012677
_cell_angle_gamma 90.000000
_cell_volume 2214.206533
_symmetry_space_group_name_H-M "C 2/C"
_symmetry_group_IT_number 15
_symmetry_cell_setting 'monoclinic'
loop_
_space_group_symop_operation_xyz
x,y,z
-x,y,1/2-z
-x,-y,-z
x,-y,1/2+z
1/2+x,1/2+y,z
1/2-x,1/2+y,1/2-z
1/2-x,1/2-y,-z
1/2+x,1/2-y,1/2+z
loop_
_atom_site_type_symbol
_atom_site_label
_atom_site_fract_x
_atom_site_fract_y
_atom_site_fract_z
Si Si1 0.357474 0.742040 0.848032
Si Si2 0.972342 0.752625 0.644600
Si Si3 0.711675 0.680935 0.592561
Si Si4 0.566489 0.520282 0.447413
Si Si5 0.000000 0.470961 0.750000
Si Si6 0.930066 0.425539 0.620267
O O1 0.166169 0.789698 0.747462
O O2 0.384280 0.771420 0.913830
O O3 0.397119 0.573961 0.859473
O O4 0.482678 0.832201 0.876240
O O5 0.838896 0.777880 0.622567
O O6 0.968684 0.589580 0.628436
O O7 0.910967 0.855582 0.577343
O O8 0.568074 0.599889 0.495952
O O9 0.830634 0.567401 0.674195
O O10 0.725055 0.409467 0.519860
O O11 0.990791 0.381487 0.699231
#
# Coordination Sequence:
#
# PCOD8132397 Si02
#       6
#     8   8   8   8   4   8
#     4  12  20  34  60  90 108 142 193 241 273 318
#     4  10  20  38  58  81 114 152 188 223 280 337
#     4  10  18  37  59  82 111 151 191 218 271 347
#     4  10  22  37  58  82 114 151 185 231 280 331
#     4   8  16  36  56  76 108 156 184 214 270 342
#     4  10  20  36  60  80 118 146 189 227 282 329
#
# _framework density 19.871677999999999
#
# number of rings (size 3 to 8) (size 9 to 14) (size 15 to 20)
#    0.000    2.182    3.636    4.364    0.000    0.000 
#    0.000    3.636    8.000    0.000    0.000    0.000 
#    0.000    0.000    0.000    0.000    0.000    0.000 
#
# Total GULP energy -272539.407695 kJ/mol
# GULP energy per Si atom -12388.154895 kJ/mol
# Density = 1.982645 g / cm^3
# Si number density = 19.871678 Si / 1000 Ang^3
#
#
#
# Elastic Constant Matrix: (Units=GPa)
#
#
# Indices 1 2 3 4 5 6 
#
# 1 153.8721 49.8783 49.9593 0.0000 -32.4621 0.0000
# 2 49.8783 49.6051 29.8547 0.0000 -17.1247 0.0000
# 3 49.9593 29.8547 70.8000 0.0000 -20.9779 0.0001
# 4 0.0000 0.0000 0.0000 16.3370 0.0000 -1.8489
# 5 -32.4621 -17.1247 -20.9779 0.0000 22.5364 0.0001
# 6 0.0000 0.0000 0.0001 -1.8489 0.0001 36.3772
#
#
#
# Elastic Compliance Matrix: (Units=1/GPa)
#
#
# Indices 1 2 3 4 5 6 
#
# 1 0.011429 -0.006914 -0.002524 0.000000 0.008859 0.000000
# 2 -0.006914 0.034655 -0.006742 0.000000 0.010098 0.000000
# 3 -0.002524 -0.006742 0.022305 0.000000 0.012004 0.000000
# 4 0.000000 0.000000 0.000000 0.061565 0.000000 0.003129
# 5 0.008859 0.010098 0.012004 0.000000 0.075979 0.000000
# 6 0.000000 0.000000 0.000000 0.003129 0.000000 0.027649
#
#
# Mechanical properties :
#
#
# Convention : Reuss Voigt Hill
#
# Bulk Modulus (GPa) = 27.75644 59.29575 43.52609
# Shear Modulus (GPa) = 17.98866 24.68913 21.33889
#
# Velocity S-wave (km/s) = 3.01199 3.52863 3.28050
# Velocity P-wave (km/s) = 5.10825 6.81951 6.02495
#
# Compressibility (1/GPa) = 0.03602768
#
# Stress axis : x y z
#
# Youngs Moduli (GPa) = 87.49980 28.85551 44.83272
#
# Poissons Ratio (x) = 0.19951 0.11316
# Poissons Ratio (y) = 0.60499 0.30228
# Poissons Ratio (z) = 0.22086 0.19456
#
# Static dielectric constant tensor:
#      x y z
#    x 3.837970 0.000000 -0.095530 
#    y 0.000000 3.135640 0.000000 
#    z -0.095530 0.000000 3.873330 
# 
# 
# High freq. dielectric constant tensor:
#      x y z
#    x 1.789210 0.000000 -0.001240 
#    y 0.000000 1.721650 0.000000 
#    z -0.001240 0.000000 1.787450 
# 
# From -- ./inp_files/315579.got.cif
#   From: 2010.06.25/outbox.cif.g09.slc.cpg/sg15_158_cif.got.tgz:315579.got - 2010.06.28 07:06:18.
