data_PCOD8132329
_publ_section_title
;
Structure prediction by ZEFSAII (Michael W. Deem and Ramdas Pophale) SiO2 
 PCOD8132329
Probable space group: C 2/C
;
_chemical_formula_sum "Si O2"
_cell_formula_units_Z 44
_cell_length_a 8.033209
_cell_length_b 11.830181
_cell_length_c 18.864804
_cell_angle_alpha 90.000000
_cell_angle_beta 103.613444
_cell_angle_gamma 90.000000
_cell_volume 1742.436366
_symmetry_space_group_name_H-M "C 2/C"
_symmetry_group_IT_number 15
_symmetry_cell_setting 'monoclinic'
loop_
_space_group_symop_operation_xyz
x,y,z
-x,y,1/2-z
-x,-y,-z
x,-y,1/2+z
1/2+x,1/2+y,z
1/2-x,1/2+y,1/2-z
1/2-x,1/2-y,-z
1/2+x,1/2-y,1/2+z
loop_
_atom_site_type_symbol
_atom_site_label
_atom_site_fract_x
_atom_site_fract_y
_atom_site_fract_z
Si Si1 0.968156 0.141830 0.574093
Si Si2 0.311224 0.853072 0.736515
Si Si3 0.672405 0.598650 0.792725
Si Si4 0.925309 0.893268 0.918666
Si Si5 0.800918 0.221354 0.140016
Si Si6 0.000000 0.394647 0.250000
O O1 0.107592 0.239783 0.601875
O O2 0.827519 0.124183 0.622935
O O3 0.871183 0.162256 0.489088
O O4 0.075122 0.027559 0.574704
O O5 0.500000 0.909882 0.750000
O O6 0.329653 0.717206 0.750242
O O7 0.216052 0.867502 0.653519
O O8 0.210538 0.878890 0.800564
O O9 0.500000 0.533250 0.750000
O O10 0.838631 0.535487 0.771817
O O11 0.111491 0.841718 0.917365
O O12 0.929883 0.320969 0.177433
#
# Coordination Sequence:
#
# PCOD8132329 Si02
#       6
#     8   8   8   8   8   4
#     4  11  24  41  64  96 136 181 219 278 355 416
#     4  10  19  40  63  92 125 164 226 275 333 403
#     4  10  18  37  66  89 126 165 218 276 329 403
#     4  11  24  41  63  97 137 177 221 278 352 418
#     4  11  19  42  65  92 129 173 226 273 338 406
#     4  10  18  36  64  96 118 162 226 272 334 392
#
# _framework density 25.251999999999999
#
# number of rings (size 3 to 8) (size 9 to 14) (size 15 to 20)
#    0.000    1.455    9.091    0.545    0.000    2.182 
#    1.636    0.000    0.000    4.364    0.000    0.000 
#    0.000    0.000    0.000    0.000    0.000    0.000 
#
# Total GULP energy -272675.862975 kJ/mol
# GULP energy per Si atom -12394.357408 kJ/mol
# Density = 2.519453 g / cm^3
# Si number density = 25.252000 Si / 1000 Ang^3
#
#
#
# Elastic Constant Matrix: (Units=GPa)
#
#
# Indices 1 2 3 4 5 6 
#
# 1 169.4890 37.1024 82.4786 0.0000 -29.2704 0.0000
# 2 37.1024 58.0069 13.5326 0.0000 -10.4347 0.0000
# 3 82.4786 13.5326 201.1231 0.0000 -27.9682 0.0000
# 4 0.0000 0.0000 0.0000 26.1600 0.0000 -6.0880
# 5 -29.2704 -10.4347 -27.9682 0.0000 45.2880 0.0000
# 6 0.0000 0.0000 0.0000 -6.0880 0.0000 41.1920
#
#
#
# Elastic Compliance Matrix: (Units=1/GPa)
#
#
# Indices 1 2 3 4 5 6 
#
# 1 0.008774 -0.004421 -0.002903 0.000000 0.002860 0.000000
# 2 -0.004421 0.020301 0.000766 0.000000 0.002293 0.000000
# 3 -0.002903 0.000766 0.006427 0.000000 0.002269 0.000000
# 4 0.000000 0.000000 0.000000 0.039588 0.000000 0.005851
# 5 0.002860 0.002293 0.002269 0.000000 0.025859 0.000000
# 6 0.000000 0.000000 0.000000 0.005851 0.000000 0.025141
#
#
# Mechanical properties :
#
#
# Convention : Reuss Voigt Hill
#
# Bulk Modulus (GPa) = 44.67121 77.20512 60.93816
# Shear Modulus (GPa) = 34.09070 42.22839 38.15954
#
# Velocity S-wave (km/s) = 3.67825 4.09379 3.89157
# Velocity P-wave (km/s) = 5.98063 7.27913 6.66159
#
# Compressibility (1/GPa) = 0.02238578
#
# Stress axis : x y z
#
# Youngs Moduli (GPa) = 113.96762 49.25938 155.60229
#
# Poissons Ratio (x) = 0.21776 0.45175
# Poissons Ratio (y) = 0.50380 -0.11916
# Poissons Ratio (z) = 0.33087 -0.03772
#
# Static dielectric constant tensor:
#      x y z
#    x 5.119730 0.000000 -0.313390 
#    y 0.000000 5.073760 0.000000 
#    z -0.313390 0.000000 4.866180 
# 
# 
# High freq. dielectric constant tensor:
#      x y z
#    x 2.015650 0.000000 -0.024670 
#    y 0.000000 2.043720 0.000000 
#    z -0.024670 0.000000 2.002140 
# 
# From -- ./inp_files/188970.got.cif
#   From: 2010.06.25/outbox.cif.g09.slc.cpg/sg15_95_cif.got.tgz:188970.got - 2010.06.28 07:06:18.
