data_PCOD8132528
_publ_section_title
;
Structure prediction by ZEFSAII (Michael W. Deem and Ramdas Pophale) SiO2 
 PCOD8132528
Probable space group: C 2/C
;
_chemical_formula_sum "Si O2"
_cell_formula_units_Z 48
_cell_length_a 17.806778
_cell_length_b 15.342577
_cell_length_c 16.166357
_cell_angle_alpha 90.000000
_cell_angle_beta 31.593146
_cell_angle_gamma 90.000000
_cell_volume 2313.827443
_symmetry_space_group_name_H-M "C 2/C"
_symmetry_group_IT_number 15
_symmetry_cell_setting 'monoclinic'
loop_
_space_group_symop_operation_xyz
x,y,z
-x,y,1/2-z
-x,-y,-z
x,-y,1/2+z
1/2+x,1/2+y,z
1/2-x,1/2+y,1/2-z
1/2-x,1/2-y,-z
1/2+x,1/2-y,1/2+z
loop_
_atom_site_type_symbol
_atom_site_label
_atom_site_fract_x
_atom_site_fract_y
_atom_site_fract_z
Si Si1 0.676740 0.005745 0.485455
Si Si2 0.418184 0.559605 0.141841
Si Si3 0.060325 0.574961 0.883499
Si Si4 0.299079 0.339047 0.610619
Si Si5 0.187797 0.023476 0.967442
Si Si6 0.960560 0.669303 0.440053
O O1 0.743254 0.038163 0.508463
O O2 0.603309 0.909736 0.556008
O O3 0.792815 0.005096 0.303362
O O4 0.556457 0.080082 0.580508
O O5 0.352217 0.643343 0.155878
O O6 0.500000 0.500000 0.000000
O O7 0.540654 0.580257 0.096464
O O8 0.212846 0.551869 0.702270
O O9 0.071097 0.659262 0.931570
O O10 0.000000 0.500000 0.000000
O O11 0.342247 0.420619 0.513096
O O12 0.380502 0.258255 0.491720
O O13 0.129387 0.322460 0.766081
#
# Coordination Sequence:
#
# PCOD8132528 Si02
#       6
#     8   8   8   8   8   8
#     4  11  21  39  62  88 118 152 193 246 296 346
#     4  10  21  39  61  84 116 154 205 241 277 345
#     4  10  18  38  61  82 111 157 203 237 277 343
#     4  11  23  38  58  88 119 158 194 240 286 351
#     4  11  22  37  63  91 117 150 194 248 297 342
#     4  11  23  37  60  86 120 157 197 236 291 347
#
# _framework density 20.744848000000001
#
# number of rings (size 3 to 8) (size 9 to 14) (size 15 to 20)
#    0.000    1.333    5.000    4.000    7.000    0.667 
#    0.000    0.000    0.000    6.000    0.000    0.000 
#    0.000    0.000    0.000    0.000    0.000    0.000 
#
# Total GULP energy -297410.792540 kJ/mol
# GULP energy per Si atom -12392.116356 kJ/mol
# Density = 2.069763 g / cm^3
# Si number density = 20.744848 Si / 1000 Ang^3
#
#
#
# Elastic Constant Matrix: (Units=GPa)
#
#
# Indices 1 2 3 4 5 6 
#
# 1 82.5192 -10.0469 -5.6553 0.0007 -19.2601 -0.0005
# 2 -10.0469 10.3655 7.9340 0.0015 -2.3076 -0.0015
# 3 -5.6553 7.9340 98.0985 0.0013 -22.8793 -0.0011
# 4 0.0007 0.0015 0.0013 28.6827 -0.0011 -7.5545
# 5 -19.2601 -2.3076 -22.8793 -0.0011 38.4975 0.0010
# 6 -0.0005 -0.0015 -0.0011 -7.5545 0.0010 19.8831
#
#
#
# Elastic Compliance Matrix: (Units=1/GPa)
#
#
# Indices 1 2 3 4 5 6 
#
# 1 0.016838 0.017107 0.002079 -0.000001 0.010685 0.000001
# 2 0.017107 0.120289 -0.005880 -0.000004 0.012275 0.000007
# 3 0.002079 -0.005880 0.012712 0.000000 0.008242 0.000000
# 4 -0.000001 -0.000004 0.000000 0.038741 0.000000 0.014720
# 5 0.010685 0.012275 0.008242 0.000000 0.036955 0.000000
# 6 0.000001 0.000007 0.000000 0.014720 0.000000 0.055887
#
#
# Mechanical properties :
#
#
# Convention : Reuss Voigt Hill
#
# Bulk Modulus (GPa) = 5.66728 19.49409 12.58069
# Shear Modulus (GPa) = 15.94262 30.66274 23.30268
#
# Velocity S-wave (km/s) = 2.77521 3.84876 3.35520
# Velocity P-wave (km/s) = 3.60650 5.40075 4.59211
#
# Compressibility (1/GPa) = 0.17645139
#
# Stress axis : x y z
#
# Youngs Moduli (GPa) = 59.39100 8.31333 78.66858
#
# Poissons Ratio (x) = -0.14222 -0.16356
# Poissons Ratio (y) = -1.01602 0.46254
# Poissons Ratio (z) = -0.12348 0.04888
#
# Static dielectric constant tensor:
#      x y z
#    x 4.707800 0.000000 -0.451750 
#    y 0.000000 3.521440 0.000000 
#    z -0.451750 0.000000 3.942840 
# 
# 
# High freq. dielectric constant tensor:
#      x y z
#    x 1.825070 0.000000 -0.023370 
#    y 0.000000 1.756520 0.000000 
#    z -0.023370 0.000000 1.825580 
# 
# From -- ./inp_files/211583.got.cif
#   From: 2010.06.25/outbox.cif.g09.slc.cpg/sg15_106_cif.got.tgz:211583.got - 2010.06.28 07:06:18.
