data_PCOD8132928
_publ_section_title
;
Structure prediction by ZEFSAII (Michael W. Deem and Ramdas Pophale) SiO2 
 PCOD8132928
Probable space group: C 2/C
;
_chemical_formula_sum "Si O2"
_cell_formula_units_Z 40
_cell_length_a 20.650838
_cell_length_b 8.769275
_cell_length_c 21.691810
_cell_angle_alpha 90.000000
_cell_angle_beta 154.644214
_cell_angle_gamma 90.000000
_cell_volume 1682.218025
_symmetry_space_group_name_H-M "C 2/C"
_symmetry_group_IT_number 15
_symmetry_cell_setting 'monoclinic'
loop_
_space_group_symop_operation_xyz
x,y,z
-x,y,1/2-z
-x,-y,-z
x,-y,1/2+z
1/2+x,1/2+y,z
1/2-x,1/2+y,1/2-z
1/2-x,1/2-y,-z
1/2+x,1/2-y,1/2+z
loop_
_atom_site_type_symbol
_atom_site_label
_atom_site_fract_x
_atom_site_fract_y
_atom_site_fract_z
Si Si1 0.921269 0.166355 0.581545
Si Si2 0.356238 0.033601 0.096287
Si Si3 0.604129 0.778398 0.075615
Si Si4 0.214847 0.617313 0.167339
Si Si5 0.121131 0.906626 0.807326
O O1 0.762591 0.079292 0.453065
O O2 0.927089 0.321002 0.624105
O O3 0.943736 0.198278 0.529050
O O4 0.055675 0.067467 0.726951
O O5 0.500000 0.945891 0.250000
O O6 0.276958 0.926330 0.978434
O O7 0.707538 0.658669 0.201306
O O8 0.697851 0.934393 0.146512
O O9 0.450265 0.808284 0.980914
O O10 0.324040 0.684435 0.206491
O O11 0.000000 0.826968 0.750000
#
# Coordination Sequence:
#
# PCOD8132928 Si02
#       5
#     8   8   8   8   8
#     4  10  19  34  58  93 129 164 205 270 328 366
#     4  10  19  30  59  97 131 156 210 274 330 362
#     4  11  25  41  68  95 137 168 218 265 322 397
#     4  11  25  45  65  97 129 176 217 267 324 385
#     4  10  21  39  61  93 130 171 215 273 319 386
#
# _framework density 23.778131999999999
#
# number of rings (size 3 to 8) (size 9 to 14) (size 15 to 20)
#    0.000    1.600    2.000    4.200    2.800    3.200 
#    0.000    3.000    0.000    0.000    0.000    0.000 
#    0.000    0.000    0.000    0.000    0.000    0.000 
#
# Total GULP energy -247909.943802 kJ/mol
# GULP energy per Si atom -12395.497190 kJ/mol
# Density = 2.372401 g / cm^3
# Si number density = 23.778132 Si / 1000 Ang^3
#
#
#
# Elastic Constant Matrix: (Units=GPa)
#
#
# Indices 1 2 3 4 5 6 
#
# 1 158.8500 9.8726 31.5457 -0.3289 2.9977 0.0149
# 2 9.8726 23.6885 14.7876 -0.0140 -10.7430 0.0007
# 3 31.5457 14.7876 161.4275 -0.4778 -6.5861 0.0218
# 4 -0.3289 -0.0140 -0.4778********** -0.3111 958.5991
# 5 2.9977 -10.7430 -6.5861 -0.3111 33.3228 0.0141
# 6 0.0149 0.0007 0.0218 958.5991 0.0141 -38.0044
#
#
#
# Elastic Compliance Matrix: (Units=1/GPa)
#
#
# Indices 1 2 3 4 5 6 
#
# 1 0.006732 -0.002906 -0.001121 0.000000 -0.001764 0.000000
# 2 -0.002906 0.053274 -0.003630 0.000000 0.016719 -0.000001
# 3 -0.001121 -0.003630 0.006757 0.000000 0.000266 0.000000
# 4 0.000000 0.000000 0.000000 0.000368 -0.000001 0.009283
# 5 -0.001764 0.016719 0.000266 -0.000001 0.035611 -0.000002
# 6 0.000000 -0.000001 0.000000 0.009283 -0.000002 0.207846
#
#
# Mechanical properties :
#
#
# Convention : Reuss Voigt Hill
#
# Bulk Modulus (GPa) = 19.43680 50.70863 35.07272
# Shear Modulus (GPa) = 14.57504 -4274.16316 -2129.79406
#
# Velocity S-wave (km/s) = 2.47849 -42.44315 -29.96062
# Velocity P-wave (km/s) = 4.04753 48.79060 34.38124
#
# Compressibility (1/GPa) = 0.05144879
#
# Stress axis : x y z
#
# Youngs Moduli (GPa) = 148.54876 18.77088 147.98907
#
# Poissons Ratio (x) = 0.05454 0.16594
# Poissons Ratio (y) = 0.43162 0.53724
# Poissons Ratio (z) = 0.16657 0.06814
#
# Static dielectric constant tensor:
#      x y z
#    x 4.573430 0.000000 0.173670 
#    y 0.000000 3.773830 0.000000 
#    z 0.173670 0.000000 4.378560 
# 
# 
# High freq. dielectric constant tensor:
#      x y z
#    x 1.955930 0.000000 0.006880 
#    y 0.000000 1.903000 0.000000 
#    z 0.006880 0.000000 1.958540 
# 
# From -- ./inp_files/210832.got.cif
#   From: 2010.06.25/outbox.cif.g09.slc.cpg/sg15_106_cif.got.tgz:210832.got - 2010.06.28 07:06:18.
