data_PCOD8132695
_publ_section_title
;
Structure prediction by ZEFSAII (Michael W. Deem and Ramdas Pophale) SiO2 
 PCOD8132695
Probable space group: C 2/C
;
_chemical_formula_sum "Si O2"
_cell_formula_units_Z 52
_cell_length_a 10.020318
_cell_length_b 9.619104
_cell_length_c 26.336813
_cell_angle_alpha 90.000000
_cell_angle_beta 66.983737
_cell_angle_gamma 90.000000
_cell_volume 2336.431653
_symmetry_space_group_name_H-M "C 2/C"
_symmetry_group_IT_number 15
_symmetry_cell_setting 'monoclinic'
loop_
_space_group_symop_operation_xyz
x,y,z
-x,y,1/2-z
-x,-y,-z
x,-y,1/2+z
1/2+x,1/2+y,z
1/2-x,1/2+y,1/2-z
1/2-x,1/2-y,-z
1/2+x,1/2-y,1/2+z
loop_
_atom_site_type_symbol
_atom_site_label
_atom_site_fract_x
_atom_site_fract_y
_atom_site_fract_z
Si Si1 0.000000 0.033260 0.750000
Si Si2 0.774254 0.711712 0.726856
Si Si3 0.155189 0.518972 0.218330
Si Si4 0.844882 0.957850 0.597322
Si Si5 0.884611 0.057224 0.372690
Si Si6 0.191665 0.325153 0.057978
Si Si7 0.627389 0.848480 0.399275
O O1 0.058119 0.941006 0.693848
O O2 0.120456 0.137376 0.752378
O O3 0.858522 0.639688 0.760508
O O4 0.856985 0.682226 0.662582
O O5 0.762810 0.879389 0.735571
O O6 0.201037 0.524935 0.153258
O O7 0.000000 0.589884 0.250000
O O8 0.815910 0.063994 0.555413
O O9 0.852367 0.800128 0.575095
O O10 0.989789 0.996152 0.607488
O O11 0.834948 0.212847 0.393461
O O12 0.745327 0.957591 0.401386
O O13 0.037968 0.401345 0.067623
O O14 0.250000 0.250000 0.000000
#
# Coordination Sequence:
#
# PCOD8132695 Si02
#       7
#     4   8   8   8   8   8   8
#     4  10  18  40  60  88 132 164 198 254 312 392
#     4  10  20  36  57  86 128 161 195 245 300 376
#     4  11  21  34  55  87 122 161 202 237 301 373
#     4  10  22  41  61  91 125 167 210 258 320 374
#     4  10  22  42  65  93 128 170 209 260 325 388
#     4  11  25  45  65  93 127 165 224 280 318 372
#     4   9  22  41  62  92 129 160 211 264 317 383
#
# _framework density 22.256160999999999
#
# number of rings (size 3 to 8) (size 9 to 14) (size 15 to 20)
#    0.000    1.846    2.308    0.923    0.000    6.769 
#    2.769    1.538    0.000    0.000    0.000    0.000 
#    0.000    0.000    0.000    0.000    0.000    0.000 
#
# Total GULP energy -322235.939198 kJ/mol
# GULP energy per Si atom -12393.689969 kJ/mol
# Density = 2.220550 g / cm^3
# Si number density = 22.256161 Si / 1000 Ang^3
#
#
#
# Elastic Constant Matrix: (Units=GPa)
#
#
# Indices 1 2 3 4 5 6 
#
# 1 107.1801 29.5140 9.2252 0.0000 -15.0975 0.0000
# 2 29.5140 86.6633 5.6911 0.0000 7.8375 0.0000
# 3 9.2252 5.6911 41.1236 0.0000 -4.1183 0.0000
# 4 0.0000 0.0000 0.0000 23.5769 0.0000 -0.7859
# 5 -15.0975 7.8375 -4.1183 0.0000 26.3507 0.0000
# 6 0.0000 0.0000 0.0000 -0.7859 0.0000 -5.7328
#
#
#
# Elastic Compliance Matrix: (Units=1/GPa)
#
#
# Indices 1 2 3 4 5 6 
#
# 1 0.011848 -0.004678 -0.001210 0.000000 0.007991 0.000000
# 2 -0.004678 0.013873 -0.001577 0.000000 -0.007053 0.000000
# 3 -0.001210 -0.001577 0.025178 0.000000 0.003711 0.000000
# 4 0.000000 0.000000 0.000000 0.042221 0.000000 -0.005788
# 5 0.007991 -0.007053 0.003711 0.000000 0.045206 0.000000
# 6 0.000000 0.000000 0.000000 -0.005788 0.000000 -0.173642
#
#
# Mechanical properties :
#
#
# Convention : Reuss Voigt Hill
#
# Bulk Modulus (GPa) = 27.80144 35.98085 31.89114
# Shear Modulus (GPa) = -595.58247 21.54142 -287.02052
#
# Velocity S-wave (km/s) = -16.37634 3.11446 -11.36848
# Velocity P-wave (km/s) = 18.57580 5.39768 12.56832
#
# Compressibility (1/GPa) = 0.03596936
#
# Stress axis : x y z
#
# Youngs Moduli (GPa) = 84.40234 72.07992 39.71685
#
# Poissons Ratio (x) = 0.33720 0.04807
# Poissons Ratio (y) = 0.39484 0.06263
# Poissons Ratio (z) = 0.10215 0.11366
#
# Static dielectric constant tensor:
#      x y z
#    x 5.274330 0.000000 -0.008210 
#    y 0.000000 4.174380 0.000000 
#    z -0.008210 0.000000 3.859690 
# 
# 
# High freq. dielectric constant tensor:
#      x y z
#    x 1.883170 0.000000 -0.024990 
#    y 0.000000 1.875570 0.000000 
#    z -0.024990 0.000000 1.853760 
# 
# From -- ./inp_files/309879.got.cif
#   From: 2010.06.25/outbox.cif.g09.slc.cpg/sg15_155_cif.got.tgz:309879.got - 2010.06.28 07:06:18.
