data_PCOD8132145
_publ_section_title
;
Structure prediction by ZEFSAII (Michael W. Deem and Ramdas Pophale) SiO2 
 PCOD8132145
Probable space group: C 2/C
;
_chemical_formula_sum "Si O2"
_cell_formula_units_Z 48
_cell_length_a 19.318137
_cell_length_b 24.599107
_cell_length_c 13.031683
_cell_angle_alpha 90.000000
_cell_angle_beta 156.693348
_cell_angle_gamma 90.000000
_cell_volume 2450.183435
_symmetry_space_group_name_H-M "C 2/C"
_symmetry_group_IT_number 15
_symmetry_cell_setting 'monoclinic'
loop_
_space_group_symop_operation_xyz
x,y,z
-x,y,1/2-z
-x,-y,-z
x,-y,1/2+z
1/2+x,1/2+y,z
1/2-x,1/2+y,1/2-z
1/2-x,1/2-y,-z
1/2+x,1/2-y,1/2+z
loop_
_atom_site_type_symbol
_atom_site_label
_atom_site_fract_x
_atom_site_fract_y
_atom_site_fract_z
Si Si1 0.139490 0.868383 0.529558
Si Si2 0.532439 0.061825 0.069504
Si Si3 0.404163 0.227731 0.405025
Si Si4 0.348506 0.654766 0.774543
Si Si5 0.000000 0.220100 0.250000
Si Si6 0.500000 0.102781 0.250000
Si Si7 0.209182 0.652133 0.800229
O O1 0.270934 0.919179 0.691515
O O2 0.238736 0.811636 0.677646
O O3 0.000000 0.863047 0.250000
O O4 0.020186 0.877303 0.468336
O O5 0.490329 0.067497 0.133097
O O6 0.395099 0.097099 0.812480
O O7 0.500000 0.000000 0.000000
O O8 0.369271 0.280506 0.289160
O O9 0.451100 0.242369 0.587161
O O10 0.565587 0.196822 0.571364
O O11 0.332623 0.639205 0.871698
O O12 0.173942 0.638940 0.474327
O O13 0.163896 0.179872 0.442324
#
# Coordination Sequence:
#
# PCOD8132145 Si02
#       7
#     8   8   8   8   4   4   8
#     4  11  22  38  60  92 119 155 203 240 292 359
#     4  10  22  44  62  84 117 148 204 260 308 347
#     4  10  21  35  57  88 127 165 196 237 290 353
#     4  10  19  34  56  87 121 154 190 233 294 352
#     4  10  18  36  57  84 123 164 204 236 286 356
#     4  10  20  38  61  84 117 156 186 254 300 354
#     4   9  20  36  56  86 118 158 198 243 291 353
#
# _framework density 19.590371000000001
#
# number of rings (size 3 to 8) (size 9 to 14) (size 15 to 20)
#    0.000    2.000    1.667    2.500    1.167    2.000 
#    1.500   10.000    0.000    0.000    0.000    0.000 
#    0.000    0.000    0.000    0.000    0.000    0.000 
#
# Total GULP energy -297395.622216 kJ/mol
# GULP energy per Si atom -12391.484259 kJ/mol
# Density = 1.954578 g / cm^3
# Si number density = 19.590371 Si / 1000 Ang^3
#
#
#
# Elastic Constant Matrix: (Units=GPa)
#
#
# Indices 1 2 3 4 5 6 
#
# 1 85.2504 36.9279 41.5474 0.0000 18.9713 0.0000
# 2 36.9279 145.3951 72.9377 0.0000 4.0163 0.0000
# 3 41.5474 72.9377 135.2927 0.0000 20.9854 0.0000
# 4 0.0000 0.0000 0.0000 24.1164 0.0000 -4.1473
# 5 18.9713 4.0163 20.9854 0.0000 35.6904 0.0000
# 6 0.0000 0.0000 0.0000 -4.1473 0.0000 19.2343
#
#
#
# Elastic Compliance Matrix: (Units=1/GPa)
#
#
# Indices 1 2 3 4 5 6 
#
# 1 0.015439 -0.002565 -0.002344 0.000000 -0.006540 0.000000
# 2 -0.002565 0.010002 -0.005107 0.000000 0.003241 0.000000
# 3 -0.002344 -0.005107 0.011644 0.000000 -0.005026 0.000000
# 4 0.000000 0.000000 0.000000 0.043062 0.000000 0.009285
# 5 -0.006540 0.003241 -0.005026 0.000000 0.034085 0.000000
# 6 0.000000 0.000000 0.000000 0.009285 0.000000 0.053992
#
#
# Mechanical properties :
#
#
# Convention : Reuss Voigt Hill
#
# Bulk Modulus (GPa) = 58.64125 74.30714 66.47419
# Shear Modulus (GPa) = 25.78111 30.10991 27.94551
#
# Velocity S-wave (km/s) = 3.63162 3.92468 3.78099
# Velocity P-wave (km/s) = 6.89808 7.65181 7.28470
#
# Compressibility (1/GPa) = 0.01705284
#
# Stress axis : x y z
#
# Youngs Moduli (GPa) = 64.77186 99.98376 85.88044
#
# Poissons Ratio (x) = 0.25642 0.20132
# Poissons Ratio (y) = 0.16611 0.43860
# Poissons Ratio (z) = 0.15184 0.51062
#
# Static dielectric constant tensor:
#      x y z
#    x 3.580370 0.000000 0.273840 
#    y 0.000000 3.352880 0.000000 
#    z 0.273840 0.000000 4.002380 
# 
# 
# High freq. dielectric constant tensor:
#      x y z
#    x 1.754860 0.000000 0.018000 
#    y 0.000000 1.733210 0.000000 
#    z 0.018000 0.000000 1.782790 
# 
# From -- ./inp_files/63905.got.cif
#   From: 2010.06.25/outbox.cif.g09.slc.cpg/sg15_32_cif.got.tgz:63905.got - 2010.06.28 07:06:18.
