data_PCOD8132360
_publ_section_title
;
Structure prediction by ZEFSAII (Michael W. Deem and Ramdas Pophale) SiO2 
 PCOD8132360
Probable space group: C 2/C
;
_chemical_formula_sum "Si O2"
_cell_formula_units_Z 36
_cell_length_a 10.552883
_cell_length_b 11.792233
_cell_length_c 17.645285
_cell_angle_alpha 90.000000
_cell_angle_beta 130.029883
_cell_angle_gamma 90.000000
_cell_volume 1681.355908
_symmetry_space_group_name_H-M "C 2/C"
_symmetry_group_IT_number 15
_symmetry_cell_setting 'monoclinic'
loop_
_space_group_symop_operation_xyz
x,y,z
-x,y,1/2-z
-x,-y,-z
x,-y,1/2+z
1/2+x,1/2+y,z
1/2-x,1/2+y,1/2-z
1/2-x,1/2-y,-z
1/2+x,1/2-y,1/2+z
loop_
_atom_site_type_symbol
_atom_site_label
_atom_site_fract_x
_atom_site_fract_y
_atom_site_fract_z
Si Si1 0.851709 0.164948 0.243040
Si Si2 0.009109 0.342846 0.532556
Si Si3 0.492819 0.611569 0.046108
Si Si4 0.500000 0.116302 0.750000
Si Si5 0.649212 0.032735 0.952687
O O1 0.673769 0.127890 0.143920
O O2 0.000000 0.108406 0.250000
O O3 0.865178 0.124257 0.335719
O O4 0.869854 0.302233 0.244537
O O5 0.988542 0.209912 0.509678
O O6 0.018046 0.399553 0.453231
O O7 0.854821 0.401044 0.519287
O O8 0.500000 0.500000 0.000000
O O9 0.319976 0.603489 0.025626
O O10 0.595474 0.034835 0.844523
#
# Coordination Sequence:
#
# PCOD8132360 Si02
#       5
#     8   8   8   4   8
#     4  10  19  37  66  88 121 159 218 251 317 382
#     4  11  22  40  64  93 122 163 213 267 310 383
#     4  12  24  41  62  92 134 170 207 262 323 384
#     4  10  18  36  68  84 120 156 220 260 312 386
#     4  11  22  39  66  91 120 162 217 261 318 374
#
# _framework density 21.411290000000001
#
# number of rings (size 3 to 8) (size 9 to 14) (size 15 to 20)
#    0.667    0.444    6.667    0.667    3.111    0.889 
#    0.000    0.000    2.444    0.000    0.000    0.000 
#    0.000    0.000    0.000    0.000    0.000    0.000 
#
# Total GULP energy -223035.659634 kJ/mol
# GULP energy per Si atom -12390.869980 kJ/mol
# Density = 2.136256 g / cm^3
# Si number density = 21.411290 Si / 1000 Ang^3
#
#
#
# Elastic Constant Matrix: (Units=GPa)
#
#
# Indices 1 2 3 4 5 6 
#
# 1 35.5670 28.0924 13.9886 0.0000 -13.6319 0.0000
# 2 28.0924 135.3544 31.8659 0.0000 -23.7462 0.0000
# 3 13.9886 31.8659 146.8353 0.0000 -23.5387 0.0000
# 4 0.0000 0.0000 0.0000 28.5743 0.0000 -17.7554
# 5 -13.6319 -23.7462 -23.5387 0.0000 28.9705 0.0000
# 6 0.0000 0.0000 0.0000 -17.7554 0.0000 38.9528
#
#
#
# Elastic Compliance Matrix: (Units=1/GPa)
#
#
# Indices 1 2 3 4 5 6 
#
# 1 0.037490 -0.005439 -0.000320 0.000000 0.012923 0.000000
# 2 -0.005439 0.009511 -0.000812 0.000000 0.004577 0.000000
# 3 -0.000320 -0.000812 0.007917 0.000000 0.005617 0.000000
# 4 0.000000 0.000000 0.000000 0.048826 0.000000 0.022256
# 5 0.012923 0.004577 0.005617 0.000000 0.048914 0.000000
# 6 0.000000 0.000000 0.000000 0.022256 0.000000 0.035817
#
#
# Mechanical properties :
#
#
# Convention : Reuss Voigt Hill
#
# Bulk Modulus (GPa) = 23.93604 51.73895 37.83749
# Shear Modulus (GPa) = 23.19733 35.55350 29.37541
#
# Velocity S-wave (km/s) = 3.29510 4.07935 3.70801
# Velocity P-wave (km/s) = 5.06758 6.81211 6.00355
#
# Compressibility (1/GPa) = 0.04177801
#
# Stress axis : x y z
#
# Youngs Moduli (GPa) = 26.67349 105.14226 126.30259
#
# Poissons Ratio (x) = 0.57182 0.04037
# Poissons Ratio (y) = 0.14506 0.10259
# Poissons Ratio (z) = 0.00853 0.08540
#
# Static dielectric constant tensor:
#      x y z
#    x 4.663480 0.000000 0.002290 
#    y 0.000000 3.989940 0.000000 
#    z 0.002290 0.000000 3.763000 
# 
# 
# High freq. dielectric constant tensor:
#      x y z
#    x 1.809000 0.000000 -0.016510 
#    y 0.000000 1.825400 0.000000 
#    z -0.016510 0.000000 1.848840 
# 
# From -- ./inp_files/117871.got.cif
#   From: 2010.06.25/outbox.cif.g09.slc.cpg/sg15_59_cif.got.tgz:117871.got - 2010.06.28 07:06:18.
