data_PCOD8132380
_publ_section_title
;
Structure prediction by ZEFSAII (Michael W. Deem and Ramdas Pophale) SiO2 
 PCOD8132380
Probable space group: C 2/C
;
_chemical_formula_sum "Si O2"
_cell_formula_units_Z 52
_cell_length_a 23.104590
_cell_length_b 6.897562
_cell_length_c 21.336295
_cell_angle_alpha 90.000000
_cell_angle_beta 119.962569
_cell_angle_gamma 90.000000
_cell_volume 2945.826751
_symmetry_space_group_name_H-M "C 2/C"
_symmetry_group_IT_number 15
_symmetry_cell_setting 'monoclinic'
loop_
_space_group_symop_operation_xyz
x,y,z
-x,y,1/2-z
-x,-y,-z
x,-y,1/2+z
1/2+x,1/2+y,z
1/2-x,1/2+y,1/2-z
1/2-x,1/2-y,-z
1/2+x,1/2-y,1/2+z
loop_
_atom_site_type_symbol
_atom_site_label
_atom_site_fract_x
_atom_site_fract_y
_atom_site_fract_z
Si Si1 0.913241 0.368903 0.002623
Si Si2 0.566982 0.916604 0.755622
Si Si3 0.973007 0.340625 0.901230
Si Si4 0.000000 0.785521 0.750000
Si Si5 0.834999 0.770967 0.101439
Si Si6 0.724854 0.949821 0.516209
Si Si7 0.550064 0.499260 0.898717
O O1 0.924042 0.164447 0.041255
O O2 0.961694 0.523849 0.061187
O O3 0.926107 0.362382 0.935723
O O4 0.836213 0.423408 0.969277
O O5 0.500000 0.818041 0.750000
O O6 0.569491 0.900330 0.682306
O O7 0.631574 0.805695 0.816585
O O8 0.564700 0.146347 0.772319
O O9 0.994443 0.117320 0.907020
O O10 0.983629 0.917162 0.682018
O O11 0.783553 0.946045 0.087850
O O12 0.890186 0.853405 0.083910
O O13 0.796623 0.588050 0.052190
O O14 0.750000 0.750000 0.500000
#
# Coordination Sequence:
#
# PCOD8132380 Si02
#       7
#     8   8   8   4   8   8   8
#     4  11  22  38  57  87 123 155 190 235 297 352
#     4  10  18  37  56  86 118 145 190 242 296 340
#     4  11  22  37  60  87 123 150 187 245 299 356
#     4  10  20  30  62  88 122 144 184 246 300 344
#     4  11  22  34  62  86 113 153 197 243 286 340
#     4  11  22  39  59  83 116 157 199 238 281 348
#     4  12  18  35  56  92 116 148 189 238 300 345
#
# _framework density 17.652090999999999
#
# number of rings (size 3 to 8) (size 9 to 14) (size 15 to 20)
#    0.462    0.615    6.154    2.308    0.000    0.000 
#    0.000    0.000    3.385    0.000    0.000    0.000 
#    0.000    0.000    0.000    0.000    0.000    0.000 
#
# Total GULP energy -322363.189409 kJ/mol
# GULP energy per Si atom -12398.584208 kJ/mol
# Density = 1.761191 g / cm^3
# Si number density = 17.652091 Si / 1000 Ang^3
#
#
#
# Elastic Constant Matrix: (Units=GPa)
#
#
# Indices 1 2 3 4 5 6 
#
# 1 97.2052 44.4430 45.3065 0.0000 4.2525 0.0000
# 2 44.4430 113.4078 51.0933 0.0001 2.2845 0.0002
# 3 45.3065 51.0933 115.6452 0.0000 -1.5868 0.0001
# 4 0.0000 0.0001 0.0000 30.7483 0.0000 7.6161
# 5 4.2525 2.2845 -1.5868 0.0000 25.2211 0.0000
# 6 0.0000 0.0002 0.0001 7.6161 0.0000 13.7767
#
#
#
# Elastic Compliance Matrix: (Units=1/GPa)
#
#
# Indices 1 2 3 4 5 6 
#
# 1 0.013845 -0.003649 -0.003843 0.000000 -0.002246 0.000000
# 2 -0.003649 0.012014 -0.003888 0.000000 -0.000718 0.000000
# 3 -0.003843 -0.003888 0.011894 0.000000 0.001748 0.000000
# 4 0.000000 0.000000 0.000000 0.037682 0.000000 -0.020832
# 5 -0.002246 -0.000718 0.001748 0.000000 0.040203 0.000000
# 6 0.000000 0.000000 0.000000 -0.020832 0.000000 0.084103
#
#
# Mechanical properties :
#
#
# Convention : Reuss Voigt Hill
#
# Bulk Modulus (GPa) = 66.69549 67.54932 67.12241
# Shear Modulus (GPa) = 21.97807 26.31022 24.14415
#
# Velocity S-wave (km/s) = 3.53238 3.86487 3.70236
# Velocity P-wave (km/s) = 7.38257 7.63324 7.50895
#
# Compressibility (1/GPa) = 0.01499352
#
# Stress axis : x y z
#
# Youngs Moduli (GPa) = 72.22668 83.23630 84.07334
#
# Poissons Ratio (x) = 0.30376 0.32307
# Poissons Ratio (y) = 0.26358 0.32688
# Poissons Ratio (z) = 0.27755 0.32363
#
# Static dielectric constant tensor:
#      x y z
#    x 3.149130 0.000000 0.093920 
#    y 0.000000 3.530930 0.000000 
#    z 0.093920 0.000000 3.210520 
# 
# 
# High freq. dielectric constant tensor:
#      x y z
#    x 1.655830 0.000000 0.002530 
#    y 0.000000 1.706060 0.000000 
#    z 0.002530 0.000000 1.677080 
# 
# From -- ./inp_files/279010.got.cif
#   From: 2010.06.25/outbox.cif.g09.slc.cpg/sg15_140_cif.got.tgz:279010.got - 2010.06.28 07:06:18.
