data_PCOD8132453
_publ_section_title
;
Structure prediction by ZEFSAII (Michael W. Deem and Ramdas Pophale) SiO2 
 PCOD8132453
Probable space group: C 2/C
;
_chemical_formula_sum "Si O2"
_cell_formula_units_Z 56
_cell_length_a 11.535005
_cell_length_b 13.469197
_cell_length_c 19.146697
_cell_angle_alpha 90.000000
_cell_angle_beta 111.918699
_cell_angle_gamma 90.000000
_cell_volume 2759.736962
_symmetry_space_group_name_H-M "C 2/C"
_symmetry_group_IT_number 15
_symmetry_cell_setting 'monoclinic'
loop_
_space_group_symop_operation_xyz
x,y,z
-x,y,1/2-z
-x,-y,-z
x,-y,1/2+z
1/2+x,1/2+y,z
1/2-x,1/2+y,1/2-z
1/2-x,1/2-y,-z
1/2+x,1/2-y,1/2+z
loop_
_atom_site_type_symbol
_atom_site_label
_atom_site_fract_x
_atom_site_fract_y
_atom_site_fract_z
Si Si1 0.884126 0.521285 0.775029
Si Si2 0.038320 0.306855 0.683646
Si Si3 0.830099 0.653280 0.028907
Si Si4 0.712095 0.654817 0.647975
Si Si5 0.986938 0.371981 0.426776
Si Si6 0.850545 0.784768 0.581132
Si Si7 0.233233 0.049553 0.513403
O O1 0.870035 0.402577 0.784897
O O2 0.763764 0.572908 0.713422
O O3 0.000000 0.542163 0.750000
O O4 0.897372 0.573366 0.852604
O O5 0.097816 0.215495 0.655052
O O6 0.000000 0.263757 0.750000
O O7 0.912311 0.342734 0.617193
O O8 0.923785 0.629096 0.987319
O O9 0.750000 0.750000 0.000000
O O10 0.723580 0.568697 0.011455
O O11 0.812906 0.740248 0.648250
O O12 0.670828 0.594214 0.569721
O O13 0.012840 0.258107 0.407874
O O14 0.118675 0.428538 0.458069
O O15 0.750000 0.750000 0.500000
O O16 0.841958 0.904740 0.571229
#
# Coordination Sequence:
#
# PCOD8132453 Si02
#       7
#     8   8   8   8   8   8   8
#     4  11  19  37  64  91 116 160 206 257 298 369
#     4  11  24  41  61  90 126 164 204 254 313 370
#     4  12  25  39  61  93 127 161 207 256 312 373
#     4  10  20  37  62  88 122 153 204 253 307 357
#     4  10  19  35  59  88 120 149 208 253 300 351
#     4   8  16  30  58  88 114 145 196 254 300 344
#     4  10  18  37  64  89 112 157 205 254 304 362
#
# _framework density 20.291789999999999
#
# number of rings (size 3 to 8) (size 9 to 14) (size 15 to 20)
#    0.000    2.000    4.286    3.857    4.000    0.000 
#    0.000    2.857    0.000    2.571    0.000    0.000 
#    0.000    0.000    0.000    0.000    0.000    0.000 
#
# Total GULP energy -346933.749504 kJ/mol
# GULP energy per Si atom -12390.491054 kJ/mol
# Density = 2.024560 g / cm^3
# Si number density = 20.291790 Si / 1000 Ang^3
#
#
#
# Elastic Constant Matrix: (Units=GPa)
#
#
# Indices 1 2 3 4 5 6 
#
# 1 42.8491 38.4742 22.3656 0.0000 -19.5482 0.0000
# 2 38.4742 151.7885 32.3076 0.0000 -4.0816 0.0000
# 3 22.3656 32.3076 73.4128 0.0000 -23.9000 0.0000
# 4 0.0000 0.0000 0.0000 30.2640 0.0000 8.8468
# 5 -19.5482 -4.0816 -23.9000 0.0000 28.1557 0.0000
# 6 0.0000 0.0000 0.0000 8.8468 0.0000 31.6158
#
#
#
# Elastic Compliance Matrix: (Units=1/GPa)
#
#
# Indices 1 2 3 4 5 6 
#
# 1 0.047953 -0.011501 0.001034 0.000000 0.032504 0.000000
# 2 -0.011501 0.010136 -0.004254 0.000000 -0.010126 0.000000
# 3 0.001034 -0.004254 0.021020 0.000000 0.017945 0.000000
# 4 0.000000 0.000000 0.000000 0.035986 0.000000 -0.010070
# 5 0.032504 -0.010126 0.017945 0.000000 0.071849 0.000000
# 6 0.000000 0.000000 0.000000 -0.010070 0.000000 0.034448
#
#
# Mechanical properties :
#
#
# Convention : Reuss Voigt Hill
#
# Bulk Modulus (GPa) = 20.13325 50.48279 35.30802
# Shear Modulus (GPa) = 18.69927 29.66730 24.18329
#
# Velocity S-wave (km/s) = 3.03895 3.82780 3.45596
# Velocity P-wave (km/s) = 4.71773 6.66847 5.77605
#
# Compressibility (1/GPa) = 0.04966908
#
# Stress axis : x y z
#
# Youngs Moduli (GPa) = 20.85354 98.65475 47.57263
#
# Poissons Ratio (x) = 1.13462 -0.04919
# Poissons Ratio (y) = 0.23983 0.20236
# Poissons Ratio (z) = -0.02156 0.41965
#
# Static dielectric constant tensor:
#      x y z
#    x 3.317360 0.000000 -0.142710 
#    y 0.000000 4.375710 0.000000 
#    z -0.142710 0.000000 3.822780 
# 
# 
# High freq. dielectric constant tensor:
#      x y z
#    x 1.749290 0.000000 -0.023100 
#    y 0.000000 1.799870 0.000000 
#    z -0.023100 0.000000 1.786080 
# 
# From -- ./inp_files/204124.got.cif
#   From: 2010.06.25/outbox.cif.g09.slc.cpg/sg15_103_cif.got.tgz:204124.got - 2010.06.28 07:06:18.
