data_PCOD8132925
_publ_section_title
;
Structure prediction by ZEFSAII (Michael W. Deem and Ramdas Pophale) SiO2 
 PCOD8132925
Probable space group: C 2/C
;
_chemical_formula_sum "Si O2"
_cell_formula_units_Z 40
_cell_length_a 9.882588
_cell_length_b 15.034417
_cell_length_c 16.528124
_cell_angle_alpha 90.000000
_cell_angle_beta 112.590116
_cell_angle_gamma 90.000000
_cell_volume 2267.318987
_symmetry_space_group_name_H-M "C 2/C"
_symmetry_group_IT_number 15
_symmetry_cell_setting 'monoclinic'
loop_
_space_group_symop_operation_xyz
x,y,z
-x,y,1/2-z
-x,-y,-z
x,-y,1/2+z
1/2+x,1/2+y,z
1/2-x,1/2+y,1/2-z
1/2-x,1/2-y,-z
1/2+x,1/2-y,1/2+z
loop_
_atom_site_type_symbol
_atom_site_label
_atom_site_fract_x
_atom_site_fract_y
_atom_site_fract_z
Si Si1 0.111088 0.248070 0.202803
Si Si2 0.239598 0.566540 0.285905
Si Si3 0.574899 0.116962 0.567646
Si Si4 0.665751 0.390471 0.267584
Si Si5 0.961412 0.557509 0.111570
O O1 0.143822 0.145113 0.196360
O O2 0.038391 0.289526 0.104097
O O3 0.259159 0.304202 0.257612
O O4 0.000000 0.260818 0.250000
O O5 0.325551 0.474856 0.290011
O O6 0.178222 0.566014 0.362604
O O7 0.109074 0.581286 0.192559
O O8 0.742615 0.088329 0.628997
O O9 0.557891 0.126586 0.467264
O O10 0.464363 0.042386 0.577120
O O11 0.500000 0.366244 0.250000
#
# Coordination Sequence:
#
# PCOD8132925 Si02
#       5
#     8   8   8   8   8
#     4  10  20  34  53  78 105 142 177 217 262 312
#     4  10  19  30  57  77 110 133 180 214 269 311
#     4   8  18  33  56  74 110 137 180 213 261 316
#     4   9  19  34  52  77 105 137 176 218 259 311
#     4   9  17  34  53  83 101 145 172 219 261 319
#
# _framework density 17.641981999999999
#
# number of rings (size 3 to 8) (size 9 to 14) (size 15 to 20)
#    1.200    1.600    0.000    1.800    2.800    0.800 
#    0.000    2.000    0.000    0.000    0.000    0.000 
#    0.000    0.000    0.000    0.000    0.000    0.000 
#
# Total GULP energy -247843.821367 kJ/mol
# GULP energy per Si atom -12392.191068 kJ/mol
# Density = 1.760183 g / cm^3
# Si number density = 17.641982 Si / 1000 Ang^3
#
#
#
# Elastic Constant Matrix: (Units=GPa)
#
#
# Indices 1 2 3 4 5 6 
#
# 1 105.9746 18.8157 28.6289 0.0000 -25.5924 0.0000
# 2 18.8157 68.5809 9.6691 0.0000 -11.9994 0.0000
# 3 28.6289 9.6691 98.7787 0.0000 -23.5990 0.0000
# 4 0.0000 0.0000 0.0000 7.7851 0.0000 -2.8795
# 5 -25.5924 -11.9994 -23.5990 0.0000 20.1116 0.0000
# 6 0.0000 0.0000 0.0000 -2.8795 0.0000 28.9598
#
#
#
# Elastic Compliance Matrix: (Units=1/GPa)
#
#
# Indices 1 2 3 4 5 6 
#
# 1 0.013664 -0.000773 0.000221 0.000000 0.017187 0.000000
# 2 -0.000773 0.016398 0.001002 0.000000 0.009976 0.000000
# 3 0.000221 0.001002 0.014134 0.000000 0.017464 0.000000
# 4 0.000000 0.000000 0.000000 0.133355 0.000000 0.013259
# 5 0.017187 0.009976 0.017464 0.000000 0.098038 0.000000
# 6 0.000000 0.000000 0.000000 0.013259 0.000000 0.035849
#
#
# Mechanical properties :
#
#
# Convention : Reuss Voigt Hill
#
# Bulk Modulus (GPa) = 22.17460 43.06242 32.61851
# Shear Modulus (GPa) = 15.35778 25.78598 20.57188
#
# Velocity S-wave (km/s) = 2.95367 3.82727 3.41849
# Velocity P-wave (km/s) = 4.92227 6.63270 5.84044
#
# Compressibility (1/GPa) = 0.04509663
#
# Stress axis : x y z
#
# Youngs Moduli (GPa) = 73.18429 60.98482 70.75274
#
# Poissons Ratio (x) = 0.04714 -0.01567
# Poissons Ratio (y) = 0.05657 -0.07091
# Poissons Ratio (z) = -0.01620 -0.06112
#
# Static dielectric constant tensor:
#      x y z
#    x 3.024110 0.000000 -0.116430 
#    y 0.000000 3.152760 0.000000 
#    z -0.116430 0.000000 3.204950 
# 
# 
# High freq. dielectric constant tensor:
#      x y z
#    x 1.666520 0.000000 -0.016370 
#    y 0.000000 1.677640 0.000000 
#    z -0.016370 0.000000 1.666470 
# 
# From -- ./inp_files/188394.got.cif
#   From: 2010.06.25/outbox.cif.g09.slc.cpg/sg15_95_cif.got.tgz:188394.got - 2010.06.28 07:06:18.
