data_PCOD8132284
_publ_section_title
;
Structure prediction by ZEFSAII (Michael W. Deem and Ramdas Pophale) SiO2 
 PCOD8132284
Probable space group: C 2/C
;
_chemical_formula_sum "Si O2"
_cell_formula_units_Z 60
_cell_length_a 27.276037
_cell_length_b 20.662875
_cell_length_c 13.839952
_cell_angle_alpha 90.000000
_cell_angle_beta 157.421325
_cell_angle_gamma 90.000000
_cell_volume 2994.905899
_symmetry_space_group_name_H-M "C 2/C"
_symmetry_group_IT_number 15
_symmetry_cell_setting 'monoclinic'
loop_
_space_group_symop_operation_xyz
x,y,z
-x,y,1/2-z
-x,-y,-z
x,-y,1/2+z
1/2+x,1/2+y,z
1/2-x,1/2+y,1/2-z
1/2-x,1/2-y,-z
1/2+x,1/2-y,1/2+z
loop_
_atom_site_type_symbol
_atom_site_label
_atom_site_fract_x
_atom_site_fract_y
_atom_site_fract_z
Si Si1 0.000000 0.973796 0.250000
Si Si2 0.888472 0.172365 0.209282
Si Si3 0.954559 0.738651 0.272153
Si Si4 0.530428 0.067693 0.508950
Si Si5 0.398963 0.806067 0.285325
Si Si6 0.204098 0.917829 0.116955
Si Si7 0.939490 0.879221 0.310524
Si Si8 0.293544 0.121289 0.987555
O O1 0.004171 0.931954 0.159783
O O2 0.127926 0.015699 0.489731
O O3 0.945114 0.246468 0.299203
O O4 0.968386 0.129849 0.430077
O O5 0.749135 0.180540 0.002627
O O6 0.883665 0.134525 0.099368
O O7 0.919067 0.813518 0.213923
O O8 0.000000 0.718523 0.250000
O O9 0.074602 0.720546 0.558380
O O10 0.827594 0.697024 0.065072
O O11 0.526133 0.124811 0.584311
O O12 0.667955 0.067533 0.709301
O O13 0.500000 0.000000 0.500000
O O14 0.423162 0.079879 0.232604
O O15 0.231090 0.888317 0.270017
O O16 0.803270 0.901615 0.104878
#
# Coordination Sequence:
#
# PCOD8132284 Si02
#       8
#     4   8   8   8   8   8   8   8
#     4  12  26  42  56  88 128 160 208 250 322 382
#     4   9  18  36  57  85 115 154 203 244 301 350
#     4  10  18  36  62  89 119 153 201 253 309 362
#     4  10  20  37  61  90 120 160 200 250 312 369
#     4   8  17  32  58  87 116 151 198 248 295 358
#     4  11  23  38  60  87 120 162 204 248 295 375
#     4  11  23  38  59  87 122 161 195 259 312 373
#     4  11  22  38  62  90 118 158 209 253 305 369
#
# _framework density 20.034018
#
# number of rings (size 3 to 8) (size 9 to 14) (size 15 to 20)
#    0.000    1.867    0.667    4.800    0.000    4.267 
#    0.000    0.000    0.000    0.000    6.933    0.000 
#    0.000    0.000    0.000    0.000    0.000    0.000 
#
# Total GULP energy -371829.768832 kJ/mol
# GULP energy per Si atom -12394.325628 kJ/mol
# Density = 1.998842 g / cm^3
# Si number density = 20.034018 Si / 1000 Ang^3
#
#
#
# Elastic Constant Matrix: (Units=GPa)
#
#
# Indices 1 2 3 4 5 6 
#
# 1 88.7413 56.6437 40.5278 0.0000 4.3564 0.0000
# 2 56.6437 161.7763 55.4471 0.0000 -8.0162 0.0000
# 3 40.5278 55.4471 109.9376 0.0000 -6.4868 0.0000
# 4 0.0000 0.0000 0.0000 26.2218 0.0000 5.5568
# 5 4.3564 -8.0162 -6.4868 0.0000 27.4056 0.0000
# 6 0.0000 0.0000 0.0000 5.5568 0.0000 29.4777
#
#
#
# Elastic Compliance Matrix: (Units=1/GPa)
#
#
# Indices 1 2 3 4 5 6 
#
# 1 0.016233 -0.004564 -0.003969 0.000000 -0.004855 0.000000
# 2 -0.004564 0.008803 -0.002599 0.000000 0.002685 0.000000
# 3 -0.003969 -0.002599 0.012030 0.000000 0.002718 0.000000
# 4 0.000000 0.000000 0.000000 0.039723 0.000000 -0.007488
# 5 -0.004855 0.002685 0.002718 0.000000 0.038689 0.000000
# 6 0.000000 0.000000 0.000000 -0.007488 0.000000 0.035336
#
#
# Mechanical properties :
#
#
# Convention : Reuss Voigt Hill
#
# Bulk Modulus (GPa) = 67.55431 73.96584 70.76008
# Shear Modulus (GPa) = 28.08801 30.47678 29.28240
#
# Velocity S-wave (km/s) = 3.74841 3.90455 3.82728
# Velocity P-wave (km/s) = 7.24756 7.57150 7.41130
#
# Compressibility (1/GPa) = 0.01480290
#
# Stress axis : x y z
#
# Youngs Moduli (GPa) = 61.60401 113.59480 83.12359
#
# Poissons Ratio (x) = 0.51844 0.32989
# Poissons Ratio (y) = 0.28116 0.21604
# Poissons Ratio (z) = 0.24449 0.29523
#
# Static dielectric constant tensor:
#      x y z
#    x 3.412700 0.000000 -0.023480 
#    y 0.000000 3.973360 0.000000 
#    z -0.023480 0.000000 3.879680 
# 
# 
# High freq. dielectric constant tensor:
#      x y z
#    x 1.750240 0.000000 -0.005940 
#    y 0.000000 1.792590 0.000000 
#    z -0.005940 0.000000 1.797450 
# 
# From -- ./inp_files/183093.got.cif
#   From: 2010.06.25/outbox.cif.g09.slc.cpg/sg15_92_cif.got.tgz:183093.got - 2010.06.28 07:06:18.
