data_PCOD8132809
_publ_section_title
;
Structure prediction by ZEFSAII (Michael W. Deem and Ramdas Pophale) SiO2 
 PCOD8132809
Probable space group: C 2/C
;
_chemical_formula_sum "Si O2"
_cell_formula_units_Z 60
_cell_length_a 23.746049
_cell_length_b 15.055665
_cell_length_c 12.286050
_cell_angle_alpha 90.000000
_cell_angle_beta 139.131340
_cell_angle_gamma 90.000000
_cell_volume 2874.078357
_symmetry_space_group_name_H-M "C 2/C"
_symmetry_group_IT_number 15
_symmetry_cell_setting 'monoclinic'
loop_
_space_group_symop_operation_xyz
x,y,z
-x,y,1/2-z
-x,-y,-z
x,-y,1/2+z
1/2+x,1/2+y,z
1/2-x,1/2+y,1/2-z
1/2-x,1/2-y,-z
1/2+x,1/2-y,1/2+z
loop_
_atom_site_type_symbol
_atom_site_label
_atom_site_fract_x
_atom_site_fract_y
_atom_site_fract_z
Si Si1 0.928382 0.694583 0.882349
Si Si2 0.103580 0.603566 0.077383
Si Si3 0.672413 0.921601 0.107018
Si Si4 0.828293 0.318581 0.615721
Si Si5 0.101721 0.739447 0.891504
Si Si6 0.449940 0.329501 0.354773
Si Si7 0.000000 0.033335 0.750000
Si Si8 0.861567 0.093080 0.938104
O O1 0.861729 0.660755 0.873583
O O2 0.873367 0.707198 0.692117
O O3 0.006326 0.625039 0.974058
O O4 0.960266 0.792831 0.965925
O O5 0.109344 0.503972 0.039159
O O6 0.170486 0.620967 0.273603
O O7 0.132329 0.666131 0.021167
O O8 0.768785 0.950667 0.281391
O O9 0.670859 0.889446 0.980320
O O10 0.750000 0.250000 0.500000
O O11 0.911939 0.256102 0.736789
O O12 0.000000 0.757358 0.750000
O O13 0.150315 0.830628 0.989291
O O14 0.456146 0.408317 0.278618
O O15 0.392605 0.362763 0.371014
O O16 0.927857 0.977947 0.581976
#
# Coordination Sequence:
#
# PCOD8132809 Si02
#       8
#     8   8   8   8   8   8   4   8
#     4  10  22  44  68  96 134 173 229 272 334 412
#     4  10  23  41  66  96 130 178 223 268 340 393
#     4  12  26  38  66 106 132 171 228 282 332 401
#     4  11  22  44  68  90 143 177 213 275 337 400
#     4  10  18  43  69  84 126 179 212 264 336 398
#     4  11  22  46  67  94 127 190 217 266 348 397
#     4  12  26  40  72  96 132 166 238 280 318 424
#     4  12  23  44  65  96 132 173 219 278 346 388
#
# _framework density 20.876256999999999
#
# number of rings (size 3 to 8) (size 9 to 14) (size 15 to 20)
#    0.000    1.067    6.000    1.600    3.733    2.133 
#    9.600    0.000    0.000    0.000    0.000    0.000 
#    0.000    0.000    0.000    0.000    0.000    0.000 
#
# Total GULP energy -371975.236425 kJ/mol
# GULP energy per Si atom -12399.174548 kJ/mol
# Density = 2.082874 g / cm^3
# Si number density = 20.876257 Si / 1000 Ang^3
#
#
#
# Elastic Constant Matrix: (Units=GPa)
#
#
# Indices 1 2 3 4 5 6 
#
# 1 45.3596 25.7933 38.2553 0.0000 -11.2242 0.0000
# 2 25.7933 99.4006 40.3446 0.0000 -12.6712 0.0000
# 3 38.2553 40.3446 123.6293 0.0000 -24.4272 0.0000
# 4 0.0000 0.0000 0.0000 31.8967 0.0000 -9.8735
# 5 -11.2242 -12.6712 -24.4272 0.0000 31.1450 0.0000
# 6 0.0000 0.0000 0.0000 -9.8735 0.0000 22.7410
#
#
#
# Elastic Compliance Matrix: (Units=1/GPa)
#
#
# Indices 1 2 3 4 5 6 
#
# 1 0.032117 -0.004759 -0.007669 0.000000 0.003623 0.000000
# 2 -0.004759 0.012416 -0.002272 0.000000 0.001554 0.000000
# 3 -0.007669 -0.002272 0.012395 0.000000 0.006034 0.000000
# 4 0.000000 0.000000 0.000000 0.036219 0.000000 0.015725
# 5 0.003623 0.001554 0.006034 0.000000 0.038778 0.000000
# 6 0.000000 0.000000 0.000000 0.015725 0.000000 0.050801
#
#
# Mechanical properties :
#
#
# Convention : Reuss Voigt Hill
#
# Bulk Modulus (GPa) = 36.32770 53.01954 44.67362
# Shear Modulus (GPa) = 22.59356 28.08962 25.34159
#
# Velocity S-wave (km/s) = 3.29334 3.67213 3.48788
# Velocity P-wave (km/s) = 5.64807 6.59026 6.13727
#
# Compressibility (1/GPa) = 0.02752721
#
# Stress axis : x y z
#
# Youngs Moduli (GPa) = 31.13624 80.54438 80.67580
#
# Poissons Ratio (x) = 0.38334 0.61871
# Poissons Ratio (y) = 0.14819 0.18328
# Poissons Ratio (z) = 0.23879 0.18298
#
# Static dielectric constant tensor:
#      x y z
#    x 3.554580 0.000000 -0.249730 
#    y 0.000000 3.756280 0.000000 
#    z -0.249730 0.000000 4.184010 
# 
# 
# High freq. dielectric constant tensor:
#      x y z
#    x 1.800720 0.000000 -0.018250 
#    y 0.000000 1.817920 0.000000 
#    z -0.018250 0.000000 1.832340 
# 
# From -- ./inp_files/105393.got.cif
#   From: 2010.06.25/outbox.cif.g09.slc.cpg/sg15_53_cif.got.tgz:105393.got - 2010.06.28 07:06:18.
