data_PCOD8132602
_publ_section_title
;
Structure prediction by ZEFSAII (Michael W. Deem and Ramdas Pophale) SiO2 
 PCOD8132602
Probable space group: C 2/C
;
_chemical_formula_sum "Si O2"
_cell_formula_units_Z 36
_cell_length_a 24.007135
_cell_length_b 7.677105
_cell_length_c 9.233288
_cell_angle_alpha 90.000000
_cell_angle_beta 95.532237
_cell_angle_gamma 90.000000
_cell_volume 1693.817350
_symmetry_space_group_name_H-M "C 2/C"
_symmetry_group_IT_number 15
_symmetry_cell_setting 'monoclinic'
loop_
_space_group_symop_operation_xyz
x,y,z
-x,y,1/2-z
-x,-y,-z
x,-y,1/2+z
1/2+x,1/2+y,z
1/2-x,1/2+y,1/2-z
1/2-x,1/2-y,-z
1/2+x,1/2-y,1/2+z
loop_
_atom_site_type_symbol
_atom_site_label
_atom_site_fract_x
_atom_site_fract_y
_atom_site_fract_z
Si Si1 0.823920 0.829188 0.002364
Si Si2 0.318750 0.055251 0.515586
Si Si3 0.925903 0.376556 0.479231
Si Si4 0.285458 0.368010 0.685115
Si Si5 0.000000 0.499903 0.250000
O O1 0.889577 0.800991 0.978130
O O2 0.789652 0.897954 0.855919
O O3 0.798080 0.642510 0.048432
O O4 0.819657 0.974124 0.123018
O O5 0.313874 0.181276 0.653707
O O6 0.279505 0.133063 0.378869
O O7 0.383275 0.044131 0.477008
O O8 0.958560 0.379443 0.334923
O O9 0.966911 0.379043 0.628011
#
# Coordination Sequence:
#
# PCOD8132602 Si02
#       5
#     8   8   8   8   4
#     4  10  24  38  60  94 125 165 202 249 295 380
#     4   9  23  38  59  93 125 169 193 250 297 384
#     4   9  21  37  62  88 119 152 218 248 310 356
#     4  11  22  38  64  90 134 163 197 242 314 366
#     4  10  18  38  66  86 108 168 204 270 308 350
#
# _framework density 21.253768000000001
#
# number of rings (size 3 to 8) (size 9 to 14) (size 15 to 20)
#    1.333    0.889    0.000    2.000    6.222    3.556 
#    0.000    0.000    0.000   22.667    0.000    0.000 
#    0.000    0.000    0.000    0.000    0.000    0.000 
#
# Total GULP energy -223095.316443 kJ/mol
# GULP energy per Si atom -12394.184247 kJ/mol
# Density = 2.120539 g / cm^3
# Si number density = 21.253768 Si / 1000 Ang^3
#
#
#
# Elastic Constant Matrix: (Units=GPa)
#
#
# Indices 1 2 3 4 5 6 
#
# 1 115.7882 17.5395 41.7520 0.0000 -5.1998 0.0000
# 2 17.5395 119.2570 35.9115 0.0000 -10.2185 0.0000
# 3 41.7520 35.9115 93.3643 0.0000 -10.0092 0.0000
# 4 0.0000 0.0000 0.0000 22.0568 0.0000 0.4957
# 5 -5.1998 -10.2185 -10.0092 0.0000 27.6671 0.0000
# 6 0.0000 0.0000 0.0000 0.4957 0.0000 15.7806
#
#
#
# Elastic Compliance Matrix: (Units=1/GPa)
#
#
# Indices 1 2 3 4 5 6 
#
# 1 0.010301 -0.000130 -0.004530 0.000000 0.000249 0.000000
# 2 -0.000130 0.009625 -0.003397 0.000000 0.002301 0.000000
# 3 -0.004530 -0.003397 0.014375 0.000000 0.003094 0.000000
# 4 0.000000 0.000000 0.000000 0.045369 0.000000 -0.001425
# 5 0.000249 0.002301 0.003094 0.000000 0.038160 0.000000
# 6 0.000000 0.000000 0.000000 -0.001425 0.000000 0.063414
#
#
# Mechanical properties :
#
#
# Convention : Reuss Voigt Hill
#
# Bulk Modulus (GPa) = 54.98518 57.64615 56.31566
# Shear Modulus (GPa) = 24.57978 28.64801 26.61390
#
# Velocity S-wave (km/s) = 3.40441 3.67536 3.54248
# Velocity P-wave (km/s) = 6.43275 6.72255 6.57925
#
# Compressibility (1/GPa) = 0.01818672
#
# Stress axis : x y z
#
# Youngs Moduli (GPa) = 97.08084 103.90135 69.56549
#
# Poissons Ratio (x) = 0.01346 0.31512
# Poissons Ratio (y) = 0.01257 0.23634
# Poissons Ratio (z) = 0.43976 0.35299
#
# Static dielectric constant tensor:
#      x y z
#    x 3.947880 0.000000 0.045310 
#    y 0.000000 3.597810 0.000000 
#    z 0.045310 0.000000 3.632260 
# 
# 
# High freq. dielectric constant tensor:
#      x y z
#    x 1.838010 0.000000 -0.001510 
#    y 0.000000 1.802030 0.000000 
#    z -0.001510 0.000000 1.837900 
# 
# From -- ./inp_files/59770.got.cif
#   From: 2010.06.25/outbox.cif.g09.slc.cpg/sg15_30_cif.got.tgz:59770.got - 2010.06.28 07:06:18.
