data_PCOD8132786
_publ_section_title
;
Structure prediction by ZEFSAII (Michael W. Deem and Ramdas Pophale) SiO2 
 PCOD8132786
Probable space group: C 2/C
;
_chemical_formula_sum "Si O2"
_cell_formula_units_Z 60
_cell_length_a 19.311856
_cell_length_b 12.490179
_cell_length_c 30.246791
_cell_angle_alpha 90.000000
_cell_angle_beta 155.848589
_cell_angle_gamma 90.000000
_cell_volume 2985.065556
_symmetry_space_group_name_H-M "C 2/C"
_symmetry_group_IT_number 15
_symmetry_cell_setting 'monoclinic'
loop_
_space_group_symop_operation_xyz
x,y,z
-x,y,1/2-z
-x,-y,-z
x,-y,1/2+z
1/2+x,1/2+y,z
1/2-x,1/2+y,1/2-z
1/2-x,1/2-y,-z
1/2+x,1/2-y,1/2+z
loop_
_atom_site_type_symbol
_atom_site_label
_atom_site_fract_x
_atom_site_fract_y
_atom_site_fract_z
Si Si1 0.755236 0.974858 0.458241
Si Si2 0.000000 0.403741 0.750000
Si Si3 0.171787 0.552950 0.193697
Si Si4 0.407890 0.702956 0.991600
Si Si5 0.216010 0.231218 0.674596
Si Si6 0.949892 0.889401 0.349041
Si Si7 0.797428 0.302370 0.706480
Si Si8 0.948683 0.362971 0.088033
O O1 0.593370 0.021091 0.339202
O O2 0.854717 0.073435 0.539500
O O3 0.880498 0.913972 0.497184
O O4 0.691566 0.891035 0.457554
O O5 0.866584 0.329564 0.698234
O O6 0.149334 0.649481 0.146178
O O7 0.339548 0.493927 0.274793
O O8 0.185389 0.596054 0.251545
O O9 0.015915 0.470418 0.103242
O O10 0.599490 0.724948 0.087508
O O11 0.355922 0.793056 0.996709
O O12 0.282637 0.712433 0.876906
O O13 0.085879 0.149731 0.621854
O O14 0.400768 0.208580 0.803008
O O15 0.906289 0.797149 0.288438
#
# Coordination Sequence:
#
# PCOD8132786 Si02
#       8
#     8   4   8   8   8   8   8   8
#     4  12  24  38  64  93 126 167 204 256 322 367
#     4  12  26  38  60  98 128 156 212 266 302 378
#     4  10  18  42  65  83 125 168 202 252 315 370
#     4  12  23  39  67  93 121 166 214 255 310 375
#     4  10  22  38  64  93 121 164 212 260 306 371
#     4  10  21  41  64  86 121 172 204 252 320 366
#     4  11  22  42  62  90 125 159 211 264 301 370
#     4  11  22  42  60  93 133 161 206 262 308 368
#
# _framework density 20.100061
#
# number of rings (size 3 to 8) (size 9 to 14) (size 15 to 20)
#    0.000    1.067    6.667    2.000    1.867    2.133 
#    2.400    0.000    0.000    0.000    0.000    0.000 
#    0.000    0.000    0.000    0.000    0.000    0.000 
#
# Total GULP energy -372061.147928 kJ/mol
# GULP energy per Si atom -12402.038264 kJ/mol
# Density = 2.005431 g / cm^3
# Si number density = 20.100061 Si / 1000 Ang^3
#
#
#
# Elastic Constant Matrix: (Units=GPa)
#
#
# Indices 1 2 3 4 5 6 
#
# 1 105.7689 30.0427 26.9241 0.0000 -4.5645 -0.0001
# 2 30.0427 93.1431 22.2319 -0.0022 -3.0418 0.0007
# 3 26.9241 22.2319 51.2609 -0.0063 -0.0028 0.0015
# 4 0.0000 -0.0022 -0.0063 20.2807 0.0042 2.1093
# 5 -4.5645 -3.0418 -0.0028 0.0042 28.6113 0.0001
# 6 -0.0001 0.0007 0.0015 2.1093 0.0001 32.8238
#
#
#
# Elastic Compliance Matrix: (Units=1/GPa)
#
#
# Indices 1 2 3 4 5 6 
#
# 1 0.011487 -0.002469 -0.004962 -0.000002 0.001570 0.000000
# 2 -0.002469 0.012553 -0.004147 0.000000 0.000940 0.000000
# 3 -0.004962 -0.004147 0.023913 0.000007 -0.001230 -0.000001
# 4 -0.000002 0.000000 0.000007 0.049640 -0.000008 -0.003190
# 5 0.001570 0.000940 -0.001230 -0.000008 0.035301 0.000000
# 6 0.000000 0.000000 -0.000001 -0.003190 0.000000 0.030671
#
#
# Mechanical properties :
#
#
# Convention : Reuss Voigt Hill
#
# Bulk Modulus (GPa) = 40.33024 45.39670 42.86347
# Shear Modulus (GPa) = 25.64260 27.74145 26.69203
#
# Velocity S-wave (km/s) = 3.57564 3.71909 3.64807
# Velocity P-wave (km/s) = 6.09551 6.40910 6.25427
#
# Compressibility (1/GPa) = 0.02479529
#
# Stress axis : x y z
#
# Youngs Moduli (GPa) = 87.05587 79.66062 41.81822
#
# Poissons Ratio (x) = 0.19671 0.20751
# Poissons Ratio (y) = 0.21497 0.17343
# Poissons Ratio (z) = 0.43200 0.33038
#
# Static dielectric constant tensor:
#      x y z
#    x 3.595260 0.000000 0.036850 
#    y 0.000000 3.718050 -0.000010 
#    z 0.036850 -0.000010 3.415000 
# 
# 
# High freq. dielectric constant tensor:
#      x y z
#    x 1.777850 0.000000 0.005020 
#    y 0.000000 1.796130 0.000000 
#    z 0.005020 0.000000 1.768080 
# 
# From -- ./inp_files/298974.got.cif
#   From: 2010.06.25/outbox.cif.g09.slc.cpg/sg15_150_cif.got.tgz:298974.got - 2010.06.28 07:06:18.
