data_PCOD8132166
_publ_section_title
;
Structure prediction by ZEFSAII (Michael W. Deem and Ramdas Pophale) SiO2 
 PCOD8132166
Probable space group: C 2/C
;
_chemical_formula_sum "Si O2"
_cell_formula_units_Z 44
_cell_length_a 10.133501
_cell_length_b 23.251745
_cell_length_c 10.626023
_cell_angle_alpha 90.000000
_cell_angle_beta 108.669334
_cell_angle_gamma 90.000000
_cell_volume 2371.978937
_symmetry_space_group_name_H-M "C 2/C"
_symmetry_group_IT_number 15
_symmetry_cell_setting 'monoclinic'
loop_
_space_group_symop_operation_xyz
x,y,z
-x,y,1/2-z
-x,-y,-z
x,-y,1/2+z
1/2+x,1/2+y,z
1/2-x,1/2+y,1/2-z
1/2-x,1/2-y,-z
1/2+x,1/2-y,1/2+z
loop_
_atom_site_type_symbol
_atom_site_label
_atom_site_fract_x
_atom_site_fract_y
_atom_site_fract_z
Si Si1 0.921410 0.436757 0.597914
Si Si2 0.500000 0.252093 0.750000
Si Si3 0.036052 0.224579 0.995031
Si Si4 0.706046 0.166219 0.546996
Si Si5 0.098644 0.565669 0.900172
Si Si6 0.742789 0.168870 0.844733
O O1 0.801923 0.389609 0.544176
O O2 0.849403 0.499518 0.584507
O O3 0.000000 0.423246 0.750000
O O4 0.021653 0.426639 0.509025
O O5 0.446490 0.290619 0.850633
O O6 0.623121 0.213683 0.846886
O O7 0.068902 0.293003 0.988565
O O8 0.150814 0.194895 0.946616
O O9 0.887015 0.202864 0.902944
O O10 0.720937 0.147846 0.695981
O O11 0.226412 0.611497 0.927474
O O12 0.000000 0.577237 0.750000
#
# Coordination Sequence:
#
# PCOD8132166 Si02
#       6
#     8   4   8   8   8   8
#     4  10  21  33  57  85 110 144 186 244 279 317
#     4  10  20  34  54  82 114 140 188 234 274 342
#     4  10  22  34  56  81 113 154 184 231 287 342
#     4  10  21  38  53  82 117 147 190 236 277 342
#     4  10  18  36  58  81 109 144 194 233 275 337
#     4  11  19  36  59  80 108 156 189 226 285 348
#
# _framework density 18.549911000000002
#
# number of rings (size 3 to 8) (size 9 to 14) (size 15 to 20)
#    0.000    1.818    2.727    2.182    0.000    5.818 
#    0.000    0.909    0.000    0.000    0.000    0.000 
#    0.000    0.000    0.000    0.000    0.000    0.000 
#
# Total GULP energy -272598.348921 kJ/mol
# GULP energy per Si atom -12390.834042 kJ/mol
# Density = 1.850769 g / cm^3
# Si number density = 18.549911 Si / 1000 Ang^3
#
#
#
# Elastic Constant Matrix: (Units=GPa)
#
#
# Indices 1 2 3 4 5 6 
#
# 1 86.4460 40.9535 29.6755 0.0000 5.8445 0.0000
# 2 40.9535 88.4469 41.1348 0.0000 10.6027 0.0000
# 3 29.6755 41.1348 90.6506 0.0000 -9.9660 0.0000
# 4 0.0000 0.0000 0.0000 30.6908 0.0000 -5.5438
# 5 5.8445 10.6027 -9.9660 0.0000 36.7281 0.0000
# 6 0.0000 0.0000 0.0000 -5.5438 0.0000 21.0711
#
#
#
# Elastic Compliance Matrix: (Units=1/GPa)
#
#
# Indices 1 2 3 4 5 6 
#
# 1 0.015245 -0.005683 -0.002575 0.000000 -0.001484 0.000000
# 2 -0.005683 0.017901 -0.006938 0.000000 -0.006146 0.000000
# 3 -0.002575 -0.006938 0.015758 0.000000 0.006688 0.000000
# 4 0.000000 0.000000 0.000000 0.034209 0.000000 0.009000
# 5 -0.001484 -0.006146 0.006688 0.000000 0.031052 0.000000
# 6 0.000000 0.000000 0.000000 0.009000 0.000000 0.049826
#
#
# Mechanical properties :
#
#
# Convention : Reuss Voigt Hill
#
# Bulk Modulus (GPa) = 54.02138 54.34124 54.18131
# Shear Modulus (GPa) = 24.93085 27.94997 26.44041
#
# Velocity S-wave (km/s) = 3.67002 3.88589 3.77950
# Velocity P-wave (km/s) = 6.86616 7.03504 6.95111
#
# Compressibility (1/GPa) = 0.01851119
#
# Stress axis : x y z
#
# Youngs Moduli (GPa) = 65.59719 55.86139 63.45997
#
# Poissons Ratio (x) = 0.31748 0.16339
# Poissons Ratio (y) = 0.37282 0.44031
# Poissons Ratio (z) = 0.16889 0.38759
#
# Static dielectric constant tensor:
#      x y z
#    x 3.321590 0.000000 -0.262270 
#    y 0.000000 3.682400 0.000000 
#    z -0.262270 0.000000 3.412220 
# 
# 
# High freq. dielectric constant tensor:
#      x y z
#    x 1.706150 0.000000 -0.030150 
#    y 0.000000 1.717070 0.000000 
#    z -0.030150 0.000000 1.720000 
# 
# From -- ./inp_files/79046.got.cif
#   From: 2010.06.25/outbox.cif.g09.slc.cpg/sg15_40_cif.got.tgz:79046.got - 2010.06.28 07:06:18.
