data_PCOD8132316
_publ_section_title
;
Structure prediction by ZEFSAII (Michael W. Deem and Ramdas Pophale) SiO2 
 PCOD8132316
Probable space group: C 2/C
;
_chemical_formula_sum "Si O2"
_cell_formula_units_Z 52
_cell_length_a 8.538844
_cell_length_b 16.768942
_cell_length_c 17.714865
_cell_angle_alpha 90.000000
_cell_angle_beta 105.484282
_cell_angle_gamma 90.000000
_cell_volume 2444.477973
_symmetry_space_group_name_H-M "C 2/C"
_symmetry_group_IT_number 15
_symmetry_cell_setting 'monoclinic'
loop_
_space_group_symop_operation_xyz
x,y,z
-x,y,1/2-z
-x,-y,-z
x,-y,1/2+z
1/2+x,1/2+y,z
1/2-x,1/2+y,1/2-z
1/2-x,1/2-y,-z
1/2+x,1/2-y,1/2+z
loop_
_atom_site_type_symbol
_atom_site_label
_atom_site_fract_x
_atom_site_fract_y
_atom_site_fract_z
Si Si1 0.135232 0.421976 0.670641
Si Si2 0.094948 0.837348 0.874691
Si Si3 0.866108 0.664939 0.057893
Si Si4 0.520060 0.325930 0.476887
Si Si5 0.000000 0.441915 0.250000
Si Si6 0.761705 0.705342 0.205499
Si Si7 0.749923 0.680629 0.668516
O O1 0.305753 0.412673 0.647567
O O2 0.112412 0.507360 0.707125
O O3 0.124092 0.356144 0.735143
O O4 0.985476 0.407814 0.592943
O O5 0.196468 0.756735 0.873985
O O6 0.921223 0.829012 0.811835
O O7 0.077105 0.852687 0.961307
O O8 0.954322 0.729668 0.016169
O O9 0.816810 0.714535 0.126921
O O10 0.699306 0.632330 0.998304
O O11 0.416589 0.352198 0.390260
O O12 0.883186 0.388636 0.182970
O O13 0.775855 0.791549 0.248000
#
# Coordination Sequence:
#
# PCOD8132316 Si02
#       7
#     8   8   8   8   4   8   8
#     4  11  20  36  62  85 118 162 207 247 295 378
#     4  10  20  37  65  89 118 160 211 245 304 366
#     4  10  19  34  61  95 114 155 210 252 297 361
#     4  10  21  34  62  93 124 153 205 263 303 355
#     4  12  24  38  60  96 122 160 204 264 314 356
#     4  10  18  36  64  87 118 158 212 253 299 353
#     4  11  20  36  58  92 124 151 200 268 302 345
#
# _framework density 21.272435999999999
#
# number of rings (size 3 to 8) (size 9 to 14) (size 15 to 20)
#    0.000    1.538    6.154    1.846    0.000    0.000 
#    0.000    1.538    6.769    0.000    0.000    0.000 
#    0.000    0.000    0.000    0.000    0.000    0.000 
#
# Total GULP energy -322307.423561 kJ/mol
# GULP energy per Si atom -12396.439368 kJ/mol
# Density = 2.122402 g / cm^3
# Si number density = 21.272436 Si / 1000 Ang^3
#
#
#
# Elastic Constant Matrix: (Units=GPa)
#
#
# Indices 1 2 3 4 5 6 
#
# 1 107.4285 21.9273 49.9997 0.0000 16.9899 0.0000
# 2 21.9273 60.4044 17.3186 0.0000 4.1515 0.0000
# 3 49.9997 17.3186 95.2678 0.0000 29.7645 0.0000
# 4 0.0000 0.0000 0.0000 13.7433 0.0000 5.6488
# 5 16.9899 4.1515 29.7645 0.0000 51.2223 0.0000
# 6 0.0000 0.0000 0.0000 5.6488 0.0000 30.4254
#
#
#
# Elastic Compliance Matrix: (Units=1/GPa)
#
#
# Indices 1 2 3 4 5 6 
#
# 1 0.012781 -0.002877 -0.006027 0.000000 -0.000504 0.000000
# 2 -0.002877 0.018124 -0.001984 0.000000 0.000638 0.000000
# 3 -0.006027 -0.001984 0.016306 0.000000 -0.007315 0.000000
# 4 0.000000 0.000000 0.000000 0.078774 0.000000 -0.014625
# 5 -0.000504 0.000638 -0.007315 0.000000 0.023889 0.000000
# 6 0.000000 0.000000 0.000000 -0.014625 0.000000 0.035583
#
#
# Mechanical properties :
#
#
# Convention : Reuss Voigt Hill
#
# Bulk Modulus (GPa) = 39.31697 49.06575 44.19136
# Shear Modulus (GPa) = 23.17906 30.66854 26.92380
#
# Velocity S-wave (km/s) = 3.30453 3.80110 3.56148
# Velocity P-wave (km/s) = 5.75175 6.50999 6.14258
#
# Compressibility (1/GPa) = 0.02543431
#
# Stress axis : x y z
#
# Youngs Moduli (GPa) = 78.24337 55.17403 61.32571
#
# Poissons Ratio (x) = 0.15872 0.36963
# Poissons Ratio (y) = 0.22509 0.12170
# Poissons Ratio (z) = 0.47160 0.10949
#
# Static dielectric constant tensor:
#      x y z
#    x 4.113180 0.000000 0.214770 
#    y 0.000000 3.226560 0.000000 
#    z 0.214770 0.000000 3.963460 
# 
# 
# High freq. dielectric constant tensor:
#      x y z
#    x 1.851880 0.000000 0.016290 
#    y 0.000000 1.766120 0.000000 
#    z 0.016290 0.000000 1.842580 
# 
# From -- ./inp_files/232267.got.cif
#   From: 2010.06.25/outbox.cif.g09.slc.cpg/sg15_117_cif.got.tgz:232267.got - 2010.06.28 07:06:18.
