data_PCOD8132880
_publ_section_title
;
Structure prediction by ZEFSAII (Michael W. Deem and Ramdas Pophale) SiO2 
 PCOD8132880
Probable space group: C 2/C
;
_chemical_formula_sum "Si O2"
_cell_formula_units_Z 56
_cell_length_a 21.814187
_cell_length_b 30.914416
_cell_length_c 9.035394
_cell_angle_alpha 90.000000
_cell_angle_beta 30.271107
_cell_angle_gamma 90.000000
_cell_volume 3071.546709
_symmetry_space_group_name_H-M "C 2/C"
_symmetry_group_IT_number 15
_symmetry_cell_setting 'monoclinic'
loop_
_space_group_symop_operation_xyz
x,y,z
-x,y,1/2-z
-x,-y,-z
x,-y,1/2+z
1/2+x,1/2+y,z
1/2-x,1/2+y,1/2-z
1/2-x,1/2-y,-z
1/2+x,1/2-y,1/2+z
loop_
_atom_site_type_symbol
_atom_site_label
_atom_site_fract_x
_atom_site_fract_y
_atom_site_fract_z
Si Si1 0.344344 0.373057 0.237620
Si Si2 0.141823 0.042349 0.292350
Si Si3 0.640125 0.280255 0.701550
Si Si4 0.147935 0.958447 0.112757
Si Si5 0.373162 0.627233 0.336502
Si Si6 0.500000 0.760253 0.750000
Si Si7 0.500000 0.765564 0.250000
Si Si8 0.330569 0.207801 0.357602
O O1 0.299370 0.416206 0.415348
O O2 0.256826 0.333710 0.465271
O O3 0.483706 0.363730 0.991103
O O4 0.339657 0.382689 0.074301
O O5 0.193922 0.040842 0.348928
O O6 0.183872 0.087491 0.134169
O O7 0.997103 0.041128 0.583166
O O8 0.197843 0.001476 0.088901
O O9 0.750000 0.250000 0.500000
O O10 0.689761 0.329174 0.591572
O O11 0.586660 0.267894 0.653805
O O12 0.548294 0.272903 0.026976
O O13 0.600052 0.790018 0.627206
O O14 0.427117 0.795445 0.520011
O O15 0.250000 0.250000 0.500000
#
# Coordination Sequence:
#
# PCOD8132880 Si02
#       8
#     8   8   8   8   8   4   4   8
#     4  10  19  32  50  70 100 137 170 206 251 306
#     4   9  17  28  44  68 102 134 164 202 243 304
#     4  11  21  34  50  70  99 132 168 209 252 301
#     4   9  17  29  45  68  99 136 166 197 249 302
#     4  10  19  30  47  73 101 134 171 205 250 306
#     4  10  22  34  50  72 100 136 176 216 258 300
#     4  10  22  36  50  72 102 136 176 218 260 300
#     4  11  21  36  54  74 104 141 179 221 263 309
#
# _framework density 18.231856000000001
#
# number of rings (size 3 to 8) (size 9 to 14) (size 15 to 20)
#    0.000    2.000    0.000    6.000    0.000    8.000 
#    0.000    0.000    0.000    0.000    0.000    0.000 
#    0.000   38.857    0.000    0.000    0.000    0.000 
#
# Total GULP energy -347126.907113 kJ/mol
# GULP energy per Si atom -12397.389540 kJ/mol
# Density = 1.819036 g / cm^3
# Si number density = 18.231856 Si / 1000 Ang^3
#
#
#
# Elastic Constant Matrix: (Units=GPa)
#
#
# Indices 1 2 3 4 5 6 
#
# 1 116.7960 79.8891 38.0304 0.0000 20.6462 0.0000
# 2 79.8891 185.6973 41.8149 0.0000 13.2460 0.0000
# 3 38.0304 41.8149 46.4615 0.0000 10.3153 0.0000
# 4 0.0000 0.0000 0.0000 22.4729 0.0000 3.6578
# 5 20.6462 13.2460 10.3153 0.0000 27.0191 0.0000
# 6 0.0000 0.0000 0.0000 3.6578 0.0000 29.8087
#
#
#
# Elastic Compliance Matrix: (Units=1/GPa)
#
#
# Indices 1 2 3 4 5 6 
#
# 1 0.014995 -0.004445 -0.006789 0.000000 -0.006687 0.000000
# 2 -0.004445 0.008101 -0.003851 0.000000 0.000896 0.000000
# 3 -0.006789 -0.003851 0.031658 0.000000 -0.005011 0.000000
# 4 0.000000 0.000000 0.000000 0.045405 0.000000 -0.005572
# 5 -0.006687 0.000896 -0.005011 0.000000 0.043595 0.000000
# 6 0.000000 0.000000 0.000000 -0.005572 0.000000 0.034231
#
#
# Mechanical properties :
#
#
# Convention : Reuss Voigt Hill
#
# Bulk Modulus (GPa) = 40.67587 74.26930 57.47259
# Shear Modulus (GPa) = 23.11079 28.47484 25.79282
#
# Velocity S-wave (km/s) = 3.56421 3.95627 3.76535
# Velocity P-wave (km/s) = 6.26872 7.85455 7.10601
#
# Compressibility (1/GPa) = 0.02458460
#
# Stress axis : x y z
#
# Youngs Moduli (GPa) = 66.68791 123.44434 31.58751
#
# Poissons Ratio (x) = 0.54877 0.21443
# Poissons Ratio (y) = 0.29646 0.12164
# Poissons Ratio (z) = 0.45271 0.47535
#
# Static dielectric constant tensor:
#      x y z
#    x 3.474340 0.000000 0.254460 
#    y 0.000000 3.347850 0.000000 
#    z 0.254460 0.000000 3.139230 
# 
# 
# High freq. dielectric constant tensor:
#      x y z
#    x 1.708260 0.000000 0.034780 
#    y 0.000000 1.707190 0.000000 
#    z 0.034780 0.000000 1.670630 
# 
# From -- ./inp_files/59359.got.cif
#   From: 2010.06.25/outbox.cif.g09.slc.cpg/sg15_30_cif.got.tgz:59359.got - 2010.06.28 07:06:18.
