data_PCOD8132441
_publ_section_title
;
Structure prediction by ZEFSAII (Michael W. Deem and Ramdas Pophale) SiO2 
 PCOD8132441
Probable space group: C 2/C
;
_chemical_formula_sum "Si O2"
_cell_formula_units_Z 60
_cell_length_a 18.371680
_cell_length_b 9.708486
_cell_length_c 19.904880
_cell_angle_alpha 90.000000
_cell_angle_beta 123.490275
_cell_angle_gamma 90.000000
_cell_volume 2960.842568
_symmetry_space_group_name_H-M "C 2/C"
_symmetry_group_IT_number 15
_symmetry_cell_setting 'monoclinic'
loop_
_space_group_symop_operation_xyz
x,y,z
-x,y,1/2-z
-x,-y,-z
x,-y,1/2+z
1/2+x,1/2+y,z
1/2-x,1/2+y,1/2-z
1/2-x,1/2-y,-z
1/2+x,1/2-y,1/2+z
loop_
_atom_site_type_symbol
_atom_site_label
_atom_site_fract_x
_atom_site_fract_y
_atom_site_fract_z
Si Si1 0.750754 0.415577 0.897860
Si Si2 0.185738 0.992879 0.005309
Si Si3 0.174596 0.587980 0.670829
Si Si4 0.915015 0.760259 0.978561
Si Si5 0.682078 0.860887 0.325057
Si Si6 0.078838 0.258108 0.481925
Si Si7 0.995191 0.528209 0.105257
Si Si8 0.500000 0.996793 0.250000
O O1 0.747856 0.520734 0.833816
O O2 0.680505 0.295396 0.851000
O O3 0.734306 0.502746 0.958091
O O4 0.843261 0.338420 0.942594
O O5 0.256175 0.959569 0.098886
O O6 0.132818 0.131141 0.997349
O O7 0.116376 0.870479 0.960195
O O8 0.144605 0.726471 0.616354
O O9 0.212994 0.628809 0.763006
O O10 0.096194 0.474583 0.634595
O O11 0.010917 0.806532 0.001893
O O12 0.931886 0.615958 0.025769
O O13 0.582604 0.902809 0.277642
O O14 0.033407 0.367021 0.408776
O O15 0.984934 0.588816 0.175679
#
# Coordination Sequence:
#
# PCOD8132441 Si02
#       8
#     8   8   8   8   8   8   8   4
#     4  11  20  39  61  88 120 160 195 256 305 359
#     4  11  24  36  62  94 123 153 201 259 310 346
#     4  10  21  37  61  86 120 165 203 245 295 371
#     4  11  21  37  61  93 116 159 204 253 300 366
#     4  10  23  38  62  86 118 161 207 242 299 365
#     4  10  18  39  62  82 117 159 204 240 293 370
#     4  10  18  37  63  86 114 162 207 241 295 365
#     4  10  20  38  60  84 110 158 208 248 282 366
#
# _framework density 20.264503000000001
#
# number of rings (size 3 to 8) (size 9 to 14) (size 15 to 20)
#    0.000    1.600    2.667    4.400    1.867    0.533 
#    0.000    0.000    0.000    0.800    0.000    0.000 
#    0.000    0.000    0.000    0.000    0.000    0.000 
#
# Total GULP energy -371783.153984 kJ/mol
# GULP energy per Si atom -12392.771799 kJ/mol
# Density = 2.021838 g / cm^3
# Si number density = 20.264503 Si / 1000 Ang^3
#
#
#
# Elastic Constant Matrix: (Units=GPa)
#
#
# Indices 1 2 3 4 5 6 
#
# 1 90.9268 30.1549 38.8799 0.0000 -19.1214 0.0000
# 2 30.1549 64.3177 23.9684 0.0000 -7.8429 0.0000
# 3 38.8799 23.9684 104.8683 0.0000 -28.3224 0.0000
# 4 0.0000 0.0000 0.0000 17.4307 0.0000 -6.5653
# 5 -19.1214 -7.8429 -28.3224 0.0000 39.0875 0.0000
# 6 0.0000 0.0000 0.0000 -6.5653 0.0000 25.8400
#
#
#
# Elastic Compliance Matrix: (Units=1/GPa)
#
#
# Indices 1 2 3 4 5 6 
#
# 1 0.014988 -0.005327 -0.003292 0.000000 0.003878 0.000000
# 2 -0.005327 0.018906 -0.002518 0.000000 -0.000637 0.000000
# 3 -0.003292 -0.002518 0.013378 0.000000 0.007578 0.000000
# 4 0.000000 0.000000 0.000000 0.063441 0.000000 0.016119
# 5 0.003878 -0.000637 0.007578 0.000000 0.032844 0.000000
# 6 0.000000 0.000000 0.000000 0.016119 0.000000 0.042795
#
#
# Mechanical properties :
#
#
# Convention : Reuss Voigt Hill
#
# Bulk Modulus (GPa) = 40.00342 49.56880 44.78611
# Shear Modulus (GPa) = 23.04579 27.61228 25.32903
#
# Velocity S-wave (km/s) = 3.37597 3.69534 3.53926
# Velocity P-wave (km/s) = 5.91437 6.53616 6.23302
#
# Compressibility (1/GPa) = 0.02499786
#
# Stress axis : x y z
#
# Youngs Moduli (GPa) = 66.72176 52.89282 74.74700
#
# Poissons Ratio (x) = 0.28177 0.24605
# Poissons Ratio (y) = 0.35544 0.18822
# Poissons Ratio (z) = 0.21963 0.13319
#
# Static dielectric constant tensor:
#      x y z
#    x 3.912510 0.000000 -0.181390 
#    y 0.000000 3.484460 0.000000 
#    z -0.181390 0.000000 3.776540 
# 
# 
# High freq. dielectric constant tensor:
#      x y z
#    x 1.803960 0.000000 -0.013270 
#    y 0.000000 1.758980 0.000000 
#    z -0.013270 0.000000 1.785950 
# 
# From -- ./inp_files/247860.got.cif
#   From: 2010.06.25/outbox.cif.g09.slc.cpg/sg15_124_cif.got.tgz:247860.got - 2010.06.28 07:06:18.
