data_PCOD8132395
_publ_section_title
;
Structure prediction by ZEFSAII (Michael W. Deem and Ramdas Pophale) SiO2 
 PCOD8132395
Probable space group: C 2/C
;
_chemical_formula_sum "Si O2"
_cell_formula_units_Z 56
_cell_length_a 21.479590
_cell_length_b 8.988108
_cell_length_c 28.110463
_cell_angle_alpha 90.000000
_cell_angle_beta 32.877890
_cell_angle_gamma 90.000000
_cell_volume 2946.065755
_symmetry_space_group_name_H-M "C 2/C"
_symmetry_group_IT_number 15
_symmetry_cell_setting 'monoclinic'
loop_
_space_group_symop_operation_xyz
x,y,z
-x,y,1/2-z
-x,-y,-z
x,-y,1/2+z
1/2+x,1/2+y,z
1/2-x,1/2+y,1/2-z
1/2-x,1/2-y,-z
1/2+x,1/2-y,1/2+z
loop_
_atom_site_type_symbol
_atom_site_label
_atom_site_fract_x
_atom_site_fract_y
_atom_site_fract_z
Si Si1 0.422254 0.784846 0.569936
Si Si2 0.706155 0.775303 0.158572
Si Si3 0.038064 0.976743 0.776200
Si Si4 0.947728 0.453071 0.173670
Si Si5 0.874930 0.381561 0.120351
Si Si6 0.884681 0.789411 0.198456
Si Si7 0.363343 0.211473 0.900380
O O1 0.342759 0.714541 0.579612
O O2 0.552896 0.796629 0.467248
O O3 0.415910 0.686509 0.622496
O O4 0.364006 0.944691 0.616078
O O5 0.660843 0.605061 0.192100
O O6 0.652405 0.882670 0.231614
O O7 0.670227 0.839690 0.130763
O O8 0.044300 0.097165 0.814168
O O9 0.000000 0.050504 0.750000
O O10 0.945748 0.853074 0.849333
O O11 0.945054 0.370990 0.124446
O O12 0.926301 0.627209 0.185700
O O13 0.073156 0.427059 0.115586
O O14 0.750847 0.306370 0.205124
O O15 0.250000 0.250000 0.000000
#
# Coordination Sequence:
#
# PCOD8132395 Si02
#       7
#     8   8   8   8   8   8   8
#     4  10  20  35  62  87 113 156 197 229 285 356
#     4  10  18  37  59  80 110 155 196 231 283 351
#     4   9  20  37  61  80 108 158 196 229 291 351
#     4  10  21  35  58  84 117 152 192 240 295 333
#     4  10  20  36  58  87 118 154 191 234 289 352
#     4  11  21  38  60  87 122 148 188 251 292 337
#     4  10  21  38  59  82 112 155 200 238 279 352
#
# _framework density 19.008402
#
# number of rings (size 3 to 8) (size 9 to 14) (size 15 to 20)
#    0.000    2.000    2.857    2.143    0.000    1.143 
#    2.571    1.429    0.000    0.000    0.000    0.000 
#    0.000    0.000    0.000    0.000    0.000    0.000 
#
# Total GULP energy -347098.917956 kJ/mol
# GULP energy per Si atom -12396.389927 kJ/mol
# Density = 1.896514 g / cm^3
# Si number density = 19.008402 Si / 1000 Ang^3
#
#
#
# Elastic Constant Matrix: (Units=GPa)
#
#
# Indices 1 2 3 4 5 6 
#
# 1 150.1940 47.4939 37.5016 -0.0110 1.3823 0.0087
# 2 47.4939 55.2730 14.5818 -0.0120 -0.3693 0.0166
# 3 37.5016 14.5818 84.5381 -0.0105 7.5836 0.0111
# 4 -0.0110 -0.0120 -0.0105 11.0483 0.0049 14.6425
# 5 1.3823 -0.3693 7.5836 0.0049 27.4030 -0.0089
# 6 0.0087 0.0166 0.0111 14.6425 -0.0089 13.8143
#
#
#
# Elastic Compliance Matrix: (Units=1/GPa)
#
#
# Indices 1 2 3 4 5 6 
#
# 1 0.009839 -0.007643 -0.003069 0.000022 0.000250 -0.000018
# 2 -0.007643 0.024929 -0.000999 -0.000123 0.000998 0.000106
# 3 -0.003069 -0.000999 0.013690 -0.000060 -0.003647 0.000053
# 4 0.000022 -0.000123 -0.000060 -0.223605 0.000131 0.237012
# 5 0.000250 0.000998 -0.003647 0.000131 0.037503 -0.000113
# 6 -0.000018 0.000106 0.000053 0.237012 -0.000113 -0.178834
#
#
# Mechanical properties :
#
#
# Convention : Reuss Voigt Hill
#
# Bulk Modulus (GPa) = 39.94151 54.35107 47.14629
# Shear Modulus (GPa) = -17.56161 23.14829 2.79334
#
# Velocity S-wave (km/s) = -3.04285 3.49347 1.21356
# Velocity P-wave (km/s) = 2.95177 6.70282 5.17884
#
# Compressibility (1/GPa) = 0.02503661
#
# Stress axis : x y z
#
# Youngs Moduli (GPa) = 101.63896 40.11332 73.04722
#
# Poissons Ratio (x) = 0.30658 0.22416
# Poissons Ratio (y) = 0.77681 0.07299
# Poissons Ratio (z) = 0.31189 0.04008
#
# Static dielectric constant tensor:
#      x y z
#    x 3.570370 0.000000 0.022500 
#    y 0.000000 3.190010 -0.000010 
#    z 0.022500 -0.000010 3.439540 
# 
# 
# High freq. dielectric constant tensor:
#      x y z
#    x 1.759700 0.000000 0.002000 
#    y 0.000000 1.709550 0.000000 
#    z 0.002000 0.000000 1.736260 
# 
# From -- ./inp_files/317482.got.cif
#   From: 2010.06.25/outbox.cif.g09.slc.cpg/sg15_159_cif.got.tgz:317482.got - 2010.06.28 07:06:18.
