data_PCOD8132094
_publ_section_title
;
Structure prediction by ZEFSAII (Michael W. Deem and Ramdas Pophale) SiO2 
 PCOD8132094
Probable space group: C 2/C
;
_chemical_formula_sum "Si O2"
_cell_formula_units_Z 60
_cell_length_a 9.192205
_cell_length_b 16.604916
_cell_length_c 20.622340
_cell_angle_alpha 90.000000
_cell_angle_beta 71.492618
_cell_angle_gamma 90.000000
_cell_volume 2984.916486
_symmetry_space_group_name_H-M "C 2/C"
_symmetry_group_IT_number 15
_symmetry_cell_setting 'monoclinic'
loop_
_space_group_symop_operation_xyz
x,y,z
-x,y,1/2-z
-x,-y,-z
x,-y,1/2+z
1/2+x,1/2+y,z
1/2-x,1/2+y,1/2-z
1/2-x,1/2-y,-z
1/2+x,1/2-y,1/2+z
loop_
_atom_site_type_symbol
_atom_site_label
_atom_site_fract_x
_atom_site_fract_y
_atom_site_fract_z
Si Si1 0.771117 0.004336 0.994020
Si Si2 0.587366 0.752343 0.558737
Si Si3 0.944363 0.424153 0.877864
Si Si4 0.000000 0.934049 0.750000
Si Si5 0.298676 0.649853 0.174482
Si Si6 0.350031 0.685322 0.812465
Si Si7 0.498194 0.629749 0.479270
Si Si8 0.733871 0.019440 0.852433
O O1 0.700590 0.019656 0.933555
O O2 0.898553 0.071097 0.991293
O O3 0.638604 0.008855 0.066374
O O4 0.839313 0.914022 0.985711
O O5 0.750000 0.750000 0.500000
O O6 0.534160 0.842754 0.582730
O O7 0.596078 0.699717 0.622026
O O8 0.466365 0.709925 0.526775
O O9 0.845989 0.405584 0.826961
O O10 0.107185 0.463163 0.834836
O O11 0.878641 0.881935 0.727313
O O12 0.905150 0.986731 0.814751
O O13 0.238328 0.737543 0.202989
O O14 0.416253 0.655492 0.098342
O O15 0.500000 0.665595 0.750000
O O16 0.231339 0.610489 0.825688
#
# Coordination Sequence:
#
# PCOD8132094 Si02
#       8
#     8   8   8   4   8   8   8   8
#     4  10  19  35  60  96 127 161 204 264 319 369
#     4  11  18  38  64  97 123 167 211 260 311 389
#     4  10  23  38  66  95 126 160 213 266 318 374
#     4  12  26  42  64  86 132 166 216 258 332 388
#     4  10  23  43  64  92 119 171 211 265 316 384
#     4  11  23  39  66  93 125 171 220 257 322 388
#     4  10  18  35  65  92 124 163 213 256 311 381
#     4  12  23  41  61  97 127 170 209 263 321 389
#
# _framework density 20.101065999999999
#
# number of rings (size 3 to 8) (size 9 to 14) (size 15 to 20)
#    0.000    1.333    7.333    0.400    3.733    0.000 
#    0.000    3.333    0.000    0.000    0.000    0.000 
#    0.000    0.000    0.000    0.000    0.000    0.000 
#
# Total GULP energy -371995.302820 kJ/mol
# GULP energy per Si atom -12399.843427 kJ/mol
# Density = 2.005531 g / cm^3
# Si number density = 20.101066 Si / 1000 Ang^3
#
#
#
# Elastic Constant Matrix: (Units=GPa)
#
#
# Indices 1 2 3 4 5 6 
#
# 1 86.9029 53.3593 33.4190 0.0000 0.9784 0.0000
# 2 53.3593 106.4769 32.5639 0.0000 -9.8280 0.0000
# 3 33.4190 32.5639 73.2009 0.0000 0.4301 0.0000
# 4 0.0000 0.0000 0.0000 23.3160 0.0000 -8.4863
# 5 0.9784 -9.8280 0.4301 0.0000 34.3211 0.0000
# 6 0.0000 0.0000 0.0000 -8.4863 0.0000 30.2142
#
#
#
# Elastic Compliance Matrix: (Units=1/GPa)
#
#
# Indices 1 2 3 4 5 6 
#
# 1 0.018250 -0.007934 -0.004786 0.000000 -0.002732 0.000000
# 2 -0.007934 0.014677 -0.002933 0.000000 0.004466 0.000000
# 3 -0.004786 -0.002933 0.017156 0.000000 -0.000919 0.000000
# 4 0.000000 0.000000 0.000000 0.047773 0.000000 0.013418
# 5 -0.002732 0.004466 -0.000919 0.000000 0.030505 0.000000
# 6 0.000000 0.000000 0.000000 0.013418 0.000000 0.036866
#
#
# Mechanical properties :
#
#
# Convention : Reuss Voigt Hill
#
# Bulk Modulus (GPa) = 53.25850 56.14058 54.69954
# Shear Modulus (GPa) = 24.65570 27.38616 26.02093
#
# Velocity S-wave (km/s) = 3.50607 3.69511 3.60183
# Velocity P-wave (km/s) = 6.55308 6.79668 6.67599
#
# Compressibility (1/GPa) = 0.01877635
#
# Stress axis : x y z
#
# Youngs Moduli (GPa) = 54.79417 68.13350 58.28737
#
# Poissons Ratio (x) = 0.54058 0.27898
# Poissons Ratio (y) = 0.43475 0.17097
# Poissons Ratio (z) = 0.26226 0.19985
#
# Static dielectric constant tensor:
#      x y z
#    x 3.379940 0.000000 -0.182800 
#    y 0.000000 3.865190 0.000000 
#    z -0.182800 0.000000 3.324690 
# 
# 
# High freq. dielectric constant tensor:
#      x y z
#    x 1.756670 0.000000 0.000530 
#    y 0.000000 1.786010 0.000000 
#    z 0.000530 0.000000 1.790320 
# 
# From -- ./inp_files/233070.got.cif
#   From: 2010.06.25/outbox.cif.g09.slc.cpg/sg15_117_cif.got.tgz:233070.got - 2010.06.28 07:06:18.
