data_PCOD8132549
_publ_section_title
;
Structure prediction by ZEFSAII (Michael W. Deem and Ramdas Pophale) SiO2 
 PCOD8132549
Probable space group: C 2/C
;
_chemical_formula_sum "Si O2"
_cell_formula_units_Z 56
_cell_length_a 8.360737
_cell_length_b 23.972548
_cell_length_c 16.071056
_cell_angle_alpha 90.000000
_cell_angle_beta 124.589541
_cell_angle_gamma 90.000000
_cell_volume 2651.732085
_symmetry_space_group_name_H-M "C 2/C"
_symmetry_group_IT_number 15
_symmetry_cell_setting 'monoclinic'
loop_
_space_group_symop_operation_xyz
x,y,z
-x,y,1/2-z
-x,-y,-z
x,-y,1/2+z
1/2+x,1/2+y,z
1/2-x,1/2+y,1/2-z
1/2-x,1/2-y,-z
1/2+x,1/2-y,1/2+z
loop_
_atom_site_type_symbol
_atom_site_label
_atom_site_fract_x
_atom_site_fract_y
_atom_site_fract_z
Si Si1 0.007932 0.765936 0.151879
Si Si2 0.653373 0.162857 0.479496
Si Si3 0.760688 0.553553 0.556724
Si Si4 0.771331 0.359254 0.192143
Si Si5 0.696077 0.530710 0.356429
Si Si6 0.919135 0.558586 0.135196
Si Si7 0.169914 0.413815 0.130770
O O1 0.001921 0.705255 0.106928
O O2 0.000000 0.760569 0.250000
O O3 0.200312 0.795341 0.172645
O O4 0.841462 0.804602 0.064736
O O5 0.694524 0.115233 0.422937
O O6 0.578805 0.130675 0.539555
O O7 0.673608 0.600796 0.592624
O O8 0.673186 0.560724 0.438922
O O9 0.749218 0.489148 0.584559
O O10 0.992829 0.559264 0.627825
O O11 0.700589 0.384068 0.260155
O O12 0.000000 0.355793 0.250000
O O13 0.500000 0.546715 0.250000
O O14 0.708261 0.463709 0.376306
O O15 0.895579 0.550583 0.371969
O O16 0.000000 0.565435 0.250000
#
# Coordination Sequence:
#
# PCOD8132549 Si02
#       7
#     8   8   8   8   8   8   8
#     4  11  24  41  63  91 117 158 215 255 296 357
#     4  11  22  39  66  86 118 163 204 253 301 350
#     4  10  19  38  60  89 123 155 196 239 306 366
#     4  10  22  39  65  91 122 157 203 255 296 362
#     4  11  22  34  60  93 124 160 196 246 301 371
#     4  11  21  40  60  88 126 162 197 247 310 365
#     4  10  18  38  62  86 115 160 197 241 302 358
#
# _framework density 21.118271
#
# number of rings (size 3 to 8) (size 9 to 14) (size 15 to 20)
#    0.000    1.429    4.286    3.429    2.000    1.143 
#    0.000    5.714    0.000    0.000    0.000    0.000 
#    0.000    0.000    0.000    0.000    0.000    0.000 
#
# Total GULP energy -346887.715472 kJ/mol
# GULP energy per Si atom -12388.846981 kJ/mol
# Density = 2.107021 g / cm^3
# Si number density = 21.118271 Si / 1000 Ang^3
#
#
#
# Elastic Constant Matrix: (Units=GPa)
#
#
# Indices 1 2 3 4 5 6 
#
# 1 29.3292 24.5293 25.9004 0.0000 -11.0008 0.0000
# 2 24.5293 127.4418 64.5176 0.0000 -17.4725 0.0000
# 3 25.9004 64.5176 163.0212 0.0000 -29.2769 0.0000
# 4 0.0000 0.0000 0.0000 43.2274 0.0000 4.6372
# 5 -11.0008 -17.4725 -29.2769 0.0000 34.6755 0.0000
# 6 0.0000 0.0000 0.0000 4.6372 0.0000 7.0434
#
#
#
# Elastic Compliance Matrix: (Units=1/GPa)
#
#
# Indices 1 2 3 4 5 6 
#
# 1 0.045119 -0.005827 -0.003323 0.000000 0.008572 0.000000
# 2 -0.005827 0.010680 -0.003143 0.000000 0.000879 0.000000
# 3 -0.003323 -0.003143 0.008761 0.000000 0.004759 0.000000
# 4 0.000000 0.000000 0.000000 0.024891 0.000000 -0.016388
# 5 0.008572 0.000879 0.004759 0.000000 0.036019 0.000000
# 6 0.000000 0.000000 0.000000 -0.016388 0.000000 0.152766
#
#
# Mechanical properties :
#
#
# Convention : Reuss Voigt Hill
#
# Bulk Modulus (GPa) = 25.01631 61.07632 43.04632
# Shear Modulus (GPa) = 15.81549 30.64559 23.23054
#
# Velocity S-wave (km/s) = 2.73957 3.81352 3.32025
# Velocity P-wave (km/s) = 4.67745 6.95517 5.92676
#
# Compressibility (1/GPa) = 0.03997392
#
# Stress axis : x y z
#
# Youngs Moduli (GPa) = 22.16383 93.63344 114.14693
#
# Poissons Ratio (x) = 0.54557 0.37929
# Poissons Ratio (y) = 0.12914 0.35877
# Poissons Ratio (z) = 0.07365 0.29430
#
# Static dielectric constant tensor:
#      x y z
#    x 3.412800 0.000000 -0.138140 
#    y 0.000000 4.242640 0.000000 
#    z -0.138140 0.000000 4.091210 
# 
# 
# High freq. dielectric constant tensor:
#      x y z
#    x 1.788960 0.000000 -0.008340 
#    y 0.000000 1.827150 0.000000 
#    z -0.008340 0.000000 1.849300 
# 
# From -- ./inp_files/137945.got.cif
#   From: 2010.06.25/outbox.cif.g09.slc.cpg/sg15_69_cif.got.tgz:137945.got - 2010.06.28 07:06:18.
