data_PCOD8132418
_publ_section_title
;
Structure prediction by ZEFSAII (Michael W. Deem and Ramdas Pophale) SiO2 
 PCOD8132418
Probable space group: C 2/C
;
_chemical_formula_sum "Si O2"
_cell_formula_units_Z 40
_cell_length_a 8.943887
_cell_length_b 22.584187
_cell_length_c 20.059644
_cell_angle_alpha 90.000000
_cell_angle_beta 151.473367
_cell_angle_gamma 90.000000
_cell_volume 1935.033502
_symmetry_space_group_name_H-M "C 2/C"
_symmetry_group_IT_number 15
_symmetry_cell_setting 'monoclinic'
loop_
_space_group_symop_operation_xyz
x,y,z
-x,y,1/2-z
-x,-y,-z
x,-y,1/2+z
1/2+x,1/2+y,z
1/2-x,1/2+y,1/2-z
1/2-x,1/2-y,-z
1/2+x,1/2-y,1/2+z
loop_
_atom_site_type_symbol
_atom_site_label
_atom_site_fract_x
_atom_site_fract_y
_atom_site_fract_z
Si Si1 0.262152 0.170017 0.507507
Si Si2 0.628768 0.933115 0.870365
Si Si3 0.038303 0.747767 0.514367
Si Si4 0.397172 0.815946 0.824352
Si Si5 0.344235 0.936799 0.123063
O O1 0.548898 0.200524 0.579915
O O2 0.369635 0.103465 0.566680
O O3 0.200796 0.200767 0.555268
O O4 0.948930 0.177078 0.340640
O O5 0.500000 0.907947 0.750000
O O6 0.536226 0.882853 0.887936
O O7 0.495913 0.999428 0.833141
O O8 0.992312 0.942567 0.008315
O O9 0.379768 0.775893 0.635571
O O10 0.888588 0.715323 0.392292
O O11 0.500000 0.908994 0.250000
#
# Coordination Sequence:
#
# PCOD8132418 Si02
#       5
#     8   8   8   8   8
#     4  11  21  40  59  85 120 155 191 245 293 348
#     4  10  18  37  61  85 114 154 196 238 292 345
#     4  10  23  35  58  87 113 154 200 236 287 351
#     4  11  20  40  60  85 115 160 191 241 295 352
#     4  10  21  34  59  91 116 147 197 246 281 346
#
# _framework density 20.671475999999998
#
# number of rings (size 3 to 8) (size 9 to 14) (size 15 to 20)
#    0.000    1.600    4.000    1.200    0.000    3.200 
#    3.600    1.000    0.000    0.000    0.000    0.000 
#    0.000    0.000    0.000    0.000    0.000    0.000 
#
# Total GULP energy -247792.278069 kJ/mol
# GULP energy per Si atom -12389.613903 kJ/mol
# Density = 2.062443 g / cm^3
# Si number density = 20.671476 Si / 1000 Ang^3
#
#
#
# Elastic Constant Matrix: (Units=GPa)
#
#
# Indices 1 2 3 4 5 6 
#
# 1 91.2048 38.9412 14.3742 0.0078 -4.1486 0.0034
# 2 38.9412 129.5185 28.6598 -0.0004 -9.2671 0.0026
# 3 14.3742 28.6598 84.0774 0.0066 -12.0971 0.0033
# 4 0.0078 -0.0004 0.0066 31.5151 0.0101 -10.0873
# 5 -4.1486 -9.2671 -12.0971 0.0101 22.8314 0.0119
# 6 0.0034 0.0026 0.0033 -10.0873 0.0119 26.6778
#
#
#
# Elastic Compliance Matrix: (Units=1/GPa)
#
#
# Indices 1 2 3 4 5 6 
#
# 1 0.012650 -0.003580 -0.000888 -0.000004 0.000375 -0.000003
# 2 -0.003580 0.009452 -0.002329 0.000001 0.001952 -0.000001
# 3 -0.000888 -0.002329 0.013727 -0.000007 0.006166 -0.000007
# 4 -0.000004 0.000001 -0.000007 0.036100 -0.000027 0.013650
# 5 0.000375 0.001952 0.006166 -0.000027 0.047927 -0.000033
# 6 -0.000003 -0.000001 -0.000007 0.013650 -0.000033 0.042646
#
#
# Mechanical properties :
#
#
# Convention : Reuss Voigt Hill
#
# Bulk Modulus (GPa) = 44.97616 52.08348 48.52982
# Shear Modulus (GPa) = 27.24680 31.05990 29.15335
#
# Velocity S-wave (km/s) = 3.63449 3.88048 3.75949
# Velocity P-wave (km/s) = 6.27833 6.73261 6.50943
#
# Compressibility (1/GPa) = 0.02223400
#
# Stress axis : x y z
#
# Youngs Moduli (GPa) = 79.05197 105.79428 72.84993
#
# Poissons Ratio (x) = 0.37874 0.06472
# Poissons Ratio (y) = 0.28300 0.16968
# Poissons Ratio (z) = 0.07023 0.24641
#
# Static dielectric constant tensor:
#      x y z
#    x 3.627850 -0.000020 -0.049450 
#    y -0.000020 4.392580 -0.000040 
#    z -0.049450 -0.000040 3.499210 
# 
# 
# High freq. dielectric constant tensor:
#      x y z
#    x 1.774260 0.000000 -0.006230 
#    y 0.000000 1.824600 0.000000 
#    z -0.006230 0.000000 1.806110 
# 
# From -- ./inp_files/23763.got.cif
#   From: 2010.06.25/outbox.cif.g09.slc.cpg/sg15_12_cif.got.tgz:23763.got - 2010.06.28 07:06:18.
