data_PCOD8132938
_publ_section_title
;
Structure prediction by ZEFSAII (Michael W. Deem and Ramdas Pophale) SiO2 
 PCOD8132938
Probable space group: C 2/C
;
_chemical_formula_sum "Si O2"
_cell_formula_units_Z 64
_cell_length_a 20.381549
_cell_length_b 19.034129
_cell_length_c 9.507344
_cell_angle_alpha 90.000000
_cell_angle_beta 102.237911
_cell_angle_gamma 90.000000
_cell_volume 3604.512797
_symmetry_space_group_name_H-M "C 2/C"
_symmetry_group_IT_number 15
_symmetry_cell_setting 'monoclinic'
loop_
_space_group_symop_operation_xyz
x,y,z
-x,y,1/2-z
-x,-y,-z
x,-y,1/2+z
1/2+x,1/2+y,z
1/2-x,1/2+y,1/2-z
1/2-x,1/2-y,-z
1/2+x,1/2-y,1/2+z
loop_
_atom_site_type_symbol
_atom_site_label
_atom_site_fract_x
_atom_site_fract_y
_atom_site_fract_z
Si Si1 0.545446 0.968637 0.902249
Si Si2 0.211397 0.578680 0.175370
Si Si3 0.351835 0.800952 0.224464
Si Si4 0.175647 0.544993 0.866803
Si Si5 0.778493 0.187307 0.373938
Si Si6 0.388488 0.797323 0.930953
Si Si7 0.953807 0.680530 0.998309
Si Si8 0.355812 0.257209 0.138847
O O1 0.500000 0.949900 0.750000
O O2 0.574902 0.896213 0.975415
O O3 0.602260 0.025400 0.892401
O O4 0.500000 0.000000 0.000000
O O5 0.198047 0.512960 0.267918
O O6 0.275670 0.618828 0.272189
O O7 0.147623 0.631413 0.138343
O O8 0.226102 0.550537 0.024239
O O9 0.325072 0.880542 0.211979
O O10 0.299198 0.753033 0.284595
O O11 0.423981 0.797932 0.333549
O O12 0.361125 0.772755 0.069660
O O13 0.704533 0.200344 0.405702
O O14 0.829927 0.176785 0.530668
O O15 0.466626 0.814639 0.972441
O O16 0.370888 0.733577 0.812831
O O17 0.925735 0.731389 0.106021
#
# Coordination Sequence:
#
# PCOD8132938 Si02
#       8
#     8   8   8   8   8   8   8   8
#     4  12  21  29  42  62  95 133 170 200 227 271
#     4  10  21  34  49  67  96 129 165 205 242 286
#     4  10  21  33  49  68  98 133 166 204 243 287
#     4  11  21  32  45  68  92 127 170 206 242 272
#     4   9  19  36  49  66  90 130 170 202 248 289
#     4  10  19  31  47  72  98 130 168 203 237 276
#     4  11  19  31  46  67  98 133 165 199 236 276
#     4   9  18  30  49  65  85 121 162 201 235 279
#
# _framework density 17.755521000000002
#
# number of rings (size 3 to 8) (size 9 to 14) (size 15 to 20)
#    0.000    1.750    0.000    7.500    0.000    7.500 
#    0.000    0.000    0.000    0.000    0.000    0.000 
#    0.000    0.000    0.000  200.250    0.000    0.125 
#
# Total GULP energy -396501.070158 kJ/mol
# GULP energy per Si atom -12390.658442 kJ/mol
# Density = 1.771511 g / cm^3
# Si number density = 17.755521 Si / 1000 Ang^3
#
#
#
# Elastic Constant Matrix: (Units=GPa)
#
#
# Indices 1 2 3 4 5 6 
#
# 1 41.9129 25.0592 23.6258 0.0000 -2.1356 0.0000
# 2 25.0592 47.9257 40.3768 0.0000 2.3700 0.0000
# 3 23.6258 40.3768 150.1438 0.0000 5.9612 0.0000
# 4 0.0000 0.0000 0.0000 29.6743 0.0000 7.1918
# 5 -2.1356 2.3700 5.9612 0.0000 22.7982 0.0000
# 6 0.0000 0.0000 0.0000 7.1918 0.0000 18.0333
#
#
#
# Elastic Compliance Matrix: (Units=1/GPa)
#
#
# Indices 1 2 3 4 5 6 
#
# 1 0.035430 -0.017992 -0.000953 0.000000 0.005438 0.000000
# 2 -0.017992 0.036133 -0.006740 0.000000 -0.003679 0.000000
# 3 -0.000953 -0.006740 0.008689 0.000000 -0.001660 0.000000
# 4 0.000000 0.000000 0.000000 0.037305 0.000000 -0.014878
# 5 0.005438 -0.003679 -0.001660 0.000000 0.045189 0.000000
# 6 0.000000 0.000000 0.000000 -0.014878 0.000000 0.061386
#
#
# Mechanical properties :
#
#
# Convention : Reuss Voigt Hill
#
# Bulk Modulus (GPa) = 34.62204 46.45624 40.53914
# Shear Modulus (GPa) = 17.53592 24.16255 20.84923
#
# Velocity S-wave (km/s) = 3.14607 3.69297 3.43044
# Velocity P-wave (km/s) = 5.72177 6.66372 6.21063
#
# Compressibility (1/GPa) = 0.02888334
#
# Stress axis : x y z
#
# Youngs Moduli (GPa) = 28.22447 27.67528 115.09370
#
# Poissons Ratio (x) = 0.49793 0.10964
# Poissons Ratio (y) = 0.50781 0.77571
# Poissons Ratio (z) = 0.02689 0.18653
#
# Static dielectric constant tensor:
#      x y z
#    x 3.071700 0.000000 0.145290 
#    y 0.000000 3.036910 0.000000 
#    z 0.145290 0.000000 3.937790 
# 
# 
# High freq. dielectric constant tensor:
#      x y z
#    x 1.656680 0.000000 -0.000890 
#    y 0.000000 1.638230 0.000000 
#    z -0.000890 0.000000 1.725040 
# 
# From -- ./inp_files/57558.got.cif
#   From: 2010.06.25/outbox.cif.g09.slc.cpg/sg15_29_cif.got.tgz:57558.got - 2010.06.28 07:06:18.
