data_PCOD8132464
_publ_section_title
;
Structure prediction by ZEFSAII (Michael W. Deem and Ramdas Pophale) SiO2 
 PCOD8132464
Probable space group: C 2/C
;
_chemical_formula_sum "Si O2"
_cell_formula_units_Z 56
_cell_length_a 23.923110
_cell_length_b 16.712411
_cell_length_c 16.621018
_cell_angle_alpha 90.000000
_cell_angle_beta 155.426403
_cell_angle_gamma 90.000000
_cell_volume 2763.524671
_symmetry_space_group_name_H-M "C 2/C"
_symmetry_group_IT_number 15
_symmetry_cell_setting 'monoclinic'
loop_
_space_group_symop_operation_xyz
x,y,z
-x,y,1/2-z
-x,-y,-z
x,-y,1/2+z
1/2+x,1/2+y,z
1/2-x,1/2+y,1/2-z
1/2-x,1/2-y,-z
1/2+x,1/2-y,1/2+z
loop_
_atom_site_type_symbol
_atom_site_label
_atom_site_fract_x
_atom_site_fract_y
_atom_site_fract_z
Si Si1 0.338201 0.415148 0.447013
Si Si2 0.366548 0.977848 0.025021
Si Si3 0.801832 0.178595 0.443212
Si Si4 0.078956 0.878375 0.249923
Si Si5 0.360689 0.443718 0.653590
Si Si6 0.751436 0.854403 0.174452
Si Si7 0.132900 0.549987 0.149616
O O1 0.317083 0.396526 0.514473
O O2 0.494683 0.414150 0.627674
O O3 0.275363 0.351679 0.302219
O O4 0.268132 0.499205 0.337108
O O5 0.344460 0.071617 0.975805
O O6 0.248120 0.933458 0.918845
O O7 0.383868 0.927547 0.965906
O O8 0.500000 0.970241 0.250000
O O9 0.831581 0.181390 0.577831
O O10 0.810962 0.269506 0.426848
O O11 0.660605 0.132468 0.236277
O O12 0.921015 0.133140 0.552602
O O13 0.112696 0.866767 0.200064
O O14 0.123851 0.963030 0.346149
O O15 0.000000 0.500000 0.000000
#
# Coordination Sequence:
#
# PCOD8132464 Si02
#       7
#     8   8   8   8   8   8   8
#     4  10  19  37  57  90 105 152 200 240 292 338
#     4  10  23  36  56  89 116 150 198 246 299 347
#     4  11  21  38  56  86 122 157 189 234 307 349
#     4  10  20  36  61  83 116 151 192 243 294 357
#     4  10  18  37  65  80 112 148 203 254 283 344
#     4  10  24  33  58  87 122 153 189 243 294 366
#     4  11  22  35  60  82 118 157 198 245 285 351
#
# _framework density 20.263978000000002
#
# number of rings (size 3 to 8) (size 9 to 14) (size 15 to 20)
#    0.000    1.714    2.857    2.143    6.000    4.000 
#    0.000    0.000    3.143    0.857    0.000    0.000 
#    0.000    0.000    0.000    0.000    0.000    0.000 
#
# Total GULP energy -346923.994730 kJ/mol
# GULP energy per Si atom -12390.142669 kJ/mol
# Density = 2.021786 g / cm^3
# Si number density = 20.263978 Si / 1000 Ang^3
#
#
#
# Elastic Constant Matrix: (Units=GPa)
#
#
# Indices 1 2 3 4 5 6 
#
# 1 111.3205 6.5808 26.8474 0.0000 -4.0288 0.0000
# 2 6.5808 47.1977 7.3891 0.0000 -10.6572 0.0000
# 3 26.8474 7.3891 87.3566 0.0000 -10.0797 0.0000
# 4 0.0000 0.0000 0.0000 13.4239 0.0000 -10.0589
# 5 -4.0288 -10.6572 -10.0797 0.0000 34.2880 0.0000
# 6 0.0000 0.0000 0.0000 -10.0589 0.0000 19.2407
#
#
#
# Elastic Compliance Matrix: (Units=1/GPa)
#
#
# Indices 1 2 3 4 5 6 
#
# 1 0.009740 -0.000900 -0.002916 0.000000 0.000007 0.000000
# 2 -0.000900 0.022982 -0.000885 0.000000 0.006777 0.000000
# 3 -0.002916 -0.000885 0.012781 0.000000 0.003139 0.000000
# 4 0.000000 0.000000 0.000000 0.122471 0.000000 0.064027
# 5 0.000007 0.006777 0.003139 0.000000 0.032195 0.000000
# 6 0.000000 0.000000 0.000000 0.064027 0.000000 0.085446
#
#
# Mechanical properties :
#
#
# Convention : Reuss Voigt Hill
#
# Bulk Modulus (GPa) = 27.70144 36.38997 32.04570
# Shear Modulus (GPa) = 16.28397 27.06102 21.67249
#
# Velocity S-wave (km/s) = 2.83785 3.65831 3.27388
# Velocity P-wave (km/s) = 4.94346 5.98676 5.48995
#
# Compressibility (1/GPa) = 0.03609920
#
# Stress axis : x y z
#
# Youngs Moduli (GPa) = 102.67058 43.51271 78.24260
#
# Poissons Ratio (x) = 0.03915 0.22819
# Poissons Ratio (y) = 0.09238 0.06928
# Poissons Ratio (z) = 0.29943 0.03853
#
# Static dielectric constant tensor:
#      x y z
#    x 3.909960 0.000000 -0.082710 
#    y 0.000000 3.343640 0.000000 
#    z -0.082710 0.000000 3.900040 
# 
# 
# High freq. dielectric constant tensor:
#      x y z
#    x 1.802110 0.000000 -0.007540 
#    y 0.000000 1.744450 0.000000 
#    z -0.007540 0.000000 1.795210 
# 
# From -- ./inp_files/222994.got.cif
#   From: 2010.06.25/outbox.cif.g09.slc.cpg/sg15_112_cif.got.tgz:222994.got - 2010.06.28 07:06:18.
