data_PCOD8132830
_publ_section_title
;
Structure prediction by ZEFSAII (Michael W. Deem and Ramdas Pophale) SiO2 
 PCOD8132830
Probable space group: C 2/C
;
_chemical_formula_sum "Si O2"
_cell_formula_units_Z 60
_cell_length_a 13.823387
_cell_length_b 26.771894
_cell_length_c 9.685014
_cell_angle_alpha 90.000000
_cell_angle_beta 97.899498
_cell_angle_gamma 90.000000
_cell_volume 3550.201257
_symmetry_space_group_name_H-M "C 2/C"
_symmetry_group_IT_number 15
_symmetry_cell_setting 'monoclinic'
loop_
_space_group_symop_operation_xyz
x,y,z
-x,y,1/2-z
-x,-y,-z
x,-y,1/2+z
1/2+x,1/2+y,z
1/2-x,1/2+y,1/2-z
1/2-x,1/2-y,-z
1/2+x,1/2-y,1/2+z
loop_
_atom_site_type_symbol
_atom_site_label
_atom_site_fract_x
_atom_site_fract_y
_atom_site_fract_z
Si Si1 0.240728 0.352133 0.039153
Si Si2 0.319930 0.189784 0.250477
Si Si3 0.886694 0.640845 0.735301
Si Si4 0.887602 0.803666 0.265491
Si Si5 0.738130 0.308174 0.012675
Si Si6 0.644095 0.946486 0.938099
Si Si7 0.500000 0.120791 0.250000
Si Si8 0.609617 0.027272 0.731760
O O1 0.148617 0.341300 0.120924
O O2 0.338570 0.339643 0.142005
O O3 0.233312 0.317149 0.905191
O O4 0.236126 0.409941 0.986942
O O5 0.348958 0.247560 0.254800
O O6 0.241695 0.173307 0.354168
O O7 0.415234 0.155790 0.295153
O O8 0.834407 0.671442 0.606200
O O9 0.861376 0.582333 0.711018
O O10 0.000000 0.652377 0.750000
O O11 0.858379 0.823190 0.415536
O O12 0.000000 0.806643 0.250000
O O13 0.750000 0.250000 0.000000
O O14 0.548457 0.913330 0.879138
O O15 0.674470 0.985218 0.822905
O O16 0.620589 0.978471 0.069917
O O17 0.500000 0.013897 0.750000
#
# Coordination Sequence:
#
# PCOD8132830 Si02
#       8
#     8   8   8   8   8   8   4   8
#     4   9  20  33  47  72 100 131 173 212 249 303
#     4  10  19  31  50  73 104 132 169 206 258 299
#     4   9  19  31  48  69 102 138 169 199 253 305
#     4  10  19  36  53  71  95 136 176 215 260 297
#     4   9  20  33  48  74 101 128 173 215 246 305
#     4  10  20  31  44  72 103 136 173 200 245 299
#     4  10  20  28  48  74 108 142 166 196 242 312
#     4  10  19  28  44  66 100 139 168 199 240 303
#
# _framework density 16.900449999999999
#
# number of rings (size 3 to 8) (size 9 to 14) (size 15 to 20)
#    0.000    2.400    1.333    0.800    7.467    1.067 
#    0.000    0.667    0.000    0.000    0.000    8.400 
#    0.000    0.000    0.000    0.933    0.000    0.000 
#
# Total GULP energy -371708.614897 kJ/mol
# GULP energy per Si atom -12390.287163 kJ/mol
# Density = 1.686198 g / cm^3
# Si number density = 16.900450 Si / 1000 Ang^3
#
#
#
# Elastic Constant Matrix: (Units=GPa)
#
#
# Indices 1 2 3 4 5 6 
#
# 1 76.1385 23.1793 47.1355 0.0000 -14.8873 0.0000
# 2 23.1793 74.8304 48.7463 0.0000 5.6060 0.0000
# 3 47.1355 48.7463 134.0826 0.0000 -12.3680 0.0000
# 4 0.0000 0.0000 0.0000 33.7020 0.0000 5.9780
# 5 -14.8873 5.6060 -12.3680 0.0000 22.2587 0.0000
# 6 0.0000 0.0000 0.0000 5.9780 0.0000 17.2091
#
#
#
# Elastic Compliance Matrix: (Units=1/GPa)
#
#
# Indices 1 2 3 4 5 6 
#
# 1 0.019246 -0.004081 -0.004216 0.000000 0.011558 0.000000
# 2 -0.004081 0.019995 -0.006905 0.000000 -0.011602 0.000000
# 3 -0.004216 -0.006905 0.011964 0.000000 0.005567 0.000000
# 4 0.000000 0.000000 0.000000 0.031620 0.000000 -0.010984
# 5 0.011558 -0.011602 0.005567 0.000000 0.058672 0.000000
# 6 0.000000 0.000000 0.000000 -0.010984 0.000000 0.061924
#
#
# Mechanical properties :
#
#
# Convention : Reuss Voigt Hill
#
# Bulk Modulus (GPa) = 48.07392 58.13043 53.10218
# Shear Modulus (GPa) = 20.76766 25.69998 23.23382
#
# Velocity S-wave (km/s) = 3.50926 3.90381 3.71178
# Velocity P-wave (km/s) = 6.70276 7.40203 7.06106
#
# Compressibility (1/GPa) = 0.02080130
#
# Stress axis : x y z
#
# Youngs Moduli (GPa) = 51.95794 50.01308 83.58452
#
# Poissons Ratio (x) = 0.20411 0.35240
# Poissons Ratio (y) = 0.21205 0.57713
# Poissons Ratio (z) = 0.21906 0.34533
#
# Static dielectric constant tensor:
#      x y z
#    x 3.057380 0.000000 -0.363950 
#    y 0.000000 3.333650 0.000000 
#    z -0.363950 0.000000 3.926730 
# 
# 
# High freq. dielectric constant tensor:
#      x y z
#    x 1.603480 0.000000 -0.011090 
#    y 0.000000 1.651230 0.000000 
#    z -0.011090 0.000000 1.671450 
# 
# From -- ./inp_files/35232.got.cif
#   From: 2010.06.25/outbox.cif.g09.slc.cpg/sg15_18_cif.got.tgz:35232.got - 2010.06.28 07:06:18.
