data_PCOD8132300
_publ_section_title
;
Structure prediction by ZEFSAII (Michael W. Deem and Ramdas Pophale) SiO2 
 PCOD8132300
Probable space group: C 2/C
;
_chemical_formula_sum "Si O2"
_cell_formula_units_Z 56
_cell_length_a 17.696263
_cell_length_b 9.921123
_cell_length_c 16.696158
_cell_angle_alpha 90.000000
_cell_angle_beta 60.238475
_cell_angle_gamma 90.000000
_cell_volume 2544.650792
_symmetry_space_group_name_H-M "C 2/C"
_symmetry_group_IT_number 15
_symmetry_cell_setting 'monoclinic'
loop_
_space_group_symop_operation_xyz
x,y,z
-x,y,1/2-z
-x,-y,-z
x,-y,1/2+z
1/2+x,1/2+y,z
1/2-x,1/2+y,1/2-z
1/2-x,1/2-y,-z
1/2+x,1/2-y,1/2+z
loop_
_atom_site_type_symbol
_atom_site_label
_atom_site_fract_x
_atom_site_fract_y
_atom_site_fract_z
Si Si1 0.129344 0.920646 0.078836
Si Si2 0.097818 0.286620 0.719765
Si Si3 0.461022 0.684714 0.593716
Si Si4 0.654474 0.068998 0.726126
Si Si5 0.450948 0.224168 0.599116
Si Si6 0.660953 0.533603 0.390717
Si Si7 0.583276 0.301735 0.656286
O O1 0.157464 0.807268 0.129959
O O2 0.027927 0.905007 0.109568
O O3 0.143900 0.068983 0.108255
O O4 0.184960 0.909618 0.966997
O O5 0.108345 0.253578 0.809145
O O6 0.116313 0.443083 0.696982
O O7 0.000000 0.254669 0.750000
O O8 0.517296 0.791514 0.510293
O O9 0.409016 0.586088 0.561623
O O10 0.602163 0.096649 0.836906
O O11 0.643629 0.195915 0.672561
O O12 0.753579 0.029525 0.695754
O O13 0.382815 0.350254 0.641104
O O14 0.542250 0.238342 0.597877
O O15 0.500000 0.349584 0.750000
#
# Coordination Sequence:
#
# PCOD8132300 Si02
#       7
#     8   8   8   8   8   8   8
#     4  10  19  38  67  90 114 169 226 259 299 391
#     4  10  22  39  62  91 125 168 213 263 320 389
#     4  10  19  38  68  93 117 165 229 264 302 391
#     4  11  26  37  59  96 139 160 202 275 341 376
#     4  10  20  40  66  87 125 172 216 259 313 393
#     4  11  22  39  62  97 129 162 218 278 318 376
#     4  10  18  36  63  90 115 167 219 256 304 390
#
# _framework density 22.006948999999999
#
# number of rings (size 3 to 8) (size 9 to 14) (size 15 to 20)
#    0.000    1.714    2.857    3.429    4.000    1.714 
#    0.000    1.429    0.000    0.000    0.000    0.000 
#    0.000    0.000    0.000    0.000    0.000    0.000 
#
# Total GULP energy -346901.645186 kJ/mol
# GULP energy per Si atom -12389.344471 kJ/mol
# Density = 2.195686 g / cm^3
# Si number density = 22.006949 Si / 1000 Ang^3
#
#
#
# Elastic Constant Matrix: (Units=GPa)
#
#
# Indices 1 2 3 4 5 6 
#
# 1 50.2317 17.0588 26.0755 0.0000 2.4376 0.0000
# 2 17.0588 105.0701 47.3919 0.0000 8.9724 0.0000
# 3 26.0755 47.3919 101.1910 0.0000 14.7342 0.0000
# 4 0.0000 0.0000 0.0000 27.1771 0.0000 2.5321
# 5 2.4376 8.9724 14.7342 0.0000 23.1678 0.0000
# 6 0.0000 0.0000 0.0000 2.5321 0.0000 28.9853
#
#
#
# Elastic Compliance Matrix: (Units=1/GPa)
#
#
# Indices 1 2 3 4 5 6 
#
# 1 0.023189 -0.001397 -0.005559 0.000000 0.001637 0.000000
# 2 -0.001397 0.012180 -0.005157 0.000000 -0.001291 0.000000
# 3 -0.005559 -0.005157 0.014717 0.000000 -0.006778 0.000000
# 4 0.000000 0.000000 0.000000 0.037098 0.000000 -0.003241
# 5 0.001637 -0.001291 -0.006778 0.000000 0.047801 0.000000
# 6 0.000000 0.000000 0.000000 -0.003241 0.000000 0.034783
#
#
# Mechanical properties :
#
#
# Convention : Reuss Voigt Hill
#
# Bulk Modulus (GPa) = 38.67030 48.61614 43.64322
# Shear Modulus (GPa) = 24.67742 26.93048 25.80395
#
# Velocity S-wave (km/s) = 3.35228 3.50198 3.42795
# Velocity P-wave (km/s) = 5.70909 6.20411 5.96174
#
# Compressibility (1/GPa) = 0.02585964
#
# Stress axis : x y z
#
# Youngs Moduli (GPa) = 43.12453 82.09919 67.94947
#
# Poissons Ratio (x) = 0.11469 0.37776
# Poissons Ratio (y) = 0.06025 0.35039
# Poissons Ratio (z) = 0.23975 0.42336
#
# Static dielectric constant tensor:
#      x y z
#    x 3.677160 0.000000 0.260360 
#    y 0.000000 3.832020 0.000000 
#    z 0.260360 0.000000 4.295240 
# 
# 
# High freq. dielectric constant tensor:
#      x y z
#    x 1.833130 0.000000 0.013650 
#    y 0.000000 1.852590 0.000000 
#    z 0.013650 0.000000 1.868000 
# 
# From -- ./inp_files/213793.got.cif
#   From: 2010.06.25/outbox.cif.g09.slc.cpg/sg15_107_cif.got.tgz:213793.got - 2010.06.28 07:06:18.
