data_PCOD8132550
_publ_section_title
;
Structure prediction by ZEFSAII (Michael W. Deem and Ramdas Pophale) SiO2 
 PCOD8132550
Probable space group: C 2/C
;
_chemical_formula_sum "Si O2"
_cell_formula_units_Z 64
_cell_length_a 19.111899
_cell_length_b 9.132479
_cell_length_c 21.051419
_cell_angle_alpha 90.000000
_cell_angle_beta 59.864646
_cell_angle_gamma 90.000000
_cell_volume 3177.683012
_symmetry_space_group_name_H-M "C 2/C"
_symmetry_group_IT_number 15
_symmetry_cell_setting 'monoclinic'
loop_
_space_group_symop_operation_xyz
x,y,z
-x,y,1/2-z
-x,-y,-z
x,-y,1/2+z
1/2+x,1/2+y,z
1/2-x,1/2+y,1/2-z
1/2-x,1/2-y,-z
1/2+x,1/2-y,1/2+z
loop_
_atom_site_type_symbol
_atom_site_label
_atom_site_fract_x
_atom_site_fract_y
_atom_site_fract_z
Si Si1 0.887781 0.432096 0.076312
Si Si2 0.587524 0.873235 0.186167
Si Si3 0.921950 0.943360 0.753543
Si Si4 0.116539 0.890143 0.965956
Si Si5 0.274027 0.374496 0.279822
Si Si6 0.554459 0.880177 0.056373
Si Si7 0.265225 0.042123 0.323616
Si Si8 0.497178 0.433516 0.915812
O O1 0.893190 0.282230 0.034663
O O2 0.807857 0.441362 0.154506
O O3 0.964870 0.452140 0.088133
O O4 0.884308 0.555307 0.023769
O O5 0.500000 0.920299 0.250000
O O6 0.604932 0.702900 0.196058
O O7 0.591243 0.903038 0.109414
O O8 0.649921 0.979491 0.192380
O O9 0.000000 0.020237 0.750000
O O10 0.954287 0.897534 0.669996
O O11 0.849460 0.058970 0.784355
O O12 0.209594 0.937454 0.912030
O O13 0.066297 0.975426 0.934444
O O14 0.074441 0.942057 0.051896
O O15 0.276209 0.198608 0.283122
O O16 0.276872 0.427597 0.205618
O O17 0.550507 0.710493 0.041982
#
# Coordination Sequence:
#
# PCOD8132550 Si02
#       8
#     8   8   8   8   8   8   8   8
#     4   9  21  40  63  89 121 161 202 262 307 366
#     4  11  22  40  63  90 126 165 202 257 314 363
#     4  11  22  41  62  90 124 165 205 256 309 368
#     4   9  20  38  61  87 119 156 204 258 308 357
#     4  11  23  42  63  91 124 161 211 256 311 374
#     4  10  19  39  64  89 118 160 211 244 311 370
#     4  11  23  40  65  91 124 162 207 262 309 371
#     4  10  18  38  62  86 119 159 206 249 304 367
#
# _framework density 20.140461999999999
#
# number of rings (size 3 to 8) (size 9 to 14) (size 15 to 20)
#    0.000    1.750    3.750    1.500    1.750    2.500 
#   11.250    2.500    0.000    0.000    0.000    0.000 
#    0.000    0.000    0.000    0.000    0.000    0.000 
#
# Total GULP energy -396604.023379 kJ/mol
# GULP energy per Si atom -12393.875731 kJ/mol
# Density = 2.009462 g / cm^3
# Si number density = 20.140462 Si / 1000 Ang^3
#
#
#
# Elastic Constant Matrix: (Units=GPa)
#
#
# Indices 1 2 3 4 5 6 
#
# 1 100.1672 29.7583 8.0153 0.0000 1.1411 0.0003
# 2 29.7583 71.6297 23.5924 0.0001 -3.1790 0.0005
# 3 8.0153 23.5924 55.8317 0.0000 4.5139 0.0001
# 4 0.0000 0.0001 0.0000 26.9468 0.0000 -3.6381
# 5 1.1411 -3.1790 4.5139 0.0000 31.0369 0.0000
# 6 0.0003 0.0005 0.0001 -3.6381 0.0000 33.1332
#
#
#
# Elastic Compliance Matrix: (Units=1/GPa)
#
#
# Indices 1 2 3 4 5 6 
#
# 1 0.011428 -0.004971 0.000541 0.000000 -0.001008 0.000000
# 2 -0.004971 0.018605 -0.007404 0.000000 0.003165 0.000000
# 3 0.000541 -0.007404 0.021275 0.000000 -0.003872 0.000000
# 4 0.000000 0.000000 0.000000 0.037668 0.000000 0.004136
# 5 -0.001008 0.003165 -0.003872 0.000000 0.033144 0.000000
# 6 0.000000 0.000000 0.000000 0.004136 0.000000 0.030635
#
#
# Mechanical properties :
#
#
# Convention : Reuss Voigt Hill
#
# Bulk Modulus (GPa) = 36.17804 38.92896 37.55350
# Shear Modulus (GPa) = 26.93430 29.30757 28.12094
#
# Velocity S-wave (km/s) = 3.66091 3.81879 3.74068
# Velocity P-wave (km/s) = 5.98929 6.23016 6.11091
#
# Compressibility (1/GPa) = 0.02764108
#
# Stress axis : x y z
#
# Youngs Moduli (GPa) = 87.50244 53.74923 47.00353
#
# Poissons Ratio (x) = 0.26718 -0.02544
# Poissons Ratio (y) = 0.43496 0.34802
# Poissons Ratio (z) = -0.04737 0.39796
#
# Static dielectric constant tensor:
#      x y z
#    x 3.747670 0.000000 -0.019870 
#    y 0.000000 3.590360 0.000000 
#    z -0.019870 0.000000 3.784730 
# 
# 
# High freq. dielectric constant tensor:
#      x y z
#    x 1.780370 0.000000 -0.009480 
#    y 0.000000 1.778860 0.000000 
#    z -0.009480 0.000000 1.783690 
# 
# From -- ./inp_files/251876.got.cif
#   From: 2010.06.25/outbox.cif.g09.slc.cpg/sg15_126_cif.got.tgz:251876.got - 2010.06.28 07:06:18.
