data_PCOD8132495
_publ_section_title
;
Structure prediction by ZEFSAII (Michael W. Deem and Ramdas Pophale) SiO2 
 PCOD8132495
Probable space group: C 2/C
;
_chemical_formula_sum "Si O2"
_cell_formula_units_Z 36
_cell_length_a 12.088750
_cell_length_b 26.308961
_cell_length_c 12.341939
_cell_angle_alpha 90.000000
_cell_angle_beta 156.848003
_cell_angle_gamma 90.000000
_cell_volume 1543.301402
_symmetry_space_group_name_H-M "C 2/C"
_symmetry_group_IT_number 15
_symmetry_cell_setting 'monoclinic'
loop_
_space_group_symop_operation_xyz
x,y,z
-x,y,1/2-z
-x,-y,-z
x,-y,1/2+z
1/2+x,1/2+y,z
1/2-x,1/2+y,1/2-z
1/2-x,1/2-y,-z
1/2+x,1/2-y,1/2+z
loop_
_atom_site_type_symbol
_atom_site_label
_atom_site_fract_x
_atom_site_fract_y
_atom_site_fract_z
Si Si1 0.731201 0.214950 0.124190
Si Si2 0.807890 0.013664 0.670601
Si Si3 0.500000 0.859026 0.250000
Si Si4 0.283788 0.947813 0.190551
Si Si5 0.010006 0.716115 0.374017
O O1 0.718682 0.174289 0.016578
O O2 0.546947 0.264765 0.925525
O O3 0.621032 0.188799 0.137668
O O4 0.529995 0.986421 0.373226
O O5 0.000000 0.039526 0.750000
O O6 0.722154 0.055634 0.683116
O O7 0.983178 0.967847 0.881629
O O8 0.319847 0.892462 0.171735
O O9 0.326620 0.732590 0.686981
O O10 0.000000 0.684236 0.250000
#
# Coordination Sequence:
#
# PCOD8132495 Si02
#       5
#     8   8   4   8   8
#     4  10  22  36  54  80 116 160 193 242 296 338
#     4  10  18  38  57  82 116 144 188 234 296 356
#     4  12  22  38  56  88 122 152 206 242 286 364
#     4  10  22  32  58  87 109 152 189 235 291 349
#     4   8  14  28  50  72  95 134 188 228 275 334
#
# _framework density 23.326616000000001
#
# number of rings (size 3 to 8) (size 9 to 14) (size 15 to 20)
#    0.000    2.222    2.222    0.667    0.000    3.556 
#    0.000    0.000    0.000   21.333    0.000    0.000 
#    0.000    0.000    0.000    0.000    0.000    0.000 
#
# Total GULP energy -223040.003589 kJ/mol
# GULP energy per Si atom -12391.111310 kJ/mol
# Density = 2.327352 g / cm^3
# Si number density = 23.326616 Si / 1000 Ang^3
#
#
#
# Elastic Constant Matrix: (Units=GPa)
#
#
# Indices 1 2 3 4 5 6 
#
# 1 187.7560 54.6813 20.8711 -0.0003 -14.9272 -0.0002
# 2 54.6813 53.1287 1.3439 0.0001 -12.3966 0.0000
# 3 20.8711 1.3439 70.2379 -0.0008 -4.0435 -0.0008
# 4 -0.0003 0.0001 -0.0008 7.7681 -0.0005 -2.5078
# 5 -14.9272 -12.3966 -4.0435 -0.0005 44.0563 -0.0003
# 6 -0.0002 0.0000 -0.0008 -2.5078 -0.0003 41.1346
#
#
#
# Elastic Compliance Matrix: (Units=1/GPa)
#
#
# Indices 1 2 3 4 5 6 
#
# 1 0.007934 -0.008060 -0.002191 0.000000 0.000219 0.000000
# 2 -0.008060 0.028332 0.002166 0.000000 0.005440 0.000000
# 3 -0.002191 0.002166 0.014918 0.000002 0.001236 0.000000
# 4 0.000000 0.000000 0.000002 0.131316 0.000002 0.008006
# 5 0.000219 0.005440 0.001236 0.000002 0.024417 0.000000
# 6 0.000000 0.000000 0.000000 0.008006 0.000000 0.024799
#
#
# Mechanical properties :
#
#
# Convention : Reuss Voigt Hill
#
# Bulk Modulus (GPa) = 28.55886 51.65725 40.10805
# Shear Modulus (GPa) = 19.26369 34.20689 26.73529
#
# Velocity S-wave (km/s) = 2.87683 3.83356 3.38912
# Velocity P-wave (km/s) = 4.82747 6.46437 5.70494
#
# Compressibility (1/GPa) = 0.03501541
#
# Stress axis : x y z
#
# Youngs Moduli (GPa) = 126.03566 35.29603 67.03282
#
# Poissons Ratio (x) = 0.28447 0.14686
# Poissons Ratio (y) = 1.01579 -0.14519
# Poissons Ratio (z) = 0.27612 -0.07645
#
# Static dielectric constant tensor:
#      x y z
#    x 5.121050 0.000000 -0.264190 
#    y 0.000000 3.336180 0.000000 
#    z -0.264190 0.000000 4.243860 
# 
# 
# High freq. dielectric constant tensor:
#      x y z
#    x 1.966470 0.000000 -0.006290 
#    y 0.000000 1.825110 0.000000 
#    z -0.006290 0.000000 1.942230 
# 
# From -- ./inp_files/157124.got.cif
#   From: 2010.06.25/outbox.cif.g09.slc.cpg/sg15_79_cif.got.tgz:157124.got - 2010.06.28 07:06:18.
