data_PCOD8132254
_publ_section_title
;
Structure prediction by ZEFSAII (Michael W. Deem and Ramdas Pophale) SiO2 
 PCOD8132254
Probable space group: C 2/C
;
_chemical_formula_sum "Si O2"
_cell_formula_units_Z 56
_cell_length_a 17.563382
_cell_length_b 8.647819
_cell_length_c 28.382753
_cell_angle_alpha 90.000000
_cell_angle_beta 39.382862
_cell_angle_gamma 90.000000
_cell_volume 2735.271479
_symmetry_space_group_name_H-M "C 2/C"
_symmetry_group_IT_number 15
_symmetry_cell_setting 'monoclinic'
loop_
_space_group_symop_operation_xyz
x,y,z
-x,y,1/2-z
-x,-y,-z
x,-y,1/2+z
1/2+x,1/2+y,z
1/2-x,1/2+y,1/2-z
1/2-x,1/2-y,-z
1/2+x,1/2-y,1/2+z
loop_
_atom_site_type_symbol
_atom_site_label
_atom_site_fract_x
_atom_site_fract_y
_atom_site_fract_z
Si Si1 0.275319 0.692137 0.539074
Si Si2 0.001081 0.181035 0.652607
Si Si3 0.294178 0.853382 0.900955
Si Si4 0.612094 0.437443 0.665158
Si Si5 0.935797 0.329872 0.970626
Si Si6 0.277585 0.307336 0.320374
Si Si7 0.993231 0.663664 0.550460
O O1 0.250000 0.750000 0.500000
O O2 0.243067 0.515819 0.561091
O O3 0.198441 0.794918 0.612352
O O4 0.419102 0.698355 0.476748
O O5 0.074013 0.319829 0.642290
O O6 0.999400 0.213268 0.597347
O O7 0.863120 0.192349 0.734503
O O8 0.061056 0.019889 0.641705
O O9 0.293150 0.849442 0.844156
O O10 0.203265 0.719362 0.962752
O O11 0.500000 0.378112 0.750000
O O12 0.690634 0.554724 0.658811
O O13 0.948283 0.511550 0.952818
O O14 0.997375 0.322354 0.992060
O O15 0.142153 0.319310 0.365633
#
# Coordination Sequence:
#
# PCOD8132254 Si02
#       7
#     8   8   8   8   8   8   8
#     4  12  23  36  56  83 113 144 185 235 281 333
#     4  10  18  36  61  85 106 142 193 229 267 332
#     4  10  20  33  56  85 113 145 181 230 280 323
#     4   9  19  36  58  82 112 147 186 231 281 329
#     4  10  19  35  60  81 107 148 191 227 267 328
#     4   9  20  38  59  80 110 149 188 229 273 333
#     4  10  21  38  55  79 113 149 183 224 281 331
#
# _framework density 20.473288
#
# number of rings (size 3 to 8) (size 9 to 14) (size 15 to 20)
#    0.000    2.000    0.000    6.857    0.000    3.429 
#    0.000    7.143    0.000    0.000    0.000    0.000 
#    0.000    0.000    0.000    0.000    0.000    0.000 
#
# Total GULP energy -346990.221584 kJ/mol
# GULP energy per Si atom -12392.507914 kJ/mol
# Density = 2.042669 g / cm^3
# Si number density = 20.473288 Si / 1000 Ang^3
#
#
#
# Elastic Constant Matrix: (Units=GPa)
#
#
# Indices 1 2 3 4 5 6 
#
# 1 73.9789 27.3041 40.6279 -0.0001 -18.8662 -0.0032
# 2 27.3041 74.4733 27.9106 -0.0002 -16.9408 -0.0053
# 3 40.6279 27.9106 129.4298 0.0000 -19.4051 -0.0003
# 4 -0.0001 -0.0002 0.0000 30.0658 0.0002 -1.4641
# 5 -18.8662 -16.9408 -19.4051 0.0002 39.0501 -0.0004
# 6 -0.0032 -0.0053 -0.0003 -1.4641 -0.0004 20.0500
#
#
#
# Elastic Compliance Matrix: (Units=1/GPa)
#
#
# Indices 1 2 3 4 5 6 
#
# 1 0.018646 -0.004092 -0.004199 0.000000 0.005147 0.000002
# 2 -0.004092 0.016535 -0.001623 0.000000 0.004390 0.000004
# 3 -0.004199 -0.001623 0.009708 0.000000 0.002091 -0.000001
# 4 0.000000 0.000000 0.000000 0.033379 0.000000 0.002437
# 5 0.005147 0.004390 0.002091 0.000000 0.031038 0.000003
# 6 0.000002 0.000004 -0.000001 0.002437 0.000003 0.050053
#
#
# Mechanical properties :
#
#
# Convention : Reuss Voigt Hill
#
# Bulk Modulus (GPa) = 39.90276 52.17412 46.03844
# Shear Modulus (GPa) = 26.66095 29.96916 28.31506
#
# Velocity S-wave (km/s) = 3.61256 3.83014 3.72294
# Velocity P-wave (km/s) = 6.07727 6.71560 6.40439
#
# Compressibility (1/GPa) = 0.02506092
#
# Stress axis : x y z
#
# Youngs Moduli (GPa) = 53.63051 60.47921 103.01004
#
# Poissons Ratio (x) = 0.24747 0.43254
# Poissons Ratio (y) = 0.21944 0.16719
# Poissons Ratio (z) = 0.22519 0.09816
#
# Static dielectric constant tensor:
#      x y z
#    x 3.666310 0.000000 -0.070980 
#    y 0.000000 3.719490 0.000000 
#    z -0.070980 0.000000 3.941380 
# 
# 
# High freq. dielectric constant tensor:
#      x y z
#    x 1.791300 0.000000 -0.009660 
#    y 0.000000 1.780040 0.000000 
#    z -0.009660 0.000000 1.807930 
# 
# From -- ./inp_files/298519.got.cif
#   From: 2010.06.25/outbox.cif.g09.slc.cpg/sg15_150_cif.got.tgz:298519.got - 2010.06.28 07:06:18.
