data_PCOD8132986
_publ_section_title
;
Structure prediction by ZEFSAII (Michael W. Deem and Ramdas Pophale) SiO2 
 PCOD8132986
Probable space group: C 2/C
;
_chemical_formula_sum "Si O2"
_cell_formula_units_Z 48
_cell_length_a 5.165759
_cell_length_b 14.746934
_cell_length_c 28.262890
_cell_angle_alpha 90.000000
_cell_angle_beta 111.441476
_cell_angle_gamma 90.000000
_cell_volume 2004.032806
_symmetry_space_group_name_H-M "C 2/C"
_symmetry_group_IT_number 15
_symmetry_cell_setting 'monoclinic'
loop_
_space_group_symop_operation_xyz
x,y,z
-x,y,1/2-z
-x,-y,-z
x,-y,1/2+z
1/2+x,1/2+y,z
1/2-x,1/2+y,1/2-z
1/2-x,1/2-y,-z
1/2+x,1/2-y,1/2+z
loop_
_atom_site_type_symbol
_atom_site_label
_atom_site_fract_x
_atom_site_fract_y
_atom_site_fract_z
Si Si1 0.117511 0.642089 0.307029
Si Si2 0.110600 0.857912 0.307029
Si Si3 0.764762 0.642344 0.633038
Si Si4 0.767392 0.857655 0.633038
Si Si5 0.291220 0.100625 0.477974
Si Si6 0.379327 0.600625 0.522027
O O1 0.109847 0.750000 0.304925
O O2 0.431233 0.607424 0.331312
O O3 0.000000 0.602317 0.250000
O O4 0.946441 0.606868 0.341317
O O5 0.418822 0.893132 0.341318
O O6 0.000000 0.897683 0.250000
O O7 0.894008 0.892576 0.331311
O O8 0.753697 0.750000 0.626848
O O9 0.606658 0.598488 0.578416
O O10 0.707006 0.901511 0.578416
O O11 0.582798 0.149456 0.514138
O O12 0.026245 0.149456 0.485862
O O13 0.244033 0.000000 0.497017
#
# Coordination Sequence:
#
# PCOD8132986 Si02
#       6
#     8   8   8   8   8   8
#     4   9  17  30  49  75 105 132 161 202 253 306
#     4   9  17  30  49  75 105 132 161 202 253 306
#     4  10  19  31  51  77 101 130 168 209 252 298
#     4  10  19  31  51  77 101 130 168 209 252 298
#     4  10  21  36  52  71  98 134 171 207 254 307
#     4  10  21  36  52  71  98 134 171 207 254 307
#
# _framework density 23.951702999999998
#
# number of rings (size 3 to 8) (size 9 to 14) (size 15 to 20)
#    0.000    2.333    0.000    3.000    0.000    5.333 
#    0.000    0.000    0.000    4.000    0.000    0.000 
#    0.000    0.000    0.000    0.000    0.000    0.000 
#
# Total GULP energy -297395.881132 kJ/mol
# GULP energy per Si atom -12391.495047 kJ/mol
# Density = 2.389719 g / cm^3
# Si number density = 23.951703 Si / 1000 Ang^3
#
#
#
# Elastic Constant Matrix: (Units=GPa)
#
#
# Indices 1 2 3 4 5 6 
#
# 1 245.3393 10.0471 92.2493 0.0000 1.2077 0.0000
# 2 10.0471 12.7567 6.9312 0.0000 0.0868 0.0000
# 3 92.2493 6.9312 181.8126 0.0000 0.5614 0.0000
# 4 0.0000 0.0000 0.0000 33.2771 0.0000 -0.8448
# 5 1.2077 0.0868 0.5614 0.0000 54.8773 0.0000
# 6 0.0000 0.0000 0.0000 -0.8448 0.0000 2.9555
#
#
#
# Elastic Compliance Matrix: (Units=1/GPa)
#
#
# Indices 1 2 3 4 5 6 
#
# 1 0.005125 -0.002679 -0.002498 0.000000 -0.000083 0.000000
# 2 -0.002679 0.081449 -0.001746 0.000000 -0.000052 0.000000
# 3 -0.002498 -0.001746 0.006834 0.000000 -0.000012 0.000000
# 4 0.000000 0.000000 0.000000 0.030270 0.000000 0.008653
# 5 -0.000083 -0.000052 -0.000012 0.000000 0.018225 0.000000
# 6 0.000000 0.000000 0.000000 0.008653 0.000000 0.340827
#
#
# Mechanical properties :
#
#
# Convention : Reuss Voigt Hill
#
# Bulk Modulus (GPa) = 12.56864 73.15155 42.86010
# Shear Modulus (GPa) = 9.55845 40.26738 24.91292
#
# Velocity S-wave (km/s) = 1.99985 4.10468 3.22861
# Velocity P-wave (km/s) = 3.25444 7.28506 5.64196
#
# Compressibility (1/GPa) = 0.07956307
#
# Stress axis : x y z
#
# Youngs Moduli (GPa) = 195.10517 12.27766 146.32055
#
# Poissons Ratio (x) = 0.03289 0.36554
# Poissons Ratio (y) = 0.52266 0.25543
# Poissons Ratio (z) = 0.48741 0.02143
#
# Static dielectric constant tensor:
#      x y z
#    x 5.295620 0.000000 0.030500 
#    y 0.000000 3.712740 0.000000 
#    z 0.030500 0.000000 4.199710 
# 
# 
# High freq. dielectric constant tensor:
#      x y z
#    x 1.982670 0.000000 0.000880 
#    y 0.000000 1.902490 0.000000 
#    z 0.000880 0.000000 1.951080 
# 
# From -- ./inp_files/285942.got.cif
#   From: 2010.06.25/outbox.cif.g09.slc.cpg/sg15_143_cif.got.tgz:285942.got - 2010.06.28 07:06:18.
