data_PCOD8132744
_publ_section_title
;
Structure prediction by ZEFSAII (Michael W. Deem and Ramdas Pophale) SiO2 
 PCOD8132744
Probable space group: C 2/C
;
_chemical_formula_sum "Si O2"
_cell_formula_units_Z 48
_cell_length_a 23.900337
_cell_length_b 9.979395
_cell_length_c 12.611729
_cell_angle_alpha 90.000000
_cell_angle_beta 43.171625
_cell_angle_gamma 90.000000
_cell_volume 2058.055381
_symmetry_space_group_name_H-M "C 2/C"
_symmetry_group_IT_number 15
_symmetry_cell_setting 'monoclinic'
loop_
_space_group_symop_operation_xyz
x,y,z
-x,y,1/2-z
-x,-y,-z
x,-y,1/2+z
1/2+x,1/2+y,z
1/2-x,1/2+y,1/2-z
1/2-x,1/2-y,-z
1/2+x,1/2-y,1/2+z
loop_
_atom_site_type_symbol
_atom_site_label
_atom_site_fract_x
_atom_site_fract_y
_atom_site_fract_z
Si Si1 0.340492 0.857867 0.442281
Si Si2 0.885400 0.468971 0.075411
Si Si3 0.771466 0.920882 0.084599
Si Si4 0.587390 0.583212 0.683874
Si Si5 0.036009 0.818015 0.817423
Si Si6 0.041166 0.692635 0.389537
O O1 0.384465 0.955958 0.464036
O O2 0.267630 0.929878 0.479656
O O3 0.314109 0.723192 0.540919
O O4 0.403971 0.811565 0.262030
O O5 0.792918 0.426216 0.230048
O O6 0.911420 0.561364 0.138903
O O7 0.950470 0.347541 0.970864
O O8 0.837122 0.045093 0.999796
O O9 0.500000 0.591854 0.750000
O O10 0.583609 0.458012 0.772465
O O11 0.597700 0.727537 0.726757
O O12 0.000000 0.824149 0.750000
O O13 0.968117 0.796103 0.000118
#
# Coordination Sequence:
#
# PCOD8132744 Si02
#       6
#     8   8   8   8   8   8
#     4  10  21  41  65  90 128 174 216 264 320 398
#     4  11  24  39  67  98 132 174 213 264 331 396
#     4  10  23  43  63  94 129 172 221 268 329 381
#     4  10  24  42  64  95 126 169 217 274 322 384
#     4  10  18  40  68  88 124 170 218 262 314 389
#     4  11  23  40  64 100 130 167 214 263 329 391
#
# _framework density 23.322987999999999
#
# number of rings (size 3 to 8) (size 9 to 14) (size 15 to 20)
#    0.000    1.667    3.333    0.500    0.000    4.667 
#    0.000    0.000    0.000    0.000    0.000    0.000 
#    0.000    0.000    0.000    0.000    0.000    0.000 
#
# Total GULP energy -297440.152619 kJ/mol
# GULP energy per Si atom -12393.339692 kJ/mol
# Density = 2.326990 g / cm^3
# Si number density = 23.322988 Si / 1000 Ang^3
#
#
#
# Elastic Constant Matrix: (Units=GPa)
#
#
# Indices 1 2 3 4 5 6 
#
# 1 66.0072 14.3575 -5.0185 0.0000 -6.8092 0.0000
# 2 14.3575 86.8691 22.2433 0.0000 3.3380 0.0000
# 3 -5.0185 22.2433 73.3427 0.0000 -11.5567 0.0000
# 4 0.0000 0.0000 0.0000 36.1607 0.0000 -0.4049
# 5 -6.8092 3.3380 -11.5567 0.0000 25.4007 0.0000
# 6 0.0000 0.0000 0.0000 -0.4049 0.0000 19.3661
#
#
#
# Elastic Compliance Matrix: (Units=1/GPa)
#
#
# Indices 1 2 3 4 5 6 
#
# 1 0.016941 -0.003921 0.003388 0.000000 0.006598 0.000000
# 2 -0.003921 0.013706 -0.005251 0.000000 -0.005241 0.000000
# 3 0.003388 -0.005251 0.016924 0.000000 0.009298 0.000000
# 4 0.000000 0.000000 0.000000 0.027661 0.000000 0.000578
# 5 0.006598 -0.005241 0.009298 0.000000 0.046057 0.000000
# 6 0.000000 0.000000 0.000000 0.000578 0.000000 0.051649
#
#
# Mechanical properties :
#
#
# Convention : Reuss Voigt Hill
#
# Bulk Modulus (GPa) = 27.77541 32.15374 29.96458
# Shear Modulus (GPa) = 25.44455 29.16128 27.30291
#
# Velocity S-wave (km/s) = 3.30656 3.53983 3.42518
# Velocity P-wave (km/s) = 5.14904 5.52480 5.34023
#
# Compressibility (1/GPa) = 0.03600306
#
# Stress axis : x y z
#
# Youngs Moduli (GPa) = 59.02843 72.96335 59.08750
#
# Poissons Ratio (x) = 0.28609 -0.20019
# Poissons Ratio (y) = 0.23145 0.31025
# Poissons Ratio (z) = -0.19999 0.38311
#
# Static dielectric constant tensor:
#      x y z
#    x 3.982080 0.000000 -0.315320 
#    y 0.000000 4.523650 0.000000 
#    z -0.315320 0.000000 4.100050 
# 
# 
# High freq. dielectric constant tensor:
#      x y z
#    x 1.903850 0.000000 -0.014040 
#    y 0.000000 1.922570 0.000000 
#    z -0.014040 0.000000 1.912340 
# 
# From -- ./inp_files/176886.got.cif
#   From: 2010.06.25/outbox.cif.g09.slc.cpg/sg15_89_cif.got.tgz:176886.got - 2010.06.28 07:06:18.
