data_PCOD8132225
_publ_section_title
;
Structure prediction by ZEFSAII (Michael W. Deem and Ramdas Pophale) SiO2 
 PCOD8132225
Probable space group: C 2/C
;
_chemical_formula_sum "Si O2"
_cell_formula_units_Z 44
_cell_length_a 8.947716
_cell_length_b 31.118642
_cell_length_c 9.614089
_cell_angle_alpha 90.000000
_cell_angle_beta 52.791159
_cell_angle_gamma 90.000000
_cell_volume 2132.024466
_symmetry_space_group_name_H-M "C 2/C"
_symmetry_group_IT_number 15
_symmetry_cell_setting 'monoclinic'
loop_
_space_group_symop_operation_xyz
x,y,z
-x,y,1/2-z
-x,-y,-z
x,-y,1/2+z
1/2+x,1/2+y,z
1/2-x,1/2+y,1/2-z
1/2-x,1/2-y,-z
1/2+x,1/2-y,1/2+z
loop_
_atom_site_type_symbol
_atom_site_label
_atom_site_fract_x
_atom_site_fract_y
_atom_site_fract_z
Si Si1 0.000000 0.125252 0.750000
Si Si2 0.292864 0.906153 0.552456
Si Si3 0.901174 0.196852 0.021011
Si Si4 0.373356 0.018776 0.190855
Si Si5 0.279326 0.925847 0.261699
Si Si6 0.500000 0.664238 0.250000
Si Si7 0.000000 0.733113 0.250000
O O1 0.836826 0.093015 0.799065
O O2 0.067290 0.153706 0.583653
O O3 0.251132 0.942148 0.694991
O O4 0.195726 0.911039 0.456624
O O5 0.513596 0.907698 0.391778
O O6 0.194181 0.862759 0.662211
O O7 0.008670 0.193929 0.108019
O O8 0.679058 0.202654 0.164554
O O9 0.989937 0.237700 0.893394
O O10 0.500000 0.034795 0.250000
O O11 0.251204 0.977202 0.298059
O O12 0.500000 0.000000 0.000000
#
# Coordination Sequence:
#
# PCOD8132225 Si02
#       7
#     4   8   8   8   8   4   4
#     4  11  22  39  64  96 122 168 204 254 312 373
#     4  10  22  39  58  87 129 164 209 265 302 359
#     4  10  23  42  67  94 128 154 203 241 304 380
#     4  10  18  36  60  83 117 170 223 254 305 358
#     4  10  20  40  60  85 126 173 210 259 313 354
#     4  12  24  39  60 105 124 150 208 259 300 363
#     4   9  22  48  68  91 122 166 190 239 302 384
#
# _framework density 20.637663
#
# number of rings (size 3 to 8) (size 9 to 14) (size 15 to 20)
#    0.000    1.818    5.455    0.000    2.545    4.364 
#    0.000    1.818    0.000    0.000    0.000    0.000 
#    0.000    0.000    0.000    0.000    0.000    0.000 
#
# Total GULP energy -272538.409361 kJ/mol
# GULP energy per Si atom -12388.109516 kJ/mol
# Density = 2.059069 g / cm^3
# Si number density = 20.637663 Si / 1000 Ang^3
#
#
#
# Elastic Constant Matrix: (Units=GPa)
#
#
# Indices 1 2 3 4 5 6 
#
# 1 105.4319 48.6809 46.3387 0.0000 19.7001 0.0000
# 2 48.6809 70.4426 26.0813 0.0000 6.4943 0.0000
# 3 46.3387 26.0813 86.4616 0.0000 18.0480 0.0000
# 4 0.0000 0.0000 0.0000 62.1099 0.0000 4.1190
# 5 19.7001 6.4943 18.0480 0.0000 41.2557 0.0000
# 6 0.0000 0.0000 0.0000 4.1190 0.0000 37.9760
#
#
#
# Elastic Compliance Matrix: (Units=1/GPa)
#
#
# Indices 1 2 3 4 5 6 
#
# 1 0.016958 -0.009333 -0.005381 0.000000 -0.004274 0.000000
# 2 -0.009333 0.021124 -0.001768 0.000000 0.001905 0.000000
# 3 -0.005381 -0.001768 0.015835 0.000000 -0.004079 0.000000
# 4 0.000000 0.000000 0.000000 0.016217 0.000000 -0.001759
# 5 -0.004274 0.001905 -0.004079 0.000000 0.027765 0.000000
# 6 0.000000 0.000000 0.000000 -0.001759 0.000000 0.026523
#
#
# Mechanical properties :
#
#
# Convention : Reuss Voigt Hill
#
# Bulk Modulus (GPa) = 47.72463 56.05978 51.89221
# Shear Modulus (GPa) = 30.41931 37.68401 34.05166
#
# Velocity S-wave (km/s) = 3.84340 4.27779 4.06640
# Velocity P-wave (km/s) = 6.54758 7.18485 6.87361
#
# Compressibility (1/GPa) = 0.02095354
#
# Stress axis : x y z
#
# Youngs Moduli (GPa) = 58.97078 47.33851 63.15305
#
# Poissons Ratio (x) = 0.44179 0.33982
# Poissons Ratio (y) = 0.55035 0.11166
# Poissons Ratio (z) = 0.31732 0.08370
#
# Static dielectric constant tensor:
#      x y z
#    x 3.745690 0.000000 0.490010 
#    y 0.000000 4.563070 0.000000 
#    z 0.490010 0.000000 4.142530 
# 
# 
# High freq. dielectric constant tensor:
#      x y z
#    x 1.797140 0.000000 0.018890 
#    y 0.000000 1.796830 0.000000 
#    z 0.018890 0.000000 1.820800 
# 
# From -- ./inp_files/26018.got.cif
#   From: 2010.06.25/outbox.cif.g09.slc.cpg/sg15_14_cif.got.tgz:26018.got - 2010.06.28 07:06:18.
