data_PCOD8132411
_publ_section_title
;
Structure prediction by ZEFSAII (Michael W. Deem and Ramdas Pophale) SiO2 
 PCOD8132411
Probable space group: C 2/C
;
_chemical_formula_sum "Si O2"
_cell_formula_units_Z 44
_cell_length_a 8.277958
_cell_length_b 18.997916
_cell_length_c 12.100659
_cell_angle_alpha 90.000000
_cell_angle_beta 78.879977
_cell_angle_gamma 90.000000
_cell_volume 1867.269280
_symmetry_space_group_name_H-M "C 2/C"
_symmetry_group_IT_number 15
_symmetry_cell_setting 'monoclinic'
loop_
_space_group_symop_operation_xyz
x,y,z
-x,y,1/2-z
-x,-y,-z
x,-y,1/2+z
1/2+x,1/2+y,z
1/2-x,1/2+y,1/2-z
1/2-x,1/2-y,-z
1/2+x,1/2-y,1/2+z
loop_
_atom_site_type_symbol
_atom_site_label
_atom_site_fract_x
_atom_site_fract_y
_atom_site_fract_z
Si Si1 0.500000 0.798339 0.250000
Si Si2 0.205653 0.493872 0.906982
Si Si3 0.319178 0.853127 0.466812
Si Si4 0.038054 0.183025 0.413370
Si Si5 0.500000 0.437798 0.750000
Si Si6 0.649904 0.137713 0.038230
Si Si7 0.500000 0.928658 0.750000
O O1 0.361555 0.845577 0.330581
O O2 0.585043 0.748908 0.330156
O O3 0.366557 0.492416 0.811297
O O4 0.058984 0.476487 0.843042
O O5 0.212141 0.435028 0.002623
O O6 0.174377 0.569658 0.959262
O O7 0.480879 0.824517 0.515991
O O8 0.152019 0.809616 0.518663
O O9 0.178460 0.182064 0.491520
O O10 0.058753 0.110505 0.343271
O O11 0.633188 0.121370 0.171996
#
# Coordination Sequence:
#
# PCOD8132411 Si02
#       7
#     4   8   8   8   4   8   4
#     4  11  24  45  68  94 132 171 223 272 316 367
#     4  10  21  38  63  96 131 167 210 260 325 394
#     4  10  23  42  66  97 126 169 215 271 318 380
#     4  10  22  44  66  88 129 175 215 261 319 381
#     4   9  18  38  60  89 123 172 207 252 322 381
#     4  11  23  40  65  97 128 168 217 260 324 395
#     4  10  18  37  60  87 133 167 202 260 322 382
#
# _framework density 23.56382
#
# number of rings (size 3 to 8) (size 9 to 14) (size 15 to 20)
#    0.000    1.818    1.818    2.727    2.545    6.545 
#    6.545    1.818    0.000    0.000    0.000    0.000 
#    0.000    0.000    0.000    0.000    0.000    0.000 
#
# Total GULP energy -272538.657674 kJ/mol
# GULP energy per Si atom -12388.120803 kJ/mol
# Density = 2.351019 g / cm^3
# Si number density = 23.563820 Si / 1000 Ang^3
#
#
#
# Elastic Constant Matrix: (Units=GPa)
#
#
# Indices 1 2 3 4 5 6 
#
# 1 189.9752 43.7707 54.7554 0.0000 -23.1043 0.0000
# 2 43.7707 39.4548 40.6727 0.0000 0.1168 0.0000
# 3 54.7554 40.6727 136.8931 0.0000 -34.0449 0.0000
# 4 0.0000 0.0000 0.0000 32.0475 0.0000 -6.7038
# 5 -23.1043 0.1168 -34.0449 0.0000 37.3564 0.0000
# 6 0.0000 0.0000 0.0000 -6.7038 0.0000 20.7401
#
#
#
# Elastic Compliance Matrix: (Units=1/GPa)
#
#
# Indices 1 2 3 4 5 6 
#
# 1 0.008010 -0.010410 0.001460 0.000000 0.006317 0.000000
# 2 -0.010410 0.055641 -0.018119 0.000000 -0.023125 0.000000
# 3 0.001460 -0.018119 0.015960 0.000000 0.015505 0.000000
# 4 0.000000 0.000000 0.000000 0.033467 0.000000 0.010817
# 5 0.006317 -0.023125 0.015505 0.000000 0.044879 0.000000
# 6 0.000000 0.000000 0.000000 0.010817 0.000000 0.051712
#
#
# Mechanical properties :
#
#
# Convention : Reuss Voigt Hill
#
# Bulk Modulus (GPa) = 39.25618 71.63563 55.44590
# Shear Modulus (GPa) = 18.36228 33.17041 25.76635
#
# Velocity S-wave (km/s) = 2.79455 3.75598 3.31035
# Velocity P-wave (km/s) = 5.20657 7.01973 6.18000
#
# Compressibility (1/GPa) = 0.02547369
#
# Stress axis : x y z
#
# Youngs Moduli (GPa) = 124.84842 17.97247 62.65505
#
# Poissons Ratio (x) = 0.18709 -0.09149
# Poissons Ratio (y) = 1.29965 1.13524
# Poissons Ratio (z) = -0.18230 0.32564
#
# Static dielectric constant tensor:
#      x y z
#    x 4.624290 0.000000 -0.294150 
#    y 0.000000 3.966580 0.000000 
#    z -0.294150 0.000000 4.496430 
# 
# 
# High freq. dielectric constant tensor:
#      x y z
#    x 1.939280 0.000000 -0.018620 
#    y 0.000000 1.917020 0.000000 
#    z -0.018620 0.000000 1.931130 
# 
# From -- ./inp_files/78235.got.cif
#   From: 2010.06.25/outbox.cif.g09.slc.cpg/sg15_40_cif.got.tgz:78235.got - 2010.06.28 07:06:18.
