data_PCOD8132926
_publ_section_title
;
Structure prediction by ZEFSAII (Michael W. Deem and Ramdas Pophale) SiO2 
 PCOD8132926
Probable space group: C 2/C
;
_chemical_formula_sum "Si O2"
_cell_formula_units_Z 48
_cell_length_a 22.218012
_cell_length_b 13.293160
_cell_length_c 14.041280
_cell_angle_alpha 90.000000
_cell_angle_beta 36.675546
_cell_angle_gamma 90.000000
_cell_volume 2476.966909
_symmetry_space_group_name_H-M "C 2/C"
_symmetry_group_IT_number 15
_symmetry_cell_setting 'monoclinic'
loop_
_space_group_symop_operation_xyz
x,y,z
-x,y,1/2-z
-x,-y,-z
x,-y,1/2+z
1/2+x,1/2+y,z
1/2-x,1/2+y,1/2-z
1/2-x,1/2-y,-z
1/2+x,1/2-y,1/2+z
loop_
_atom_site_type_symbol
_atom_site_label
_atom_site_fract_x
_atom_site_fract_y
_atom_site_fract_z
Si Si1 0.890650 0.050225 0.151144
Si Si2 0.412489 0.766856 0.030213
Si Si3 0.718806 0.376665 0.314332
Si Si4 0.389265 0.562909 0.372894
Si Si5 0.838299 0.155091 0.955317
Si Si6 0.137244 0.737221 0.264530
O O1 0.890455 0.162485 0.111481
O O2 0.858289 0.061776 0.302310
O O3 0.807571 0.983015 0.202257
O O4 0.000000 0.000000 0.000000
O O5 0.338265 0.855691 0.157994
O O6 0.394409 0.744647 0.941123
O O7 0.524865 0.807957 0.906274
O O8 0.688265 0.373316 0.464521
O O9 0.659229 0.285536 0.339138
O O10 0.500000 0.608157 0.250000
O O11 0.388398 0.450417 0.417926
O O12 0.852893 0.172803 0.824681
O O13 0.719187 0.151898 0.134150
#
# Coordination Sequence:
#
# PCOD8132926 Si02
#       6
#     8   8   8   8   8   8
#     4  12  20  37  62  83 111 148 193 237 281 336
#     4  11  21  36  56  82 121 147 183 236 287 335
#     4  11  23  35  55  90 108 148 191 229 291 339
#     4  12  20  34  59  84 111 144 194 237 282 334
#     4  10  19  30  57  85 110 140 186 238 287 328
#     4  10  19  35  53  85 114 141 183 238 286 335
#
# _framework density 19.378539
#
# number of rings (size 3 to 8) (size 9 to 14) (size 15 to 20)
#    0.000    1.000    6.667    1.500    0.000    0.667 
#    0.000    0.833    0.000    0.000    0.000    0.000 
#    0.000    0.000    0.000    0.000    0.000    0.000 
#
# Total GULP energy -297592.264870 kJ/mol
# GULP energy per Si atom -12399.677703 kJ/mol
# Density = 1.933443 g / cm^3
# Si number density = 19.378539 Si / 1000 Ang^3
#
#
#
# Elastic Constant Matrix: (Units=GPa)
#
#
# Indices 1 2 3 4 5 6 
#
# 1 81.7040 9.4111 58.1400 0.0000 3.2985 0.0000
# 2 9.4111 36.7608 25.8727 0.0000 0.9940 0.0000
# 3 58.1400 25.8727 130.6368 0.0000 -3.0882 0.0000
# 4 0.0000 0.0000 0.0000 27.9272 0.0000 -4.4498
# 5 3.2985 0.9940 -3.0882 0.0000 50.3293 0.0000
# 6 0.0000 0.0000 0.0000 -4.4498 0.0000 23.2138
#
#
#
# Elastic Compliance Matrix: (Units=1/GPa)
#
#
# Indices 1 2 3 4 5 6 
#
# 1 0.018105 0.001291 -0.008354 0.000000 -0.001725 0.000000
# 2 0.001291 0.031752 -0.006890 0.000000 -0.001135 0.000000
# 3 -0.008354 -0.006890 0.012772 0.000000 0.001467 0.000000
# 4 0.000000 0.000000 0.000000 0.036936 0.000000 0.007080
# 5 -0.001725 -0.001135 0.001467 0.000000 0.020095 0.000000
# 6 0.000000 0.000000 0.000000 0.007080 0.000000 0.044435
#
#
# Mechanical properties :
#
#
# Convention : Reuss Voigt Hill
#
# Bulk Modulus (GPa) = 28.79887 48.43878 38.61883
# Shear Modulus (GPa) = 24.56101 30.67260 27.61681
#
# Velocity S-wave (km/s) = 3.56397 3.98277 3.77918
# Velocity P-wave (km/s) = 5.64174 6.79708 6.24618
#
# Compressibility (1/GPa) = 0.03472358
#
# Stress axis : x y z
#
# Youngs Moduli (GPa) = 55.23359 31.49378 78.29566
#
# Poissons Ratio (x) = -0.04067 0.65409
# Poissons Ratio (y) = -0.07133 0.53946
# Poissons Ratio (z) = 0.46143 0.21700
#
# Static dielectric constant tensor:
#      x y z
#    x 3.701390 0.000000 0.050290 
#    y 0.000000 3.212280 0.000000 
#    z 0.050290 0.000000 3.720980 
# 
# 
# High freq. dielectric constant tensor:
#      x y z
#    x 1.761550 0.000000 0.009410 
#    y 0.000000 1.709970 0.000000 
#    z 0.009410 0.000000 1.759070 
# 
# From -- ./inp_files/96842.got.cif
#   From: 2010.06.25/outbox.cif.g09.slc.cpg/sg15_49_cif.got.tgz:96842.got - 2010.06.28 07:06:18.
