data_PCOD8132940
_publ_section_title
;
Structure prediction by ZEFSAII (Michael W. Deem and Ramdas Pophale) SiO2 
 PCOD8132940
Probable space group: C 2/C
;
_chemical_formula_sum "Si O2"
_cell_formula_units_Z 56
_cell_length_a 5.236659
_cell_length_b 23.115657
_cell_length_c 26.622835
_cell_angle_alpha 90.000000
_cell_angle_beta 97.169537
_cell_angle_gamma 90.000000
_cell_volume 3197.465223
_symmetry_space_group_name_H-M "C 2/C"
_symmetry_group_IT_number 15
_symmetry_cell_setting 'monoclinic'
loop_
_space_group_symop_operation_xyz
x,y,z
-x,y,1/2-z
-x,-y,-z
x,-y,1/2+z
1/2+x,1/2+y,z
1/2-x,1/2+y,1/2-z
1/2-x,1/2-y,-z
1/2+x,1/2-y,1/2+z
loop_
_atom_site_type_symbol
_atom_site_label
_atom_site_fract_x
_atom_site_fract_y
_atom_site_fract_z
Si Si1 0.045044 0.456706 0.806304
Si Si2 0.039090 0.593718 0.806702
Si Si3 0.543288 0.642340 0.437580
Si Si4 0.418615 0.593156 0.633104
Si Si5 0.452176 0.797264 0.557345
Si Si6 0.919875 0.956483 0.634326
Si Si7 0.376461 0.669794 0.537158
O O1 0.034594 0.525290 0.802753
O O2 0.827652 0.435512 0.840030
O O3 0.000000 0.429880 0.750000
O O4 0.327315 0.436895 0.829470
O O5 0.799362 0.614597 0.833940
O O6 0.000000 0.620327 0.750000
O O7 0.306854 0.614215 0.838408
O O8 0.277874 0.674802 0.414556
O O9 0.564175 0.576470 0.418627
O O10 0.566735 0.643663 0.498942
O O11 0.778553 0.676735 0.418493
O O12 0.413584 0.524574 0.623715
O O13 0.348336 0.621362 0.578416
O O14 0.481557 0.728489 0.564947
O O15 0.394159 0.813510 0.497007
#
# Coordination Sequence:
#
# PCOD8132940 Si02
#       7
#     8   8   8   8   8   8   8
#     4   9  17  31  49  69  98 131 165 202 233 288
#     4   9  18  32  48  71 101 129 161 200 243 290
#     4  10  19  33  50  71 102 129 158 204 238 286
#     4  10  20  30  51  76 101 130 159 197 246 301
#     4   9  20  34  52  69  97 128 174 205 228 271
#     4  10  19  31  47  77 103 127 160 192 255 305
#     4   9  21  33  53  72 101 125 175 202 237 281
#
# _framework density 17.513874000000001
#
# number of rings (size 3 to 8) (size 9 to 14) (size 15 to 20)
#    0.857    1.714    0.000    2.143    2.000    4.000 
#    0.000    0.714    0.000    0.000    0.000   20.000 
#    0.000    0.000    0.000    0.000    0.000    0.000 
#
# Total GULP energy -346964.113047 kJ/mol
# GULP energy per Si atom -12391.575466 kJ/mol
# Density = 1.747401 g / cm^3
# Si number density = 17.513874 Si / 1000 Ang^3
#
#
#
# Elastic Constant Matrix: (Units=GPa)
#
#
# Indices 1 2 3 4 5 6 
#
# 1 135.9079 28.6456 32.2460 0.0000 -10.9971 0.0000
# 2 28.6456 63.2075 42.1888 0.0000 -8.5056 0.0000
# 3 32.2460 42.1888 59.5086 0.0000 -14.9645 0.0000
# 4 0.0000 0.0000 0.0000 4.9199 0.0000 0.8303
# 5 -10.9971 -8.5056 -14.9645 0.0000 18.6173 0.0000
# 6 0.0000 0.0000 0.0000 0.8303 0.0000 12.5797
#
#
#
# Elastic Compliance Matrix: (Units=1/GPa)
#
#
# Indices 1 2 3 4 5 6 
#
# 1 0.008568 -0.001608 -0.003027 0.000000 0.001894 0.000000
# 2 -0.001608 0.030605 -0.021995 0.000000 -0.004647 0.000000
# 3 -0.003027 -0.021995 0.038930 0.000000 0.019455 0.000000
# 4 0.000000 0.000000 0.000000 0.205546 0.000000 -0.013566
# 5 0.001894 -0.004647 0.019455 0.000000 0.068347 0.000000
# 6 0.000000 0.000000 0.000000 -0.013566 0.000000 0.080388
#
#
# Mechanical properties :
#
#
# Convention : Reuss Voigt Hill
#
# Bulk Modulus (GPa) = 40.25046 51.64275 45.94661
# Shear Modulus (GPa) = 10.12300 17.59296 13.85798
#
# Velocity S-wave (km/s) = 2.40677 3.17285 2.81598
# Velocity P-wave (km/s) = 5.54575 6.55541 6.07160
#
# Compressibility (1/GPa) = 0.02484444
#
# Stress axis : x y z
#
# Youngs Moduli (GPa) = 116.71060 32.67440 25.68731
#
# Poissons Ratio (x) = 0.05255 0.07774
# Poissons Ratio (y) = 0.18769 0.56498
# Poissons Ratio (z) = 0.35323 0.71866
#
# Static dielectric constant tensor:
#      x y z
#    x 3.418720 0.000000 -0.028230 
#    y 0.000000 2.912530 0.000000 
#    z -0.028230 0.000000 3.118870 
# 
# 
# High freq. dielectric constant tensor:
#      x y z
#    x 1.692000 0.000000 -0.002550 
#    y 0.000000 1.639980 0.000000 
#    z -0.002550 0.000000 1.656430 
# 
# From -- ./inp_files/286266.got.cif
#   From: 2010.06.25/outbox.cif.g09.slc.cpg/sg15_144_cif.got.tgz:286266.got - 2010.06.28 07:06:18.
