data_PCOD8132894
_publ_section_title
;
Structure prediction by ZEFSAII (Michael W. Deem and Ramdas Pophale) SiO2 
 PCOD8132894
Probable space group: C 2/C
;
_chemical_formula_sum "Si O2"
_cell_formula_units_Z 40
_cell_length_a 8.744911
_cell_length_b 31.073482
_cell_length_c 12.859045
_cell_angle_alpha 90.000000
_cell_angle_beta 146.499898
_cell_angle_gamma 90.000000
_cell_volume 1928.611255
_symmetry_space_group_name_H-M "C 2/C"
_symmetry_group_IT_number 15
_symmetry_cell_setting 'monoclinic'
loop_
_space_group_symop_operation_xyz
x,y,z
-x,y,1/2-z
-x,-y,-z
x,-y,1/2+z
1/2+x,1/2+y,z
1/2-x,1/2+y,1/2-z
1/2-x,1/2-y,-z
1/2+x,1/2-y,1/2+z
loop_
_atom_site_type_symbol
_atom_site_label
_atom_site_fract_x
_atom_site_fract_y
_atom_site_fract_z
Si Si1 0.226392 0.046313 0.705094
Si Si2 0.553904 0.705687 0.991973
Si Si3 0.546765 0.799165 0.608121
Si Si4 0.759658 0.860820 0.197911
Si Si5 0.670737 0.522032 0.444347
O O1 0.306501 0.092922 0.792933
O O2 0.145625 0.049644 0.536952
O O3 0.498108 0.017023 0.885658
O O4 0.964220 0.025320 0.615048
O O5 0.783492 0.705869 0.032911
O O6 0.677375 0.690589 0.171590
O O7 0.423934 0.753217 0.933102
O O8 0.327086 0.670854 0.831478
O O9 0.508037 0.839301 0.508311
O O10 0.000000 0.865358 0.250000
O O11 0.500000 0.543260 0.250000
#
# Coordination Sequence:
#
# PCOD8132894 Si02
#       5
#     8   8   8   8   8
#     4  10  22  38  59  89 113 150 194 235 285 343
#     4   9  15  25  42  68 104 151 183 216 276 332
#     4   9  15  25  42  67 105 150 183 219 275 329
#     4  10  19  30  48  79 117 147 188 233 273 338
#     4  10  21  40  62  82 112 153 187 240 293 341
#
# _framework density 20.740314000000001
#
# number of rings (size 3 to 8) (size 9 to 14) (size 15 to 20)
#    0.000    2.400    2.000    1.200    0.000    1.600 
#    0.000   14.000    0.000    0.000    0.000    5.600 
#    0.000    0.000    0.000    0.400    0.000    0.000 
#
# Total GULP energy -247812.966753 kJ/mol
# GULP energy per Si atom -12390.648338 kJ/mol
# Density = 2.069311 g / cm^3
# Si number density = 20.740314 Si / 1000 Ang^3
#
#
#
# Elastic Constant Matrix: (Units=GPa)
#
#
# Indices 1 2 3 4 5 6 
#
# 1 31.1465 39.3064 41.4654 0.0000 -6.9832 0.0000
# 2 39.3064 146.5904 70.7863 0.0000 -12.4580 0.0000
# 3 41.4654 70.7863 185.0352 0.0000 -31.0585 0.0000
# 4 0.0000 0.0000 0.0000 32.0933 0.0000 -13.0662
# 5 -6.9832 -12.4580 -31.0585 0.0000 28.6690 0.0000
# 6 0.0000 0.0000 0.0000 -13.0662 0.0000 16.3473
#
#
#
# Elastic Compliance Matrix: (Units=1/GPa)
#
#
# Indices 1 2 3 4 5 6 
#
# 1 0.057954 -0.011369 -0.008675 0.000000 -0.000222 0.000000
# 2 -0.011369 0.010599 -0.001465 0.000000 0.000249 0.000000
# 3 -0.008675 -0.001465 0.009103 0.000000 0.007112 0.000000
# 4 0.000000 0.000000 0.000000 0.046190 0.000000 0.036919
# 5 -0.000222 0.000249 0.007112 0.000000 0.042639 0.000000
# 6 0.000000 0.000000 0.000000 0.036919 0.000000 0.090681
#
#
# Mechanical properties :
#
#
# Convention : Reuss Voigt Hill
#
# Bulk Modulus (GPa) = 28.87150 73.98759 51.42954
# Shear Modulus (GPa) = 16.03952 29.50285 22.77118
#
# Velocity S-wave (km/s) = 2.78393 3.77568 3.31708
# Velocity P-wave (km/s) = 4.92792 7.39990 6.28661
#
# Compressibility (1/GPa) = 0.03463624
#
# Stress axis : x y z
#
# Youngs Moduli (GPa) = 17.25520 94.34933 109.85959
#
# Poissons Ratio (x) = 1.07270 0.95303
# Poissons Ratio (y) = 0.19618 0.16095
# Poissons Ratio (z) = 0.14969 0.13822
#
# Static dielectric constant tensor:
#      x y z
#    x 3.369870 0.000000 -0.255720 
#    y 0.000000 3.556450 0.000000 
#    z -0.255720 0.000000 4.101400 
# 
# 
# High freq. dielectric constant tensor:
#      x y z
#    x 1.767200 0.000000 -0.022020 
#    y 0.000000 1.792170 0.000000 
#    z -0.022020 0.000000 1.830280 
# 
# From -- ./inp_files/148441.got.cif
#   From: 2010.06.25/outbox.cif.g09.slc.cpg/sg15_75_cif.got.tgz:148441.got - 2010.06.28 07:06:18.
