data_PCOD8132401
_publ_section_title
;
Structure prediction by ZEFSAII (Michael W. Deem and Ramdas Pophale) SiO2 
 PCOD8132401
Probable space group: C 2/C
;
_chemical_formula_sum "Si O2"
_cell_formula_units_Z 60
_cell_length_a 16.444318
_cell_length_b 19.137661
_cell_length_c 9.410040
_cell_angle_alpha 90.000000
_cell_angle_beta 72.641680
_cell_angle_gamma 90.000000
_cell_volume 2826.525060
_symmetry_space_group_name_H-M "C 2/C"
_symmetry_group_IT_number 15
_symmetry_cell_setting 'monoclinic'
loop_
_space_group_symop_operation_xyz
x,y,z
-x,y,1/2-z
-x,-y,-z
x,-y,1/2+z
1/2+x,1/2+y,z
1/2-x,1/2+y,1/2-z
1/2-x,1/2-y,-z
1/2+x,1/2-y,1/2+z
loop_
_atom_site_type_symbol
_atom_site_label
_atom_site_fract_x
_atom_site_fract_y
_atom_site_fract_z
Si Si1 0.862359 0.728883 0.327835
Si Si2 0.000000 0.169042 0.250000
Si Si3 0.238892 0.691636 0.713177
Si Si4 0.682209 0.664761 0.120729
Si Si5 0.030504 0.416731 0.035876
Si Si6 0.995825 0.267515 0.989248
Si Si7 0.635789 0.054650 0.758805
Si Si8 0.819368 0.408556 0.734753
O O1 0.788756 0.785244 0.330675
O O2 0.905544 0.745688 0.455785
O O3 0.820679 0.650429 0.356728
O O4 0.928176 0.732770 0.163526
O O5 0.909295 0.127919 0.293444
O O6 0.989306 0.209214 0.402683
O O7 0.304787 0.670861 0.554458
O O8 0.181369 0.756958 0.689019
O O9 0.184613 0.623930 0.783461
O O10 0.756980 0.616028 0.141933
O O11 0.094286 0.434581 0.128610
O O12 0.942152 0.462630 0.086083
O O13 0.081889 0.415958 0.863225
O O14 0.993167 0.339020 0.078287
O O15 0.701581 0.988725 0.709718
#
# Coordination Sequence:
#
# PCOD8132401 Si02
#       8
#     8   4   8   8   8   8   8   8
#     4   9  20  36  57  83 120 157 190 244 300 344
#     4  12  20  34  62  90 110 150 208 252 290 348
#     4  10  18  37  59  85 114 157 200 244 297 350
#     4  10  20  36  61  85 115 151 203 250 295 350
#     4  10  20  34  53  83 119 158 193 227 289 364
#     4  10  19  34  57  87 118 151 197 241 294 351
#     4  11  21  33  57  85 118 157 201 236 281 365
#     4  10  21  37  53  82 122 160 188 239 303 351
#
# _framework density 21.227477
#
# number of rings (size 3 to 8) (size 9 to 14) (size 15 to 20)
#    0.000    1.867    2.667    2.800    0.000    5.333 
#    0.000    7.333    0.000    2.400    0.000    0.000 
#    0.000    0.000    0.000    0.000    0.000    0.000 
#
# Total GULP energy -371686.849383 kJ/mol
# GULP energy per Si atom -12389.561646 kJ/mol
# Density = 2.117916 g / cm^3
# Si number density = 21.227477 Si / 1000 Ang^3
#
#
#
# Elastic Constant Matrix: (Units=GPa)
#
#
# Indices 1 2 3 4 5 6 
#
# 1 99.2293 51.4380 11.3186 0.0000 -0.1431 0.0000
# 2 51.4380 114.0070 11.3161 0.0000 15.4644 0.0000
# 3 11.3186 11.3161 40.9711 0.0000 11.7166 0.0000
# 4 0.0000 0.0000 0.0000 9.3259 0.0000 5.9092
# 5 -0.1431 15.4644 11.7166 0.0000 38.1570 0.0000
# 6 0.0000 0.0000 0.0000 5.9092 0.0000 28.6472
#
#
#
# Elastic Compliance Matrix: (Units=1/GPa)
#
#
# Indices 1 2 3 4 5 6 
#
# 1 0.013739 -0.006380 -0.003056 0.000000 0.003576 0.000000
# 2 -0.006380 0.012345 -0.000230 0.000000 -0.004957 0.000000
# 3 -0.003056 -0.000230 0.027726 0.000000 -0.008432 0.000000
# 4 0.000000 0.000000 0.000000 0.123351 0.000000 -0.025444
# 5 0.003576 -0.004957 -0.008432 0.000000 0.030819 0.000000
# 6 0.000000 0.000000 0.000000 -0.025444 0.000000 0.040156
#
#
# Mechanical properties :
#
#
# Convention : Reuss Voigt Hill
#
# Bulk Modulus (GPa) = 29.00319 44.70586 36.85452
# Shear Modulus (GPa) = 17.92367 27.23501 22.57934
#
# Velocity S-wave (km/s) = 2.90894 3.58580 3.26496
# Velocity P-wave (km/s) = 4.99753 6.18466 5.62251
#
# Compressibility (1/GPa) = 0.03447896
#
# Stress axis : x y z
#
# Youngs Moduli (GPa) = 72.78627 81.00257 36.06671
#
# Poissons Ratio (x) = 0.51683 0.11021
# Poissons Ratio (y) = 0.46441 0.00828
# Poissons Ratio (z) = 0.22242 0.01860
#
# Static dielectric constant tensor:
#      x y z
#    x 4.064550 0.000000 -0.067070 
#    y 0.000000 3.821130 0.000000 
#    z -0.067070 0.000000 3.623930 
# 
# 
# High freq. dielectric constant tensor:
#      x y z
#    x 1.832410 0.000000 0.000620 
#    y 0.000000 1.805440 0.000000 
#    z 0.000620 0.000000 1.827790 
# 
# From -- ./inp_files/50204.got.cif
#   From: 2010.06.25/outbox.cif.g09.slc.cpg/sg15_26_cif.got.tgz:50204.got - 2010.06.28 07:06:18.
