data_PCOD8132227
_publ_section_title
;
Structure prediction by ZEFSAII (Michael W. Deem and Ramdas Pophale) SiO2 
 PCOD8132227
Probable space group: C 2/C
;
_chemical_formula_sum "Si O2"
_cell_formula_units_Z 56
_cell_length_a 19.694559
_cell_length_b 8.980541
_cell_length_c 19.191439
_cell_angle_alpha 90.000000
_cell_angle_beta 124.942885
_cell_angle_gamma 90.000000
_cell_volume 2782.426079
_symmetry_space_group_name_H-M "C 2/C"
_symmetry_group_IT_number 15
_symmetry_cell_setting 'monoclinic'
loop_
_space_group_symop_operation_xyz
x,y,z
-x,y,1/2-z
-x,-y,-z
x,-y,1/2+z
1/2+x,1/2+y,z
1/2-x,1/2+y,1/2-z
1/2-x,1/2-y,-z
1/2+x,1/2-y,1/2+z
loop_
_atom_site_type_symbol
_atom_site_label
_atom_site_fract_x
_atom_site_fract_y
_atom_site_fract_z
Si Si1 0.797048 0.259897 0.234740
Si Si2 0.916483 0.883539 0.055793
Si Si3 0.597157 0.741349 0.808415
Si Si4 0.906352 0.992995 0.308609
Si Si5 0.523808 0.840413 0.543454
Si Si6 0.659619 0.086369 0.231798
Si Si7 0.150441 0.874803 0.076688
O O1 0.877230 0.157644 0.267254
O O2 0.740945 0.176925 0.258484
O O3 0.831204 0.415194 0.284385
O O4 0.740959 0.295673 0.132620
O O5 0.873570 0.802907 0.096660
O O6 0.942879 0.756637 0.015392
O O7 0.994440 0.984050 0.125847
O O8 0.850947 0.995814 0.982042
O O9 0.500000 0.771689 0.750000
O O10 0.624664 0.612516 0.771407
O O11 0.643720 0.889036 0.805728
O O12 0.863635 0.948558 0.355920
O O13 0.578142 0.850917 0.645403
O O14 0.578780 0.748367 0.519432
O O15 0.500000 0.000000 0.500000
#
# Coordination Sequence:
#
# PCOD8132227 Si02
#       7
#     8   8   8   8   8   8   8
#     4  11  21  35  59  87 116 154 204 244 287 353
#     4  10  21  37  61  83 124 155 195 247 306 353
#     4  10  18  39  58  84 118 158 198 238 300 354
#     4  10  18  36  60  84 113 159 199 237 288 353
#     4  10  20  32  56  90 115 142 195 253 291 335
#     4  11  20  35  58  86 117 154 200 247 289 359
#     4  10  20  37  55  88 117 153 197 244 300 346
#
# _framework density 20.126321999999998
#
# number of rings (size 3 to 8) (size 9 to 14) (size 15 to 20)
#    0.000    1.714    7.143    1.714    4.000    0.000 
#    0.000    5.000    0.000    0.000    0.000    0.000 
#    0.000    0.000    0.000    0.000    0.000    0.000 
#
# Total GULP energy -347000.675902 kJ/mol
# GULP energy per Si atom -12392.881282 kJ/mol
# Density = 2.008051 g / cm^3
# Si number density = 20.126322 Si / 1000 Ang^3
#
#
#
# Elastic Constant Matrix: (Units=GPa)
#
#
# Indices 1 2 3 4 5 6 
#
# 1 43.3082 34.4424 19.2192 0.0000 -4.1596 0.0000
# 2 34.4424 133.1613 27.2303 0.0000 0.5142 0.0000
# 3 19.2192 27.2303 54.3814 0.0000 -6.3716 0.0000
# 4 0.0000 0.0000 0.0000 39.0109 0.0000 11.6107
# 5 -4.1596 0.5142 -6.3716 0.0000 20.3471 0.0000
# 6 0.0000 0.0000 0.0000 11.6107 0.0000 26.5741
#
#
#
# Elastic Compliance Matrix: (Units=1/GPa)
#
#
# Indices 1 2 3 4 5 6 
#
# 1 0.032264 -0.006837 -0.007460 0.000000 0.004432 0.000000
# 2 -0.006837 0.009864 -0.002820 0.000000 -0.002530 0.000000
# 3 -0.007460 -0.002820 0.023115 0.000000 0.005784 0.000000
# 4 0.000000 0.000000 0.000000 0.029465 0.000000 -0.012874
# 5 0.004432 -0.002530 0.005784 0.000000 0.051929 0.000000
# 6 0.000000 0.000000 0.000000 -0.012874 0.000000 0.043256
#
#
# Mechanical properties :
#
#
# Convention : Reuss Voigt Hill
#
# Bulk Modulus (GPa) = 32.24718 43.62608 37.93663
# Shear Modulus (GPa) = 21.32550 27.18369 24.25460
#
# Velocity S-wave (km/s) = 3.25865 3.67911 3.47525
# Velocity P-wave (km/s) = 5.49687 6.30643 5.91551
#
# Compressibility (1/GPa) = 0.03101047
#
# Stress axis : x y z
#
# Youngs Moduli (GPa) = 30.99466 101.37505 43.26268
#
# Poissons Ratio (x) = 0.69307 0.32273
# Poissons Ratio (y) = 0.21190 0.12198
# Poissons Ratio (z) = 0.23121 0.28583
#
# Static dielectric constant tensor:
#      x y z
#    x 3.628750 0.000000 0.105510 
#    y 0.000000 3.889590 0.000000 
#    z 0.105510 0.000000 3.578130 
# 
# 
# High freq. dielectric constant tensor:
#      x y z
#    x 1.757740 0.000000 0.012440 
#    y 0.000000 1.793180 0.000000 
#    z 0.012440 0.000000 1.760990 
# 
# From -- ./inp_files/209660.got.cif
#   From: 2010.06.25/outbox.cif.g09.slc.cpg/sg15_105_cif.got.tgz:209660.got - 2010.06.28 07:06:18.
