data_PCOD8132865
_publ_section_title
;
Structure prediction by ZEFSAII (Michael W. Deem and Ramdas Pophale) SiO2 
 PCOD8132865
Probable space group: C 2/C
;
_chemical_formula_sum "Si O2"
_cell_formula_units_Z 60
_cell_length_a 18.935445
_cell_length_b 25.535812
_cell_length_c 11.110236
_cell_angle_alpha 90.000000
_cell_angle_beta 137.239010
_cell_angle_gamma 90.000000
_cell_volume 3647.378906
_symmetry_space_group_name_H-M "C 2/C"
_symmetry_group_IT_number 15
_symmetry_cell_setting 'monoclinic'
loop_
_space_group_symop_operation_xyz
x,y,z
-x,y,1/2-z
-x,-y,-z
x,-y,1/2+z
1/2+x,1/2+y,z
1/2-x,1/2+y,1/2-z
1/2-x,1/2-y,-z
1/2+x,1/2-y,1/2+z
loop_
_atom_site_type_symbol
_atom_site_label
_atom_site_fract_x
_atom_site_fract_y
_atom_site_fract_z
Si Si1 0.387456 0.774167 0.566166
Si Si2 0.224331 0.178157 0.478653
Si Si3 0.912729 0.898634 0.801348
Si Si4 0.812547 0.825546 0.095085
Si Si5 0.891556 0.735870 0.796999
Si Si6 0.576274 0.691063 0.512618
Si Si7 0.603057 0.413008 0.438234
Si Si8 0.000000 0.986746 0.750000
O O1 0.500000 0.791865 0.750000
O O2 0.306814 0.810923 0.534909
O O3 0.365485 0.713249 0.565221
O O4 0.377803 0.784408 0.413759
O O5 0.193631 0.118662 0.402405
O O6 0.185121 0.214902 0.320825
O O7 0.348335 0.188048 0.657113
O O8 0.167319 0.195542 0.530410
O O9 0.956749 0.953348 0.807310
O O10 0.886182 0.901730 0.907934
O O11 0.000332 0.856025 0.881440
O O12 0.877470 0.820844 0.299043
O O13 0.808250 0.883764 0.029413
O O14 0.010987 0.754129 0.925128
O O15 0.500000 0.386916 0.250000
O O16 0.596871 0.476119 0.412600
#
# Coordination Sequence:
#
# PCOD8132865 Si02
#       8
#     8   8   8   8   8   8   8   4
#     4  11  21  32  49  69  98 136 179 211 242 304
#     4  10  20  30  45  67  97 136 166 208 239 304
#     4  11  18  33  50  72 104 133 165 199 254 305
#     4  11  20  32  48  71 100 140 170 208 257 290
#     4  10  19  30  44  67  94 128 178 202 247 279
#     4  11  17  31  49  66 102 133 171 209 241 302
#     4  10  21  31  49  73 103 132 161 207 252 308
#     4  10  20  32  52  78 102 130 166 202 262 314
#
# _framework density 16.450168000000001
#
# number of rings (size 3 to 8) (size 9 to 14) (size 15 to 20)
#    0.400    1.067    5.333    3.600    0.000    0.000 
#    0.000    0.000    0.000    0.000    0.000    0.000 
#    0.000   16.000    0.000    0.000    0.000    0.000 
#
# Total GULP energy -371721.477341 kJ/mol
# GULP energy per Si atom -12390.715911 kJ/mol
# Density = 1.641273 g / cm^3
# Si number density = 16.450168 Si / 1000 Ang^3
#
#
#
# Elastic Constant Matrix: (Units=GPa)
#
#
# Indices 1 2 3 4 5 6 
#
# 1 66.5218 34.4739 41.2368 0.0000 -8.2189 0.0000
# 2 34.4739 88.9408 37.2449 0.0000 2.8745 0.0000
# 3 41.2368 37.2449 90.6082 0.0000 -8.4162 0.0000
# 4 0.0000 0.0000 0.0000 22.0358 0.0000 -0.1265
# 5 -8.2189 2.8745 -8.4162 0.0000 24.8522 0.0000
# 6 0.0000 0.0000 0.0000 -0.1265 0.0000 26.5543
#
#
#
# Elastic Compliance Matrix: (Units=1/GPa)
#
#
# Indices 1 2 3 4 5 6 
#
# 1 0.023749 -0.006164 -0.007722 0.000000 0.005952 0.000000
# 2 -0.006164 0.015496 -0.004047 0.000000 -0.005201 0.000000
# 3 -0.007722 -0.004047 0.016541 0.000000 0.003516 0.000000
# 4 0.000000 0.000000 0.000000 0.045382 0.000000 0.000216
# 5 0.005952 -0.005201 0.003516 0.000000 0.043999 0.000000
# 6 0.000000 0.000000 0.000000 0.000216 0.000000 0.037660
#
#
# Mechanical properties :
#
#
# Convention : Reuss Voigt Hill
#
# Bulk Modulus (GPa) = 50.20240 52.44243 51.32241
# Shear Modulus (GPa) = 22.18938 23.56281 22.87609
#
# Velocity S-wave (km/s) = 3.67670 3.78878 3.73316
# Velocity P-wave (km/s) = 6.97196 7.14763 7.06034
#
# Compressibility (1/GPa) = 0.01991937
#
# Stress axis : x y z
#
# Youngs Moduli (GPa) = 42.10643 64.53429 60.45532
#
# Poissons Ratio (x) = 0.39779 0.46683
# Poissons Ratio (y) = 0.25955 0.24468
# Poissons Ratio (z) = 0.32514 0.26119
#
# Static dielectric constant tensor:
#      x y z
#    x 3.039270 0.000000 -0.081940 
#    y 0.000000 2.983310 0.000000 
#    z -0.081940 0.000000 3.229700 
# 
# 
# High freq. dielectric constant tensor:
#      x y z
#    x 1.630330 0.000000 -0.026350 
#    y 0.000000 1.598920 0.000000 
#    z -0.026350 0.000000 1.630850 
# 
# From -- ./inp_files/108282.got.cif
#   From: 2010.06.25/outbox.cif.g09.slc.cpg/sg15_55_cif.got.tgz:108282.got - 2010.06.28 07:06:18.
