data_PCOD8132660
_publ_section_title
;
Structure prediction by ZEFSAII (Michael W. Deem and Ramdas Pophale) SiO2 
 PCOD8132660
Probable space group: C 2/C
;
_chemical_formula_sum "Si O2"
_cell_formula_units_Z 36
_cell_length_a 13.972649
_cell_length_b 5.363897
_cell_length_c 18.910831
_cell_angle_alpha 90.000000
_cell_angle_beta 94.856439
_cell_angle_gamma 90.000000
_cell_volume 1412.237853
_symmetry_space_group_name_H-M "C 2/C"
_symmetry_group_IT_number 15
_symmetry_cell_setting 'monoclinic'
loop_
_space_group_symop_operation_xyz
x,y,z
-x,y,1/2-z
-x,-y,-z
x,-y,1/2+z
1/2+x,1/2+y,z
1/2-x,1/2+y,1/2-z
1/2-x,1/2-y,-z
1/2+x,1/2-y,1/2+z
loop_
_atom_site_type_symbol
_atom_site_label
_atom_site_fract_x
_atom_site_fract_y
_atom_site_fract_z
Si Si1 0.360338 0.147979 0.487509
Si Si2 0.702085 0.351462 0.569055
Si Si3 0.983276 0.359326 0.396087
Si Si4 0.706657 0.757171 0.780490
Si Si5 0.500000 0.094097 0.250000
O O1 0.304683 0.875722 0.491676
O O2 0.214959 0.136012 0.540877
O O3 0.441019 0.109474 0.431529
O O4 0.414865 0.220202 0.563099
O O5 0.595987 0.358389 0.598779
O O6 0.778805 0.285826 0.634343
O O7 0.000305 0.406722 0.315585
O O8 0.756931 0.504918 0.757501
O O9 0.593367 0.729616 0.758600
#
# Coordination Sequence:
#
# PCOD8132660 Si02
#       5
#     8   8   8   8   4
#     4   9  19  37  68  89 129 181 213 273 344 388
#     4  10  18  39  64  87 127 178 215 269 334 391
#     4   9  20  37  64  96 133 169 227 270 337 401
#     4  12  25  46  66  99 146 178 223 284 345 407
#     4  12  24  46  68 110 130 188 226 284 342 408
#
# _framework density 25.491458999999999
#
# number of rings (size 3 to 8) (size 9 to 14) (size 15 to 20)
#    1.333    0.444    2.222    3.333    0.000    0.889 
#    4.000    2.222    0.000    0.000    0.000    0.000 
#    0.000    0.000    0.000    0.000    0.000    0.000 
#
# Total GULP energy -223246.579566 kJ/mol
# GULP energy per Si atom -12402.587754 kJ/mol
# Density = 2.543344 g / cm^3
# Si number density = 25.491459 Si / 1000 Ang^3
#
#
#
# Elastic Constant Matrix: (Units=GPa)
#
#
# Indices 1 2 3 4 5 6 
#
# 1 157.5660 42.8778 40.0674 0.0000 23.1847 0.0000
# 2 42.8778 111.8261 33.1261 0.0000 -3.0984 0.0000
# 3 40.0674 33.1261 149.8740 0.0000 19.4837 0.0000
# 4 0.0000 0.0000 0.0000 30.3007 0.0000 5.9128
# 5 23.1847 -3.0984 19.4837 0.0000 50.6813 0.0000
# 6 0.0000 0.0000 0.0000 5.9128 0.0000 33.0653
#
#
#
# Elastic Compliance Matrix: (Units=1/GPa)
#
#
# Indices 1 2 3 4 5 6 
#
# 1 0.007871 -0.002801 -0.001047 0.000000 -0.003369 0.000000
# 2 -0.002801 0.010671 -0.001959 0.000000 0.002687 0.000000
# 3 -0.001047 -0.001959 0.007725 0.000000 -0.002610 0.000000
# 4 0.000000 0.000000 0.000000 0.034196 0.000000 -0.006115
# 5 -0.003369 0.002687 -0.002610 0.000000 0.022440 0.000000
# 6 0.000000 0.000000 0.000000 -0.006115 0.000000 0.031337
#
#
# Mechanical properties :
#
#
# Convention : Reuss Voigt Hill
#
# Bulk Modulus (GPa) = 68.24942 72.37874 70.31408
# Shear Modulus (GPa) = 38.24446 43.02246 40.63346
#
# Velocity S-wave (km/s) = 3.87755 4.11264 3.99683
# Velocity P-wave (km/s) = 6.84681 7.14190 6.99591
#
# Compressibility (1/GPa) = 0.01465214
#
# Stress axis : x y z
#
# Youngs Moduli (GPa) = 127.05132 93.70947 129.45734
#
# Poissons Ratio (x) = 0.26249 0.13555
# Poissons Ratio (y) = 0.35589 0.25362
# Poissons Ratio (z) = 0.13303 0.18358
#
# Static dielectric constant tensor:
#      x y z
#    x 5.094480 0.000000 -0.115970 
#    y 0.000000 4.232920 0.000000 
#    z -0.115970 0.000000 4.574520 
# 
# 
# High freq. dielectric constant tensor:
#      x y z
#    x 2.058940 0.000000 -0.018110 
#    y 0.000000 2.008900 0.000000 
#    z -0.018110 0.000000 2.028460 
# 
# From -- ./inp_files/241490.got.cif
#   From: 2010.06.25/outbox.cif.g09.slc.cpg/sg15_121_cif.got.tgz:241490.got - 2010.06.28 07:06:18.
