data_PCOD8132251
_publ_section_title
;
Structure prediction by ZEFSAII (Michael W. Deem and Ramdas Pophale) SiO2 
 PCOD8132251
Probable space group: C 2/C
;
_chemical_formula_sum "Si O2"
_cell_formula_units_Z 52
_cell_length_a 14.767244
_cell_length_b 18.774140
_cell_length_c 15.068741
_cell_angle_alpha 90.000000
_cell_angle_beta 142.151963
_cell_angle_gamma 90.000000
_cell_volume 2563.303897
_symmetry_space_group_name_H-M "C 2/C"
_symmetry_group_IT_number 15
_symmetry_cell_setting 'monoclinic'
loop_
_space_group_symop_operation_xyz
x,y,z
-x,y,1/2-z
-x,-y,-z
x,-y,1/2+z
1/2+x,1/2+y,z
1/2-x,1/2+y,1/2-z
1/2-x,1/2-y,-z
1/2+x,1/2-y,1/2+z
loop_
_atom_site_type_symbol
_atom_site_label
_atom_site_fract_x
_atom_site_fract_y
_atom_site_fract_z
Si Si1 0.190838 0.624398 0.316673
Si Si2 0.890430 0.812019 0.484736
Si Si3 0.000000 0.032353 0.750000
Si Si4 0.766626 0.922411 0.526304
Si Si5 0.000000 0.505014 0.250000
Si Si6 0.723099 0.325080 0.801968
Si Si7 0.009636 0.858630 0.119590
Si Si8 0.000000 0.738369 0.250000
O O1 0.179159 0.650924 0.206219
O O2 0.358760 0.606011 0.468744
O O3 0.140691 0.687490 0.343898
O O4 0.092788 0.553693 0.253512
O O5 0.800526 0.863377 0.479243
O O6 0.806348 0.737108 0.419311
O O7 0.059011 0.800201 0.646486
O O8 0.882813 0.844839 0.379832
O O9 0.916548 0.083984 0.756560
O O10 0.118587 0.986588 0.894823
O O11 0.788156 0.891749 0.641227
O O12 0.603578 0.953538 0.387958
O O13 0.974587 0.784875 0.142448
#
# Coordination Sequence:
#
# PCOD8132251 Si02
#       8
#     8   8   4   8   4   8   8   4
#     4  10  21  40  63  94 130 159 212 264 313 374
#     4  11  24  43  66  97 124 169 215 265 311 371
#     4  11  22  43  63  94 121 172 210 252 323 370
#     4  12  25  44  64  91 131 173 211 260 308 387
#     4  11  26  43  65  94 129 172 208 260 325 370
#     4  11  24  43  67  95 126 168 216 262 314 370
#     4  10  21  38  66  94 124 165 212 258 320 374
#     4  10  18  36  60  94 128 164 202 264 308 378
#
# _framework density 20.286318000000001
#
# number of rings (size 3 to 8) (size 9 to 14) (size 15 to 20)
#    0.000    1.231    4.615    0.923    2.154    2.462 
#    2.769    0.000    0.000    0.000    0.000    0.000 
#    0.000    0.000    0.000    0.000    0.000    0.000 
#
# Total GULP energy -322467.715051 kJ/mol
# GULP energy per Si atom -12402.604425 kJ/mol
# Density = 2.024015 g / cm^3
# Si number density = 20.286318 Si / 1000 Ang^3
#
#
#
# Elastic Constant Matrix: (Units=GPa)
#
#
# Indices 1 2 3 4 5 6 
#
# 1 81.1090 33.7701 12.6657 0.0001 -12.0641 -0.0001
# 2 33.7701 95.5558 33.1825 0.0000 -5.3151 0.0000
# 3 12.6657 33.1825 78.5684 0.0001 1.2309 -0.0001
# 4 0.0001 0.0000 0.0001 25.0726 0.0000 2.4140
# 5 -12.0641 -5.3151 1.2309 0.0000 34.4920 -0.0001
# 6 -0.0001 0.0000 -0.0001 2.4140 -0.0001 26.1245
#
#
#
# Elastic Compliance Matrix: (Units=1/GPa)
#
#
# Indices 1 2 3 4 5 6 
#
# 1 0.015131 -0.004949 -0.000420 0.000000 0.004545 0.000000
# 2 -0.004949 0.014033 -0.005138 0.000000 0.000615 0.000000
# 3 -0.000420 -0.005138 0.014989 0.000000 -0.001474 0.000000
# 4 0.000000 0.000000 0.000000 0.040242 0.000000 -0.003719
# 5 0.004545 0.000615 -0.001474 0.000000 0.030729 0.000000
# 6 0.000000 0.000000 0.000000 -0.003719 0.000000 0.038622
#
#
# Mechanical properties :
#
#
# Convention : Reuss Voigt Hill
#
# Bulk Modulus (GPa) = 43.21984 46.05220 44.63602
# Shear Modulus (GPa) = 27.40133 28.84549 28.12341
#
# Velocity S-wave (km/s) = 3.67921 3.77492 3.72738
# Velocity P-wave (km/s) = 6.27694 6.46146 6.36987
#
# Compressibility (1/GPa) = 0.02313752
#
# Stress axis : x y z
#
# Youngs Moduli (GPa) = 66.08898 71.26303 66.71667
#
# Poissons Ratio (x) = 0.35266 0.02805
# Poissons Ratio (y) = 0.32705 0.34281
# Poissons Ratio (z) = 0.02778 0.36618
#
# Static dielectric constant tensor:
#      x y z
#    x 3.708050 0.000000 -0.091450 
#    y 0.000000 3.706880 0.000000 
#    z -0.091450 0.000000 3.584860 
# 
# 
# High freq. dielectric constant tensor:
#      x y z
#    x 1.792610 0.000000 -0.008870 
#    y 0.000000 1.801790 0.000000 
#    z -0.008870 0.000000 1.785850 
# 
# From -- ./inp_files/40801.got.cif
#   From: 2010.06.25/outbox.cif.g09.slc.cpg/sg15_21_cif.got.tgz:40801.got - 2010.06.28 07:06:18.
