data_PCOD8132266
_publ_section_title
;
Structure prediction by ZEFSAII (Michael W. Deem and Ramdas Pophale) SiO2 
 PCOD8132266
Probable space group: C 2/C
;
_chemical_formula_sum "Si O2"
_cell_formula_units_Z 64
_cell_length_a 12.191879
_cell_length_b 30.347382
_cell_length_c 18.837681
_cell_angle_alpha 90.000000
_cell_angle_beta 151.221113
_cell_angle_gamma 90.000000
_cell_volume 3355.468155
_symmetry_space_group_name_H-M "C 2/C"
_symmetry_group_IT_number 15
_symmetry_cell_setting 'monoclinic'
loop_
_space_group_symop_operation_xyz
x,y,z
-x,y,1/2-z
-x,-y,-z
x,-y,1/2+z
1/2+x,1/2+y,z
1/2-x,1/2+y,1/2-z
1/2-x,1/2-y,-z
1/2+x,1/2-y,1/2+z
loop_
_atom_site_type_symbol
_atom_site_label
_atom_site_fract_x
_atom_site_fract_y
_atom_site_fract_z
Si Si1 0.824461 0.884338 0.087253
Si Si2 0.774396 0.314766 0.222478
Si Si3 0.412432 0.939690 0.891463
Si Si4 0.365656 0.413333 0.350580
Si Si5 0.571798 0.421748 0.948693
Si Si6 0.425693 0.284692 0.129279
Si Si7 0.938545 0.465873 0.062295
Si Si8 0.296636 0.164321 0.589426
O O1 0.811511 0.832636 0.061034
O O2 0.000000 0.893165 0.250000
O O3 0.902404 0.914264 0.064424
O O4 0.571088 0.897589 0.966981
O O5 0.735907 0.365233 0.223339
O O6 0.650662 0.282467 0.206833
O O7 0.677225 0.307226 0.085540
O O8 0.053563 0.306587 0.381947
O O9 0.177016 0.933989 0.717482
O O10 0.550524 0.981825 0.941343
O O11 0.356031 0.943232 0.942686
O O12 0.427004 0.424166 0.465976
O O13 0.190573 0.449865 0.224482
O O14 0.756489 0.454919 0.020308
O O15 0.631803 0.371181 0.959169
O O16 0.500000 0.271026 0.250000
O O17 0.250000 0.250000 0.000000
O O18 0.500000 0.137723 0.750000
#
# Coordination Sequence:
#
# PCOD8132266 Si02
#       8
#     8   8   8   8   8   8   8   8
#     4  10  21  42  64  79 117 161 200 226 297 381
#     4   7  14  31  58  86 104 147 189 217 281 360
#     4  11  26  36  55  85 116 155 198 247 296 334
#     4  10  18  36  62  78 109 152 197 235 284 354
#     4  11  20  36  55  87 111 142 200 256 290 317
#     4  10  21  38  60  89 114 151 187 239 293 360
#     4  11  22  39  55  77 118 163 196 240 287 357
#     4   7  13  30  59  84 106 144 191 231 272 346
#
# _framework density 19.073345
#
# number of rings (size 3 to 8) (size 9 to 14) (size 15 to 20)
#    0.750    1.500    2.500    0.750    1.750    1.000 
#    9.000    0.000    0.000    3.000    6.500    0.000 
#    0.000    0.000    0.000    0.000    0.000    0.000 
#
# Total GULP energy -396429.497365 kJ/mol
# GULP energy per Si atom -12388.421793 kJ/mol
# Density = 1.902993 g / cm^3
# Si number density = 19.073345 Si / 1000 Ang^3
#
#
#
# Elastic Constant Matrix: (Units=GPa)
#
#
# Indices 1 2 3 4 5 6 
#
# 1 141.2001 48.7278 42.2988 -0.0003 -4.7020 -0.0005
# 2 48.7278 54.8047 35.4150 0.0003 -1.3667 -0.0013
# 3 42.2988 35.4150 87.5208 0.0032 -10.2378 -0.0035
# 4 -0.0003 0.0003 0.0032 21.9513 0.0010 6.5115
# 5 -4.7020 -1.3667 -10.2378 0.0010 25.2157 -0.0020
# 6 -0.0005 -0.0013 -0.0035 6.5115 -0.0020 7.2454
#
#
#
# Elastic Compliance Matrix: (Units=1/GPa)
#
#
# Indices 1 2 3 4 5 6 
#
# 1 0.010426 -0.008201 -0.001622 0.000001 0.000841 -0.000002
# 2 -0.008201 0.031355 -0.009138 0.000001 -0.003540 -0.000002
# 3 -0.001622 -0.009138 0.016603 -0.000007 0.005943 0.000014
# 4 0.000001 0.000001 -0.000007 0.062114 -0.000009 -0.055822
# 5 0.000841 -0.003540 0.005943 -0.000009 0.042036 0.000022
# 6 -0.000002 -0.000002 0.000014 -0.055822 0.000022 0.188185
#
#
# Mechanical properties :
#
#
# Convention : Reuss Voigt Hill
#
# Bulk Modulus (GPa) = 48.87249 59.60097 54.23673
# Shear Modulus (GPa) = 12.64344 21.35476 16.99910
#
# Velocity S-wave (km/s) = 2.57745 3.34969 2.98862
# Velocity P-wave (km/s) = 5.87680 6.80270 6.35663
#
# Compressibility (1/GPa) = 0.02046141
#
# Stress axis : x y z
#
# Youngs Moduli (GPa) = 95.91206 31.89268 60.23083
#
# Poissons Ratio (x) = 0.26155 0.09770
# Poissons Ratio (y) = 0.78657 0.55041
# Poissons Ratio (z) = 0.15558 0.29145
#
# Static dielectric constant tensor:
#      x y z
#    x 4.155250 0.000010 0.035720 
#    y 0.000010 3.141950 0.000000 
#    z 0.035720 0.000000 3.156150 
# 
# 
# High freq. dielectric constant tensor:
#      x y z
#    x 1.769320 0.000000 0.003290 
#    y 0.000000 1.707970 0.000000 
#    z 0.003290 0.000000 1.711580 
# 
# From -- ./inp_files/201498.got.cif
#   From: 2010.06.25/outbox.cif.g09.slc.cpg/sg15_101_cif.got.tgz:201498.got - 2010.06.28 07:06:18.
