data_PCOD8132554
_publ_section_title
;
Structure prediction by ZEFSAII (Michael W. Deem and Ramdas Pophale) SiO2 
 PCOD8132554
Probable space group: C 2/C
;
_chemical_formula_sum "Si O2"
_cell_formula_units_Z 60
_cell_length_a 12.756643
_cell_length_b 12.802343
_cell_length_c 17.771493
_cell_angle_alpha 90.000000
_cell_angle_beta 88.619360
_cell_angle_gamma 90.000000
_cell_volume 2901.507357
_symmetry_space_group_name_H-M "C 2/C"
_symmetry_group_IT_number 15
_symmetry_cell_setting 'monoclinic'
loop_
_space_group_symop_operation_xyz
x,y,z
-x,y,1/2-z
-x,-y,-z
x,-y,1/2+z
1/2+x,1/2+y,z
1/2-x,1/2+y,1/2-z
1/2-x,1/2-y,-z
1/2+x,1/2-y,1/2+z
loop_
_atom_site_type_symbol
_atom_site_label
_atom_site_fract_x
_atom_site_fract_y
_atom_site_fract_z
Si Si1 0.377401 0.339563 0.734235
Si Si2 0.886810 0.695177 0.018689
Si Si3 0.379558 0.030658 0.502167
Si Si4 0.283125 0.164905 0.632223
Si Si5 0.714275 0.771906 0.126363
Si Si6 0.403778 0.197721 0.398647
Si Si7 0.000000 0.776604 0.250000
Si Si8 0.310192 0.427607 0.224450
O O1 0.500000 0.331662 0.750000
O O2 0.348303 0.258697 0.669083
O O3 0.308755 0.313746 0.809168
O O4 0.346578 0.455069 0.706902
O O5 0.826918 0.581906 0.015519
O O6 0.824900 0.756704 0.083340
O O7 0.008332 0.706599 0.037764
O O8 0.877930 0.738464 0.933722
O O9 0.355295 0.107626 0.571326
O O10 0.349997 0.086277 0.422371
O O11 0.500000 0.000000 0.500000
O O12 0.180490 0.210268 0.591708
O O13 0.243722 0.079519 0.692985
O O14 0.725087 0.886679 0.164759
O O15 0.453709 0.198726 0.314513
O O16 0.909537 0.849497 0.217994
#
# Coordination Sequence:
#
# PCOD8132554 Si02
#       8
#     8   8   8   8   8   8   4   8
#     4  11  24  39  64  92 128 162 203 268 313 370
#     4  10  21  40  63  89 125 165 204 261 316 376
#     4  10  22  39  60  88 125 167 201 256 314 376
#     4  10  23  41  63  92 123 164 214 262 313 374
#     4  10  22  40  62  92 127 162 207 256 321 374
#     4  10  21  38  64  87 125 162 213 262 308 374
#     4  10  18  38  62  90 114 166 210 256 308 374
#     4  10  20  40  65  88 124 162 208 255 313 381
#
# _framework density 20.678906000000001
#
# number of rings (size 3 to 8) (size 9 to 14) (size 15 to 20)
#    0.000    1.867    2.000    1.200    5.600    0.000 
#    0.000    0.000    0.000    5.600    0.000    0.000 
#    0.000    0.000    0.000    0.000    0.000    0.000 
#
# Total GULP energy -371743.045992 kJ/mol
# GULP energy per Si atom -12391.434866 kJ/mol
# Density = 2.063184 g / cm^3
# Si number density = 20.678906 Si / 1000 Ang^3
#
#
#
# Elastic Constant Matrix: (Units=GPa)
#
#
# Indices 1 2 3 4 5 6 
#
# 1 86.8749 21.8329 31.2968 0.0000 3.0167 0.0000
# 2 21.8329 105.3589 50.2422 0.0000 -7.0485 0.0000
# 3 31.2968 50.2422 108.5188 0.0000 -14.5034 0.0000
# 4 0.0000 0.0000 0.0000 21.8289 0.0000 -0.1218
# 5 3.0167 -7.0485 -14.5034 0.0000 24.9705 0.0000
# 6 0.0000 0.0000 0.0000 -0.1218 0.0000 25.3941
#
#
#
# Elastic Compliance Matrix: (Units=1/GPa)
#
#
# Indices 1 2 3 4 5 6 
#
# 1 0.013347 -0.001211 -0.003849 0.000000 -0.004190 0.000000
# 2 -0.001211 0.012291 -0.005267 0.000000 0.000557 0.000000
# 3 -0.003849 -0.005267 0.013690 0.000000 0.006929 0.000000
# 4 0.000000 0.000000 0.000000 0.045812 0.000000 0.000220
# 5 -0.004190 0.000557 0.006929 0.000000 0.044735 0.000000
# 6 0.000000 0.000000 0.000000 0.000220 0.000000 0.039380
#
#
# Mechanical properties :
#
#
# Convention : Reuss Voigt Hill
#
# Bulk Modulus (GPa) = 53.54787 56.38848 54.96818
# Shear Modulus (GPa) = 25.49287 27.59742 26.54515
#
# Velocity S-wave (km/s) = 3.51493 3.65714 3.58674
# Velocity P-wave (km/s) = 6.51338 6.72017 6.61758
#
# Compressibility (1/GPa) = 0.01867488
#
# Stress axis : x y z
#
# Youngs Moduli (GPa) = 74.92286 81.35916 73.04829
#
# Poissons Ratio (x) = 0.09851 0.28114
# Poissons Ratio (y) = 0.09072 0.38475
# Poissons Ratio (z) = 0.28835 0.42852
#
# Static dielectric constant tensor:
#      x y z
#    x 3.754660 0.000000 0.023370 
#    y 0.000000 4.419020 0.000000 
#    z 0.023370 0.000000 3.807270 
# 
# 
# High freq. dielectric constant tensor:
#      x y z
#    x 1.806620 0.000000 -0.000490 
#    y 0.000000 1.803020 0.000000 
#    z -0.000490 0.000000 1.816560 
# 
# From -- ./inp_files/204028.got.cif
#   From: 2010.06.25/outbox.cif.g09.slc.cpg/sg15_103_cif.got.tgz:204028.got - 2010.06.28 07:06:18.
