data_PCOD8132326
_publ_section_title
;
Structure prediction by ZEFSAII (Michael W. Deem and Ramdas Pophale) SiO2 
 PCOD8132326
Probable space group: C 2/C
;
_chemical_formula_sum "Si O2"
_cell_formula_units_Z 44
_cell_length_a 19.844339
_cell_length_b 8.198840
_cell_length_c 11.377367
_cell_angle_alpha 90.000000
_cell_angle_beta 113.488415
_cell_angle_gamma 90.000000
_cell_volume 1697.722771
_symmetry_space_group_name_H-M "C 2/C"
_symmetry_group_IT_number 15
_symmetry_cell_setting 'monoclinic'
loop_
_space_group_symop_operation_xyz
x,y,z
-x,y,1/2-z
-x,-y,-z
x,-y,1/2+z
1/2+x,1/2+y,z
1/2-x,1/2+y,1/2-z
1/2-x,1/2-y,-z
1/2+x,1/2-y,1/2+z
loop_
_atom_site_type_symbol
_atom_site_label
_atom_site_fract_x
_atom_site_fract_y
_atom_site_fract_z
Si Si1 0.000000 0.013039 0.250000
Si Si2 0.542136 0.044410 0.154188
Si Si3 0.734063 0.510975 0.856977
Si Si4 0.158457 0.245359 0.633599
Si Si5 0.364585 0.563891 0.523147
Si Si6 0.890877 0.215160 0.305328
O O1 0.031543 0.126590 0.166932
O O2 0.065187 0.899787 0.345524
O O3 0.500000 0.063453 0.250000
O O4 0.588558 0.210384 0.166565
O O5 0.602075 0.904049 0.220355
O O6 0.500000 0.000000 0.000000
O O7 0.811004 0.415608 0.900250
O O8 0.722785 0.647040 0.748063
O O9 0.715204 0.593184 0.969773
O O10 0.671653 0.370023 0.814571
O O11 0.128281 0.123453 0.514688
O O12 0.367877 0.699362 0.425322
#
# Coordination Sequence:
#
# PCOD8132326 Si02
#       6
#     4   8   8   8   8   8
#     4  10  18  36  64  94 146 176 224 288 346 424
#     4  12  28  47  71 105 148 194 240 298 360 428
#     4  10  23  44  73 100 138 181 234 302 358 430
#     4  11  24  47  68 104 138 182 241 292 364 430
#     4  10  22  39  67 105 133 185 232 293 358 428
#     4  10  21  41  63 101 135 182 234 285 361 416
#
# _framework density 25.917069999999999
#
# number of rings (size 3 to 8) (size 9 to 14) (size 15 to 20)
#    0.000    1.455    0.909    3.273    5.091    2.909 
#   13.091    4.545    0.000    0.000    0.000    0.000 
#    0.000    0.000    0.000    0.000    0.000    0.000 
#
# Total GULP energy -272590.021784 kJ/mol
# GULP energy per Si atom -12390.455536 kJ/mol
# Density = 2.585808 g / cm^3
# Si number density = 25.917070 Si / 1000 Ang^3
#
#
#
# Elastic Constant Matrix: (Units=GPa)
#
#
# Indices 1 2 3 4 5 6 
#
# 1 111.3017 17.7437 32.9778 0.0000 -34.4638 0.0000
# 2 17.7437 56.6735 4.7213 0.0000 -4.0783 0.0000
# 3 32.9778 4.7213 89.1395 0.0000 -25.5058 0.0000
# 4 0.0000 0.0000 0.0000 23.5718 0.0000 0.5305
# 5 -34.4638 -4.0783 -25.5058 0.0000 47.9115 0.0000
# 6 0.0000 0.0000 0.0000 0.5305 0.0000 39.9119
#
#
#
# Elastic Compliance Matrix: (Units=1/GPa)
#
#
# Indices 1 2 3 4 5 6 
#
# 1 0.012495 -0.003181 -0.002312 0.000000 0.007486 0.000000
# 2 -0.003181 0.018590 -0.000012 0.000000 -0.000712 0.000000
# 3 -0.002312 -0.000012 0.013682 0.000000 0.005620 0.000000
# 4 0.000000 0.000000 0.000000 0.042436 0.000000 -0.000564
# 5 0.007486 -0.000712 0.005620 0.000000 0.029188 0.000000
# 6 0.000000 0.000000 0.000000 -0.000564 0.000000 0.025063
#
#
# Mechanical properties :
#
#
# Convention : Reuss Voigt Hill
#
# Bulk Modulus (GPa) = 29.62158 40.88893 35.25526
# Shear Modulus (GPa) = 30.54075 35.72386 33.13231
#
# Velocity S-wave (km/s) = 3.43651 3.71670 3.57935
# Velocity P-wave (km/s) = 5.21539 5.85060 5.54211
#
# Compressibility (1/GPa) = 0.03375917
#
# Stress axis : x y z
#
# Youngs Moduli (GPa) = 80.03395 53.79098 73.08698
#
# Poissons Ratio (x) = 0.17109 0.16898
# Poissons Ratio (y) = 0.25456 0.00085
# Poissons Ratio (z) = 0.18504 0.00062
#
# Static dielectric constant tensor:
#      x y z
#    x 5.001930 0.000000 -0.508730 
#    y 0.000000 4.496570 0.000000 
#    z -0.508730 0.000000 4.651790 
# 
# 
# High freq. dielectric constant tensor:
#      x y z
#    x 2.051040 0.000000 -0.026700 
#    y 0.000000 2.034490 0.000000 
#    z -0.026700 0.000000 2.019950 
# 
# From -- ./inp_files/110053.got.cif
#   From: 2010.06.25/outbox.cif.g09.slc.cpg/sg15_56_cif.got.tgz:110053.got - 2010.06.28 07:06:18.
