data_PCOD8132878
_publ_section_title
;
Structure prediction by ZEFSAII (Michael W. Deem and Ramdas Pophale) SiO2 
 PCOD8132878
Probable space group: C 2/C
;
_chemical_formula_sum "Si O2"
_cell_formula_units_Z 64
_cell_length_a 28.594894
_cell_length_b 14.778737
_cell_length_c 9.031406
_cell_angle_alpha 90.000000
_cell_angle_beta 108.411506
_cell_angle_gamma 90.000000
_cell_volume 3621.275973
_symmetry_space_group_name_H-M "C 2/C"
_symmetry_group_IT_number 15
_symmetry_cell_setting 'monoclinic'
loop_
_space_group_symop_operation_xyz
x,y,z
-x,y,1/2-z
-x,-y,-z
x,-y,1/2+z
1/2+x,1/2+y,z
1/2-x,1/2+y,1/2-z
1/2-x,1/2-y,-z
1/2+x,1/2-y,1/2+z
loop_
_atom_site_type_symbol
_atom_site_label
_atom_site_fract_x
_atom_site_fract_y
_atom_site_fract_z
Si Si1 0.783345 0.090723 0.609221
Si Si2 0.216655 0.909277 0.042531
Si Si3 0.357762 0.716449 0.529360
Si Si4 0.050854 0.906868 0.725799
Si Si5 0.170592 0.588391 0.841762
Si Si6 0.142238 0.216449 0.313835
Si Si7 0.949146 0.093132 0.624092
Si Si8 0.670592 0.911609 0.999421
O O1 0.790074 0.080972 0.790074
O O2 0.814329 0.175445 0.583738
O O3 0.726820 0.106294 0.505018
O O4 0.804300 0.000000 0.554300
O O5 0.273180 0.893706 0.051377
O O6 0.185671 0.824555 0.955081
O O7 0.343581 0.702770 0.343581
O O8 0.409792 0.670970 0.619356
O O9 0.361592 0.823025 0.572050
O O10 0.090208 0.829030 0.799772
O O11 0.043458 0.922049 0.543458
O O12 0.000000 0.875458 0.750000
O O13 0.069153 1.000000 0.819153
O O14 0.138408 0.676975 0.848867
O O15 0.168870 0.565855 0.668870
O O16 0.148042 0.500000 0.898042
O O17 0.000000 0.124542 0.750000
#
# Coordination Sequence:
#
# PCOD8132878 Si02
#       8
#     8   8   8   8   8   8   8   8
#     4  10  19  30  47  71 100 132 163 196 235 282
#     4  10  19  30  47  71 100 132 163 196 235 282
#     4  10  20  33  50  72  98 127 161 201 241 283
#     4  10  20  34  52  73  98 125 153 191 238 287
#     4   9  19  34  49  69  98 130 164 201 238 277
#     4  10  20  33  50  72  98 127 161 201 241 283
#     4  10  20  34  52  73  98 125 153 191 238 287
#     4   9  19  34  49  69  98 130 164 201 238 277
#
# _framework density 17.673328999999999
#
# number of rings (size 3 to 8) (size 9 to 14) (size 15 to 20)
#    0.000    2.250    0.000    3.750    0.000    6.000 
#    0.000    0.000    0.000    0.750    0.000    5.250 
#    0.000    0.000    0.000    0.000    0.000    0.000 
#
# Total GULP energy -396847.670063 kJ/mol
# GULP energy per Si atom -12401.489689 kJ/mol
# Density = 1.763310 g / cm^3
# Si number density = 17.673329 Si / 1000 Ang^3
#
#
#
# Elastic Constant Matrix: (Units=GPa)
#
#
# Indices 1 2 3 4 5 6 
#
# 1 76.3778 69.4191 40.8102 0.0000 -0.4159 0.0000
# 2 69.4191 151.0517 57.5880 0.0000 3.3052 0.0000
# 3 40.8102 57.5880 75.8925 0.0000 0.5515 0.0000
# 4 0.0000 0.0000 0.0000 30.6334 0.0000 -0.0868
# 5 -0.4159 3.3052 0.5515 0.0000 18.2580 0.0000
# 6 0.0000 0.0000 0.0000 -0.0868 0.0000 30.3226
#
#
#
# Elastic Compliance Matrix: (Units=1/GPa)
#
#
# Indices 1 2 3 4 5 6 
#
# 1 0.024696 -0.008909 -0.006537 0.000000 0.002373 0.000000
# 2 -0.008909 0.012569 -0.004730 0.000000 -0.002335 0.000000
# 3 -0.006537 -0.004730 0.020280 0.000000 0.000095 0.000000
# 4 0.000000 0.000000 0.000000 0.032644 0.000000 0.000093
# 5 0.002373 -0.002335 0.000095 0.000000 0.055245 0.000000
# 6 0.000000 0.000000 0.000000 0.000093 0.000000 0.032979
#
#
# Mechanical properties :
#
#
# Convention : Reuss Voigt Hill
#
# Bulk Modulus (GPa) = 58.16181 70.99517 64.57849
# Shear Modulus (GPa) = 22.27218 24.87645 23.57431
#
# Velocity S-wave (km/s) = 3.55380 3.75583 3.65621
# Velocity P-wave (km/s) = 7.05834 7.68546 7.37857
#
# Compressibility (1/GPa) = 0.01719341
#
# Stress axis : x y z
#
# Youngs Moduli (GPa) = 40.49214 79.56062 49.31040
#
# Poissons Ratio (x) = 0.70884 0.32233
# Poissons Ratio (y) = 0.36076 0.23322
# Poissons Ratio (z) = 0.26468 0.37629
#
# Static dielectric constant tensor:
#      x y z
#    x 3.127080 0.000000 -0.049600 
#    y 0.000000 3.383360 0.000000 
#    z -0.049600 0.000000 3.304620 
# 
# 
# High freq. dielectric constant tensor:
#      x y z
#    x 1.659440 0.000000 -0.008160 
#    y 0.000000 1.685110 0.000000 
#    z -0.008160 0.000000 1.688650 
# 
# From -- ./inp_files/66242.got.cif
#   From: 2010.06.25/outbox.cif.g09.slc.cpg/sg15_34_cif.got.tgz:66242.got - 2010.06.28 07:06:18.
