data_PCOD8132034
_publ_section_title
;
Structure prediction by ZEFSAII (Michael W. Deem and Ramdas Pophale) SiO2 
 PCOD8132034
Probable space group: C 2/C
;
_chemical_formula_sum "Si O2"
_cell_formula_units_Z 60
_cell_length_a 13.981316
_cell_length_b 15.494964
_cell_length_c 13.216778
_cell_angle_alpha 90.000000
_cell_angle_beta 89.962659
_cell_angle_gamma 90.000000
_cell_volume 2863.282020
_symmetry_space_group_name_H-M "C 2/C"
_symmetry_group_IT_number 15
_symmetry_cell_setting 'monoclinic'
loop_
_space_group_symop_operation_xyz
x,y,z
-x,y,1/2-z
-x,-y,-z
x,-y,1/2+z
1/2+x,1/2+y,z
1/2-x,1/2+y,1/2-z
1/2-x,1/2-y,-z
1/2+x,1/2-y,1/2+z
loop_
_atom_site_type_symbol
_atom_site_label
_atom_site_fract_x
_atom_site_fract_y
_atom_site_fract_z
Si Si1 0.230317 0.869600 0.567963
Si Si2 0.144892 0.189729 0.399922
Si Si3 0.111262 0.001510 0.474422
Si Si4 0.951130 0.279870 0.934140
Si Si5 0.072054 0.141278 0.831158
Si Si6 0.322509 0.201408 0.260259
Si Si7 0.116670 0.305922 0.071008
Si Si8 0.500000 0.237352 0.750000
O O1 0.174851 0.961597 0.566775
O O2 0.296192 0.864376 0.669572
O O3 0.151133 0.793882 0.564175
O O4 0.295204 0.864748 0.465680
O O5 0.138547 0.257066 0.493192
O O6 0.233855 0.215932 0.332780
O O7 0.050143 0.200278 0.331482
O O8 0.152372 0.093391 0.442850
O O9 0.129509 0.936209 0.381686
O O10 0.000000 0.000000 0.500000
O O11 0.912413 0.328196 0.832104
O O12 0.002288 0.189616 0.909074
O O13 0.031051 0.333551 0.994048
O O14 0.151348 0.206659 0.787756
O O15 0.000000 0.100341 0.750000
O O16 0.077252 0.321019 0.186203
#
# Coordination Sequence:
#
# PCOD8132034 Si02
#       8
#     8   8   8   8   8   8   8   4
#     4  11  20  35  60  88 127 162 204 252 309 382
#     4  11  23  36  57  90 130 166 205 255 320 371
#     4  12  23  37  58  89 135 164 191 249 327 395
#     4  10  19  38  59  89 118 156 209 267 303 356
#     4  10  20  35  59  89 117 158 206 248 305 365
#     4  11  22  37  60  89 122 167 218 259 303 368
#     4  10  18  35  60  89 118 157 212 258 301 354
#     4  10  20  34  58  88 124 168 208 252 306 368
#
# _framework density 20.954972999999999
#
# number of rings (size 3 to 8) (size 9 to 14) (size 15 to 20)
#    0.000    1.333    5.333    2.000    0.933    0.000 
#    0.000    0.000    0.000    0.800    5.200    0.000 
#    0.000    0.000    0.000    0.000    0.000    0.000 
#
# Total GULP energy -371660.589124 kJ/mol
# GULP energy per Si atom -12388.686304 kJ/mol
# Density = 2.090728 g / cm^3
# Si number density = 20.954973 Si / 1000 Ang^3
#
#
#
# Elastic Constant Matrix: (Units=GPa)
#
#
# Indices 1 2 3 4 5 6 
#
# 1 89.3498 22.9438 58.8557 0.0000 -11.9608 0.0000
# 2 22.9438 36.8592 30.3673 0.0000 10.1879 0.0000
# 3 58.8557 30.3673 122.4415 0.0000 1.5698 0.0000
# 4 0.0000 0.0000 0.0000 15.7430 0.0000 6.4741
# 5 -11.9608 10.1879 1.5698 0.0000 63.1735 0.0000
# 6 0.0000 0.0000 0.0000 6.4741 0.0000 26.5838
#
#
#
# Elastic Compliance Matrix: (Units=1/GPa)
#
#
# Indices 1 2 3 4 5 6 
#
# 1 0.018292 -0.006788 -0.007170 0.000000 0.004736 0.000000
# 2 -0.006788 0.038481 -0.006187 0.000000 -0.007337 0.000000
# 3 -0.007170 -0.006187 0.013157 0.000000 -0.000687 0.000000
# 4 0.000000 0.000000 0.000000 0.070590 0.000000 -0.017191
# 5 0.004736 -0.007337 -0.000687 0.000000 0.017926 0.000000
# 6 0.000000 0.000000 0.000000 -0.017191 0.000000 0.041803
#
#
# Mechanical properties :
#
#
# Convention : Reuss Voigt Hill
#
# Bulk Modulus (GPa) = 33.73819 52.55377 43.14598
# Shear Modulus (GPa) = 19.96655 30.19899 25.08277
#
# Velocity S-wave (km/s) = 3.09015 3.80035 3.46350
# Velocity P-wave (km/s) = 5.37283 6.66263 6.05219
#
# Compressibility (1/GPa) = 0.02964001
#
# Stress axis : x y z
#
# Youngs Moduli (GPa) = 54.66895 25.98691 76.00661
#
# Poissons Ratio (x) = 0.17641 0.54495
# Poissons Ratio (y) = 0.37111 0.47023
# Poissons Ratio (z) = 0.39196 0.16077
#
# Static dielectric constant tensor:
#      x y z
#    x 4.129070 0.000000 0.093190 
#    y 0.000000 3.175440 0.000000 
#    z 0.093190 0.000000 4.324160 
# 
# 
# High freq. dielectric constant tensor:
#      x y z
#    x 1.840060 0.000000 0.000930 
#    y 0.000000 1.740250 0.000000 
#    z 0.000930 0.000000 1.843200 
# 
# From -- ./inp_files/153965.got.cif
#   From: 2010.06.25/outbox.cif.g09.slc.cpg/sg15_77_cif.got.tgz:153965.got - 2010.06.28 07:06:18.
