data_PCOD8132493
_publ_section_title
;
Structure prediction by ZEFSAII (Michael W. Deem and Ramdas Pophale) SiO2 
 PCOD8132493
Probable space group: C 2/C
;
_chemical_formula_sum "Si O2"
_cell_formula_units_Z 56
_cell_length_a 25.522990
_cell_length_b 16.770937
_cell_length_c 12.863418
_cell_angle_alpha 90.000000
_cell_angle_beta 35.666580
_cell_angle_gamma 90.000000
_cell_volume 3210.436207
_symmetry_space_group_name_H-M "C 2/C"
_symmetry_group_IT_number 15
_symmetry_cell_setting 'monoclinic'
loop_
_space_group_symop_operation_xyz
x,y,z
-x,y,1/2-z
-x,-y,-z
x,-y,1/2+z
1/2+x,1/2+y,z
1/2-x,1/2+y,1/2-z
1/2-x,1/2-y,-z
1/2+x,1/2-y,1/2+z
loop_
_atom_site_type_symbol
_atom_site_label
_atom_site_fract_x
_atom_site_fract_y
_atom_site_fract_z
Si Si1 0.884021 0.749933 0.281876
Si Si2 0.080962 0.735650 0.896273
Si Si3 0.197738 0.501299 0.011443
Si Si4 0.773378 0.863198 0.779087
Si Si5 0.752105 0.870116 0.575650
Si Si6 0.591284 0.147143 0.666672
Si Si7 0.902558 0.635125 0.435961
O O1 0.828162 0.831802 0.378383
O O2 0.836269 0.686011 0.282881
O O3 0.886191 0.714472 0.394657
O O4 0.982341 0.769373 0.080798
O O5 0.150374 0.807014 0.798229
O O6 0.084062 0.707405 0.773498
O O7 0.104726 0.660758 0.932200
O O8 0.228720 0.542571 0.068476
O O9 0.112472 0.443155 0.172496
O O10 0.170972 0.568150 0.969782
O O11 0.278175 0.448376 0.831913
O O12 0.787984 0.879321 0.634022
O O13 0.674488 0.824559 0.959142
O O14 0.500000 0.148406 0.750000
O O15 0.000000 0.599523 0.250000
#
# Coordination Sequence:
#
# PCOD8132493 Si02
#       7
#     8   8   8   8   8   8   8
#     4   9  19  33  60  82 109 143 192 235 275 326
#     4  11  20  36  59  85 110 151 186 240 281 332
#     4   9  22  33  53  82 118 147 184 228 288 337
#     4  10  22  35  57  83 116 148 189 230 286 339
#     4  10  18  38  55  85 113 147 190 236 276 332
#     4  10  22  37  54  83 114 148 186 229 287 343
#     4   9  17  33  53  84 109 140 186 228 281 333
#
# _framework density 17.443110999999998
#
# number of rings (size 3 to 8) (size 9 to 14) (size 15 to 20)
#    0.857    1.429    1.429    1.714    2.000    0.000 
#    0.000    4.286    0.000    0.000    0.000    0.000 
#    0.000    0.000    0.000    0.000    0.000    0.000 
#
# Total GULP energy -347082.756834 kJ/mol
# GULP energy per Si atom -12395.812744 kJ/mol
# Density = 1.740341 g / cm^3
# Si number density = 17.443111 Si / 1000 Ang^3
#
#
#
# Elastic Constant Matrix: (Units=GPa)
#
#
# Indices 1 2 3 4 5 6 
#
# 1 103.2628 62.4786 40.6324 0.0000 1.1511 0.0000
# 2 62.4786 99.6740 53.1573 0.0000 -4.8261 0.0000
# 3 40.6324 53.1573 84.6798 0.0000 -11.6930 0.0000
# 4 0.0000 0.0000 0.0000 15.2528 0.0000 -3.9842
# 5 1.1511 -4.8261 -11.6930 0.0000 33.1945 0.0000
# 6 0.0000 0.0000 0.0000 -3.9842 0.0000 27.7821
#
#
#
# Elastic Compliance Matrix: (Units=1/GPa)
#
#
# Indices 1 2 3 4 5 6 
#
# 1 0.016067 -0.008856 -0.002528 0.000000 -0.002735 0.000000
# 2 -0.008856 0.020008 -0.008269 0.000000 0.000303 0.000000
# 3 -0.002528 -0.008269 0.018983 0.000000 0.005572 0.000000
# 4 0.000000 0.000000 0.000000 0.068113 0.000000 0.009768
# 5 -0.002735 0.000303 0.005572 0.000000 0.032227 0.000000
# 6 0.000000 0.000000 0.000000 0.009768 0.000000 0.037395
#
#
# Mechanical properties :
#
#
# Convention : Reuss Voigt Hill
#
# Bulk Modulus (GPa) = 63.48216 66.68367 65.08291
# Shear Modulus (GPa) = 21.06586 24.00242 22.53414
#
# Velocity S-wave (km/s) = 3.47895 3.71353 3.59815
# Velocity P-wave (km/s) = 7.25330 7.52989 7.39289
#
# Compressibility (1/GPa) = 0.01575246
#
# Stress axis : x y z
#
# Youngs Moduli (GPa) = 62.23782 49.97945 52.67962
#
# Poissons Ratio (x) = 0.44259 0.13320
# Poissons Ratio (y) = 0.55115 0.43561
# Poissons Ratio (z) = 0.15736 0.41328
#
# Static dielectric constant tensor:
#      x y z
#    x 3.244600 0.000000 -0.079790 
#    y 0.000000 3.052470 0.000000 
#    z -0.079790 0.000000 3.077560 
# 
# 
# High freq. dielectric constant tensor:
#      x y z
#    x 1.677890 0.000000 -0.000290 
#    y 0.000000 1.656950 0.000000 
#    z -0.000290 0.000000 1.659330 
# 
# From -- ./inp_files/119195.got.cif
#   From: 2010.06.25/outbox.cif.g09.slc.cpg/sg15_60_cif.got.tgz:119195.got - 2010.06.28 07:06:18.
