data_PCOD8132503
_publ_section_title
;
Structure prediction by ZEFSAII (Michael W. Deem and Ramdas Pophale) SiO2 
 PCOD8132503
Probable space group: C 2/C
;
_chemical_formula_sum "Si O2"
_cell_formula_units_Z 44
_cell_length_a 12.304465
_cell_length_b 29.779667
_cell_length_c 8.647385
_cell_angle_alpha 90.000000
_cell_angle_beta 130.926690
_cell_angle_gamma 90.000000
_cell_volume 2394.030352
_symmetry_space_group_name_H-M "C 2/C"
_symmetry_group_IT_number 15
_symmetry_cell_setting 'monoclinic'
loop_
_space_group_symop_operation_xyz
x,y,z
-x,y,1/2-z
-x,-y,-z
x,-y,1/2+z
1/2+x,1/2+y,z
1/2-x,1/2+y,1/2-z
1/2-x,1/2-y,-z
1/2+x,1/2-y,1/2+z
loop_
_atom_site_type_symbol
_atom_site_label
_atom_site_fract_x
_atom_site_fract_y
_atom_site_fract_z
Si Si1 0.091122 0.865009 0.187786
Si Si2 0.500000 0.510377 0.250000
Si Si3 0.707287 0.219737 0.313505
Si Si4 0.880117 0.059564 0.411157
Si Si5 0.492973 0.718137 0.062916
Si Si6 0.159045 0.620334 0.366243
O O1 0.250258 0.879113 0.389906
O O2 0.000000 0.845627 0.250000
O O3 0.096442 0.827133 0.060245
O O4 0.020027 0.909595 0.057527
O O5 0.387671 0.540438 0.244535
O O6 0.605773 0.481044 0.454825
O O7 0.750000 0.250000 0.500000
O O8 0.645931 0.171377 0.299149
O O9 0.844224 0.212194 0.335491
O O10 0.580234 0.241169 0.095255
O O11 0.735607 0.088198 0.309879
O O12 0.500000 0.727936 0.250000
O O13 0.000000 0.601036 0.250000
#
# Coordination Sequence:
#
# PCOD8132503 Si02
#       6
#     8   4   8   8   8   8
#     4  10  18  38  59  82 113 157 203 237 289 356
#     4  10  20  36  68  92 112 146 202 248 302 362
#     4  12  22  39  60  84 115 166 211 241 289 356
#     4  10  20  38  63  91 117 149 196 252 298 358
#     4  12  24  37  56  88 121 156 202 261 297 336
#     4  11  21  37  61  87 118 159 204 241 293 358
#
# _framework density 18.379048000000001
#
# number of rings (size 3 to 8) (size 9 to 14) (size 15 to 20)
#    0.000    1.091    8.182    2.182    1.273    0.000 
#    0.000    0.909    0.000    0.000    0.000    0.000 
#    0.000    0.000    0.000    0.000    0.000    0.000 
#
# Total GULP energy -272790.393800 kJ/mol
# GULP energy per Si atom -12399.563355 kJ/mol
# Density = 1.833722 g / cm^3
# Si number density = 18.379048 Si / 1000 Ang^3
#
#
#
# Elastic Constant Matrix: (Units=GPa)
#
#
# Indices 1 2 3 4 5 6 
#
# 1 93.5894 43.7029 39.8193 0.0000 3.9036 0.0000
# 2 43.7029 113.7683 35.9648 0.0000 -6.9411 0.0000
# 3 39.8193 35.9648 82.2205 0.0000 -1.0412 0.0000
# 4 0.0000 0.0000 0.0000 20.3593 0.0000 -11.2945
# 5 3.9036 -6.9411 -1.0412 0.0000 41.5923 0.0000
# 6 0.0000 0.0000 0.0000 -11.2945 0.0000 -3.9403
#
#
#
# Elastic Compliance Matrix: (Units=1/GPa)
#
#
# Indices 1 2 3 4 5 6 
#
# 1 0.015074 -0.004191 -0.005496 0.000000 -0.002252 0.000000
# 2 -0.004191 0.011472 -0.002960 0.000000 0.002234 0.000000
# 3 -0.005496 -0.002960 0.016124 0.000000 0.000425 0.000000
# 4 0.000000 0.000000 0.000000 0.018963 0.000000 -0.054356
# 5 -0.002252 0.002234 0.000425 0.000000 0.024638 0.000000
# 6 0.000000 0.000000 0.000000 -0.054356 0.000000 -0.097980
#
#
# Mechanical properties :
#
#
# Convention : Reuss Voigt Hill
#
# Bulk Modulus (GPa) = 57.54780 58.72802 58.13791
# Shear Modulus (GPa) = 258.05777 22.94166 140.49971
#
# Velocity S-wave (km/s) = 11.86227 3.53689 8.75280
# Velocity P-wave (km/s) = 14.79857 6.97873 11.56936
#
# Compressibility (1/GPa) = 0.01737686
#
# Stress axis : x y z
#
# Youngs Moduli (GPa) = 66.33938 87.17194 62.01843
#
# Poissons Ratio (x) = 0.36530 0.34084
# Poissons Ratio (y) = 0.27800 0.18358
# Poissons Ratio (z) = 0.36459 0.25804
#
# Static dielectric constant tensor:
#      x y z
#    x 3.599260 0.000000 -0.152550 
#    y 0.000000 3.532890 0.000000 
#    z -0.152550 0.000000 3.483960 
# 
# 
# High freq. dielectric constant tensor:
#      x y z
#    x 1.697780 0.000000 -0.002300 
#    y 0.000000 1.721560 0.000000 
#    z -0.002300 0.000000 1.701970 
# 
# From -- ./inp_files/34505.got.cif
#   From: 2010.06.25/outbox.cif.g09.slc.cpg/sg15_18_cif.got.tgz:34505.got - 2010.06.28 07:06:18.
