data_PCOD8132910
_publ_section_title
;
Structure prediction by ZEFSAII (Michael W. Deem and Ramdas Pophale) SiO2 
 PCOD8132910
Probable space group: C 2/C
;
_chemical_formula_sum "Si O2"
_cell_formula_units_Z 48
_cell_length_a 23.802944
_cell_length_b 15.635582
_cell_length_c 8.726954
_cell_angle_alpha 90.000000
_cell_angle_beta 114.954457
_cell_angle_gamma 90.000000
_cell_volume 2944.719496
_symmetry_space_group_name_H-M "C 2/C"
_symmetry_group_IT_number 15
_symmetry_cell_setting 'monoclinic'
loop_
_space_group_symop_operation_xyz
x,y,z
-x,y,1/2-z
-x,-y,-z
x,-y,1/2+z
1/2+x,1/2+y,z
1/2-x,1/2+y,1/2-z
1/2-x,1/2-y,-z
1/2+x,1/2-y,1/2+z
loop_
_atom_site_type_symbol
_atom_site_label
_atom_site_fract_x
_atom_site_fract_y
_atom_site_fract_z
Si Si1 0.927120 0.583650 0.662019
Si Si2 0.211820 0.880415 0.938958
Si Si3 0.790812 0.325287 0.478079
Si Si4 0.240350 0.022023 0.750677
Si Si5 0.864024 0.439980 0.773431
Si Si6 0.665301 0.793840 0.307647
O O1 0.907511 0.492512 0.708274
O O2 0.903904 0.591341 0.462043
O O3 0.899657 0.661593 0.730497
O O4 0.000000 0.593082 0.750000
O O5 0.195762 0.938733 0.068139
O O6 0.281137 0.843682 0.038310
O O7 0.162829 0.803964 0.864549
O O8 0.209352 0.937036 0.782324
O O9 0.750000 0.250000 0.500000
O O10 0.748085 0.408060 0.394269
O O11 0.841032 0.354126 0.661752
O O12 0.823185 0.292841 0.360614
O O13 0.307985 0.002038 0.758866
#
# Coordination Sequence:
#
# PCOD8132910 Si02
#       6
#     8   8   8   8   8   8
#     4  12  23  36  53  73 106 152 189 219 255 303
#     4  10  19  30  52  72 108 137 166 215 273 319
#     4  11  21  30  53  77 109 140 170 217 275 317
#     4  11  17  31  49  74 107 133 168 207 267 320
#     4  12  19  36  49  75 108 142 182 217 253 319
#     4  10  20  35  48  76 107 139 176 220 264 314
#
# _framework density 16.300363999999998
#
# number of rings (size 3 to 8) (size 9 to 14) (size 15 to 20)
#    0.000    1.000    8.333    1.500    4.667    0.000 
#    0.000    0.000    0.000    0.000    0.000    1.167 
#    0.000    0.000    0.000    0.000    0.000    0.000 
#
# Total GULP energy -297649.284618 kJ/mol
# GULP energy per Si atom -12402.053526 kJ/mol
# Density = 1.626326 g / cm^3
# Si number density = 16.300364 Si / 1000 Ang^3
#
#
#
# Elastic Constant Matrix: (Units=GPa)
#
#
# Indices 1 2 3 4 5 6 
#
# 1 80.9608 54.2242 45.1874 0.0000 -0.7501 0.0000
# 2 54.2242 114.3661 57.6735 0.0000 -4.2533 0.0000
# 3 45.1874 57.6735 113.3834 0.0000 -12.4190 0.0000
# 4 0.0000 0.0000 0.0000 33.6732 0.0000 -8.1790
# 5 -0.7501 -4.2533 -12.4190 0.0000 15.8431 0.0000
# 6 0.0000 0.0000 0.0000 -8.1790 0.0000 22.8740
#
#
#
# Elastic Compliance Matrix: (Units=1/GPa)
#
#
# Indices 1 2 3 4 5 6 
#
# 1 0.019742 -0.007139 -0.004752 0.000000 -0.004707 0.000000
# 2 -0.007139 0.014383 -0.004469 0.000000 0.000020 0.000000
# 3 -0.004752 -0.004469 0.014036 0.000000 0.009577 0.000000
# 4 0.000000 0.000000 0.000000 0.032522 0.000000 0.011629
# 5 -0.004707 0.000020 0.009577 0.000000 0.070409 0.000000
# 6 0.000000 0.000000 0.000000 0.011629 0.000000 0.047876
#
#
# Mechanical properties :
#
#
# Convention : Reuss Voigt Hill
#
# Bulk Modulus (GPa) = 64.76268 69.20895 66.98582
# Shear Modulus (GPa) = 21.11200 24.58642 22.84921
#
# Velocity S-wave (km/s) = 3.60277 3.88794 3.74807
# Velocity P-wave (km/s) = 7.55802 7.91868 7.74045
#
# Compressibility (1/GPa) = 0.01544099
#
# Stress axis : x y z
#
# Youngs Moduli (GPa) = 50.65457 69.52785 71.24747
#
# Poissons Ratio (x) = 0.49633 0.33858
# Poissons Ratio (y) = 0.36160 0.31838
# Poissons Ratio (z) = 0.24072 0.31070
#
# Static dielectric constant tensor:
#      x y z
#    x 2.704450 0.000000 -0.233900 
#    y 0.000000 3.217820 0.000000 
#    z -0.233900 0.000000 3.236800 
# 
# 
# High freq. dielectric constant tensor:
#      x y z
#    x 1.574030 0.000000 -0.033510 
#    y 0.000000 1.634340 0.000000 
#    z -0.033510 0.000000 1.637470 
# 
# From -- ./inp_files/54985.got.cif
#   From: 2010.06.25/outbox.cif.g09.slc.cpg/sg15_28_cif.got.tgz:54985.got - 2010.06.28 07:06:18.
