data_PCOD8132784
_publ_section_title
;
Structure prediction by ZEFSAII (Michael W. Deem and Ramdas Pophale) SiO2 
 PCOD8132784
Probable space group: C 2/C
;
_chemical_formula_sum "Si O2"
_cell_formula_units_Z 52
_cell_length_a 13.552772
_cell_length_b 8.293551
_cell_length_c 30.665227
_cell_angle_alpha 90.000000
_cell_angle_beta 140.628097
_cell_angle_gamma 90.000000
_cell_volume 2186.476464
_symmetry_space_group_name_H-M "C 2/C"
_symmetry_group_IT_number 15
_symmetry_cell_setting 'monoclinic'
loop_
_space_group_symop_operation_xyz
x,y,z
-x,y,1/2-z
-x,-y,-z
x,-y,1/2+z
1/2+x,1/2+y,z
1/2-x,1/2+y,1/2-z
1/2-x,1/2-y,-z
1/2+x,1/2-y,1/2+z
loop_
_atom_site_type_symbol
_atom_site_label
_atom_site_fract_x
_atom_site_fract_y
_atom_site_fract_z
Si Si1 0.122299 0.697065 0.217778
Si Si2 0.169306 0.043280 0.663601
Si Si3 0.625508 0.438960 0.990856
Si Si4 0.781558 0.450724 0.391058
Si Si5 0.296419 0.912335 0.624699
Si Si6 0.500000 0.569266 0.750000
Si Si7 0.614311 0.923519 0.486302
O O1 0.272803 0.589533 0.281350
O O2 0.967265 0.583097 0.160883
O O3 0.086855 0.826352 0.242819
O O4 0.160044 0.784191 0.184532
O O5 0.288355 0.037502 0.662923
O O6 0.997848 0.005957 0.585837
O O7 0.797778 0.434556 0.028874
O O8 0.652391 0.546995 0.042978
O O9 0.582091 0.259102 0.990689
O O10 0.741933 0.263289 0.369398
O O11 0.635120 0.541887 0.318225
O O12 0.781854 0.486261 0.442354
O O13 0.943745 0.505439 0.424355
#
# Coordination Sequence:
#
# PCOD8132784 Si02
#       7
#     8   8   8   8   8   4   8
#     4  11  24  44  73  95 141 183 234 284 362 413
#     4  12  24  45  71 102 133 192 229 290 356 422
#     4  11  23  42  67  97 139 174 232 289 347 413
#     4  10  20  39  67  88 133 180 223 279 356 398
#     4  11  23  46  70  97 139 180 227 294 346 421
#     4  10  18  42  64  88 128 184 214 286 338 408
#     4  10  22  38  61  98 134 173 224 287 346 409
#
# _framework density 23.782556
#
# number of rings (size 3 to 8) (size 9 to 14) (size 15 to 20)
#    0.000    1.231    4.615    2.308    0.000    6.154 
#    5.538    0.000    0.000    0.000    0.000    0.000 
#    0.000    0.000    0.000    0.000    0.000    0.000 
#
# Total GULP energy -322224.842296 kJ/mol
# GULP energy per Si atom -12393.263165 kJ/mol
# Density = 2.372843 g / cm^3
# Si number density = 23.782556 Si / 1000 Ang^3
#
#
#
# Elastic Constant Matrix: (Units=GPa)
#
#
# Indices 1 2 3 4 5 6 
#
# 1 90.1166 36.1940 40.9081 0.0000 -1.2522 0.0000
# 2 36.1940 45.5977 45.6397 0.0000 -6.8798 0.0000
# 3 40.9081 45.6397 203.2054 0.0000 16.6677 0.0000
# 4 0.0000 0.0000 0.0000 36.5998 0.0000 -5.8724
# 5 -1.2522 -6.8798 16.6677 0.0000 25.8463 0.0000
# 6 0.0000 0.0000 0.0000 -5.8724 0.0000 30.0967
#
#
#
# Elastic Compliance Matrix: (Units=1/GPa)
#
#
# Indices 1 2 3 4 5 6 
#
# 1 0.016483 -0.013410 -0.000084 0.000000 -0.002717 0.000000
# 2 -0.013410 0.043444 -0.008397 0.000000 0.016330 0.000000
# 3 -0.000084 -0.008397 0.007399 0.000000 -0.007011 0.000000
# 4 0.000000 0.000000 0.000000 0.028206 0.000000 0.005503
# 5 -0.002717 0.016330 -0.007011 0.000000 0.047426 0.000000
# 6 0.000000 0.000000 0.000000 0.005503 0.000000 0.034300
#
#
# Mechanical properties :
#
#
# Convention : Reuss Voigt Hill
#
# Bulk Modulus (GPa) = 42.47268 64.93369 53.70319
# Shear Modulus (GPa) = 21.84478 32.92040 27.38259
#
# Velocity S-wave (km/s) = 3.03400 3.72455 3.39687
# Velocity P-wave (km/s) = 5.49282 6.77191 6.16562
#
# Compressibility (1/GPa) = 0.02354454
#
# Stress axis : x y z
#
# Youngs Moduli (GPa) = 60.66948 23.01804 135.15301
#
# Poissons Ratio (x) = 0.30867 0.01129
# Poissons Ratio (y) = 0.81357 1.13493
# Poissons Ratio (z) = 0.00507 0.19329
#
# Static dielectric constant tensor:
#      x y z
#    x 4.323980 0.000000 0.302820 
#    y 0.000000 3.901690 0.000000 
#    z 0.302820 0.000000 4.787930 
# 
# 
# High freq. dielectric constant tensor:
#      x y z
#    x 1.945870 0.000000 0.008950 
#    y 0.000000 1.897740 0.000000 
#    z 0.008950 0.000000 1.965670 
# 
# From -- ./inp_files/313213.got.cif
#   From: 2010.06.25/outbox.cif.g09.slc.cpg/sg15_157_cif.got.tgz:313213.got - 2010.06.28 07:06:18.
