data_PCOD8132977
_publ_section_title
;
Structure prediction by ZEFSAII (Michael W. Deem and Ramdas Pophale) SiO2 
 PCOD8132977
Probable space group: C 2/C
;
_chemical_formula_sum "Si O2"
_cell_formula_units_Z 44
_cell_length_a 12.467070
_cell_length_b 22.924302
_cell_length_c 10.498601
_cell_angle_alpha 90.000000
_cell_angle_beta 45.995816
_cell_angle_gamma 90.000000
_cell_volume 2158.218503
_symmetry_space_group_name_H-M "C 2/C"
_symmetry_group_IT_number 15
_symmetry_cell_setting 'monoclinic'
loop_
_space_group_symop_operation_xyz
x,y,z
-x,y,1/2-z
-x,-y,-z
x,-y,1/2+z
1/2+x,1/2+y,z
1/2-x,1/2+y,1/2-z
1/2-x,1/2-y,-z
1/2+x,1/2-y,1/2+z
loop_
_atom_site_type_symbol
_atom_site_label
_atom_site_fract_x
_atom_site_fract_y
_atom_site_fract_z
Si Si1 0.177429 0.066722 0.608576
Si Si2 0.665938 0.364815 0.366810
Si Si3 0.292174 0.769545 0.630076
Si Si4 0.000000 0.251772 0.250000
Si Si5 0.311596 0.370886 0.652652
Si Si6 0.676833 0.435557 0.604726
O O1 0.230201 0.101240 0.690985
O O2 0.242898 0.098940 0.431033
O O3 0.000000 0.065272 0.750000
O O4 0.241603 0.001224 0.550346
O O5 0.722422 0.298206 0.321179
O O6 0.488182 0.361466 0.507922
O O7 0.728907 0.399073 0.437983
O O8 0.142841 0.787783 0.671011
O O9 0.438906 0.786839 0.424812
O O10 0.279898 0.809528 0.765506
O O11 0.260845 0.407711 0.817292
O O12 0.500000 0.438501 0.750000
#
# Coordination Sequence:
#
# PCOD8132977 Si02
#       6
#     8   8   8   4   8   8
#     4   9  18  31  47  74 110 142 169 213 272 312
#     4  10  19  31  50  77 109 137 174 218 258 314
#     4  11  20  33  52  80 106 144 168 220 260 314
#     4  10  20  32  52  76 108 130 180 214 260 300
#     4  10  19  31  50  77 109 137 174 218 258 314
#     4   9  16  28  49  74 102 138 175 218 266 308
#
# _framework density 20.387184999999999
#
# number of rings (size 3 to 8) (size 9 to 14) (size 15 to 20)
#    0.000    2.182    1.818    3.273    2.545    5.091 
#    0.000    0.000    0.000    0.000    0.000   20.364 
#    0.000    0.000    0.000    0.000    0.000    0.000 
#
# Total GULP energy -272616.448021 kJ/mol
# GULP energy per Si atom -12391.656728 kJ/mol
# Density = 2.034078 g / cm^3
# Si number density = 20.387185 Si / 1000 Ang^3
#
#
#
# Elastic Constant Matrix: (Units=GPa)
#
#
# Indices 1 2 3 4 5 6 
#
# 1 51.0679 38.7505 47.6024 0.0000 31.7500 0.0000
# 2 38.7505 188.7789 74.2632 0.0000 44.2801 0.0000
# 3 47.6024 74.2632 108.1134 0.0000 40.2314 0.0000
# 4 0.0000 0.0000 0.0000 38.1675 0.0000 5.9131
# 5 31.7500 44.2801 40.2314 0.0000 48.0158 0.0000
# 6 0.0000 0.0000 0.0000 5.9131 0.0000 14.7118
#
#
#
# Elastic Compliance Matrix: (Units=1/GPa)
#
#
# Indices 1 2 3 4 5 6 
#
# 1 0.041427 0.000326 -0.011855 0.000000 -0.017761 0.000000
# 2 0.000326 0.007732 -0.003954 0.000000 -0.004033 0.000000
# 3 -0.011855 -0.003954 0.018761 0.000000 -0.004234 0.000000
# 4 0.000000 0.000000 0.000000 0.027940 0.000000 -0.011230
# 5 -0.017761 -0.004033 -0.004234 0.000000 0.039837 0.000000
# 6 0.000000 0.000000 0.000000 -0.011230 0.000000 0.072486
#
#
# Mechanical properties :
#
#
# Convention : Reuss Voigt Hill
#
# Bulk Modulus (GPa) = 27.06071 74.35470 50.70770
# Shear Modulus (GPa) = 19.88331 32.66863 26.27597
#
# Velocity S-wave (km/s) = 3.12634 4.00735 3.59395
# Velocity P-wave (km/s) = 5.13169 7.61330 6.49217
#
# Compressibility (1/GPa) = 0.03695395
#
# Stress axis : x y z
#
# Youngs Moduli (GPa) = 24.13862 129.34019 53.30292
#
# Poissons Ratio (x) = -0.04215 0.63191
# Poissons Ratio (y) = -0.00787 0.21074
# Poissons Ratio (z) = 0.28617 0.51136
#
# Static dielectric constant tensor:
#      x y z
#    x 3.388200 0.000000 0.377430 
#    y 0.000000 3.829550 0.000000 
#    z 0.377430 0.000000 3.759330 
# 
# 
# High freq. dielectric constant tensor:
#      x y z
#    x 1.751310 0.000000 0.032550 
#    y 0.000000 1.802380 0.000000 
#    z 0.032550 0.000000 1.783260 
# 
# From -- ./inp_files/42372.got.cif
#   From: 2010.06.25/outbox.cif.g09.slc.cpg/sg15_22_cif.got.tgz:42372.got - 2010.06.28 07:06:18.
