data_PCOD8132640
_publ_section_title
;
Structure prediction by ZEFSAII (Michael W. Deem and Ramdas Pophale) SiO2 
 PCOD8132640
Probable space group: C 2/C
;
_chemical_formula_sum "Si O2"
_cell_formula_units_Z 36
_cell_length_a 7.686017
_cell_length_b 11.988728
_cell_length_c 24.990847
_cell_angle_alpha 90.000000
_cell_angle_beta 123.046248
_cell_angle_gamma 90.000000
_cell_volume 1930.274050
_symmetry_space_group_name_H-M "C 2/C"
_symmetry_group_IT_number 15
_symmetry_cell_setting 'monoclinic'
loop_
_space_group_symop_operation_xyz
x,y,z
-x,y,1/2-z
-x,-y,-z
x,-y,1/2+z
1/2+x,1/2+y,z
1/2-x,1/2+y,1/2-z
1/2-x,1/2-y,-z
1/2+x,1/2-y,1/2+z
loop_
_atom_site_type_symbol
_atom_site_label
_atom_site_fract_x
_atom_site_fract_y
_atom_site_fract_z
Si Si1 0.730153 0.479805 0.141923
Si Si2 0.528792 0.949279 0.920287
Si Si3 0.215418 0.084045 0.936281
Si Si4 0.407224 0.742631 0.842126
Si Si5 0.500000 0.149624 0.250000
O O1 0.847229 0.487288 0.105401
O O2 0.482861 0.500139 0.092454
O O3 0.760924 0.353862 0.171664
O O4 0.816025 0.571966 0.196968
O O5 0.374029 0.855480 0.870458
O O6 0.389080 0.039829 0.925691
O O7 0.690466 0.895761 0.989252
O O8 0.138416 0.200601 0.897756
O O9 0.400786 0.770358 0.778206
#
# Coordination Sequence:
#
# PCOD8132640 Si02
#       5
#     8   8   8   8   4
#     4   9  21  38  55  83 108 148 185 223 272 324
#     4  10  18  39  59  82 119 134 176 237 276 327
#     4   9  20  37  58  87 109 143 180 225 280 331
#     4   9  21  37  56  81 109 149 183 224 276 324
#     4  10  20  40  54  74 118 146 186 236 256 314
#
# _framework density 18.650200999999999
#
# number of rings (size 3 to 8) (size 9 to 14) (size 15 to 20)
#    1.333    1.333    0.000    1.333    0.000    3.556 
#   12.000    2.222    0.000    0.000    0.000    0.000 
#    0.000    0.000    0.000    0.000    0.000    0.000 
#
# Total GULP energy -223046.518471 kJ/mol
# GULP energy per Si atom -12391.473248 kJ/mol
# Density = 1.860775 g / cm^3
# Si number density = 18.650201 Si / 1000 Ang^3
#
#
#
# Elastic Constant Matrix: (Units=GPa)
#
#
# Indices 1 2 3 4 5 6 
#
# 1 85.7807 27.2899 41.1199 0.0000 -20.2665 0.0000
# 2 27.2899 71.1985 36.8931 0.0000 -27.6159 0.0000
# 3 41.1199 36.8931 94.1954 0.0000 -35.4478 0.0000
# 4 0.0000 0.0000 0.0000 32.3267 0.0000 0.8398
# 5 -20.2665 -27.6159 -35.4478 0.0000 31.6832 0.0000
# 6 0.0000 0.0000 0.0000 0.8398 0.0000 22.2787
#
#
#
# Elastic Compliance Matrix: (Units=1/GPa)
#
#
# Indices 1 2 3 4 5 6 
#
# 1 0.015305 -0.002502 -0.004902 0.000000 0.002125 0.000000
# 2 -0.002502 0.021929 -0.001565 0.000000 0.015763 0.000000
# 3 -0.004902 -0.001565 0.020166 0.000000 0.018064 0.000000
# 4 0.000000 0.000000 0.000000 0.030965 0.000000 -0.001167
# 5 0.002125 0.015763 0.018064 0.000000 0.066871 0.000000
# 6 0.000000 0.000000 0.000000 -0.001167 0.000000 0.044930
#
#
# Mechanical properties :
#
#
# Convention : Reuss Voigt Hill
#
# Bulk Modulus (GPa) = 25.33953 51.30895 38.32424
# Shear Modulus (GPa) = 21.62086 26.98248 24.30167
#
# Velocity S-wave (km/s) = 3.40852 3.80776 3.61366
# Velocity P-wave (km/s) = 5.39508 6.84858 6.16482
#
# Compressibility (1/GPa) = 0.03946403
#
# Stress axis : x y z
#
# Youngs Moduli (GPa) = 65.33631 45.60161 49.58721
#
# Poissons Ratio (x) = 0.11411 0.24305
# Poissons Ratio (y) = 0.16349 0.07759
# Poissons Ratio (z) = 0.32025 0.07135
#
# Static dielectric constant tensor:
#      x y z
#    x 3.117620 0.000000 -0.050130 
#    y 0.000000 3.242270 0.000000 
#    z -0.050130 0.000000 3.524420 
# 
# 
# High freq. dielectric constant tensor:
#      x y z
#    x 1.706090 0.000000 -0.011110 
#    y 0.000000 1.716890 0.000000 
#    z -0.011110 0.000000 1.734910 
# 
# From -- ./inp_files/188160.got.cif
#   From: 2010.06.25/outbox.cif.g09.slc.cpg/sg15_95_cif.got.tgz:188160.got - 2010.06.28 07:06:18.
