data_PCOD8132562
_publ_section_title
;
Structure prediction by ZEFSAII (Michael W. Deem and Ramdas Pophale) SiO2 
 PCOD8132562
Probable space group: C 2/C
;
_chemical_formula_sum "Si O2"
_cell_formula_units_Z 56
_cell_length_a 28.439528
_cell_length_b 8.944526
_cell_length_c 20.510949
_cell_angle_alpha 90.000000
_cell_angle_beta 151.026161
_cell_angle_gamma 90.000000
_cell_volume 2527.427864
_symmetry_space_group_name_H-M "C 2/C"
_symmetry_group_IT_number 15
_symmetry_cell_setting 'monoclinic'
loop_
_space_group_symop_operation_xyz
x,y,z
-x,y,1/2-z
-x,-y,-z
x,-y,1/2+z
1/2+x,1/2+y,z
1/2-x,1/2+y,1/2-z
1/2-x,1/2-y,-z
1/2+x,1/2-y,1/2+z
loop_
_atom_site_type_symbol
_atom_site_label
_atom_site_fract_x
_atom_site_fract_y
_atom_site_fract_z
Si Si1 0.004535 0.637687 0.053825
Si Si2 0.500000 0.395225 0.250000
Si Si3 0.908678 0.099631 0.374218
Si Si4 0.103528 0.360077 0.946763
Si Si5 0.281858 0.205534 0.220893
Si Si6 0.680648 0.419495 0.131711
Si Si7 0.527076 0.364027 0.685021
Si Si8 0.500000 0.104700 0.750000
O O1 0.110521 0.715818 0.179831
O O2 0.972991 0.597180 0.088715
O O3 0.000000 0.500000 0.000000
O O4 0.920068 0.747049 0.927276
O O5 0.423775 0.295728 0.119425
O O6 0.441739 0.501930 0.229466
O O7 0.897440 0.135166 0.283674
O O8 0.822680 0.006993 0.302513
O O9 0.000000 0.000000 0.500000
O O10 0.091476 0.499017 0.881911
O O11 0.213367 0.326571 0.101315
O O12 0.281867 0.256509 0.298448
O O13 0.250030 0.030509 0.174429
O O14 0.582161 0.393988 0.972565
O O15 0.534666 0.206540 0.731590
#
# Coordination Sequence:
#
# PCOD8132562 Si02
#       8
#     8   4   8   8   8   8   8   4
#     4  12  23  39  66 100 135 165 211 279 340 386
#     4  10  20  38  64  80 126 180 212 258 308 404
#     4  10  18  38  62  95 121 160 208 267 334 384
#     4  11  23  43  62  93 131 170 225 258 328 385
#     4  12  24  39  67 101 135 168 210 284 336 397
#     4  11  23  38  65 100 130 159 213 279 342 385
#     4  10  19  39  67  90 121 173 222 251 336 383
#     4  10  24  40  66  88 126 188 216 270 302 404
#
# _framework density 22.156911999999998
#
# number of rings (size 3 to 8) (size 9 to 14) (size 15 to 20)
#    0.000    1.143    5.714    2.571    2.000    0.000 
#    0.000    2.857    0.000    1.714    0.000    0.000 
#    0.000    0.000    0.000    0.000    0.000    0.000 
#
# Total GULP energy -346868.429301 kJ/mol
# GULP energy per Si atom -12388.158189 kJ/mol
# Density = 2.210648 g / cm^3
# Si number density = 22.156912 Si / 1000 Ang^3
#
#
#
# Elastic Constant Matrix: (Units=GPa)
#
#
# Indices 1 2 3 4 5 6 
#
# 1 80.6877 21.0869 36.8512 0.0000 -15.0448 0.0000
# 2 21.0869 116.5984 33.6253 0.0000 -13.4452 0.0000
# 3 36.8512 33.6253 85.8805 0.0000 -4.7159 0.0000
# 4 0.0000 0.0000 0.0000 39.5601 0.0000 -10.8958
# 5 -15.0448 -13.4452 -4.7159 0.0000 31.4224 0.0000
# 6 0.0000 0.0000 0.0000 -10.8958 0.0000 32.3607
#
#
#
# Elastic Compliance Matrix: (Units=1/GPa)
#
#
# Indices 1 2 3 4 5 6 
#
# 1 0.016835 -0.000308 -0.006723 0.000000 0.006920 0.000000
# 2 -0.000308 0.010095 -0.003621 0.000000 0.003629 0.000000
# 3 -0.006723 -0.003621 0.015815 0.000000 -0.002395 0.000000
# 4 0.000000 0.000000 0.000000 0.027862 0.000000 0.009381
# 5 0.006920 0.003629 -0.002395 0.000000 0.036331 0.000000
# 6 0.000000 0.000000 0.000000 0.009381 0.000000 0.034060
#
#
# Mechanical properties :
#
#
# Convention : Reuss Voigt Hill
#
# Bulk Modulus (GPa) = 46.64078 51.81038 49.22558
# Shear Modulus (GPa) = 29.50743 33.44219 31.47481
#
# Velocity S-wave (km/s) = 3.65327 3.88923 3.77310
# Velocity P-wave (km/s) = 6.23627 6.60320 6.42236
#
# Compressibility (1/GPa) = 0.02144046
#
# Stress axis : x y z
#
# Youngs Moduli (GPa) = 59.40108 99.06076 63.22972
#
# Poissons Ratio (x) = 0.03049 0.42511
# Poissons Ratio (y) = 0.01828 0.22897
# Poissons Ratio (z) = 0.39937 0.35872
#
# Static dielectric constant tensor:
#      x y z
#    x 4.817690 0.000000 -0.062250 
#    y 0.000000 4.108390 0.000000 
#    z -0.062250 0.000000 3.809730 
# 
# 
# High freq. dielectric constant tensor:
#      x y z
#    x 1.849880 0.000000 -0.016930 
#    y 0.000000 1.898640 0.000000 
#    z -0.016930 0.000000 1.853970 
# 
# From -- ./inp_files/258993.got.cif
#   From: 2010.06.25/outbox.cif.g09.slc.cpg/sg15_130_cif.got.tgz:258993.got - 2010.06.28 07:06:18.
