data_PCOD8132405
_publ_section_title
;
Structure prediction by ZEFSAII (Michael W. Deem and Ramdas Pophale) SiO2 
 PCOD8132405
Probable space group: C 2/C
;
_chemical_formula_sum "Si O2"
_cell_formula_units_Z 52
_cell_length_a 10.695795
_cell_length_b 8.221327
_cell_length_c 29.980579
_cell_angle_alpha 90.000000
_cell_angle_beta 91.796088
_cell_angle_gamma 90.000000
_cell_volume 2635.005880
_symmetry_space_group_name_H-M "C 2/C"
_symmetry_group_IT_number 15
_symmetry_cell_setting 'monoclinic'
loop_
_space_group_symop_operation_xyz
x,y,z
-x,y,1/2-z
-x,-y,-z
x,-y,1/2+z
1/2+x,1/2+y,z
1/2-x,1/2+y,1/2-z
1/2-x,1/2-y,-z
1/2+x,1/2-y,1/2+z
loop_
_atom_site_type_symbol
_atom_site_label
_atom_site_fract_x
_atom_site_fract_y
_atom_site_fract_z
Si Si1 0.751407 0.607145 0.899608
Si Si2 0.574530 0.469750 0.790895
Si Si3 0.162164 0.396471 0.675173
Si Si4 0.974265 0.109415 0.872752
Si Si5 0.900562 0.114036 0.449548
Si Si6 0.000000 0.713324 0.250000
Si Si7 0.825113 0.108754 0.024157
O O1 0.830070 0.556528 0.856159
O O2 0.614194 0.676262 0.885087
O O3 0.824277 0.742549 0.926904
O O4 0.737968 0.446483 0.930243
O O5 0.500000 0.378731 0.750000
O O6 0.700802 0.370972 0.801818
O O7 0.488800 0.471901 0.834466
O O8 0.596511 0.661809 0.776517
O O9 0.121531 0.246530 0.644121
O O10 0.066284 0.407934 0.715547
O O11 0.912047 0.035303 0.915686
O O12 0.036803 0.179337 0.464964
O O13 0.829196 0.049544 0.492388
O O14 0.750000 0.250000 0.000000
#
# Coordination Sequence:
#
# PCOD8132405 Si02
#       7
#     8   8   8   8   8   4   8
#     4  10  21  36  58  84 113 146 186 225 277 331
#     4   8  17  36  55  78 109 147 177 229 282 325
#     4  10  18  37  60  80 110 149 187 232 278 330
#     4   9  19  37  55  77 113 148 180 227 279 324
#     4  10  21  37  56  81 114 148 180 227 277 326
#     4   8  18  36  54  76 114 144 176 232 284 320
#     4  10  21  37  58  84 112 146 184 224 274 328
#
# _framework density 19.734302
#
# number of rings (size 3 to 8) (size 9 to 14) (size 15 to 20)
#    0.462    2.154    0.000    1.385    0.000    1.846 
#    8.308    4.615    0.000    0.000    0.000    0.000 
#    0.000    0.000    0.000    0.000    0.000    0.000 
#
# Total GULP energy -322195.259412 kJ/mol
# GULP energy per Si atom -12392.125362 kJ/mol
# Density = 1.968939 g / cm^3
# Si number density = 19.734302 Si / 1000 Ang^3
#
#
#
# Elastic Constant Matrix: (Units=GPa)
#
#
# Indices 1 2 3 4 5 6 
#
# 1 109.8395 60.2131 52.2847 0.0000 24.7552 0.0000
# 2 60.2131 56.2761 24.5877 0.0000 16.6304 0.0000
# 3 52.2847 24.5877 109.1036 0.0000 11.3487 0.0000
# 4 0.0000 0.0000 0.0000 19.0681 0.0000 9.4519
# 5 24.7552 16.6304 11.3487 0.0000 46.7812 0.0000
# 6 0.0000 0.0000 0.0000 9.4519 0.0000 25.1185
#
#
#
# Elastic Compliance Matrix: (Units=1/GPa)
#
#
# Indices 1 2 3 4 5 6 
#
# 1 0.026509 -0.024267 -0.006846 0.000000 -0.003740 0.000000
# 2 -0.024267 0.043770 0.002101 0.000000 -0.003228 0.000000
# 3 -0.006846 0.002101 0.011976 0.000000 -0.000030 0.000000
# 4 0.000000 0.000000 0.000000 0.064469 0.000000 -0.024259
# 5 -0.003740 -0.003228 -0.000030 0.000000 0.024510 0.000000
# 6 0.000000 0.000000 0.000000 -0.024259 0.000000 0.048940
#
#
# Mechanical properties :
#
#
# Convention : Reuss Voigt Hill
#
# Bulk Modulus (GPa) = 41.26879 61.04336 51.15608
# Shear Modulus (GPa) = 17.46577 27.40246 22.43412
#
# Velocity S-wave (km/s) = 2.97820 3.73039 3.37532
# Velocity P-wave (km/s) = 5.72572 7.03948 6.41631
#
# Compressibility (1/GPa) = 0.02423139
#
# Stress axis : x y z
#
# Youngs Moduli (GPa) = 37.72339 22.84649 83.50182
#
# Poissons Ratio (x) = 0.55442 0.57162
# Poissons Ratio (y) = 0.91544 -0.17543
# Poissons Ratio (z) = 0.25824 -0.04800
#
# Static dielectric constant tensor:
#      x y z
#    x 3.597600 0.000000 0.042160 
#    y 0.000000 3.062830 0.000000 
#    z 0.042160 0.000000 4.072510 
# 
# 
# High freq. dielectric constant tensor:
#      x y z
#    x 1.758070 0.000000 0.005100 
#    y 0.000000 1.724550 0.000000 
#    z 0.005100 0.000000 1.804060 
# 
# From -- ./inp_files/291199.got.cif
#   From: 2010.06.25/outbox.cif.g09.slc.cpg/sg15_146_cif.got.tgz:291199.got - 2010.06.28 07:06:18.
