data_PCOD8132753
_publ_section_title
;
Structure prediction by ZEFSAII (Michael W. Deem and Ramdas Pophale) SiO2 
 PCOD8132753
Probable space group: C 2/C
;
_chemical_formula_sum "Si O2"
_cell_formula_units_Z 56
_cell_length_a 18.523142
_cell_length_b 7.203308
_cell_length_c 19.245305
_cell_angle_alpha 90.000000
_cell_angle_beta 78.573849
_cell_angle_gamma 90.000000
_cell_volume 2516.967778
_symmetry_space_group_name_H-M "C 2/C"
_symmetry_group_IT_number 15
_symmetry_cell_setting 'monoclinic'
loop_
_space_group_symop_operation_xyz
x,y,z
-x,y,1/2-z
-x,-y,-z
x,-y,1/2+z
1/2+x,1/2+y,z
1/2-x,1/2+y,1/2-z
1/2-x,1/2-y,-z
1/2+x,1/2-y,1/2+z
loop_
_atom_site_type_symbol
_atom_site_label
_atom_site_fract_x
_atom_site_fract_y
_atom_site_fract_z
Si Si1 0.473539 0.049354 0.177038
Si Si2 0.622051 0.813840 0.598876
Si Si3 0.185761 0.761433 0.715407
Si Si4 0.453534 0.353534 0.690114
Si Si5 0.162668 0.665062 0.241138
Si Si6 0.178249 0.292207 0.058661
Si Si7 0.053050 0.978213 0.554640
O O1 0.500000 0.022809 0.250000
O O2 0.537607 0.122553 0.116747
O O3 0.405766 0.199258 0.192754
O O4 0.450529 0.846778 0.152168
O O5 0.652950 0.739324 0.667525
O O6 0.616301 0.639287 0.547618
O O7 0.671894 0.983152 0.561513
O O8 0.130641 0.902888 0.768126
O O9 0.155710 0.554576 0.728305
O O10 0.264306 0.769569 0.736139
O O11 0.189276 0.802131 0.632565
O O12 0.500000 0.344751 0.750000
O O13 0.495822 0.492111 0.630388
O O14 0.102138 0.209785 0.041453
O O15 0.250000 0.250000 0.000000
O O16 0.000000 0.000000 0.500000
#
# Coordination Sequence:
#
# PCOD8132753 Si02
#       7
#     8   8   8   8   8   8   8
#     4   8  15  35  62  91 125 166 212 275 336 397
#     4  10  22  43  67  92 134 176 225 277 342 413
#     4  10  21  38  65  98 130 172 221 285 348 411
#     4  10  18  40  69  90 129 171 224 285 338 403
#     4   9  20  34  61 100 131 164 217 278 344 404
#     4  11  25  48  66  91 143 185 222 292 358 410
#     4  12  27  43  68 105 132 183 238 277 350 422
#
# _framework density 22.248996000000002
#
# number of rings (size 3 to 8) (size 9 to 14) (size 15 to 20)
#    0.000    2.000    2.857    1.714    2.000    7.429 
#    5.143    0.000    0.000    0.000    0.000    0.000 
#    0.000    0.000    0.000    0.000    0.000    0.000 
#
# Total GULP energy -346928.988264 kJ/mol
# GULP energy per Si atom -12390.321009 kJ/mol
# Density = 2.219836 g / cm^3
# Si number density = 22.248996 Si / 1000 Ang^3
#
#
#
# Elastic Constant Matrix: (Units=GPa)
#
#
# Indices 1 2 3 4 5 6 
#
# 1 153.0412 10.7538 51.6924 0.0000 2.7590 0.0000
# 2 10.7538 44.1970 23.7039 0.0000 6.3384 0.0000
# 3 51.6924 23.7039 87.4652 0.0000 -7.4891 0.0000
# 4 0.0000 0.0000 0.0000 15.3540 0.0000 -5.5536
# 5 2.7590 6.3384 -7.4891 0.0000 47.2035 0.0000
# 6 0.0000 0.0000 0.0000 -5.5536 0.0000 24.3716
#
#
#
# Elastic Compliance Matrix: (Units=1/GPa)
#
#
# Indices 1 2 3 4 5 6 
#
# 1 0.008277 0.001038 -0.005298 0.000000 -0.001464 0.000000
# 2 0.001038 0.027702 -0.008561 0.000000 -0.005139 0.000000
# 3 -0.005298 -0.008561 0.017244 0.000000 0.004195 0.000000
# 4 0.000000 0.000000 0.000000 0.070980 0.000000 0.016174
# 5 -0.001464 -0.005139 0.004195 0.000000 0.022626 0.000000
# 6 0.000000 0.000000 0.000000 0.016174 0.000000 0.044717
#
#
# Mechanical properties :
#
#
# Convention : Reuss Voigt Hill
#
# Bulk Modulus (GPa) = 36.25848 50.77819 43.51834
# Shear Modulus (GPa) = 22.08654 30.62271 26.35463
#
# Velocity S-wave (km/s) = 3.15413 3.71396 3.44544
# Velocity P-wave (km/s) = 5.44029 6.42367 5.95233
#
# Compressibility (1/GPa) = 0.02757976
#
# Stress axis : x y z
#
# Youngs Moduli (GPa) = 120.81210 36.09888 57.99203
#
# Poissons Ratio (x) = -0.03746 0.30727
# Poissons Ratio (y) = -0.12536 0.49645
# Poissons Ratio (z) = 0.64012 0.30903
#
# Static dielectric constant tensor:
#      x y z
#    x 5.058510 0.000000 -0.744420 
#    y 0.000000 4.247230 0.000000 
#    z -0.744420 0.000000 3.690700 
# 
# 
# High freq. dielectric constant tensor:
#      x y z
#    x 1.882380 0.000000 -0.013940 
#    y 0.000000 1.878690 0.000000 
#    z -0.013940 0.000000 1.840950 
# 
# From -- ./inp_files/246934.got.cif
#   From: 2010.06.25/outbox.cif.g09.slc.cpg/sg15_124_cif.got.tgz:246934.got - 2010.06.28 07:06:18.
