data_PCOD8132658
_publ_section_title
;
Structure prediction by ZEFSAII (Michael W. Deem and Ramdas Pophale) SiO2 
 PCOD8132658
Probable space group: C 2/C
;
_chemical_formula_sum "Si O2"
_cell_formula_units_Z 64
_cell_length_a 21.458355
_cell_length_b 10.203140
_cell_length_c 22.800535
_cell_angle_alpha 90.000000
_cell_angle_beta 134.940859
_cell_angle_gamma 90.000000
_cell_volume 3533.524688
_symmetry_space_group_name_H-M "C 2/C"
_symmetry_group_IT_number 15
_symmetry_cell_setting 'monoclinic'
loop_
_space_group_symop_operation_xyz
x,y,z
-x,y,1/2-z
-x,-y,-z
x,-y,1/2+z
1/2+x,1/2+y,z
1/2-x,1/2+y,1/2-z
1/2-x,1/2-y,-z
1/2+x,1/2-y,1/2+z
loop_
_atom_site_type_symbol
_atom_site_label
_atom_site_fract_x
_atom_site_fract_y
_atom_site_fract_z
Si Si1 0.939422 0.724759 0.115370
Si Si2 0.763573 0.037224 0.974225
Si Si3 0.828895 0.186649 0.437609
Si Si4 0.563811 0.057794 0.845696
Si Si5 0.061020 0.953104 0.203195
Si Si6 0.443619 0.581444 0.416964
Si Si7 0.937991 0.824741 0.596632
Si Si8 0.314438 0.625533 0.617852
O O1 0.949226 0.568436 0.121544
O O2 0.870897 0.765708 0.120689
O O3 0.030897 0.801147 0.186949
O O4 0.909589 0.767468 0.031265
O O5 0.665041 0.083485 0.894687
O O6 0.792697 0.948264 0.939487
O O7 0.832007 0.159401 0.022178
O O8 0.762886 0.961465 0.035990
O O9 0.864893 0.160602 0.395989
O O10 0.754448 0.297647 0.386835
O O11 0.500000 0.029447 0.750000
O O12 0.531769 0.189387 0.855173
O O13 0.131703 0.969294 0.302262
O O14 0.098595 0.990505 0.163357
O O15 0.976492 0.049224 0.159028
O O16 0.500000 0.500000 0.500000
O O17 0.515184 0.679603 0.435796
#
# Coordination Sequence:
#
# PCOD8132658 Si02
#       8
#     8   8   8   8   8   8   8   8
#     4  11  19  35  60  91 115 154 197 256 305 343
#     4  11  20  37  62  92 114 157 197 249 304 359
#     4  11  18  36  65  87 120 151 207 254 291 347
#     4  12  25  37  54  94 134 153 185 249 325 360
#     4  10  21  35  65  87 110 163 212 243 287 355
#     4  10  18  39  64  83 111 161 207 241 286 349
#     4  10  23  38  60  85 115 167 197 237 303 359
#     4  11  19  33  63  91 117 148 210 252 293 348
#
# _framework density 18.112226
#
# number of rings (size 3 to 8) (size 9 to 14) (size 15 to 20)
#    0.750    0.500    7.500    2.250    1.750    0.000 
#    0.000    1.875    2.750    0.000    0.000    0.000 
#    0.000    0.000    0.000    0.000    0.000    0.000 
#
# Total GULP energy -396627.347025 kJ/mol
# GULP energy per Si atom -12394.604595 kJ/mol
# Density = 1.807100 g / cm^3
# Si number density = 18.112226 Si / 1000 Ang^3
#
#
#
# Elastic Constant Matrix: (Units=GPa)
#
#
# Indices 1 2 3 4 5 6 
#
# 1 94.7075 28.5234 28.9123 0.0000 1.0024 0.0000
# 2 28.5234 76.4517 9.6720 0.0000 -2.5436 0.0000
# 3 28.9123 9.6720 85.1722 0.0000 4.7211 0.0000
# 4 0.0000 0.0000 0.0000 18.2597 0.0000 6.6224
# 5 1.0024 -2.5436 4.7211 0.0000 19.9598 0.0000
# 6 0.0000 0.0000 0.0000 6.6224 0.0000 23.0369
#
#
#
# Elastic Compliance Matrix: (Units=1/GPa)
#
#
# Indices 1 2 3 4 5 6 
#
# 1 0.013084 -0.004394 -0.003926 0.000000 -0.000288 0.000000
# 2 -0.004394 0.014832 -0.000314 0.000000 0.002185 0.000000
# 3 -0.003926 -0.000314 0.013275 0.000000 -0.002983 0.000000
# 4 0.000000 0.000000 0.000000 0.061140 0.000000 -0.017576
# 5 -0.000288 0.002185 -0.002983 0.000000 0.051099 0.000000
# 6 0.000000 0.000000 0.000000 -0.017576 0.000000 0.048461
#
#
# Mechanical properties :
#
#
# Convention : Reuss Voigt Hill
#
# Bulk Modulus (GPa) = 41.80307 43.39410 42.59858
# Shear Modulus (GPa) = 22.01343 24.86618 23.43980
#
# Velocity S-wave (km/s) = 3.49003 3.70928 3.60132
# Velocity P-wave (km/s) = 6.27459 6.50811 6.39242
#
# Compressibility (1/GPa) = 0.02392169
#
# Stress axis : x y z
#
# Youngs Moduli (GPa) = 76.42908 67.42161 75.33102
#
# Poissons Ratio (x) = 0.29628 0.29578
# Poissons Ratio (y) = 0.33586 0.02363
# Poissons Ratio (z) = 0.30010 0.02115
#
# Static dielectric constant tensor:
#      x y z
#    x 3.320770 0.000000 0.036270 
#    y 0.000000 3.285110 0.000000 
#    z 0.036270 0.000000 3.274220 
# 
# 
# High freq. dielectric constant tensor:
#      x y z
#    x 1.681170 0.000000 0.003210 
#    y 0.000000 1.690870 0.000000 
#    z 0.003210 0.000000 1.697970 
# 
# From -- ./inp_files/281839.got.cif
#   From: 2010.06.25/outbox.cif.g09.slc.cpg/sg15_141_cif.got.tgz:281839.got - 2010.06.28 07:06:18.
