data_PCOD8132997
_publ_section_title
;
Structure prediction by ZEFSAII (Michael W. Deem and Ramdas Pophale) SiO2 
 PCOD8132997
Probable space group: C 2/C
;
_chemical_formula_sum "Si O2"
_cell_formula_units_Z 36
_cell_length_a 13.169160
_cell_length_b 31.211080
_cell_length_c 10.656134
_cell_angle_alpha 90.000000
_cell_angle_beta 158.840556
_cell_angle_gamma 90.000000
_cell_volume 1580.997173
_symmetry_space_group_name_H-M "C 2/C"
_symmetry_group_IT_number 15
_symmetry_cell_setting 'monoclinic'
loop_
_space_group_symop_operation_xyz
x,y,z
-x,y,1/2-z
-x,-y,-z
x,-y,1/2+z
1/2+x,1/2+y,z
1/2-x,1/2+y,1/2-z
1/2-x,1/2-y,-z
1/2+x,1/2-y,1/2+z
loop_
_atom_site_type_symbol
_atom_site_label
_atom_site_fract_x
_atom_site_fract_y
_atom_site_fract_z
Si Si1 0.000000 0.969378 0.250000
Si Si2 0.500000 0.200729 0.250000
Si Si3 0.719280 0.088228 0.223826
Si Si4 0.500000 0.969918 0.250000
Si Si5 0.770248 0.856802 0.241285
Si Si6 0.438863 0.225995 0.913938
O O1 0.076598 0.939919 0.455564
O O2 0.250502 0.999777 0.501319
O O3 0.750344 0.168065 0.584418
O O4 0.421507 0.228662 0.283256
O O5 0.915929 0.124468 0.385054
O O6 0.580780 0.059767 0.958202
O O7 0.468865 0.107028 0.020046
O O8 0.698832 0.820943 0.267610
O O9 0.193212 0.262018 0.614320
#
# Coordination Sequence:
#
# PCOD8132997 Si02
#       6
#     4   4   8   4   8   8
#     4  12  24  42  67  90 118 150 194 250 306 353
#     4   8  20  29  51  80 126 146 204 222 314 323
#     4  12  23  42  61  90 120 157 195 249 290 359
#     4  12  26  43  64  88 118 156 200 240 302 360
#     4  10  22  33  57  85 121 160 196 234 297 351
#     4  10  19  31  51  83 127 159 193 242 297 349
#
# _framework density 22.770440000000001
#
# number of rings (size 3 to 8) (size 9 to 14) (size 15 to 20)
#    1.333    0.000    0.000    7.333    0.000    1.778 
#    0.000    0.000    0.000    0.000    0.000   15.556 
#    0.000    0.000    0.000    0.000    0.000    0.000 
#
# Total GULP energy -223014.901974 kJ/mol
# GULP energy per Si atom -12389.716776 kJ/mol
# Density = 2.271861 g / cm^3
# Si number density = 22.770440 Si / 1000 Ang^3
#
#
#
# Elastic Constant Matrix: (Units=GPa)
#
#
# Indices 1 2 3 4 5 6 
#
# 1 46.1883 16.8649 36.3052 0.0000 14.5481 0.0000
# 2 16.8649 95.3410 42.7594 0.0001 1.7909 0.0000
# 3 36.3052 42.7594 95.6252 -0.0011 14.0726 0.0010
# 4 0.0000 0.0001 -0.0011 27.6479 -0.0003 34.9818
# 5 14.5481 1.7909 14.0726 -0.0003 45.4334 0.0000
# 6 0.0000 0.0000 0.0010 34.9818 0.0000 2.2594
#
#
#
# Elastic Compliance Matrix: (Units=1/GPa)
#
#
# Indices 1 2 3 4 5 6 
#
# 1 0.032876 -0.000689 -0.011136 0.000000 -0.007051 -0.000001
# 2 -0.000689 0.013215 -0.005871 0.000000 0.001518 0.000000
# 3 -0.011136 -0.005871 0.017552 -0.000001 -0.001639 0.000001
# 4 0.000000 0.000000 -0.000001 -0.001946 0.000000 0.030124
# 5 -0.007051 0.001518 -0.001639 0.000000 0.024716 0.000000
# 6 -0.000001 0.000000 0.000001 0.030124 0.000000 -0.023809
#
#
# Mechanical properties :
#
#
# Convention : Reuss Voigt Hill
#
# Bulk Modulus (GPa) = 35.39671 47.66819 41.53245
# Shear Modulus (GPa) = 46.54877 24.48315 35.51596
#
# Velocity S-wave (km/s) = 4.52626 3.28261 3.95364
# Velocity P-wave (km/s) = 6.54941 5.94534 6.25467
#
# Compressibility (1/GPa) = 0.02825121
#
# Stress axis : x y z
#
# Youngs Moduli (GPa) = 30.41720 75.67090 56.97319
#
# Poissons Ratio (x) = 0.05210 0.63447
# Poissons Ratio (y) = 0.02094 0.33450
# Poissons Ratio (z) = 0.33874 0.44428
#
# Static dielectric constant tensor:
#      x y z
#    x 3.643630 0.000000 0.098570 
#    y 0.000000 4.510290 0.000000 
#    z 0.098570 0.000000 3.924260 
# 
# 
# High freq. dielectric constant tensor:
#      x y z
#    x 1.861110 0.000000 0.022550 
#    y 0.000000 1.919380 0.000000 
#    z 0.022550 0.000000 1.894790 
# 
# From -- ./inp_files/101734.got.cif
#   From: 2010.06.25/outbox.cif.g09.slc.cpg/sg15_51_cif.got.tgz:101734.got - 2010.06.28 07:06:18.
