data_PCOD8132158
_publ_section_title
;
Structure prediction by ZEFSAII (Michael W. Deem and Ramdas Pophale) SiO2 
 PCOD8132158
Probable space group: C 2/C
;
_chemical_formula_sum "Si O2"
_cell_formula_units_Z 36
_cell_length_a 7.489358
_cell_length_b 17.342936
_cell_length_c 13.994600
_cell_angle_alpha 90.000000
_cell_angle_beta 113.941448
_cell_angle_gamma 90.000000
_cell_volume 1661.327266
_symmetry_space_group_name_H-M "C 2/C"
_symmetry_group_IT_number 15
_symmetry_cell_setting 'monoclinic'
loop_
_space_group_symop_operation_xyz
x,y,z
-x,y,1/2-z
-x,-y,-z
x,-y,1/2+z
1/2+x,1/2+y,z
1/2-x,1/2+y,1/2-z
1/2-x,1/2-y,-z
1/2+x,1/2-y,1/2+z
loop_
_atom_site_type_symbol
_atom_site_label
_atom_site_fract_x
_atom_site_fract_y
_atom_site_fract_z
Si Si1 0.042674 0.347369 0.496408
Si Si2 0.000000 0.811797 0.750000
Si Si3 0.693970 0.297881 0.099849
Si Si4 0.831816 0.575926 0.290121
Si Si5 0.188610 0.597761 0.723741
O O1 0.242614 0.351274 0.475790
O O2 0.016388 0.260950 0.537146
O O3 0.071023 0.410447 0.585157
O O4 0.854573 0.369127 0.391441
O O5 0.114088 0.757294 0.847988
O O6 0.156782 0.865233 0.728442
O O7 0.649877 0.348748 0.185981
O O8 0.740721 0.490053 0.267945
O O9 0.000000 0.588070 0.250000
O O10 0.000000 0.603041 0.750000
#
# Coordination Sequence:
#
# PCOD8132158 Si02
#       5
#     8   4   8   8   8
#     4   9  16  29  56  80 104 148 189 218 274 331
#     4  10  18  36  58  78 110 150 182 222 274 326
#     4   9  16  30  57  84 104 146 191 224 267 331
#     4  10  21  33  55  84 116 144 181 229 279 326
#     4   9  16  31  54  82 109 143 184 228 273 326
#
# _framework density 21.669421
#
# number of rings (size 3 to 8) (size 9 to 14) (size 15 to 20)
#    0.000    2.667    3.333    0.667    0.000    0.000 
#    0.000    1.111    9.778   82.667    0.000    0.000 
#    0.000    0.000    0.000    0.000    0.000    0.000 
#
# Total GULP energy -222993.165420 kJ/mol
# GULP energy per Si atom -12388.509190 kJ/mol
# Density = 2.162010 g / cm^3
# Si number density = 21.669421 Si / 1000 Ang^3
#
#
#
# Elastic Constant Matrix: (Units=GPa)
#
#
# Indices 1 2 3 4 5 6 
#
# 1 45.6627 27.1413 17.2682 0.0000 -1.4630 0.0000
# 2 27.1413 135.5306 57.7150 0.0000 -17.3752 0.0000
# 3 17.2682 57.7150 128.1589 0.0000 -21.3710 0.0000
# 4 0.0000 0.0000 0.0000 31.8814 0.0000 -7.4157
# 5 -1.4630 -17.3752 -21.3710 0.0000 10.0720 0.0000
# 6 0.0000 0.0000 0.0000 -7.4157 0.0000 19.1787
#
#
#
# Elastic Compliance Matrix: (Units=1/GPa)
#
#
# Indices 1 2 3 4 5 6 
#
# 1 0.025900 -0.005436 -0.003061 0.000000 -0.012111 0.000000
# 2 -0.005436 0.011110 -0.001867 0.000000 0.014414 0.000000
# 3 -0.003061 -0.001867 0.013069 0.000000 0.024064 0.000000
# 4 0.000000 0.000000 0.000000 0.034466 0.000000 0.013327
# 5 -0.012111 0.014414 0.024064 0.000000 0.173452 0.000000
# 6 0.000000 0.000000 0.000000 0.013327 0.000000 0.057294
#
#
# Mechanical properties :
#
#
# Convention : Reuss Voigt Hill
#
# Bulk Modulus (GPa) = 34.07075 57.06681 45.56878
# Shear Modulus (GPa) = 14.45906 26.04161 20.25033
#
# Velocity S-wave (km/s) = 2.58593 3.47041 3.06030
# Velocity P-wave (km/s) = 4.96721 6.51542 5.79327
#
# Compressibility (1/GPa) = 0.02935069
#
# Stress axis : x y z
#
# Youngs Moduli (GPa) = 38.60959 90.00862 76.51693
#
# Poissons Ratio (x) = 0.48926 0.23425
# Poissons Ratio (y) = 0.20987 0.14287
# Poissons Ratio (z) = 0.11820 0.16807
#
# Static dielectric constant tensor:
#      x y z
#    x 3.200410 0.000000 0.051730 
#    y 0.000000 4.332060 0.000000 
#    z 0.051730 0.000000 4.258890 
# 
# 
# High freq. dielectric constant tensor:
#      x y z
#    x 1.779030 0.000000 -0.008490 
#    y 0.000000 1.862220 0.000000 
#    z -0.008490 0.000000 1.866130 
# 
# From -- ./inp_files/133489.got.cif
#   From: 2010.06.25/outbox.cif.g09.slc.cpg/sg15_67_cif.got.tgz:133489.got - 2010.06.28 07:06:18.
