data_PCOD8132516
_publ_section_title
;
Structure prediction by ZEFSAII (Michael W. Deem and Ramdas Pophale) SiO2 
 PCOD8132516
Probable space group: C 2/C
;
_chemical_formula_sum "Si O2"
_cell_formula_units_Z 52
_cell_length_a 12.516460
_cell_length_b 23.293741
_cell_length_c 15.050759
_cell_angle_alpha 90.000000
_cell_angle_beta 141.871147
_cell_angle_gamma 90.000000
_cell_volume 2709.370209
_symmetry_space_group_name_H-M "C 2/C"
_symmetry_group_IT_number 15
_symmetry_cell_setting 'monoclinic'
loop_
_space_group_symop_operation_xyz
x,y,z
-x,y,1/2-z
-x,-y,-z
x,-y,1/2+z
1/2+x,1/2+y,z
1/2-x,1/2+y,1/2-z
1/2-x,1/2-y,-z
1/2+x,1/2-y,1/2+z
loop_
_atom_site_type_symbol
_atom_site_label
_atom_site_fract_x
_atom_site_fract_y
_atom_site_fract_z
Si Si1 0.878082 0.619641 0.591780
Si Si2 0.727894 0.962126 0.631908
Si Si3 0.447154 0.186874 0.938180
Si Si4 0.224076 0.293980 0.764091
Si Si5 0.597664 0.074818 0.486931
Si Si6 0.500000 0.865509 0.750000
Si Si7 0.004886 0.129999 0.154545
O O1 0.857688 0.570316 0.506599
O O2 0.689054 0.630892 0.510733
O O3 0.000000 0.597706 0.750000
O O4 0.963850 0.675314 0.599776
O O5 0.592513 0.953792 0.624041
O O6 0.911917 0.934449 0.780957
O O7 0.744976 0.028352 0.611329
O O8 0.288617 0.230655 0.829302
O O9 0.591553 0.212733 0.097066
O O10 0.369364 0.128717 0.927706
O O11 0.384661 0.332638 0.839954
O O12 0.137714 0.324214 0.792160
O O13 0.604112 0.094630 0.388340
O O14 0.000000 0.157902 0.250000
#
# Coordination Sequence:
#
# PCOD8132516 Si02
#       7
#     8   8   8   8   8   4   8
#     4  10  21  35  59  92 119 152 201 253 309 362
#     4   9  17  36  63  85 120 158 193 245 304 367
#     4  10  22  39  57  87 119 166 202 248 303 350
#     4  11  22  38  61  86 120 165 203 250 298 357
#     4   9  18  35  61  86 115 162 202 237 303 357
#     4  10  20  38  62  90 122 162 204 248 302 354
#     4  10  18  38  60  87 123 158 192 245 316 360
#
# _framework density 19.192651999999999
#
# number of rings (size 3 to 8) (size 9 to 14) (size 15 to 20)
#    0.000    2.154    6.154    0.000    3.231    3.692 
#    0.000    0.000   15.231   13.846    0.000    0.000 
#    0.000    0.000    0.000    0.000    0.000    0.000 
#
# Total GULP energy -322267.969629 kJ/mol
# GULP energy per Si atom -12394.921909 kJ/mol
# Density = 1.914897 g / cm^3
# Si number density = 19.192652 Si / 1000 Ang^3
#
#
#
# Elastic Constant Matrix: (Units=GPa)
#
#
# Indices 1 2 3 4 5 6 
#
# 1 101.6214 36.2837 22.6140 0.0000 2.9944 0.0000
# 2 36.2837 123.8018 32.3474 0.0000 0.2163 0.0000
# 3 22.6140 32.3474 84.4599 0.0000 -0.4087 0.0000
# 4 0.0000 0.0000 0.0000 20.3171 0.0000 5.4888
# 5 2.9944 0.2163 -0.4087 0.0000 15.4529 0.0000
# 6 0.0000 0.0000 0.0000 5.4888 0.0000 21.0447
#
#
#
# Elastic Compliance Matrix: (Units=1/GPa)
#
#
# Indices 1 2 3 4 5 6 
#
# 1 0.011347 -0.002806 -0.001974 0.000000 -0.002212 0.000000
# 2 -0.002806 0.009670 -0.002951 0.000000 0.000330 0.000000
# 3 -0.001974 -0.002951 0.013502 0.000000 0.000781 0.000000
# 4 0.000000 0.000000 0.000000 0.052951 0.000000 -0.013810
# 5 -0.002212 0.000330 0.000781 0.000000 0.065158 0.000000
# 6 0.000000 0.000000 0.000000 -0.013810 0.000000 0.051120
#
#
# Mechanical properties :
#
#
# Convention : Reuss Voigt Hill
#
# Bulk Modulus (GPa) = 52.47176 54.70812 53.58994
# Shear Modulus (GPa) = 22.16693 25.93881 24.05287
#
# Velocity S-wave (km/s) = 3.40217 3.68026 3.54394
# Velocity P-wave (km/s) = 6.54461 6.82830 6.68796
#
# Compressibility (1/GPa) = 0.01905787
#
# Stress axis : x y z
#
# Youngs Moduli (GPa) = 88.13098 103.41100 74.06091
#
# Poissons Ratio (x) = 0.29015 0.14621
# Poissons Ratio (y) = 0.24728 0.21853
# Poissons Ratio (z) = 0.17399 0.30514
#
# Static dielectric constant tensor:
#      x y z
#    x 3.674130 0.000000 0.082140 
#    y 0.000000 3.525220 0.000000 
#    z 0.082140 0.000000 3.348990 
# 
# 
# High freq. dielectric constant tensor:
#      x y z
#    x 1.749100 0.000000 -0.001130 
#    y 0.000000 1.739450 0.000000 
#    z -0.001130 0.000000 1.725780 
# 
# From -- ./inp_files/148417.got.cif
#   From: 2010.06.25/outbox.cif.g09.slc.cpg/sg15_75_cif.got.tgz:148417.got - 2010.06.28 07:06:18.
