data_PCOD8132634
_publ_section_title
;
Structure prediction by ZEFSAII (Michael W. Deem and Ramdas Pophale) SiO2 
 PCOD8132634
Probable space group: C 2/C
;
_chemical_formula_sum "Si O2"
_cell_formula_units_Z 56
_cell_length_a 13.617961
_cell_length_b 15.413298
_cell_length_c 20.903989
_cell_angle_alpha 90.000000
_cell_angle_beta 34.200571
_cell_angle_gamma 90.000000
_cell_volume 2466.288855
_symmetry_space_group_name_H-M "C 2/C"
_symmetry_group_IT_number 15
_symmetry_cell_setting 'monoclinic'
loop_
_space_group_symop_operation_xyz
x,y,z
-x,y,1/2-z
-x,-y,-z
x,-y,1/2+z
1/2+x,1/2+y,z
1/2-x,1/2+y,1/2-z
1/2-x,1/2-y,-z
1/2+x,1/2-y,1/2+z
loop_
_atom_site_type_symbol
_atom_site_label
_atom_site_fract_x
_atom_site_fract_y
_atom_site_fract_z
Si Si1 0.595813 0.654032 0.902679
Si Si2 0.590951 0.942564 0.835213
Si Si3 0.000000 0.120769 0.750000
Si Si4 0.541202 0.497698 0.846415
Si Si5 0.500000 0.026921 0.250000
Si Si6 0.558304 0.852390 0.356821
Si Si7 0.623156 0.187270 0.964710
Si Si8 0.249818 0.607747 0.554684
O O1 0.538000 0.558127 0.911546
O O2 0.440839 0.722093 0.969946
O O3 0.628093 0.659734 0.961597
O O4 0.770341 0.683305 0.771145
O O5 0.552587 0.913214 0.782394
O O6 0.465807 0.891848 0.950175
O O7 0.795364 0.930830 0.741511
O O8 0.548795 0.043817 0.864079
O O9 0.057490 0.060746 0.777411
O O10 0.166791 0.180429 0.642768
O O11 0.368216 0.439446 0.937056
O O12 0.339159 0.964816 0.353228
O O13 0.554861 0.813919 0.429061
O O14 0.385444 0.827366 0.408549
#
# Coordination Sequence:
#
# PCOD8132634 Si02
#       8
#     8   8   4   8   4   8   8   8
#     4  11  23  44  65  97 142 174 215 271 334 397
#     4  10  21  41  69 102 129 173 223 271 329 390
#     4  12  24  46  65  97 136 174 216 282 330 393
#     4  11  24  41  70 100 135 170 226 275 320 395
#     4  10  18  38  71  99 122 174 226 274 316 381
#     4  10  21  45  69  94 130 172 222 282 323 385
#     4  12  26  43  71  95 139 179 213 269 344 399
#     4  11  20  41  73  96 127 175 221 276 329 379
#
# _framework density 22.70618
#
# number of rings (size 3 to 8) (size 9 to 14) (size 15 to 20)
#    0.000    1.143    7.143    2.571    2.000    2.286 
#    0.000    2.857    0.000    0.000    0.000    0.000 
#    0.000    0.000    0.000    0.000    0.000    0.000 
#
# Total GULP energy -347188.177994 kJ/mol
# GULP energy per Si atom -12399.577785 kJ/mol
# Density = 2.265450 g / cm^3
# Si number density = 22.706180 Si / 1000 Ang^3
#
#
#
# Elastic Constant Matrix: (Units=GPa)
#
#
# Indices 1 2 3 4 5 6 
#
# 1 122.3771 15.4400 45.8220 -0.0030 -7.2555 -0.0007
# 2 15.4400 41.1377 49.2467 -0.0013 -13.8807 -0.0001
# 3 45.8220 49.2467 140.6531 -0.0038 -29.4975 -0.0024
# 4 -0.0030 -0.0013 -0.0038 15.3005 0.0020 -12.2447
# 5 -7.2555 -13.8807 -29.4975 0.0020 40.2719 0.0007
# 6 -0.0007 -0.0001 -0.0024 -12.2447 0.0007 13.1990
#
#
#
# Elastic Compliance Matrix: (Units=1/GPa)
#
#
# Indices 1 2 3 4 5 6 
#
# 1 0.009321 0.000142 -0.003218 0.000004 -0.000629 0.000004
# 2 0.000142 0.042511 -0.014003 -0.000009 0.004421 -0.000011
# 3 -0.003218 -0.014003 0.014092 0.000010 0.004915 0.000012
# 4 0.000004 -0.000009 0.000010 0.253738 -0.000011 0.235393
# 5 -0.000629 0.004421 0.004915 -0.000011 0.029842 -0.000011
# 6 0.000004 -0.000011 0.000012 0.235393 -0.000011 0.294138
#
#
# Mechanical properties :
#
#
# Convention : Reuss Voigt Hill
#
# Bulk Modulus (GPa) = 31.48158 58.35391 44.91775
# Shear Modulus (GPa) = 7.26333 26.66491 16.96412
#
# Velocity S-wave (km/s) = 1.79047 3.43059 2.73630
# Velocity P-wave (km/s) = 4.26254 6.43796 5.45969
#
# Compressibility (1/GPa) = 0.03176460
#
# Stress axis : x y z
#
# Youngs Moduli (GPa) = 107.28117 23.52357 70.96260
#
# Poissons Ratio (x) = -0.00334 0.22838
# Poissons Ratio (y) = -0.01523 0.99371
# Poissons Ratio (z) = 0.34526 0.32941
#
# Static dielectric constant tensor:
#      x y z
#    x 4.540270 0.000000 -0.104550 
#    y 0.000000 3.558600 0.000000 
#    z -0.104550 0.000000 4.213970 
# 
# 
# High freq. dielectric constant tensor:
#      x y z
#    x 1.909240 0.000000 -0.004980 
#    y 0.000000 1.852170 0.000000 
#    z -0.004980 0.000000 1.906820 
# 
# From -- ./inp_files/245152.got.cif
#   From: 2010.06.25/outbox.cif.g09.slc.cpg/sg15_123_cif.got.tgz:245152.got - 2010.06.28 07:06:18.
