data_PCOD8132220
_publ_section_title
;
Structure prediction by ZEFSAII (Michael W. Deem and Ramdas Pophale) SiO2 
 PCOD8132220
Probable space group: C 2/C
;
_chemical_formula_sum "Si O2"
_cell_formula_units_Z 64
_cell_length_a 25.719560
_cell_length_b 10.847344
_cell_length_c 12.428213
_cell_angle_alpha 90.000000
_cell_angle_beta 75.813733
_cell_angle_gamma 90.000000
_cell_volume 3361.594263
_symmetry_space_group_name_H-M "C 2/C"
_symmetry_group_IT_number 15
_symmetry_cell_setting 'monoclinic'
loop_
_space_group_symop_operation_xyz
x,y,z
-x,y,1/2-z
-x,-y,-z
x,-y,1/2+z
1/2+x,1/2+y,z
1/2-x,1/2+y,1/2-z
1/2-x,1/2-y,-z
1/2+x,1/2-y,1/2+z
loop_
_atom_site_type_symbol
_atom_site_label
_atom_site_fract_x
_atom_site_fract_y
_atom_site_fract_z
Si Si1 0.983679 0.302638 0.531840
Si Si2 0.721585 0.269433 0.685810
Si Si3 0.097739 0.757541 0.751612
Si Si4 0.911530 0.832433 0.510379
Si Si5 0.710999 0.598266 0.980249
Si Si6 0.966889 0.468913 0.168193
Si Si7 0.710528 0.683779 0.437867
Si Si8 0.911241 0.115495 0.457651
O O1 0.950868 0.402879 0.618814
O O2 0.946169 0.183924 0.531221
O O3 0.040437 0.256761 0.556668
O O4 0.995410 0.376639 0.417422
O O5 0.659881 0.245447 0.701173
O O6 0.736295 0.370009 0.585337
O O7 0.754784 0.148318 0.637710
O O8 0.732827 0.305377 0.804145
O O9 0.082447 0.839086 0.863361
O O10 0.083035 0.613180 0.769125
O O11 0.069850 0.830434 0.667275
O O12 0.852177 0.773976 0.516623
O O13 0.920060 0.968366 0.457358
O O14 0.712048 0.454461 0.973249
O O15 0.650876 0.648435 0.993182
O O16 0.000000 0.519139 0.250000
O O17 0.750000 0.750000 0.500000
#
# Coordination Sequence:
#
# PCOD8132220 Si02
#       8
#     8   8   8   8   8   8   8   8
#     4  10  20  35  56  82 111 143 185 233 276 337
#     4   9  19  38  56  81 113 143 191 238 276 336
#     4   9  18  36  59  76 109 153 182 222 288 335
#     4   9  20  37  55  85 112 143 187 236 277 336
#     4   9  20  37  57  85 112 148 190 238 277 338
#     4  10  19  36  54  77 112 147 184 224 277 338
#     4  10  21  37  59  83 113 149 187 235 291 335
#     4  10  18  36  60  81 111 149 189 225 286 335
#
# _framework density 19.038585000000001
#
# number of rings (size 3 to 8) (size 9 to 14) (size 15 to 20)
#    0.000    2.500    1.250    0.375    1.750    0.000 
#    9.000    3.750    0.000    0.000    0.000    0.000 
#    0.000    0.000    0.000    0.000    0.000    0.000 
#
# Total GULP energy -396431.278816 kJ/mol
# GULP energy per Si atom -12388.477463 kJ/mol
# Density = 1.899525 g / cm^3
# Si number density = 19.038585 Si / 1000 Ang^3
#
#
#
# Elastic Constant Matrix: (Units=GPa)
#
#
# Indices 1 2 3 4 5 6 
#
# 1 54.9637 40.9599 36.3414 0.0000 15.9949 0.0000
# 2 40.9599 82.8597 39.2032 0.0000 1.2076 0.0000
# 3 36.3414 39.2032 85.8560 0.0000 9.2491 0.0000
# 4 0.0000 0.0000 0.0000 18.9932 0.0000 -2.4428
# 5 15.9949 1.2076 9.2491 0.0000 25.5367 0.0000
# 6 0.0000 0.0000 0.0000 -2.4428 0.0000 31.3541
#
#
#
# Elastic Compliance Matrix: (Units=1/GPa)
#
#
# Indices 1 2 3 4 5 6 
#
# 1 0.042940 -0.017186 -0.007824 0.000000 -0.023249 0.000000
# 2 -0.017186 0.022361 -0.004143 0.000000 0.011208 0.000000
# 3 -0.007824 -0.004143 0.016964 0.000000 -0.001048 0.000000
# 4 0.000000 0.000000 0.000000 0.053183 0.000000 0.004144
# 5 -0.023249 0.011208 -0.001048 0.000000 0.053571 0.000000
# 6 0.000000 0.000000 0.000000 0.004144 0.000000 0.032217
#
#
# Mechanical properties :
#
#
# Convention : Reuss Voigt Hill
#
# Bulk Modulus (GPa) = 41.73844 50.74315 46.24079
# Shear Modulus (GPa) = 17.38968 22.32179 19.85574
#
# Velocity S-wave (km/s) = 3.02552 3.42782 3.23293
# Velocity P-wave (km/s) = 5.84600 6.50978 6.18680
#
# Compressibility (1/GPa) = 0.02395873
#
# Stress axis : x y z
#
# Youngs Moduli (GPa) = 23.28858 44.72073 58.94896
#
# Poissons Ratio (x) = 0.76856 0.46120
# Poissons Ratio (y) = 0.40023 0.24424
# Poissons Ratio (z) = 0.18220 0.18529
#
# Static dielectric constant tensor:
#      x y z
#    x 4.046510 0.000000 -0.152880 
#    y 0.000000 5.056450 0.000000 
#    z -0.152880 0.000000 3.708400 
# 
# 
# High freq. dielectric constant tensor:
#      x y z
#    x 1.736300 0.000000 0.000700 
#    y 0.000000 1.734160 0.000000 
#    z 0.000700 0.000000 1.735950 
# 
# From -- ./inp_files/117582.got.cif
#   From: 2010.06.25/outbox.cif.g09.slc.cpg/sg15_59_cif.got.tgz:117582.got - 2010.06.28 07:06:18.
