data_PCOD8132883
_publ_section_title
;
Structure prediction by ZEFSAII (Michael W. Deem and Ramdas Pophale) SiO2 
 PCOD8132883
Probable space group: C 2/C
;
_chemical_formula_sum "Si O2"
_cell_formula_units_Z 48
_cell_length_a 9.974633
_cell_length_b 25.828191
_cell_length_c 8.510774
_cell_angle_alpha 90.000000
_cell_angle_beta 85.625214
_cell_angle_gamma 90.000000
_cell_volume 2186.214514
_symmetry_space_group_name_H-M "C 2/C"
_symmetry_group_IT_number 15
_symmetry_cell_setting 'monoclinic'
loop_
_space_group_symop_operation_xyz
x,y,z
-x,y,1/2-z
-x,-y,-z
x,-y,1/2+z
1/2+x,1/2+y,z
1/2-x,1/2+y,1/2-z
1/2-x,1/2-y,-z
1/2+x,1/2-y,1/2+z
loop_
_atom_site_type_symbol
_atom_site_label
_atom_site_fract_x
_atom_site_fract_y
_atom_site_fract_z
Si Si1 0.097652 0.784998 0.889075
Si Si2 0.552698 0.383540 0.070570
Si Si3 0.350592 0.076959 0.495975
Si Si4 0.604613 0.810199 0.604025
Si Si5 0.195111 0.494028 0.229192
Si Si6 0.617473 0.537471 0.042989
O O1 0.250028 0.800630 0.828388
O O2 0.000000 0.791365 0.750000
O O3 0.060460 0.822695 0.036698
O O4 0.085608 0.727130 0.956341
O O5 0.500000 0.393607 0.250000
O O6 0.445396 0.405089 0.952955
O O7 0.691508 0.414476 0.034530
O O8 0.420483 0.132466 0.466660
O O9 0.394351 0.042818 0.646706
O O10 0.387429 0.042108 0.339993
O O11 0.500000 0.798558 0.750000
O O12 0.327005 0.520656 0.294384
O O13 0.252422 0.460104 0.081984
O O14 0.500000 0.500000 0.000000
#
# Coordination Sequence:
#
# PCOD8132883 Si02
#       6
#     8   8   8   8   8   8
#     4  10  24  42  69 100 121 158 223 269 320 386
#     4  11  19  30  52  88 129 167 194 260 328 379
#     4  10  21  34  56  82 124 168 211 251 314 373
#     4  10  23  47  66  88 133 171 203 269 327 371
#     4  10  19  30  47  85 123 163 209 256 299 381
#     4  11  17  25  46  79 126 164 195 249 328 372
#
# _framework density 21.955760000000001
#
# number of rings (size 3 to 8) (size 9 to 14) (size 15 to 20)
#    0.000    1.667    5.000    1.000    4.667    0.667 
#    0.000    4.167    0.000    0.000    0.000    0.000 
#    0.000    0.000    0.000    0.000    0.000    0.000 
#
# Total GULP energy -297411.492944 kJ/mol
# GULP energy per Si atom -12392.145539 kJ/mol
# Density = 2.190579 g / cm^3
# Si number density = 21.955760 Si / 1000 Ang^3
#
#
#
# Elastic Constant Matrix: (Units=GPa)
#
#
# Indices 1 2 3 4 5 6 
#
# 1 48.0281 17.7607 25.9379 0.0000 -14.6549 0.0000
# 2 17.7607 140.2599 40.0365 0.0000 -4.4548 0.0000
# 3 25.9379 40.0365 91.5441 0.0000 -4.0165 0.0000
# 4 0.0000 0.0000 0.0000 30.7031 0.0000 -1.4715
# 5 -14.6549 -4.4548 -4.0165 0.0000 24.1319 0.0000
# 6 0.0000 0.0000 0.0000 -1.4715 0.0000 26.8283
#
#
#
# Elastic Compliance Matrix: (Units=1/GPa)
#
#
# Indices 1 2 3 4 5 6 
#
# 1 0.030435 -0.001217 -0.007344 0.000000 0.017036 0.000000
# 2 -0.001217 0.008215 -0.003238 0.000000 0.000239 0.000000
# 3 -0.007344 -0.003238 0.014303 0.000000 -0.002677 0.000000
# 4 0.000000 0.000000 0.000000 0.032656 0.000000 0.001791
# 5 0.017036 0.000239 -0.002677 0.000000 0.051383 0.000000
# 6 0.000000 0.000000 0.000000 0.001791 0.000000 0.037372
#
#
# Mechanical properties :
#
#
# Convention : Reuss Voigt Hill
#
# Bulk Modulus (GPa) = 34.06308 49.70026 41.88167
# Shear Modulus (GPa) = 24.06762 29.40581 26.73672
#
# Velocity S-wave (km/s) = 3.31446 3.66364 3.49342
# Velocity P-wave (km/s) = 5.49506 6.37041 5.94885
#
# Compressibility (1/GPa) = 0.02935730
#
# Stress axis : x y z
#
# Youngs Moduli (GPa) = 32.85638 121.72137 69.91472
#
# Poissons Ratio (x) = 0.14808 0.51346
# Poissons Ratio (y) = 0.03997 0.22637
# Poissons Ratio (z) = 0.24130 0.39411
#
# Static dielectric constant tensor:
#      x y z
#    x 3.779580 0.000000 0.022350 
#    y 0.000000 4.216920 0.000000 
#    z 0.022350 0.000000 3.968100 
# 
# 
# High freq. dielectric constant tensor:
#      x y z
#    x 1.848600 0.000000 -0.011220 
#    y 0.000000 1.869430 0.000000 
#    z -0.011220 0.000000 1.860840 
# 
# From -- ./inp_files/33068.got.cif
#   From: 2010.06.25/outbox.cif.g09.slc.cpg/sg15_17_cif.got.tgz:33068.got - 2010.06.28 07:06:18.
