data_PCOD8132887
_publ_section_title
;
Structure prediction by ZEFSAII (Michael W. Deem and Ramdas Pophale) SiO2 
 PCOD8132887
Probable space group: C 2/C
;
_chemical_formula_sum "Si O2"
_cell_formula_units_Z 56
_cell_length_a 24.280981
_cell_length_b 17.372997
_cell_length_c 9.069712
_cell_angle_alpha 90.000000
_cell_angle_beta 124.081310
_cell_angle_gamma 90.000000
_cell_volume 3168.781798
_symmetry_space_group_name_H-M "C 2/C"
_symmetry_group_IT_number 15
_symmetry_cell_setting 'monoclinic'
loop_
_space_group_symop_operation_xyz
x,y,z
-x,y,1/2-z
-x,-y,-z
x,-y,1/2+z
1/2+x,1/2+y,z
1/2-x,1/2+y,1/2-z
1/2-x,1/2-y,-z
1/2+x,1/2-y,1/2+z
loop_
_atom_site_type_symbol
_atom_site_label
_atom_site_fract_x
_atom_site_fract_y
_atom_site_fract_z
Si Si1 0.548297 0.974807 0.946706
Si Si2 0.652459 0.894586 0.543112
Si Si3 0.167816 0.751125 0.233124
Si Si4 0.291313 0.586090 0.751112
Si Si5 0.676952 0.723726 0.068343
Si Si6 0.660015 0.135124 0.717687
Si Si7 0.212633 0.937505 0.599573
O O1 0.500000 0.941327 0.750000
O O2 0.591057 0.046963 0.951378
O O3 0.500000 0.000000 0.000000
O O4 0.592616 0.905796 0.071921
O O5 0.628417 0.813012 0.579117
O O6 0.676694 0.877312 0.413548
O O7 0.712742 0.932868 0.723273
O O8 0.160814 0.838943 0.161537
O O9 0.244439 0.727812 0.339440
O O10 0.142174 0.748111 0.364016
O O11 0.218519 0.604214 0.703227
O O12 0.321589 0.515631 0.891168
O O13 0.282178 0.560591 0.568711
O O14 0.651689 0.773686 0.168813
O O15 0.665009 0.632910 0.080725
#
# Coordination Sequence:
#
# PCOD8132887 Si02
#       7
#     8   8   8   8   8   8   8
#     4  12  26  38  48  70  96 130 174 212 242 283
#     4  11  21  33  49  68  93 128 165 206 246 285
#     4   8  17  31  47  67  94 127 158 193 243 296
#     4  10  19  30  48  72  99 130 160 194 244 295
#     4   8  17  31  47  67  94 127 158 193 243 297
#     4  11  21  33  49  68  93 128 165 206 246 284
#     4  10  19  30  48  72  99 130 160 194 244 296
#
# _framework density 17.672407
#
# number of rings (size 3 to 8) (size 9 to 14) (size 15 to 20)
#    0.000    2.000    2.857    3.429    4.000    6.286 
#    0.000    0.000    0.000    0.000    0.000    0.000 
#    0.000    2.286    0.000    0.143    0.000    0.143 
#
# Total GULP energy -347025.038594 kJ/mol
# GULP energy per Si atom -12393.751378 kJ/mol
# Density = 1.763218 g / cm^3
# Si number density = 17.672407 Si / 1000 Ang^3
#
#
#
# Elastic Constant Matrix: (Units=GPa)
#
#
# Indices 1 2 3 4 5 6 
#
# 1 32.7042 2.2919 2.3778 0.0000 -10.4132 0.0000
# 2 2.2919 97.7670 13.4570 0.0000 -5.4488 0.0000
# 3 2.3778 13.4570 58.0902 0.0000 -11.8229 0.0000
# 4 0.0000 0.0000 0.0000 27.3432 0.0000 -12.5692
# 5 -10.4132 -5.4488 -11.8229 0.0000 23.3075 0.0000
# 6 0.0000 0.0000 0.0000 -12.5692 0.0000 18.4808
#
#
#
# Elastic Compliance Matrix: (Units=1/GPa)
#
#
# Indices 1 2 3 4 5 6 
#
# 1 0.035858 -0.000173 0.002035 0.000000 0.017012 0.000000
# 2 -0.000173 0.010605 -0.002187 0.000000 0.001293 0.000000
# 3 0.002035 -0.002187 0.019759 0.000000 0.010421 0.000000
# 4 0.000000 0.000000 0.000000 0.053207 0.000000 0.036187
# 5 0.017012 0.001293 0.010421 0.000000 0.056093 0.000000
# 6 0.000000 0.000000 0.000000 0.036187 0.000000 0.078722
#
#
# Mechanical properties :
#
#
# Convention : Reuss Voigt Hill
#
# Bulk Modulus (GPa) = 15.25012 24.97941 20.11476
# Shear Modulus (GPa) = 18.06680 25.18862 21.62771
#
# Velocity S-wave (km/s) = 3.20084 3.77942 3.50210
# Velocity P-wave (km/s) = 4.72319 5.76288 5.26874
#
# Compressibility (1/GPa) = 0.06557328
#
# Stress axis : x y z
#
# Youngs Moduli (GPa) = 27.88777 94.29082 50.61049
#
# Poissons Ratio (x) = 0.01627 -0.10297
# Poissons Ratio (y) = 0.00481 0.11066
# Poissons Ratio (z) = -0.05674 0.20618
#
# Static dielectric constant tensor:
#      x y z
#    x 2.946000 0.000000 -0.303720 
#    y 0.000000 1.958240 0.000000 
#    z -0.303720 0.000000 3.241630 
# 
# 
# High freq. dielectric constant tensor:
#      x y z
#    x 1.630010 0.000000 -0.042830 
#    y 0.000000 1.704250 0.000000 
#    z -0.042830 0.000000 1.670400 
# 
# From -- ./inp_files/62564.got.cif
#   From: 2010.06.25/outbox.cif.g09.slc.cpg/sg15_32_cif.got.tgz:62564.got - 2010.06.28 07:06:18.
