data_PCOD8132666
_publ_section_title
;
Structure prediction by ZEFSAII (Michael W. Deem and Ramdas Pophale) SiO2 
 PCOD8132666
Probable space group: C 2/C
;
_chemical_formula_sum "Si O2"
_cell_formula_units_Z 56
_cell_length_a 10.405994
_cell_length_b 16.508562
_cell_length_c 16.890349
_cell_angle_alpha 90.000000
_cell_angle_beta 66.256942
_cell_angle_gamma 90.000000
_cell_volume 2655.972034
_symmetry_space_group_name_H-M "C 2/C"
_symmetry_group_IT_number 15
_symmetry_cell_setting 'monoclinic'
loop_
_space_group_symop_operation_xyz
x,y,z
-x,y,1/2-z
-x,-y,-z
x,-y,1/2+z
1/2+x,1/2+y,z
1/2-x,1/2+y,1/2-z
1/2-x,1/2-y,-z
1/2+x,1/2-y,1/2+z
loop_
_atom_site_type_symbol
_atom_site_label
_atom_site_fract_x
_atom_site_fract_y
_atom_site_fract_z
Si Si1 0.242477 0.561785 0.745852
Si Si2 0.356138 0.416289 0.818144
Si Si3 0.377728 0.018012 0.370576
Si Si4 0.010820 0.163561 0.841219
Si Si5 0.944210 0.594685 0.575021
Si Si6 0.558249 0.159793 0.392927
Si Si7 0.194771 0.033643 0.546938
O O1 0.331331 0.496370 0.772343
O O2 0.134983 0.510580 0.717267
O O3 0.347039 0.616675 0.668166
O O4 0.158232 0.622333 0.826800
O O5 0.500000 0.374229 0.750000
O O6 0.226798 0.353368 0.847139
O O7 0.381285 0.452151 0.901400
O O8 0.483106 0.093788 0.354901
O O9 0.220913 0.036282 0.445402
O O10 0.425053 0.943953 0.413352
O O11 0.016184 0.253982 0.870403
O O12 0.000000 0.162432 0.750000
O O13 0.879353 0.117887 0.912370
O O14 0.852157 0.529968 0.547597
O O15 0.002014 0.660525 0.498036
#
# Coordination Sequence:
#
# PCOD8132666 Si02
#       7
#     8   8   8   8   8   8   8
#     4  11  22  37  63  95 126 171 207 264 313 378
#     4  11  19  40  66  86 122 171 213 250 317 379
#     4  11  21  36  67 100 119 161 226 260 297 383
#     4  12  24  42  60  93 137 167 205 265 332 366
#     4  10  19  38  63  91 125 167 210 253 320 364
#     4  11  24  39  67  96 123 166 215 271 305 375
#     4  10  18  39  65  89 126 171 205 253 322 379
#
# _framework density 21.084558000000001
#
# number of rings (size 3 to 8) (size 9 to 14) (size 15 to 20)
#    0.000    1.143    8.571    1.286    2.000    2.857 
#    0.000    2.143    0.000    0.000    0.000    0.000 
#    0.000    0.000    0.000    0.000    0.000    0.000 
#
# Total GULP energy -346867.293024 kJ/mol
# GULP energy per Si atom -12388.117608 kJ/mol
# Density = 2.103657 g / cm^3
# Si number density = 21.084558 Si / 1000 Ang^3
#
#
#
# Elastic Constant Matrix: (Units=GPa)
#
#
# Indices 1 2 3 4 5 6 
#
# 1 75.0259 25.2741 40.1297 0.0000 -10.6920 0.0000
# 2 25.2741 41.7390 0.8732 0.0000 9.2862 0.0000
# 3 40.1297 0.8732 85.9770 0.0000 -16.9403 0.0000
# 4 0.0000 0.0000 0.0000 22.6177 0.0000 -5.9824
# 5 -10.6920 9.2862 -16.9403 0.0000 26.4841 0.0000
# 6 0.0000 0.0000 0.0000 -5.9824 0.0000 20.0787
#
#
#
# Elastic Compliance Matrix: (Units=1/GPa)
#
#
# Indices 1 2 3 4 5 6 
#
# 1 0.026246 -0.018025 -0.009994 0.000000 0.010524 0.000000
# 2 -0.018025 0.038788 0.004469 0.000000 -0.018019 0.000000
# 3 -0.009994 0.004469 0.017331 0.000000 0.005484 0.000000
# 4 0.000000 0.000000 0.000000 0.047995 0.000000 0.014300
# 5 0.010524 -0.018019 0.005484 0.000000 0.051833 0.000000
# 6 0.000000 0.000000 0.000000 0.014300 0.000000 0.054065
#
#
# Mechanical properties :
#
#
# Convention : Reuss Voigt Hill
#
# Bulk Modulus (GPa) = 28.35636 37.25511 32.80573
# Shear Modulus (GPa) = 16.94270 22.93378 19.93824
#
# Velocity S-wave (km/s) = 2.83779 3.30162 3.07845
# Velocity P-wave (km/s) = 4.92092 5.67820 5.31307
#
# Compressibility (1/GPa) = 0.03526545
#
# Stress axis : x y z
#
# Youngs Moduli (GPa) = 38.10119 25.78097 57.70113
#
# Poissons Ratio (x) = 0.46470 0.57665
# Poissons Ratio (y) = 0.68677 -0.25785
# Poissons Ratio (z) = 0.38077 -0.11521
#
# Static dielectric constant tensor:
#      x y z
#    x 3.764290 0.000000 -0.249820 
#    y 0.000000 3.272750 0.000000 
#    z -0.249820 0.000000 4.540960 
# 
# 
# High freq. dielectric constant tensor:
#      x y z
#    x 1.816990 0.000000 -0.021400 
#    y 0.000000 1.769020 0.000000 
#    z -0.021400 0.000000 1.855430 
# 
# From -- ./inp_files/199064.got.cif
#   From: 2010.06.25/outbox.cif.g09.slc.cpg/sg15_100_cif.got.tgz:199064.got - 2010.06.28 07:06:18.
