data_PCOD8132454
_publ_section_title
;
Structure prediction by ZEFSAII (Michael W. Deem and Ramdas Pophale) SiO2 
 PCOD8132454
Probable space group: C 2/C
;
_chemical_formula_sum "Si O2"
_cell_formula_units_Z 40
_cell_length_a 7.349678
_cell_length_b 16.790886
_cell_length_c 20.515817
_cell_angle_alpha 90.000000
_cell_angle_beta 132.563060
_cell_angle_gamma 90.000000
_cell_volume 1864.760873
_symmetry_space_group_name_H-M "C 2/C"
_symmetry_group_IT_number 15
_symmetry_cell_setting 'monoclinic'
loop_
_space_group_symop_operation_xyz
x,y,z
-x,y,1/2-z
-x,-y,-z
x,-y,1/2+z
1/2+x,1/2+y,z
1/2-x,1/2+y,1/2-z
1/2-x,1/2-y,-z
1/2+x,1/2-y,1/2+z
loop_
_atom_site_type_symbol
_atom_site_label
_atom_site_fract_x
_atom_site_fract_y
_atom_site_fract_z
Si Si1 0.674394 0.751850 0.848069
Si Si2 0.003588 0.375328 0.007982
Si Si3 0.242578 0.315391 0.673513
Si Si4 0.736757 0.415881 0.699755
Si Si5 0.344361 0.498051 0.028948
O O1 0.500000 0.713303 0.750000
O O2 0.895759 0.694436 0.921728
O O3 0.498902 0.764255 0.868313
O O4 0.785279 0.835466 0.849721
O O5 0.224425 0.412190 0.016580
O O6 0.785049 0.342191 0.908232
O O7 0.883265 0.439493 0.027908
O O8 0.500000 0.266954 0.750000
O O9 0.271496 0.393604 0.726217
O O10 0.526467 0.479145 0.631963
O O11 0.000000 0.457454 0.750000
O O12 0.500000 0.500000 0.000000
#
# Coordination Sequence:
#
# PCOD8132454 Si02
#       5
#     8   8   8   8   8
#     4   9  21  41  60  93 126 157 207 265 315 370
#     4  11  23  41  64  91 126 165 206 265 312 364
#     4  10  18  37  64  90 117 163 210 247 313 378
#     4   9  19  39  63  86 121 164 209 254 306 378
#     4  11  23  41  58  93 124 162 216 250 313 382
#
# _framework density 21.450469999999999
#
# number of rings (size 3 to 8) (size 9 to 14) (size 15 to 20)
#    0.000    2.400    2.000    3.000    0.000    0.800 
#   18.000    0.000    0.000    0.000    0.000    0.000 
#    0.000    0.000    0.000    0.000    0.000    0.000 
#
# Total GULP energy -247876.748579 kJ/mol
# GULP energy per Si atom -12393.837429 kJ/mol
# Density = 2.140165 g / cm^3
# Si number density = 21.450470 Si / 1000 Ang^3
#
#
#
# Elastic Constant Matrix: (Units=GPa)
#
#
# Indices 1 2 3 4 5 6 
#
# 1 98.6684 13.1281 8.3670 0.0002 -0.9739 0.0000
# 2 13.1281 52.6398 37.0698 0.0000 12.0275 0.0000
# 3 8.3670 37.0698 118.5543 0.0002 11.3274 0.0003
# 4 0.0002 0.0000 0.0002 31.2260 0.0003 9.4719
# 5 -0.9739 12.0275 11.3274 0.0003 37.0836 0.0002
# 6 0.0000 0.0000 0.0003 9.4719 0.0002 24.2314
#
#
#
# Elastic Compliance Matrix: (Units=1/GPa)
#
#
# Indices 1 2 3 4 5 6 
#
# 1 0.010534 -0.002949 0.000063 0.000000 0.001214 0.000000
# 2 -0.002949 0.026434 -0.007448 0.000000 -0.006376 0.000000
# 3 0.000063 -0.007448 0.010845 0.000000 -0.000895 0.000000
# 4 0.000000 0.000000 0.000000 0.036333 0.000000 -0.014202
# 5 0.001214 -0.006376 -0.000895 0.000000 0.029339 0.000000
# 6 0.000000 0.000000 0.000000 -0.014202 0.000000 0.046820
#
#
# Mechanical properties :
#
#
# Convention : Reuss Voigt Hill
#
# Bulk Modulus (GPa) = 36.83942 42.99915 39.91928
# Shear Modulus (GPa) = 26.31269 32.59472 29.45371
#
# Velocity S-wave (km/s) = 3.50619 3.90235 3.70956
# Velocity P-wave (km/s) = 5.79677 6.35561 6.08261
#
# Compressibility (1/GPa) = 0.02714484
#
# Stress axis : x y z
#
# Youngs Moduli (GPa) = 94.93122 37.82959 92.20821
#
# Poissons Ratio (x) = 0.11154 -0.00577
# Poissons Ratio (y) = 0.27990 0.68679
# Poissons Ratio (z) = -0.00594 0.28176
#
# Static dielectric constant tensor:
#      x y z
#    x 4.248710 0.000000 0.211500 
#    y 0.000000 3.437740 0.000000 
#    z 0.211500 0.000000 3.828000 
# 
# 
# High freq. dielectric constant tensor:
#      x y z
#    x 1.864260 0.000000 0.012910 
#    y 0.000000 1.789960 0.000000 
#    z 0.012910 0.000000 1.843010 
# 
# From -- ./inp_files/192379.got.cif
#   From: 2010.06.25/outbox.cif.g09.slc.cpg/sg15_97_cif.got.tgz:192379.got - 2010.06.28 07:06:18.
