data_PCOD8132269
_publ_section_title
;
Structure prediction by ZEFSAII (Michael W. Deem and Ramdas Pophale) SiO2 
 PCOD8132269
Probable space group: C 2/C
;
_chemical_formula_sum "Si O2"
_cell_formula_units_Z 40
_cell_length_a 22.619084
_cell_length_b 7.650634
_cell_length_c 19.297485
_cell_angle_alpha 90.000000
_cell_angle_beta 143.898809
_cell_angle_gamma 90.000000
_cell_volume 1967.639736
_symmetry_space_group_name_H-M "C 2/C"
_symmetry_group_IT_number 15
_symmetry_cell_setting 'monoclinic'
loop_
_space_group_symop_operation_xyz
x,y,z
-x,y,1/2-z
-x,-y,-z
x,-y,1/2+z
1/2+x,1/2+y,z
1/2-x,1/2+y,1/2-z
1/2-x,1/2-y,-z
1/2+x,1/2-y,1/2+z
loop_
_atom_site_type_symbol
_atom_site_label
_atom_site_fract_x
_atom_site_fract_y
_atom_site_fract_z
Si Si1 0.329409 0.630117 0.763111
Si Si2 0.678856 0.560249 0.374897
Si Si3 0.833553 0.477895 0.286119
Si Si4 0.317205 0.635393 0.971139
Si Si5 0.036298 0.825850 0.631952
O O1 0.310241 0.616538 0.661267
O O2 0.225584 0.578711 0.701379
O O3 0.415385 0.488779 0.865499
O O4 0.367353 0.820371 0.822287
O O5 0.662946 0.518273 0.441000
O O6 0.779741 0.674304 0.459647
O O7 0.583011 0.668970 0.254277
O O8 0.932098 0.357334 0.373559
O O9 0.762645 0.461117 0.152147
O O10 0.417166 0.659534 0.020663
#
# Coordination Sequence:
#
# PCOD8132269 Si02
#       5
#     8   8   8   8   8
#     4  10  20  39  55  79 120 147 180 237 283 321
#     4   8  19  36  57  80 115 146 179 237 273 332
#     4  11  20  38  58  82 115 149 185 234 286 328
#     4  10  18  36  62  82 108 153 188 224 287 332
#     4   9  20  36  59  80 113 146 185 231 278 333
#
# _framework density 20.328925000000002
#
# number of rings (size 3 to 8) (size 9 to 14) (size 15 to 20)
#    1.200    1.200    2.000    0.600    0.000    1.600 
#    3.600    2.000   13.200    0.000    0.000    0.000 
#    0.000    0.000    0.000    0.000    0.000    0.000 
#
# Total GULP energy -247838.415146 kJ/mol
# GULP energy per Si atom -12391.920757 kJ/mol
# Density = 2.028266 g / cm^3
# Si number density = 20.328925 Si / 1000 Ang^3
#
#
#
# Elastic Constant Matrix: (Units=GPa)
#
#
# Indices 1 2 3 4 5 6 
#
# 1 74.8804 32.6311 -6.1668 0.0000 4.6648 0.0000
# 2 32.6311 136.0393 2.2139 0.0000 6.9719 0.0000
# 3 -6.1668 2.2139 15.7612 0.0000 8.8271 0.0000
# 4 0.0000 0.0000 0.0000 12.2196 0.0000 -2.4476
# 5 4.6648 6.9719 8.8271 0.0000 27.1323 0.0000
# 6 0.0000 0.0000 0.0000 -2.4476 0.0000 27.9329
#
#
#
# Elastic Compliance Matrix: (Units=1/GPa)
#
#
# Indices 1 2 3 4 5 6 
#
# 1 0.016089 -0.003763 0.009576 0.000000 -0.004915 0.000000
# 2 -0.003763 0.008329 -0.002209 0.000000 -0.000775 0.000000
# 3 0.009576 -0.002209 0.083283 0.000000 -0.028174 0.000000
# 4 0.000000 0.000000 0.000000 0.083298 0.000000 0.007299
# 5 -0.004915 -0.000775 -0.028174 0.000000 0.047066 0.000000
# 6 0.000000 0.000000 0.000000 0.007299 0.000000 0.036440
#
#
# Mechanical properties :
#
#
# Convention : Reuss Voigt Hill
#
# Bulk Modulus (GPa) = 8.70241 31.55970 20.13106
# Shear Modulus (GPa) = 16.36127 26.65714 21.50920
#
# Velocity S-wave (km/s) = 2.84003 3.62510 3.25631
# Velocity P-wave (km/s) = 3.87871 5.75153 4.90533
#
# Compressibility (1/GPa) = 0.11491075
#
# Stress axis : x y z
#
# Youngs Moduli (GPa) = 62.15269 120.06043 12.00724
#
# Poissons Ratio (x) = 0.45182 -0.11499
# Poissons Ratio (y) = 0.23390 0.02652
# Poissons Ratio (z) = -0.59520 0.26516
#
# Static dielectric constant tensor:
#      x y z
#    x 3.681730 0.000000 -0.138640 
#    y 0.000000 3.464940 0.000000 
#    z -0.138640 0.000000 3.388770 
# 
# 
# High freq. dielectric constant tensor:
#      x y z
#    x 1.796890 0.000000 -0.007150 
#    y 0.000000 1.768880 0.000000 
#    z -0.007150 0.000000 1.778560 
# 
# From -- ./inp_files/175961.got.cif
#   From: 2010.06.25/outbox.cif.g09.slc.cpg/sg15_88_cif.got.tgz:175961.got - 2010.06.28 07:06:18.
