data_PCOD8132952
_publ_section_title
;
Structure prediction by ZEFSAII (Michael W. Deem and Ramdas Pophale) SiO2 
 PCOD8132952
Probable space group: C 2/C
;
_chemical_formula_sum "Si O2"
_cell_formula_units_Z 64
_cell_length_a 17.196724
_cell_length_b 22.295132
_cell_length_c 8.304671
_cell_angle_alpha 90.000000
_cell_angle_beta 93.954551
_cell_angle_gamma 90.000000
_cell_volume 3176.456726
_symmetry_space_group_name_H-M "C 2/C"
_symmetry_group_IT_number 15
_symmetry_cell_setting 'monoclinic'
loop_
_space_group_symop_operation_xyz
x,y,z
-x,y,1/2-z
-x,-y,-z
x,-y,1/2+z
1/2+x,1/2+y,z
1/2-x,1/2+y,1/2-z
1/2-x,1/2-y,-z
1/2+x,1/2-y,1/2+z
loop_
_atom_site_type_symbol
_atom_site_label
_atom_site_fract_x
_atom_site_fract_y
_atom_site_fract_z
Si Si1 0.576391 0.955803 0.170844
Si Si2 0.182254 0.709932 0.188520
Si Si3 0.446159 0.174427 0.890569
Si Si4 0.314856 0.018962 0.545346
Si Si5 0.153573 0.262535 0.344748
Si Si6 0.083029 0.148479 0.200928
Si Si7 0.756389 0.915066 0.753564
Si Si8 0.561930 0.274897 0.384762
O O1 0.500000 0.982297 0.250000
O O2 0.552442 0.895807 0.071191
O O3 0.647971 0.942015 0.304800
O O4 0.608124 0.002495 0.046374
O O5 0.257164 0.747215 0.154330
O O6 0.203110 0.644556 0.264227
O O7 0.140000 0.752265 0.310399
O O8 0.134707 0.704150 0.012434
O O9 0.500000 0.192293 0.750000
O O10 0.361647 0.195276 0.812907
O O11 0.474245 0.213654 0.045328
O O12 0.255909 0.057264 0.427246
O O13 0.269705 0.961047 0.610199
O O14 0.102180 0.201766 0.328115
O O15 0.151425 0.098502 0.215572
O O16 0.000000 0.120933 0.250000
O O17 0.079894 0.173942 0.018199
O O18 0.500000 0.301804 0.250000
#
# Coordination Sequence:
#
# PCOD8132952 Si02
#       8
#     8   8   8   8   8   8   8   8
#     4  10  20  34  54  79 109 148 186 225 275 329
#     4  10  19  32  53  81 109 141 179 214 267 339
#     4  10  19  31  48  72 105 141 172 207 260 324
#     4  10  21  38  56  78 110 144 195 246 280 321
#     4   9  18  32  52  78 111 144 169 209 270 342
#     4  10  21  39  59  81 115 150 184 232 294 349
#     4  10  22  39  59  81 108 150 193 240 290 331
#     4  11  21  33  53  83 115 142 177 222 270 337
#
# _framework density 20.148235
#
# number of rings (size 3 to 8) (size 9 to 14) (size 15 to 20)
#    0.000    2.000    0.000    4.875    0.000    6.500 
#    0.000    8.750    0.000    0.000    0.000    0.000 
#    0.000    0.000    0.000    0.000    0.000    0.000 
#
# Total GULP energy -396585.140364 kJ/mol
# GULP energy per Si atom -12393.285636 kJ/mol
# Density = 2.010238 g / cm^3
# Si number density = 20.148235 Si / 1000 Ang^3
#
#
#
# Elastic Constant Matrix: (Units=GPa)
#
#
# Indices 1 2 3 4 5 6 
#
# 1 95.1574 33.9955 28.4717 0.0000 3.4493 0.0000
# 2 33.9955 59.7818 25.8837 0.0000 -3.4091 0.0000
# 3 28.4717 25.8837 88.4417 0.0000 10.9752 0.0000
# 4 0.0000 0.0000 0.0000 23.3922 0.0000 2.7337
# 5 3.4493 -3.4091 10.9752 0.0000 22.6954 0.0000
# 6 0.0000 0.0000 0.0000 2.7337 0.0000 20.8158
#
#
#
# Elastic Compliance Matrix: (Units=1/GPa)
#
#
# Indices 1 2 3 4 5 6 
#
# 1 0.013720 -0.007013 -0.002101 0.000000 -0.002123 0.000000
# 2 -0.007013 0.023525 -0.005530 0.000000 0.007274 0.000000
# 3 -0.002101 -0.005530 0.014537 0.000000 -0.007541 0.000000
# 4 0.000000 0.000000 0.000000 0.043416 0.000000 -0.005702
# 5 -0.002123 0.007274 -0.007541 0.000000 0.049124 0.000000
# 6 0.000000 0.000000 0.000000 -0.005702 0.000000 0.048789
#
#
# Mechanical properties :
#
#
# Convention : Reuss Voigt Hill
#
# Bulk Modulus (GPa) = 44.45580 46.67585 45.56582
# Shear Modulus (GPa) = 21.74889 23.71602 22.73246
#
# Velocity S-wave (km/s) = 3.28905 3.43458 3.36260
# Velocity P-wave (km/s) = 6.04451 6.24059 6.14333
#
# Compressibility (1/GPa) = 0.02249425
#
# Stress axis : x y z
#
# Youngs Moduli (GPa) = 72.88609 42.50846 68.78821
#
# Poissons Ratio (x) = 0.29813 0.14451
# Poissons Ratio (y) = 0.51119 0.38037
# Poissons Ratio (z) = 0.15312 0.23506
#
# Static dielectric constant tensor:
#      x y z
#    x 3.859570 0.000000 0.337500 
#    y 0.000000 3.371860 0.000000 
#    z 0.337500 0.000000 4.423830 
# 
# 
# High freq. dielectric constant tensor:
#      x y z
#    x 1.789280 0.000000 0.005940 
#    y 0.000000 1.754430 0.000000 
#    z 0.005940 0.000000 1.796510 
# 
# From -- ./inp_files/51244.got.cif
#   From: 2010.06.25/outbox.cif.g09.slc.cpg/sg15_26_cif.got.tgz:51244.got - 2010.06.28 07:06:18.
