data_PCOD8132257
_publ_section_title
;
Structure prediction by ZEFSAII (Michael W. Deem and Ramdas Pophale) SiO2 
 PCOD8132257
Probable space group: C 2/C
;
_chemical_formula_sum "Si O2"
_cell_formula_units_Z 56
_cell_length_a 13.581247
_cell_length_b 13.939100
_cell_length_c 15.999025
_cell_angle_alpha 90.000000
_cell_angle_beta 69.151967
_cell_angle_gamma 90.000000
_cell_volume 2830.479761
_symmetry_space_group_name_H-M "C 2/C"
_symmetry_group_IT_number 15
_symmetry_cell_setting 'monoclinic'
loop_
_space_group_symop_operation_xyz
x,y,z
-x,y,1/2-z
-x,-y,-z
x,-y,1/2+z
1/2+x,1/2+y,z
1/2-x,1/2+y,1/2-z
1/2-x,1/2-y,-z
1/2+x,1/2-y,1/2+z
loop_
_atom_site_type_symbol
_atom_site_label
_atom_site_fract_x
_atom_site_fract_y
_atom_site_fract_z
Si Si1 0.235861 0.328741 0.152288
Si Si2 0.371047 0.134024 0.651341
Si Si3 0.632758 0.844847 0.905815
Si Si4 0.602934 0.448759 0.506623
Si Si5 0.443661 0.746400 0.410530
Si Si6 0.707766 0.034031 0.975030
Si Si7 0.486051 0.965600 0.852106
O O1 0.203617 0.383387 0.246794
O O2 0.280782 0.224232 0.162346
O O3 0.134882 0.308438 0.123955
O O4 0.321608 0.398016 0.084260
O O5 0.433057 0.234307 0.647755
O O6 0.306578 0.124832 0.583625
O O7 0.463540 0.055391 0.614895
O O8 0.687748 0.936515 0.930124
O O9 0.550215 0.871110 0.858517
O O10 0.571574 0.781393 0.990986
O O11 0.500000 0.500000 0.500000
O O12 0.572745 0.368435 0.585515
O O13 0.671466 0.532039 0.530445
O O14 0.633866 0.042760 0.079689
O O15 0.500000 0.981667 0.750000
#
# Coordination Sequence:
#
# PCOD8132257 Si02
#       7
#     8   8   8   8   8   8   8
#     4  11  21  38  63  87 118 159 215 247 295 360
#     4  11  21  35  62  94 119 152 207 261 298 357
#     4  10  18  36  61  86 115 155 200 247 301 353
#     4  11  23  40  61  89 123 165 201 246 315 368
#     4  11  18  39  65  88 116 157 207 253 297 359
#     4  11  19  40  62  88 123 160 193 259 313 348
#     4  11  20  34  62  93 121 149 203 256 307 356
#
# _framework density 19.784631999999998
#
# number of rings (size 3 to 8) (size 9 to 14) (size 15 to 20)
#    0.000    1.143    5.714    3.857    0.000    0.000 
#    7.714    4.286    0.000    0.000    0.000    0.000 
#    0.000    0.000    0.000    0.000    0.000    0.000 
#
# Total GULP energy -347041.484638 kJ/mol
# GULP energy per Si atom -12394.338737 kJ/mol
# Density = 1.973960 g / cm^3
# Si number density = 19.784632 Si / 1000 Ang^3
#
#
#
# Elastic Constant Matrix: (Units=GPa)
#
#
# Indices 1 2 3 4 5 6 
#
# 1 148.5523 46.9196 44.1644 0.0000 -7.5264 0.0000
# 2 46.9196 52.6597 26.3888 0.0000 -7.7943 0.0000
# 3 44.1644 26.3888 98.1472 0.0000 -0.8070 0.0000
# 4 0.0000 0.0000 0.0000 18.8206 0.0000 -0.0886
# 5 -7.5264 -7.7943 -0.8070 0.0000 22.0028 0.0000
# 6 0.0000 0.0000 0.0000 -0.0886 0.0000 38.1594
#
#
#
# Elastic Compliance Matrix: (Units=1/GPa)
#
#
# Indices 1 2 3 4 5 6 
#
# 1 0.009839 -0.007462 -0.002416 0.000000 0.000634 0.000000
# 2 -0.007462 0.028940 -0.004361 0.000000 0.007539 0.000000
# 3 -0.002416 -0.004361 0.012433 0.000000 -0.001915 0.000000
# 4 0.000000 0.000000 0.000000 0.053134 0.000000 0.000123
# 5 0.000634 0.007539 -0.001915 0.000000 0.048266 0.000000
# 6 0.000000 0.000000 0.000000 0.000123 0.000000 0.026206
#
#
# Mechanical properties :
#
#
# Convention : Reuss Voigt Hill
#
# Bulk Modulus (GPa) = 43.98838 59.36721 51.67779
# Shear Modulus (GPa) = 23.26955 27.92232 25.59593
#
# Velocity S-wave (km/s) = 3.43321 3.76082 3.60075
# Velocity P-wave (km/s) = 6.16424 6.99502 6.59273
#
# Compressibility (1/GPa) = 0.02273328
#
# Stress axis : x y z
#
# Youngs Moduli (GPa) = 101.63887 34.55443 80.43304
#
# Poissons Ratio (x) = 0.25784 0.19431
# Poissons Ratio (y) = 0.75842 0.35079
# Poissons Ratio (z) = 0.24554 0.15070
#
# Static dielectric constant tensor:
#      x y z
#    x 3.762600 0.000000 -0.094910 
#    y 0.000000 3.844340 0.000000 
#    z -0.094910 0.000000 3.497430 
# 
# 
# High freq. dielectric constant tensor:
#      x y z
#    x 1.763940 0.000000 -0.005120 
#    y 0.000000 1.751600 0.000000 
#    z -0.005120 0.000000 1.763830 
# 
# From -- ./inp_files/198226.got.cif
#   From: 2010.06.25/outbox.cif.g09.slc.cpg/sg15_100_cif.got.tgz:198226.got - 2010.06.28 07:06:18.
