data_PCOD8132209
_publ_section_title
;
Structure prediction by ZEFSAII (Michael W. Deem and Ramdas Pophale) SiO2 
 PCOD8132209
Probable space group: C 2/C
;
_chemical_formula_sum "Si O2"
_cell_formula_units_Z 44
_cell_length_a 9.001630
_cell_length_b 17.923654
_cell_length_c 17.545364
_cell_angle_alpha 90.000000
_cell_angle_beta 51.512865
_cell_angle_gamma 90.000000
_cell_volume 2215.807415
_symmetry_space_group_name_H-M "C 2/C"
_symmetry_group_IT_number 15
_symmetry_cell_setting 'monoclinic'
loop_
_space_group_symop_operation_xyz
x,y,z
-x,y,1/2-z
-x,-y,-z
x,-y,1/2+z
1/2+x,1/2+y,z
1/2-x,1/2+y,1/2-z
1/2-x,1/2-y,-z
1/2+x,1/2-y,1/2+z
loop_
_atom_site_type_symbol
_atom_site_label
_atom_site_fract_x
_atom_site_fract_y
_atom_site_fract_z
Si Si1 0.298240 0.222287 0.355970
Si Si2 0.500000 0.013960 0.750000
Si Si3 0.807518 0.884027 0.210298
Si Si4 0.265070 0.616819 0.898851
Si Si5 0.977452 0.601991 0.390669
Si Si6 0.695278 0.716381 0.230331
O O1 0.500000 0.240555 0.250000
O O2 0.236731 0.294642 0.422812
O O3 0.310304 0.151476 0.406470
O O4 0.152626 0.203753 0.333905
O O5 0.485284 0.966121 0.677698
O O6 0.311873 0.065365 0.810370
O O7 0.728392 0.898078 0.321284
O O8 0.785614 0.798473 0.189719
O O9 0.026820 0.908693 0.139611
O O10 0.106387 0.574754 0.000991
O O11 0.164302 0.651793 0.344671
O O12 0.500000 0.707166 0.250000
#
# Coordination Sequence:
#
# PCOD8132209 Si02
#       6
#     8   4   8   8   8   8
#     4   9  15  33  59  87 111 149 194 244 285 337
#     4  12  24  40  58  86 128 158 184 258 304 340
#     4  10  21  39  61  85 124 162 191 237 306 361
#     4  10  19  38  65  86 112 161 207 233 292 362
#     4  11  21  37  63  89 117 152 205 251 285 347
#     4  10  18  36  59  87 116 157 199 242 290 350
#
# _framework density 19.857322
#
# number of rings (size 3 to 8) (size 9 to 14) (size 15 to 20)
#    0.000    1.818    9.091    0.545    0.000    1.455 
#    3.273    5.455    0.000    0.000    0.000    0.000 
#    0.000    0.000    0.000    0.000    0.000    0.000 
#
# Total GULP energy -272656.903019 kJ/mol
# GULP energy per Si atom -12393.495592 kJ/mol
# Density = 1.981213 g / cm^3
# Si number density = 19.857322 Si / 1000 Ang^3
#
#
#
# Elastic Constant Matrix: (Units=GPa)
#
#
# Indices 1 2 3 4 5 6 
#
# 1 134.6750 32.7960 24.6479 0.0000 -7.1111 0.0000
# 2 32.7960 67.2567 23.3823 0.0000 -5.4487 0.0000
# 3 24.6479 23.3823 91.2235 0.0000 -1.1796 0.0000
# 4 0.0000 0.0000 0.0000 10.1139 0.0000 -1.2245
# 5 -7.1111 -5.4487 -1.1796 0.0000 12.6122 0.0000
# 6 0.0000 0.0000 0.0000 -1.2245 0.0000 32.5211
#
#
#
# Elastic Compliance Matrix: (Units=1/GPa)
#
#
# Indices 1 2 3 4 5 6 
#
# 1 0.008707 -0.003488 -0.001416 0.000000 0.003270 0.000000
# 2 -0.003488 0.018301 -0.003676 0.000000 0.005596 0.000000
# 3 -0.001416 -0.003676 0.012271 0.000000 -0.001239 0.000000
# 4 0.000000 0.000000 0.000000 0.099327 0.000000 0.003740
# 5 0.003270 0.005596 -0.001239 0.000000 0.083433 0.000000
# 6 0.000000 0.000000 0.000000 0.003740 0.000000 0.030890
#
#
# Mechanical properties :
#
#
# Convention : Reuss Voigt Hill
#
# Bulk Modulus (GPa) = 45.21310 50.53419 47.87364
# Shear Modulus (GPa) = 18.02050 25.20469 21.61259
#
# Velocity S-wave (km/s) = 3.01574 3.56657 3.30266
# Velocity P-wave (km/s) = 5.91140 6.51648 6.22130
#
# Compressibility (1/GPa) = 0.02211749
#
# Stress axis : x y z
#
# Youngs Moduli (GPa) = 114.85581 54.64266 81.49370
#
# Poissons Ratio (x) = 0.19061 0.11540
# Poissons Ratio (y) = 0.40066 0.29957
# Poissons Ratio (z) = 0.16264 0.20086
#
# Static dielectric constant tensor:
#      x y z
#    x 3.756260 0.000000 0.229710 
#    y 0.000000 3.476880 0.000000 
#    z 0.229710 0.000000 3.352860 
# 
# 
# High freq. dielectric constant tensor:
#      x y z
#    x 1.774600 0.000000 0.014600 
#    y 0.000000 1.760530 0.000000 
#    z 0.014600 0.000000 1.747960 
# 
# From -- ./inp_files/191449.got.cif
#   From: 2010.06.25/outbox.cif.g09.slc.cpg/sg15_96_cif.got.tgz:191449.got - 2010.06.28 07:06:18.
