data_PCOD8132863
_publ_section_title
;
Structure prediction by ZEFSAII (Michael W. Deem and Ramdas Pophale) SiO2 
 PCOD8132863
Probable space group: C 2/C
;
_chemical_formula_sum "Si O2"
_cell_formula_units_Z 40
_cell_length_a 21.334810
_cell_length_b 21.990172
_cell_length_c 5.230238
_cell_angle_alpha 90.000000
_cell_angle_beta 119.546351
_cell_angle_gamma 90.000000
_cell_volume 2134.699116
_symmetry_space_group_name_H-M "C 2/C"
_symmetry_group_IT_number 15
_symmetry_cell_setting 'monoclinic'
loop_
_space_group_symop_operation_xyz
x,y,z
-x,y,1/2-z
-x,-y,-z
x,-y,1/2+z
1/2+x,1/2+y,z
1/2-x,1/2+y,1/2-z
1/2-x,1/2-y,-z
1/2+x,1/2-y,1/2+z
loop_
_atom_site_type_symbol
_atom_site_label
_atom_site_fract_x
_atom_site_fract_y
_atom_site_fract_z
Si Si1 0.159469 0.273165 0.568401
Si Si2 0.415203 0.971752 0.466402
Si Si3 0.000000 0.639161 0.250000
Si Si4 0.776571 0.671323 0.804525
Si Si5 0.249737 0.469402 0.309721
Si Si6 0.500000 0.785653 0.250000
O O1 0.177936 0.313506 0.357273
O O2 0.205225 0.212139 0.674039
O O3 0.075935 0.249979 0.371555
O O4 0.174475 0.315499 0.847100
O O5 0.428871 0.900473 0.541535
O O6 0.332107 0.989145 0.306035
O O7 0.452135 0.007060 0.777715
O O8 0.982058 0.676804 0.462423
O O9 0.746449 0.602663 0.733448
O O10 0.286599 0.492948 0.648930
#
# Coordination Sequence:
#
# PCOD8132863 Si02
#       6
#     8   8   4   8   8   4
#     4  10  21  35  55  75 102 134 169 210 251 299
#     4  10  19  30  42  61  91 128 166 196 228 272
#     4  12  22  31  46  64  98 133 164 200 234 288
#     4  10  20  37  54  75 102 135 169 206 254 300
#     4  10  19  30  48  71  95 125 164 207 244 289
#     4  12  22  33  50  76  96 125 166 206 252 290
#
# _framework density 18.738005000000001
#
# number of rings (size 3 to 8) (size 9 to 14) (size 15 to 20)
#    0.000    1.600    0.000    6.600    0.000    3.200 
#    0.000    0.000    0.000    0.000    0.000    1.400 
#    0.000    0.000    0.000    0.000    0.000    0.000 
#
# Total GULP energy -247820.367838 kJ/mol
# GULP energy per Si atom -12391.018392 kJ/mol
# Density = 1.869536 g / cm^3
# Si number density = 18.738005 Si / 1000 Ang^3
#
#
#
# Elastic Constant Matrix: (Units=GPa)
#
#
# Indices 1 2 3 4 5 6 
#
# 1 80.1771 32.9706 61.4149 0.0000 -15.1367 0.0000
# 2 32.9706 87.7331 32.8844 0.0000 -13.1921 0.0000
# 3 61.4149 32.8844 93.5324 0.0000 -26.5833 0.0000
# 4 0.0000 0.0000 0.0000 19.1393 0.0000 -0.1144
# 5 -15.1367 -13.1921 -26.5833 0.0000 48.2314 0.0000
# 6 0.0000 0.0000 0.0000 -0.1144 0.0000 21.7980
#
#
#
# Elastic Compliance Matrix: (Units=1/GPa)
#
#
# Indices 1 2 3 4 5 6 
#
# 1 0.026354 -0.004032 -0.016422 0.000000 -0.001883 0.000000
# 2 -0.004032 0.013808 -0.001771 0.000000 0.001535 0.000000
# 3 -0.016422 -0.001771 0.024302 0.000000 0.007756 0.000000
# 4 0.000000 0.000000 0.000000 0.052250 0.000000 0.000274
# 5 -0.001883 0.001535 0.007756 0.000000 0.024837 0.000000
# 6 0.000000 0.000000 0.000000 0.000274 0.000000 0.045877
#
#
# Mechanical properties :
#
#
# Convention : Reuss Voigt Hill
#
# Bulk Modulus (GPa) = 49.96587 57.33138 53.64863
# Shear Modulus (GPa) = 20.96000 26.77856 23.86928
#
# Velocity S-wave (km/s) = 3.34815 3.78445 3.57297
# Velocity P-wave (km/s) = 6.45525 7.05399 6.76125
#
# Compressibility (1/GPa) = 0.02001366
#
# Stress axis : x y z
#
# Youngs Moduli (GPa) = 37.94474 72.42155 41.14959
#
# Poissons Ratio (x) = 0.29199 0.67577
# Poissons Ratio (y) = 0.15298 0.07288
# Poissons Ratio (z) = 0.62314 0.12826
#
# Static dielectric constant tensor:
#      x y z
#    x 3.556840 0.000000 -0.348040 
#    y 0.000000 3.156870 0.000000 
#    z -0.348040 0.000000 3.832490 
# 
# 
# High freq. dielectric constant tensor:
#      x y z
#    x 1.723460 0.000000 -0.035100 
#    y 0.000000 1.698210 0.000000 
#    z -0.035100 0.000000 1.738940 
# 
# From -- ./inp_files/10194.got.cif
#   From: 2010.06.25/outbox.cif.g09.slc.cpg/sg15_6_cif.got.tgz:10194.got - 2010.06.28 07:06:18.
