data_PCOD8132589
_publ_section_title
;
Structure prediction by ZEFSAII (Michael W. Deem and Ramdas Pophale) SiO2 
 PCOD8132589
Probable space group: C 2/C
;
_chemical_formula_sum "Si O2"
_cell_formula_units_Z 56
_cell_length_a 16.862843
_cell_length_b 18.702380
_cell_length_c 8.929583
_cell_angle_alpha 90.000000
_cell_angle_beta 109.412542
_cell_angle_gamma 90.000000
_cell_volume 2656.070428
_symmetry_space_group_name_H-M "C 2/C"
_symmetry_group_IT_number 15
_symmetry_cell_setting 'monoclinic'
loop_
_space_group_symop_operation_xyz
x,y,z
-x,y,1/2-z
-x,-y,-z
x,-y,1/2+z
1/2+x,1/2+y,z
1/2-x,1/2+y,1/2-z
1/2-x,1/2-y,-z
1/2+x,1/2-y,1/2+z
loop_
_atom_site_type_symbol
_atom_site_label
_atom_site_fract_x
_atom_site_fract_y
_atom_site_fract_z
Si Si1 0.911150 0.414212 0.421701
Si Si2 0.500000 0.985512 0.750000
Si Si3 0.168661 0.773173 0.357379
Si Si4 0.500000 0.650517 0.250000
Si Si5 0.753127 0.208141 0.155248
Si Si6 0.214058 0.075226 0.781715
Si Si7 0.673043 0.428815 0.909837
Si Si8 0.922607 0.745743 0.920053
O O1 0.946755 0.437074 0.604540
O O2 0.811568 0.413029 0.374405
O O3 0.947571 0.336121 0.404487
O O4 0.935465 0.466597 0.303112
O O5 0.250000 0.750000 0.500000
O O6 0.170545 0.726293 0.204096
O O7 0.165843 0.856805 0.317673
O O8 0.085897 0.757287 0.405293
O O9 0.420408 0.600479 0.173492
O O10 0.508551 0.701212 0.108608
O O11 0.759713 0.123267 0.130284
O O12 0.833777 0.237803 0.289878
O O13 0.750000 0.250000 0.000000
O O14 0.195425 0.066411 0.596430
O O15 0.178693 0.006591 0.843741
#
# Coordination Sequence:
#
# PCOD8132589 Si02
#       8
#     8   4   8   4   8   8   8   8
#     4  11  21  44  63  98 131 169 217 269 341 399
#     4  10  25  38  64  95 136 170 202 264 350 427
#     4  10  20  38  65  97 125 165 223 284 321 386
#     4  10  25  48  62  93 140 190 226 272 344 395
#     4  10  18  38  64  94 125 160 221 278 330 388
#     4  12  24  42  69 100 129 172 229 282 332 388
#     4  11  26  41  67  99 135 183 223 278 341 400
#     4  10  21  40  69  86 130 177 222 279 325 399
#
# _framework density 21.083779
#
# number of rings (size 3 to 8) (size 9 to 14) (size 15 to 20)
#    0.000    1.429    4.286    1.286    6.000    1.714 
#    2.571    2.857    0.000    0.000    0.000    0.000 
#    0.000    0.000    0.000    0.000    0.000    0.000 
#
# Total GULP energy -347191.823324 kJ/mol
# GULP energy per Si atom -12399.707976 kJ/mol
# Density = 2.103579 g / cm^3
# Si number density = 21.083779 Si / 1000 Ang^3
#
#
#
# Elastic Constant Matrix: (Units=GPa)
#
#
# Indices 1 2 3 4 5 6 
#
# 1 66.6630 34.7815 21.1489 0.0000 -17.7641 0.0000
# 2 34.7815 166.0169 49.6594 0.0000 -12.1296 0.0000
# 3 21.1489 49.6594 108.7852 0.0000 -22.0257 0.0000
# 4 0.0000 0.0000 0.0000 41.0606 0.0000 15.9031
# 5 -17.7641 -12.1296 -22.0257 0.0000 36.6224 0.0000
# 6 0.0000 0.0000 0.0000 15.9031 0.0000 29.6499
#
#
#
# Elastic Compliance Matrix: (Units=1/GPa)
#
#
# Indices 1 2 3 4 5 6 
#
# 1 0.018943 -0.003208 -0.000652 0.000000 0.007733 0.000000
# 2 -0.003208 0.007526 -0.002986 0.000000 -0.000859 0.000000
# 3 -0.000652 -0.002986 0.011862 0.000000 0.005829 0.000000
# 4 0.000000 0.000000 0.000000 0.030740 0.000000 -0.016488
# 5 0.007733 -0.000859 0.005829 0.000000 0.034278 0.000000
# 6 0.000000 0.000000 0.000000 -0.016488 0.000000 0.042570
#
#
# Mechanical properties :
#
#
# Convention : Reuss Voigt Hill
#
# Bulk Modulus (GPa) = 40.58761 61.40496 50.99629
# Shear Modulus (GPa) = 29.79289 37.19159 33.49224
#
# Velocity S-wave (km/s) = 3.76316 4.20455 3.98996
# Velocity P-wave (km/s) = 6.17853 7.26350 6.74287
#
# Compressibility (1/GPa) = 0.02463806
#
# Stress axis : x y z
#
# Youngs Moduli (GPa) = 52.79126 132.87261 84.29972
#
# Poissons Ratio (x) = 0.42632 0.05498
# Poissons Ratio (y) = 0.16938 0.25170
# Poissons Ratio (z) = 0.03443 0.39673
#
# Static dielectric constant tensor:
#      x y z
#    x 3.982200 0.000000 -0.696160 
#    y 0.000000 5.283890 0.000000 
#    z -0.696160 0.000000 4.324570 
# 
# 
# High freq. dielectric constant tensor:
#      x y z
#    x 1.812450 0.000000 -0.019350 
#    y 0.000000 1.839580 0.000000 
#    z -0.019350 0.000000 1.839000 
# 
# From -- ./inp_files/49056.got.cif
#   From: 2010.06.25/outbox.cif.g09.slc.cpg/sg15_25_cif.got.tgz:49056.got - 2010.06.28 07:06:18.
