data_PCOD8132972
_publ_section_title
;
Structure prediction by ZEFSAII (Michael W. Deem and Ramdas Pophale) SiO2 
 PCOD8132972
Probable space group: C 2/C
;
_chemical_formula_sum "Si O2"
_cell_formula_units_Z 64
_cell_length_a 14.795254
_cell_length_b 18.478077
_cell_length_c 14.446462
_cell_angle_alpha 90.000000
_cell_angle_beta 141.280477
_cell_angle_gamma 90.000000
_cell_volume 2470.437915
_symmetry_space_group_name_H-M "C 2/C"
_symmetry_group_IT_number 15
_symmetry_cell_setting 'monoclinic'
loop_
_space_group_symop_operation_xyz
x,y,z
-x,y,1/2-z
-x,-y,-z
x,-y,1/2+z
1/2+x,1/2+y,z
1/2-x,1/2+y,1/2-z
1/2-x,1/2-y,-z
1/2+x,1/2-y,1/2+z
loop_
_atom_site_type_symbol
_atom_site_label
_atom_site_fract_x
_atom_site_fract_y
_atom_site_fract_z
Si Si1 0.401154 0.456432 0.084502
Si Si2 0.859587 0.960002 0.809371
Si Si3 0.113082 0.515652 0.506657
Si Si4 0.653203 0.978786 0.302536
Si Si5 0.272474 0.177617 0.899955
Si Si6 0.189405 0.685008 0.784508
Si Si7 0.001091 0.195828 0.425530
Si Si8 0.456846 0.298450 0.103953
O O1 0.500000 0.474997 0.250000
O O2 0.506455 0.482129 0.084091
O O3 0.361849 0.371982 0.038418
O O4 0.247195 0.501644 0.970712
O O5 0.923440 0.880473 0.851742
O O6 0.752984 0.965854 0.635268
O O7 0.758141 0.976079 0.816789
O O8 0.180042 0.595407 0.552517
O O9 0.000000 0.500000 0.500000
O O10 0.015883 0.503155 0.335881
O O11 0.635192 0.895282 0.262154
O O12 0.279443 0.197959 0.798587
O O13 0.100206 0.192038 0.785133
O O14 0.361307 0.226360 0.044276
O O15 0.066553 0.746095 0.701294
O O16 0.328194 0.695337 0.961413
O O17 0.999536 0.215676 0.532014
#
# Coordination Sequence:
#
# PCOD8132972 Si02
#       8
#     8   8   8   8   8   8   8   8
#     4  12  24  40  61  85 115 160 208 244 287 351
#     4  11  19  38  61  85 115 154 191 245 298 351
#     4  10  20  31  58  89 117 147 193 248 300 340
#     4  11  21  36  62  89 117 152 196 248 300 345
#     4  10  19  33  54  84 121 154 188 241 293 348
#     4  10  19  31  49  89 119 145 183 235 295 357
#     4  10  20  30  56  86 121 147 182 239 303 348
#     4  10  21  35  55  82 120 155 194 236 293 348
#
# _framework density 25.906338999999999
#
# number of rings (size 3 to 8) (size 9 to 14) (size 15 to 20)
#    0.000    1.500    6.250    1.125    3.500    2.000 
#    0.000    1.250    0.000    0.750    0.000    0.000 
#    0.000    0.000    0.000    0.000    0.000    0.000 
#
# Total GULP energy -396468.938414 kJ/mol
# GULP energy per Si atom -12389.654325 kJ/mol
# Density = 2.584737 g / cm^3
# Si number density = 25.906339 Si / 1000 Ang^3
#
#
#
# Elastic Constant Matrix: (Units=GPa)
#
#
# Indices 1 2 3 4 5 6 
#
# 1 37.7813 15.6721 42.2443 0.0000 19.4925 0.0000
# 2 15.6721 182.4412 120.7401 0.0000 25.0983 0.0000
# 3 42.2443 120.7401 214.4641 0.0001 46.5385 0.0001
# 4 0.0000 0.0000 0.0001 42.1480 0.0001 -4.1566
# 5 19.4925 25.0983 46.5385 0.0001 51.2470 0.0000
# 6 0.0000 0.0000 0.0001 -4.1566 0.0000 12.9648
#
#
#
# Elastic Compliance Matrix: (Units=1/GPa)
#
#
# Indices 1 2 3 4 5 6 
#
# 1 0.037975 0.002600 -0.006891 0.000000 -0.009460 0.000000
# 2 0.002600 0.008916 -0.005442 0.000000 -0.000414 0.000000
# 3 -0.006891 -0.005442 0.009885 0.000000 -0.003690 0.000000
# 4 0.000000 0.000000 0.000000 0.024501 0.000000 0.007855
# 5 -0.009460 -0.000414 -0.003690 0.000000 0.026665 0.000000
# 6 0.000000 0.000000 0.000000 0.007855 0.000000 0.079650
#
#
# Mechanical properties :
#
#
# Convention : Reuss Voigt Hill
#
# Bulk Modulus (GPa) = 26.80275 87.99994 57.40135
# Shear Modulus (GPa) = 22.77944 38.34065 30.56005
#
# Velocity S-wave (km/s) = 2.96852 3.85121 3.43831
# Velocity P-wave (km/s) = 4.70297 7.33608 6.16182
#
# Compressibility (1/GPa) = 0.03730961
#
# Stress axis : x y z
#
# Youngs Moduli (GPa) = 26.33281 112.15246 101.16545
#
# Poissons Ratio (x) = -0.29157 0.69714
# Poissons Ratio (y) = -0.06846 0.55056
# Poissons Ratio (z) = 0.18146 0.61035
#
# Static dielectric constant tensor:
#      x y z
#    x 5.352550 0.000000 0.368450 
#    y 0.000000 4.433120 0.000000 
#    z 0.368450 0.000000 6.301720 
# 
# 
# High freq. dielectric constant tensor:
#      x y z
#    x 2.060430 0.000000 0.004690 
#    y 0.000000 2.015790 0.000000 
#    z 0.004690 0.000000 2.076620 
# 
# From -- ./inp_files/216171.got.cif
#   From: 2010.06.25/outbox.cif.g09.slc.cpg/sg15_109_cif.got.tgz:216171.got - 2010.06.28 07:06:18.
