data_PCOD8132445
_publ_section_title
;
Structure prediction by ZEFSAII (Michael W. Deem and Ramdas Pophale) SiO2 
 PCOD8132445
Probable space group: C 2/C
;
_chemical_formula_sum "Si O2"
_cell_formula_units_Z 48
_cell_length_a 22.941985
_cell_length_b 11.235356
_cell_length_c 11.983468
_cell_angle_alpha 90.000000
_cell_angle_beta 44.772834
_cell_angle_gamma 90.000000
_cell_volume 2175.487632
_symmetry_space_group_name_H-M "C 2/C"
_symmetry_group_IT_number 15
_symmetry_cell_setting 'monoclinic'
loop_
_space_group_symop_operation_xyz
x,y,z
-x,y,1/2-z
-x,-y,-z
x,-y,1/2+z
1/2+x,1/2+y,z
1/2-x,1/2+y,1/2-z
1/2-x,1/2-y,-z
1/2+x,1/2-y,1/2+z
loop_
_atom_site_type_symbol
_atom_site_label
_atom_site_fract_x
_atom_site_fract_y
_atom_site_fract_z
Si Si1 0.355318 0.331794 0.222063
Si Si2 0.923077 0.381962 0.166100
Si Si3 0.816624 0.926299 0.866092
Si Si4 0.953151 0.374678 0.700890
Si Si5 0.509179 0.647134 0.361414
Si Si6 0.245459 0.787937 0.351014
O O1 0.306074 0.431939 0.361705
O O2 0.388758 0.230213 0.259531
O O3 0.287308 0.278468 0.230104
O O4 0.431735 0.382763 0.045560
O O5 0.904868 0.498734 0.267323
O O6 0.972643 0.288272 0.175409
O O7 0.837033 0.337135 0.234191
O O8 0.977028 0.401508 0.983761
O O9 0.909105 0.907228 0.692022
O O10 0.746654 0.848263 0.896351
O O11 0.814089 0.877645 0.997451
O O12 0.000000 0.340737 0.750000
O O13 0.500000 0.592257 0.250000
#
# Coordination Sequence:
#
# PCOD8132445 Si02
#       6
#     8   8   8   8   8   8
#     4  11  23  38  63  93 126 163 208 272 319 374
#     4   9  21  39  64  90 123 169 210 259 305 380
#     4  10  22  40  60  89 123 164 207 254 317 385
#     4  10  22  42  63  95 126 166 214 264 318 370
#     4  10  18  37  63  90 119 163 212 251 307 380
#     4  10  22  41  62  90 122 165 212 254 318 383
#
# _framework density 22.064019999999999
#
# number of rings (size 3 to 8) (size 9 to 14) (size 15 to 20)
#    0.000    2.000    1.667    1.000    2.333    2.000 
#    9.000    1.667    0.000    0.000    0.000    0.000 
#    0.000    0.000    0.000    0.000    0.000    0.000 
#
# Total GULP energy -297369.495167 kJ/mol
# GULP energy per Si atom -12390.395632 kJ/mol
# Density = 2.201380 g / cm^3
# Si number density = 22.064020 Si / 1000 Ang^3
#
#
#
# Elastic Constant Matrix: (Units=GPa)
#
#
# Indices 1 2 3 4 5 6 
#
# 1 130.0002 50.8273 20.4212 0.0000 19.5942 0.0000
# 2 50.8273 145.3059 27.5702 0.0000 19.2613 0.0000
# 3 20.4212 27.5702 20.2769 0.0000 -0.0511 0.0000
# 4 0.0000 0.0000 0.0000 33.7429 0.0000 -1.6281
# 5 19.5942 19.2613 -0.0511 0.0000 36.0767 0.0000
# 6 0.0000 0.0000 0.0000 -1.6281 0.0000 21.0993
#
#
#
# Elastic Compliance Matrix: (Units=1/GPa)
#
#
# Indices 1 2 3 4 5 6 
#
# 1 0.010296 -0.001324 -0.008581 0.000000 -0.004897 0.000000
# 2 -0.001324 0.010431 -0.012861 0.000000 -0.004868 0.000000
# 3 -0.008581 -0.012861 0.075476 0.000000 0.011634 0.000000
# 4 0.000000 0.000000 0.000000 0.029747 0.000000 0.002295
# 5 -0.004897 -0.004868 0.011634 0.000000 0.032994 0.000000
# 6 0.000000 0.000000 0.000000 0.002295 0.000000 0.047572
#
#
# Mechanical properties :
#
#
# Convention : Reuss Voigt Hill
#
# Bulk Modulus (GPa) = 19.73566 54.80227 37.26897
# Shear Modulus (GPa) = 18.59152 31.30138 24.94645
#
# Velocity S-wave (km/s) = 2.90594 3.77060 3.36615
# Velocity P-wave (km/s) = 4.49705 6.62181 5.66002
#
# Compressibility (1/GPa) = 0.05066970
#
# Stress axis : x y z
#
# Youngs Moduli (GPa) = 97.12355 95.86992 13.24917
#
# Poissons Ratio (x) = 0.12695 0.11370
# Poissons Ratio (y) = 0.12861 0.17040
# Poissons Ratio (z) = 0.83345 1.23301
#
# Static dielectric constant tensor:
#      x y z
#    x 3.903560 0.000000 -0.145270 
#    y 0.000000 4.095120 0.000000 
#    z -0.145270 0.000000 3.795170 
# 
# 
# High freq. dielectric constant tensor:
#      x y z
#    x 1.869880 0.000000 -0.011740 
#    y 0.000000 1.861990 0.000000 
#    z -0.011740 0.000000 1.851770 
# 
# From -- ./inp_files/110869.got.cif
#   From: 2010.06.25/outbox.cif.g09.slc.cpg/sg15_56_cif.got.tgz:110869.got - 2010.06.28 07:06:18.
