data_PCOD8132175
_publ_section_title
;
Structure prediction by ZEFSAII (Michael W. Deem and Ramdas Pophale) SiO2 
 PCOD8132175
Probable space group: C 2/C
;
_chemical_formula_sum "Si O2"
_cell_formula_units_Z 60
_cell_length_a 10.118692
_cell_length_b 12.358420
_cell_length_c 22.602842
_cell_angle_alpha 90.000000
_cell_angle_beta 101.236172
_cell_angle_gamma 90.000000
_cell_volume 2772.331449
_symmetry_space_group_name_H-M "C 2/C"
_symmetry_group_IT_number 15
_symmetry_cell_setting 'monoclinic'
loop_
_space_group_symop_operation_xyz
x,y,z
-x,y,1/2-z
-x,-y,-z
x,-y,1/2+z
1/2+x,1/2+y,z
1/2-x,1/2+y,1/2-z
1/2-x,1/2-y,-z
1/2+x,1/2-y,1/2+z
loop_
_atom_site_type_symbol
_atom_site_label
_atom_site_fract_x
_atom_site_fract_y
_atom_site_fract_z
Si Si1 0.641262 0.904203 0.052114
Si Si2 0.049626 0.840761 0.424416
Si Si3 0.185943 0.893567 0.770229
Si Si4 0.365483 0.107735 0.079336
Si Si5 0.442768 0.670032 0.445477
Si Si6 0.500000 0.806417 0.250000
Si Si7 0.487561 0.469551 0.844528
Si Si8 0.936906 0.493677 0.334460
O O1 0.795301 0.871373 0.063183
O O2 0.550574 0.799189 0.059196
O O3 0.623795 0.986233 0.104520
O O4 0.605442 0.948654 0.982717
O O5 0.040922 0.714691 0.408889
O O6 0.994117 0.864762 0.485785
O O7 0.964818 0.910943 0.369821
O O8 0.111534 0.973403 0.809739
O O9 0.345599 0.916621 0.791746
O O10 0.129462 0.770791 0.776710
O O11 0.147420 0.929640 0.700337
O O12 0.209783 0.129533 0.074372
O O13 0.412503 0.036685 0.139781
O O14 0.527099 0.614001 0.400556
O O15 0.451350 0.881370 0.300181
#
# Coordination Sequence:
#
# PCOD8132175 Si02
#       8
#     8   8   8   8   8   4   8   8
#     4   9  17  36  60  81 115 155 191 238 305 356
#     4   9  17  34  57  89 114 146 195 247 295 357
#     4  10  24  40  60  86 116 159 208 243 288 370
#     4   9  21  34  55  92 115 147 198 242 297 369
#     4   9  18  33  60  85 118 149 190 248 299 355
#     4  10  26  44  60  92 122 160 208 254 304 348
#     4  10  18  36  58  84 114 156 199 243 302 347
#     4  12  22  41  63  81 120 164 194 244 309 354
#
# _framework density 21.642434000000002
#
# number of rings (size 3 to 8) (size 9 to 14) (size 15 to 20)
#    0.000    2.400    1.333    4.000    1.867    1.067 
#    0.000    1.333    0.000    3.200    0.000    0.000 
#    0.000    0.000    0.000    0.000    0.000    0.000 
#
# Total GULP energy -371670.693630 kJ/mol
# GULP energy per Si atom -12389.023121 kJ/mol
# Density = 2.159317 g / cm^3
# Si number density = 21.642434 Si / 1000 Ang^3
#
#
#
# Elastic Constant Matrix: (Units=GPa)
#
#
# Indices 1 2 3 4 5 6 
#
# 1 23.6158 10.7806 16.7607 0.0000 5.7788 0.0000
# 2 10.7806 78.1551 39.5311 0.0000 8.6630 0.0000
# 3 16.7607 39.5311 111.4476 0.0000 -2.5998 0.0000
# 4 0.0000 0.0000 0.0000 43.9504 0.0000 -1.8431
# 5 5.7788 8.6630 -2.5998 0.0000 27.9616 0.0000
# 6 0.0000 0.0000 0.0000 -1.8431 0.0000 21.4519
#
#
#
# Elastic Compliance Matrix: (Units=1/GPa)
#
#
# Indices 1 2 3 4 5 6 
#
# 1 0.050995 -0.002276 -0.007107 0.000000 -0.010495 0.000000
# 2 -0.002276 0.016538 -0.005645 0.000000 -0.005178 0.000000
# 3 -0.007107 -0.005645 0.012145 0.000000 0.004347 0.000000
# 4 0.000000 0.000000 0.000000 0.022835 0.000000 0.001962
# 5 -0.010495 -0.005178 0.004347 0.000000 0.039941 0.000000
# 6 0.000000 0.000000 0.000000 0.001962 0.000000 0.046784
#
#
# Mechanical properties :
#
#
# Convention : Reuss Voigt Hill
#
# Bulk Modulus (GPa) = 20.15178 38.59592 29.37385
# Shear Modulus (GPa) = 21.20123 28.41586 24.80855
#
# Velocity S-wave (km/s) = 3.13327 3.62742 3.38937
# Velocity P-wave (km/s) = 4.73512 5.95117 5.37763
#
# Compressibility (1/GPa) = 0.04962341
#
# Stress axis : x y z
#
# Youngs Moduli (GPa) = 19.60962 60.46637 82.33729
#
# Poissons Ratio (x) = 0.13765 0.58514
# Poissons Ratio (y) = 0.04464 0.46476
# Poissons Ratio (z) = 0.13936 0.34131
#
# Static dielectric constant tensor:
#      x y z
#    x 3.492510 0.000000 -0.085280 
#    y 0.000000 4.147010 0.000000 
#    z -0.085280 0.000000 4.260050 
# 
# 
# High freq. dielectric constant tensor:
#      x y z
#    x 1.814310 0.000000 -0.011320 
#    y 0.000000 1.835920 0.000000 
#    z -0.011320 0.000000 1.867100 
# 
# From -- ./inp_files/268968.got.cif
#   From: 2010.06.25/outbox.cif.g09.slc.cpg/sg15_135_cif.got.tgz:268968.got - 2010.06.28 07:06:18.
