data_PCOD8132476
_publ_section_title
;
Structure prediction by ZEFSAII (Michael W. Deem and Ramdas Pophale) SiO2 
 PCOD8132476
Probable space group: C 2/C
;
_chemical_formula_sum "Si O2"
_cell_formula_units_Z 52
_cell_length_a 15.741088
_cell_length_b 9.826884
_cell_length_c 21.200896
_cell_angle_alpha 90.000000
_cell_angle_beta 131.789539
_cell_angle_gamma 90.000000
_cell_volume 2445.171590
_symmetry_space_group_name_H-M "C 2/C"
_symmetry_group_IT_number 15
_symmetry_cell_setting 'monoclinic'
loop_
_space_group_symop_operation_xyz
x,y,z
-x,y,1/2-z
-x,-y,-z
x,-y,1/2+z
1/2+x,1/2+y,z
1/2-x,1/2+y,1/2-z
1/2-x,1/2-y,-z
1/2+x,1/2-y,1/2+z
loop_
_atom_site_type_symbol
_atom_site_label
_atom_site_fract_x
_atom_site_fract_y
_atom_site_fract_z
Si Si1 0.214740 0.175126 0.656380
Si Si2 0.872126 0.322956 0.345804
Si Si3 0.000000 0.929783 0.250000
Si Si4 0.880181 0.926418 0.945688
Si Si5 0.517023 0.705371 0.890921
Si Si6 0.253994 0.464250 0.632447
Si Si7 0.557351 0.994776 0.959157
O O1 0.326092 0.202545 0.753315
O O2 0.104674 0.152660 0.645586
O O3 0.207179 0.310366 0.611559
O O4 0.219803 0.039627 0.614050
O O5 0.864956 0.189589 0.385390
O O6 0.794337 0.444310 0.334889
O O7 0.003738 0.370093 0.400589
O O8 0.026074 0.833652 0.322361
O O9 0.890406 0.027099 0.201545
O O10 0.879960 0.859080 0.015560
O O11 0.000000 0.000000 0.000000
O O12 0.521023 0.867522 0.898812
O O13 0.194627 0.509942 0.536680
O O14 0.500000 0.000000 0.000000
#
# Coordination Sequence:
#
# PCOD8132476 Si02
#       7
#     8   8   4   8   8   8   8
#     4  11  21  36  67  99 125 169 234 281 314 392
#     4  11  19  36  69 100 126 162 223 286 328 376
#     4  12  28  40  64 100 146 186 210 278 358 412
#     4  10  21  35  61 100 128 164 221 283 326 386
#     4  11  21  40  62  97 136 171 226 271 335 404
#     4  11  22  42  61  95 132 175 219 275 343 393
#     4  10  18  37  66  94 125 166 224 281 327 383
#
# _framework density 21.266401999999999
#
# number of rings (size 3 to 8) (size 9 to 14) (size 15 to 20)
#    0.000    1.231    7.692    1.846    2.154    0.615 
#    0.000    0.769    0.000    0.923    0.000    0.000 
#    0.000    0.000    0.000    0.000    0.000    0.000 
#
# Total GULP energy -322109.019697 kJ/mol
# GULP energy per Si atom -12388.808450 kJ/mol
# Density = 2.121800 g / cm^3
# Si number density = 21.266402 Si / 1000 Ang^3
#
#
#
# Elastic Constant Matrix: (Units=GPa)
#
#
# Indices 1 2 3 4 5 6 
#
# 1 40.3453 17.1554 22.6347 0.0000 6.3475 0.0000
# 2 17.1554 146.0929 49.4315 0.0000 -6.8667 0.0000
# 3 22.6347 49.4315 156.2210 0.0000 4.4285 0.0000
# 4 0.0000 0.0000 0.0000 30.7685 0.0000 7.3182
# 5 6.3475 -6.8667 4.4285 0.0000 34.0488 0.0000
# 6 0.0000 0.0000 0.0000 7.3182 0.0000 15.5889
#
#
#
# Elastic Compliance Matrix: (Units=1/GPa)
#
#
# Indices 1 2 3 4 5 6 
#
# 1 0.028492 -0.002525 -0.003176 0.000000 -0.005408 0.000000
# 2 -0.002525 0.008010 -0.002236 0.000000 0.002377 0.000000
# 3 -0.003176 -0.002236 0.007593 0.000000 -0.000846 0.000000
# 4 0.000000 0.000000 0.000000 0.036586 0.000000 -0.017175
# 5 -0.005408 0.002377 -0.000846 0.000000 0.030967 0.000000
# 6 0.000000 0.000000 0.000000 -0.017175 0.000000 0.072211
#
#
# Mechanical properties :
#
#
# Convention : Reuss Voigt Hill
#
# Bulk Modulus (GPa) = 35.43508 57.90026 46.66767
# Shear Modulus (GPa) = 23.90737 32.97709 28.44223
#
# Velocity S-wave (km/s) = 3.35652 3.94212 3.66105
# Velocity P-wave (km/s) = 5.63208 6.92862 6.31372
#
# Compressibility (1/GPa) = 0.02822062
#
# Stress axis : x y z
#
# Youngs Moduli (GPa) = 35.09708 124.84735 131.70339
#
# Poissons Ratio (x) = 0.31529 0.41827
# Poissons Ratio (y) = 0.08863 0.29448
# Poissons Ratio (z) = 0.11146 0.27915
#
# Static dielectric constant tensor:
#      x y z
#    x 3.384300 0.000000 0.356570 
#    y 0.000000 4.663290 0.000000 
#    z 0.356570 0.000000 4.639920 
# 
# 
# High freq. dielectric constant tensor:
#      x y z
#    x 1.763500 0.000000 0.020980 
#    y 0.000000 1.845620 0.000000 
#    z 0.020980 0.000000 1.861810 
# 
# From -- ./inp_files/247894.got.cif
#   From: 2010.06.25/outbox.cif.g09.slc.cpg/sg15_124_cif.got.tgz:247894.got - 2010.06.28 07:06:18.
