data_PCOD8132718
_publ_section_title
;
Structure prediction by ZEFSAII (Michael W. Deem and Ramdas Pophale) SiO2 
 PCOD8132718
Probable space group: C 2/C
;
_chemical_formula_sum "Si O2"
_cell_formula_units_Z 44
_cell_length_a 22.154009
_cell_length_b 8.684783
_cell_length_c 15.234394
_cell_angle_alpha 90.000000
_cell_angle_beta 44.830733
_cell_angle_gamma 90.000000
_cell_volume 2066.496459
_symmetry_space_group_name_H-M "C 2/C"
_symmetry_group_IT_number 15
_symmetry_cell_setting 'monoclinic'
loop_
_space_group_symop_operation_xyz
x,y,z
-x,y,1/2-z
-x,-y,-z
x,-y,1/2+z
1/2+x,1/2+y,z
1/2-x,1/2+y,1/2-z
1/2-x,1/2-y,-z
1/2+x,1/2-y,1/2+z
loop_
_atom_site_type_symbol
_atom_site_label
_atom_site_fract_x
_atom_site_fract_y
_atom_site_fract_z
Si Si1 0.405637 0.323145 0.575775
Si Si2 0.000000 0.000611 0.750000
Si Si3 0.871460 0.770801 0.417082
Si Si4 0.431669 0.344201 0.991900
Si Si5 0.773963 0.502211 0.463440
Si Si6 0.247933 0.774791 0.640552
O O1 0.413520 0.256502 0.469953
O O2 0.488260 0.257663 0.544266
O O3 0.407301 0.508283 0.574835
O O4 0.314925 0.278403 0.711996
O O5 0.926549 0.121092 0.794375
O O6 0.963704 0.891919 0.862496
O O7 0.861985 0.596209 0.391319
O O8 0.783753 0.864297 0.518983
O O9 0.346931 0.239223 0.069499
O O10 0.785758 0.370200 0.380232
O O11 0.738900 0.428094 0.590409
#
# Coordination Sequence:
#
# PCOD8132718 Si02
#       6
#     8   4   8   8   8   8
#     4  10  22  39  65  91 128 163 213 256 318 372
#     4  10  18  40  64  88 126 172 214 246 306 390
#     4  10  21  41  62  91 126 169 208 258 309 379
#     4  10  22  41  64  97 122 174 212 254 316 387
#     4  10  22  39  61  93 122 164 218 248 317 374
#     4  11  22  41  66  96 125 167 210 270 317 374
#
# _framework density 21.292076999999999
#
# number of rings (size 3 to 8) (size 9 to 14) (size 15 to 20)
#    0.000    1.818    3.636    1.091    5.091    0.000 
#    9.818    0.909    0.000    0.000    0.000    0.000 
#    0.000    0.000    0.000    0.000    0.000    0.000 
#
# Total GULP energy -272599.635640 kJ/mol
# GULP energy per Si atom -12390.892529 kJ/mol
# Density = 2.124362 g / cm^3
# Si number density = 21.292077 Si / 1000 Ang^3
#
#
#
# Elastic Constant Matrix: (Units=GPa)
#
#
# Indices 1 2 3 4 5 6 
#
# 1 123.4290 36.7268 41.7485 0.0009 -21.1122 -0.0006
# 2 36.7268 65.1278 13.3868 0.0005 -10.3493 -0.0022
# 3 41.7485 13.3868 110.7550 0.0005 -17.2928 -0.0007
# 4 0.0009 0.0005 0.0005 29.0083 0.0012 -14.2528
# 5 -21.1122 -10.3493 -17.2928 0.0012 21.0816 -0.0005
# 6 -0.0006 -0.0022 -0.0007 -14.2528 -0.0005 29.8686
#
#
#
# Elastic Compliance Matrix: (Units=1/GPa)
#
#
# Indices 1 2 3 4 5 6 
#
# 1 0.011689 -0.004911 -0.002708 -0.000001 0.007074 0.000000
# 2 -0.004911 0.018786 0.000290 0.000000 0.004542 0.000002
# 3 -0.002708 0.000290 0.011026 0.000000 0.006474 0.000000
# 4 -0.000001 0.000000 0.000000 0.045031 -0.000003 0.021488
# 5 0.007074 0.004542 0.006474 -0.000003 0.062059 0.000000
# 6 0.000000 0.000002 0.000000 0.021488 0.000000 0.043734
#
#
# Mechanical properties :
#
#
# Convention : Reuss Voigt Hill
#
# Bulk Modulus (GPa) = 37.25520 53.67065 45.46292
# Shear Modulus (GPa) = 23.15564 29.82168 26.48866
#
# Velocity S-wave (km/s) = 3.30134 3.74652 3.53095
# Velocity P-wave (km/s) = 5.66277 6.63150 6.16619
#
# Compressibility (1/GPa) = 0.02684189
#
# Stress axis : x y z
#
# Youngs Moduli (GPa) = 85.55044 53.23118 90.69824
#
# Poissons Ratio (x) = 0.26142 0.24562
# Poissons Ratio (y) = 0.42013 -0.02627
# Poissons Ratio (z) = 0.23168 -0.01542
#
# Static dielectric constant tensor:
#      x y z
#    x 4.244860 0.000000 -0.237750 
#    y 0.000000 3.854000 0.000000 
#    z -0.237750 0.000000 3.719890 
# 
# 
# High freq. dielectric constant tensor:
#      x y z
#    x 1.846090 0.000000 -0.006620 
#    y 0.000000 1.813280 0.000000 
#    z -0.006620 0.000000 1.823460 
# 
# From -- ./inp_files/166459.got.cif
#   From: 2010.06.25/outbox.cif.g09.slc.cpg/sg15_84_cif.got.tgz:166459.got - 2010.06.28 07:06:18.
