data_PCOD8132048
_publ_section_title
;
Structure prediction by ZEFSAII (Michael W. Deem and Ramdas Pophale) SiO2 
 PCOD8132048
Probable space group: C 2/C
;
_chemical_formula_sum "Si O2"
_cell_formula_units_Z 44
_cell_length_a 7.686523
_cell_length_b 27.638754
_cell_length_c 8.906571
_cell_angle_alpha 90.000000
_cell_angle_beta 97.754937
_cell_angle_gamma 90.000000
_cell_volume 1874.859436
_symmetry_space_group_name_H-M "C 2/C"
_symmetry_group_IT_number 15
_symmetry_cell_setting 'monoclinic'
loop_
_space_group_symop_operation_xyz
x,y,z
-x,y,1/2-z
-x,-y,-z
x,-y,1/2+z
1/2+x,1/2+y,z
1/2-x,1/2+y,1/2-z
1/2-x,1/2-y,-z
1/2+x,1/2-y,1/2+z
loop_
_atom_site_type_symbol
_atom_site_label
_atom_site_fract_x
_atom_site_fract_y
_atom_site_fract_z
Si Si1 0.801585 0.354997 0.283754
Si Si2 0.398339 0.714528 0.958752
Si Si3 0.318059 0.961954 0.315401
Si Si4 0.310490 0.053121 0.161276
Si Si5 0.303164 0.344151 0.891058
Si Si6 0.000000 0.713653 0.250000
O O1 0.675135 0.322746 0.170724
O O2 0.734670 0.410579 0.257182
O O3 0.787359 0.339490 0.455477
O O4 0.000000 0.348969 0.250000
O O5 0.532329 0.751751 0.896639
O O6 0.250000 0.750000 0.000000
O O7 0.506644 0.682586 0.093023
O O8 0.500000 0.968573 0.250000
O O9 0.342464 0.964593 0.495625
O O10 0.213933 0.009691 0.243719
O O11 0.500000 0.068710 0.250000
O O12 0.180631 0.099501 0.152143
O O13 0.175315 0.318654 0.755139
#
# Coordination Sequence:
#
# PCOD8132048 Si02
#       6
#     8   8   8   8   8   4
#     4  10  21  40  64  94 128 173 222 267 329 395
#     4  12  26  42  66  91 131 171 222 272 336 397
#     4   9  18  32  60  92 129 170 217 264 327 390
#     4  10  18  35  61  93 131 170 217 269 326 393
#     4  11  23  42  63  96 127 174 215 278 331 391
#     4  12  24  42  68  88 130 160 226 270 332 398
#
# _framework density 23.468423999999999
#
# number of rings (size 3 to 8) (size 9 to 14) (size 15 to 20)
#    0.000    1.455    2.727    3.818    2.545    0.000 
#    3.273    0.909    0.000    0.000    0.000    0.000 
#    0.000    0.000    0.000    0.000    0.000    0.000 
#
# Total GULP energy -272632.195836 kJ/mol
# GULP energy per Si atom -12392.372538 kJ/mol
# Density = 2.341501 g / cm^3
# Si number density = 23.468424 Si / 1000 Ang^3
#
#
#
# Elastic Constant Matrix: (Units=GPa)
#
#
# Indices 1 2 3 4 5 6 
#
# 1 68.8799 50.4012 15.1948 0.0000 12.9167 0.0000
# 2 50.4012 201.1412 69.0066 0.0000 19.1901 0.0000
# 3 15.1948 69.0066 98.1562 0.0000 13.5298 0.0000
# 4 0.0000 0.0000 0.0000 38.7141 0.0000 9.9720
# 5 12.9167 19.1901 13.5298 0.0000 23.1451 0.0000
# 6 0.0000 0.0000 0.0000 9.9720 0.0000 16.6276
#
#
#
# Elastic Compliance Matrix: (Units=1/GPa)
#
#
# Indices 1 2 3 4 5 6 
#
# 1 0.018920 -0.004441 0.001242 0.000000 -0.007602 0.000000
# 2 -0.004441 0.007789 -0.004611 0.000000 -0.001284 0.000000
# 3 0.001242 -0.004611 0.013928 0.000000 -0.005011 0.000000
# 4 0.000000 0.000000 0.000000 0.030550 0.000000 -0.018321
# 5 -0.007602 -0.001284 -0.005011 0.000000 0.051442 0.000000
# 6 0.000000 0.000000 0.000000 -0.018321 0.000000 0.071129
#
#
# Mechanical properties :
#
#
# Convention : Reuss Voigt Hill
#
# Bulk Modulus (GPa) = 39.97713 70.82026 55.39870
# Shear Modulus (GPa) = 22.96543 31.26899 27.11721
#
# Velocity S-wave (km/s) = 3.13160 3.65415 3.40292
# Velocity P-wave (km/s) = 5.49066 6.93153 6.25273
#
# Compressibility (1/GPa) = 0.02501430
#
# Stress axis : x y z
#
# Youngs Moduli (GPa) = 52.85522 128.38414 71.79557
#
# Poissons Ratio (x) = 0.57022 -0.08914
# Poissons Ratio (y) = 0.23476 0.33108
# Poissons Ratio (z) = -0.06562 0.59204
#
# Static dielectric constant tensor:
#      x y z
#    x 3.881350 0.000000 -0.181340 
#    y 0.000000 5.035960 0.000000 
#    z -0.181340 0.000000 4.223470 
# 
# 
# High freq. dielectric constant tensor:
#      x y z
#    x 1.890200 0.000000 -0.007790 
#    y 0.000000 1.963990 0.000000 
#    z -0.007790 0.000000 1.926080 
# 
# From -- ./inp_files/25710.got.cif
#   From: 2010.06.25/outbox.cif.g09.slc.cpg/sg15_13_cif.got.tgz:25710.got - 2010.06.28 07:06:18.
