data_PCOD8132788
_publ_section_title
;
Structure prediction by ZEFSAII (Michael W. Deem and Ramdas Pophale) SiO2 
 PCOD8132788
Probable space group: C 2/C
;
_chemical_formula_sum "Si O2"
_cell_formula_units_Z 48
_cell_length_a 9.744601
_cell_length_b 22.351744
_cell_length_c 11.587992
_cell_angle_alpha 90.000000
_cell_angle_beta 120.290656
_cell_angle_gamma 90.000000
_cell_volume 2179.389473
_symmetry_space_group_name_H-M "C 2/C"
_symmetry_group_IT_number 15
_symmetry_cell_setting 'monoclinic'
loop_
_space_group_symop_operation_xyz
x,y,z
-x,y,1/2-z
-x,-y,-z
x,-y,1/2+z
1/2+x,1/2+y,z
1/2-x,1/2+y,1/2-z
1/2-x,1/2-y,-z
1/2+x,1/2-y,1/2+z
loop_
_atom_site_type_symbol
_atom_site_label
_atom_site_fract_x
_atom_site_fract_y
_atom_site_fract_z
Si Si1 0.890945 0.556541 0.470861
Si Si2 0.357108 0.518563 0.753603
Si Si3 0.458839 0.401641 0.865772
Si Si4 0.361198 0.158402 0.282086
Si Si5 0.229701 0.388563 0.361453
Si Si6 0.680966 0.755192 0.342372
O O1 0.717985 0.529267 0.369252
O O2 0.934258 0.610819 0.404059
O O3 0.896018 0.582241 0.602791
O O4 0.000000 0.500000 0.500000
O O5 0.500000 0.553763 0.750000
O O6 0.431193 0.472652 0.878575
O O7 0.236778 0.566949 0.754566
O O8 0.500000 0.384989 0.750000
O O9 0.298438 0.368753 0.841810
O O10 0.600003 0.379390 0.006944
O O11 0.500000 0.172374 0.250000
O O12 0.308471 0.220131 0.319132
O O13 0.172507 0.323879 0.295723
O O14 0.500000 0.729566 0.250000
O O15 0.750000 0.750000 0.500000
#
# Coordination Sequence:
#
# PCOD8132788 Si02
#       6
#     8   8   8   8   8   8
#     4  11  25  39  64 100 138 173 227 282 358 416
#     4  10  22  37  60  96 133 170 221 275 348 424
#     4  10  18  42  66  93 129 185 226 266 350 440
#     4  11  24  43  69  98 134 181 233 291 356 411
#     4  12  23  40  71  95 134 183 231 288 344 416
#     4  12  26  48  73  98 136 191 249 286 344 433
#
# _framework density 22.024515999999998
#
# number of rings (size 3 to 8) (size 9 to 14) (size 15 to 20)
#    0.000    1.000    6.667    2.000    7.000    0.667 
#    0.000    3.333    0.000    0.000    0.000    0.000 
#    0.000    0.000    0.000    0.000    0.000    0.000 
#
# Total GULP energy -297455.719315 kJ/mol
# GULP energy per Si atom -12393.988305 kJ/mol
# Density = 2.197439 g / cm^3
# Si number density = 22.024516 Si / 1000 Ang^3
#
#
#
# Elastic Constant Matrix: (Units=GPa)
#
#
# Indices 1 2 3 4 5 6 
#
# 1 158.3068 67.0851 11.5448 0.0000 -17.7984 0.0000
# 2 67.0851 159.2400 18.8792 0.0000 -23.5946 0.0000
# 3 11.5448 18.8792 25.2472 0.0000 -9.2775 0.0000
# 4 0.0000 0.0000 0.0000 31.2271 0.0000 -3.1357
# 5 -17.7984 -23.5946 -9.2775 0.0000 33.7992 0.0000
# 6 0.0000 0.0000 0.0000 -3.1357 0.0000 45.8082
#
#
#
# Elastic Compliance Matrix: (Units=1/GPa)
#
#
# Indices 1 2 3 4 5 6 
#
# 1 0.007822 -0.002935 -0.000691 0.000000 0.001881 0.000000
# 2 -0.002935 0.008454 -0.003758 0.000000 0.003325 0.000000
# 3 -0.000691 -0.003758 0.046308 0.000000 0.009723 0.000000
# 4 0.000000 0.000000 0.000000 0.032245 0.000000 0.002207
# 5 0.001881 0.003325 0.009723 0.000000 0.035567 0.000000
# 6 0.000000 0.000000 0.000000 0.002207 0.000000 0.021981
#
#
# Mechanical properties :
#
#
# Convention : Reuss Voigt Hill
#
# Bulk Modulus (GPa) = 20.91351 59.75692 40.33522
# Shear Modulus (GPa) = 27.30972 38.51923 32.91447
#
# Velocity S-wave (km/s) = 3.52514 4.18655 3.87000
# Velocity P-wave (km/s) = 5.10735 7.11059 6.19054
#
# Compressibility (1/GPa) = 0.04781597
#
# Stress axis : x y z
#
# Youngs Moduli (GPa) = 127.83819 118.28127 21.59465
#
# Poissons Ratio (x) = 0.34713 0.01493
# Poissons Ratio (y) = 0.37518 0.08116
# Poissons Ratio (z) = 0.08837 0.44453
#
# Static dielectric constant tensor:
#      x y z
#    x 4.879250 0.000000 1.586920 
#    y 0.000000 4.220390 0.000000 
#    z 1.586920 0.000000 5.915160 
# 
# 
# High freq. dielectric constant tensor:
#      x y z
#    x 1.868920 0.000000 0.023970 
#    y 0.000000 1.874140 0.000000 
#    z 0.023970 0.000000 1.847210 
# 
# From -- ./inp_files/79889.got.cif
#   From: 2010.06.25/outbox.cif.g09.slc.cpg/sg15_40_cif.got.tgz:79889.got - 2010.06.28 07:06:18.
