data_PCOD8132819
_publ_section_title
;
Structure prediction by ZEFSAII (Michael W. Deem and Ramdas Pophale) SiO2 
 PCOD8132819
Probable space group: C 2/C
;
_chemical_formula_sum "Si O2"
_cell_formula_units_Z 44
_cell_length_a 27.862686
_cell_length_b 12.831414
_cell_length_c 24.476049
_cell_angle_alpha 90.000000
_cell_angle_beta 165.105885
_cell_angle_gamma 90.000000
_cell_volume 2249.202707
_symmetry_space_group_name_H-M "C 2/C"
_symmetry_group_IT_number 15
_symmetry_cell_setting 'monoclinic'
loop_
_space_group_symop_operation_xyz
x,y,z
-x,y,1/2-z
-x,-y,-z
x,-y,1/2+z
1/2+x,1/2+y,z
1/2-x,1/2+y,1/2-z
1/2-x,1/2-y,-z
1/2+x,1/2-y,1/2+z
loop_
_atom_site_type_symbol
_atom_site_label
_atom_site_fract_x
_atom_site_fract_y
_atom_site_fract_z
Si Si1 0.600871 0.251506 0.787423
Si Si2 0.430654 0.002250 0.010308
Si Si3 0.819265 0.637718 0.790564
Si Si4 0.611599 0.654355 0.185175
Si Si5 0.000000 0.917241 0.750000
Si Si6 0.906413 0.480182 0.202741
O O1 0.678539 0.285368 0.813874
O O2 0.459601 0.343352 0.652120
O O3 0.515964 0.135371 0.694650
O O4 0.750000 0.250000 0.000000
O O5 0.235609 0.945791 0.809057
O O6 0.390067 0.101004 0.927597
O O7 0.573575 0.922990 0.139185
O O8 0.525328 0.047941 0.170217
O O9 0.599856 0.615659 0.542707
O O10 0.861311 0.761064 0.833295
O O11 0.815997 0.988313 0.552153
O O12 0.000000 0.519797 0.250000
#
# Coordination Sequence:
#
# PCOD8132819 Si02
#       6
#     8   8   8   8   4   8
#     4  10  19  27  47  76 105 142 171 200 253 335
#     4  11  23  37  53  83 112 142 189 225 266 328
#     4  11  23  36  57  77 109 151 186 228 267 319
#     4  12  21  38  55  77 115 150 184 224 274 315
#     4  10  20  28  46  72 108 140 174 198 260 334
#     4  11  20  32  48  75 109 141 173 218 266 326
#
# _framework density 19.562487999999998
#
# number of rings (size 3 to 8) (size 9 to 14) (size 15 to 20)
#    0.000    1.091    4.545    3.818    5.091    0.000 
#    0.000    0.000    0.000    0.000    0.000    1.273 
#    0.000    0.000    0.000    0.000    0.000    0.000 
#
# Total GULP energy -272717.955075 kJ/mol
# GULP energy per Si atom -12396.270685 kJ/mol
# Density = 1.951796 g / cm^3
# Si number density = 19.562488 Si / 1000 Ang^3
#
#
#
# Elastic Constant Matrix: (Units=GPa)
#
#
# Indices 1 2 3 4 5 6 
#
# 1 123.5753 16.8195 44.1918 -0.0296 -13.3028 -0.0153
# 2 16.8195 21.0797 6.2277 -0.1203 -8.1881 -0.1013
# 3 44.1918 6.2277 114.3673 -0.0270 9.2593 -0.0253
# 4 -0.0296 -0.1203 -0.0270 12.5255 -0.0308 -2.8471
# 5 -13.3028 -8.1881 9.2593 -0.0308 42.5191 -0.0137
# 6 -0.0153 -0.1013 -0.0253 -2.8471 -0.0137 19.0376
#
#
#
# Elastic Compliance Matrix: (Units=1/GPa)
#
#
# Indices 1 2 3 4 5 6 
#
# 1 0.010707 -0.006165 -0.004048 -0.000043 0.003044 -0.000034
# 2 -0.006165 0.056377 -0.001436 0.000636 0.009241 0.000395
# 3 -0.004048 -0.001436 0.010700 -0.000010 -0.003873 -0.000001
# 4 -0.000043 0.000636 -0.000010 0.082654 0.000175 0.012365
# 5 0.003044 0.009241 -0.003873 0.000175 0.027094 0.000092
# 6 -0.000034 0.000395 -0.000001 0.012365 0.000092 0.054379
#
#
# Mechanical properties :
#
#
# Convention : Reuss Voigt Hill
#
# Bulk Modulus (GPa) = 18.35316 43.72225 31.03770
# Shear Modulus (GPa) = 17.64478 27.60199 22.62339
#
# Velocity S-wave (km/s) = 3.00654 3.76036 3.40438
# Velocity P-wave (km/s) = 4.63191 6.42279 5.59941
#
# Compressibility (1/GPa) = 0.05448654
#
# Stress axis : x y z
#
# Youngs Moduli (GPa) = 93.40113 17.73763 93.46171
#
# Poissons Ratio (x) = 0.10935 0.37831
# Poissons Ratio (y) = 0.57581 0.13419
# Poissons Ratio (z) = 0.37807 0.02547
#
# Static dielectric constant tensor:
#      x y z
#    x 4.355590 0.000030 0.165270 
#    y 0.000030 3.146320 0.000000 
#    z 0.165270 0.000000 3.700290 
# 
# 
# High freq. dielectric constant tensor:
#      x y z
#    x 1.780000 0.000000 0.009480 
#    y 0.000000 1.681530 0.000000 
#    z 0.009480 0.000000 1.781110 
# 
# From -- ./inp_files/255671.got.cif
#   From: 2010.06.25/outbox.cif.g09.slc.cpg/sg15_128_cif.got.tgz:255671.got - 2010.06.28 07:06:18.
