data_PCOD8132613
_publ_section_title
;
Structure prediction by ZEFSAII (Michael W. Deem and Ramdas Pophale) SiO2 
 PCOD8132613
Probable space group: C 2/C
;
_chemical_formula_sum "Si O2"
_cell_formula_units_Z 52
_cell_length_a 16.062080
_cell_length_b 8.139363
_cell_length_c 25.054172
_cell_angle_alpha 90.000000
_cell_angle_beta 135.428473
_cell_angle_gamma 90.000000
_cell_volume 2298.714738
_symmetry_space_group_name_H-M "C 2/C"
_symmetry_group_IT_number 15
_symmetry_cell_setting 'monoclinic'
loop_
_space_group_symop_operation_xyz
x,y,z
-x,y,1/2-z
-x,-y,-z
x,-y,1/2+z
1/2+x,1/2+y,z
1/2-x,1/2+y,1/2-z
1/2-x,1/2-y,-z
1/2+x,1/2-y,1/2+z
loop_
_atom_site_type_symbol
_atom_site_label
_atom_site_fract_x
_atom_site_fract_y
_atom_site_fract_z
Si Si1 0.972193 0.375033 0.070481
Si Si2 0.107828 0.876486 0.048617
Si Si3 0.014158 0.198758 0.819296
Si Si4 0.329404 0.970372 0.592380
Si Si5 0.091425 0.139198 0.207236
Si Si6 0.500000 0.861277 0.250000
Si Si7 0.142306 0.338869 0.662695
O O1 0.048036 0.240105 0.136752
O O2 0.060864 0.523875 0.097126
O O3 0.854246 0.440255 0.047414
O O4 0.924033 0.293249 0.994917
O O5 0.205131 0.979781 0.060238
O O6 0.146663 0.823076 0.126215
O O7 0.000000 0.000000 0.000000
O O8 0.911056 0.295108 0.803990
O O9 0.000000 0.220382 0.750000
O O10 0.143896 0.271999 0.897800
O O11 0.002565 0.008841 0.830010
O O12 0.435515 0.024632 0.678955
O O13 0.228504 0.084228 0.265154
O O14 0.092874 0.246824 0.261549
#
# Coordination Sequence:
#
# PCOD8132613 Si02
#       7
#     8   8   8   8   8   4   8
#     4  10  24  43  65  95 132 181 227 265 340 405
#     4  12  25  44  66  98 135 178 222 278 338 405
#     4  11  23  39  64 102 135 166 224 282 339 393
#     4  10  22  42  67  90 134 174 217 273 331 407
#     4  11  21  40  67 103 129 173 226 278 331 396
#     4  10  18  38  66  94 126 168 210 266 334 390
#     4  11  24  43  69  96 138 178 225 283 333 402
#
# _framework density 22.621334999999998
#
# number of rings (size 3 to 8) (size 9 to 14) (size 15 to 20)
#    0.000    1.231    3.077    2.769    0.000    3.692 
#    0.000    8.462    0.000    0.000    0.000    0.000 
#    0.000    0.000    0.000    0.000    0.000    0.000 
#
# Total GULP energy -322304.436103 kJ/mol
# GULP energy per Si atom -12396.324465 kJ/mol
# Density = 2.256985 g / cm^3
# Si number density = 22.621335 Si / 1000 Ang^3
#
#
#
# Elastic Constant Matrix: (Units=GPa)
#
#
# Indices 1 2 3 4 5 6 
#
# 1 128.9831 40.3767 42.2871 0.0000 15.4736 0.0000
# 2 40.3767 105.8828 20.4157 0.0000 9.2877 0.0000
# 3 42.2871 20.4157 52.1263 0.0000 4.6447 0.0000
# 4 0.0000 0.0000 0.0000 29.3725 0.0000 4.1497
# 5 15.4736 9.2877 4.6447 0.0000 39.7360 0.0000
# 6 0.0000 0.0000 0.0000 4.1497 0.0000 28.1597
#
#
#
# Elastic Compliance Matrix: (Units=1/GPa)
#
#
# Indices 1 2 3 4 5 6 
#
# 1 0.011579 -0.002592 -0.008115 0.000000 -0.002955 0.000000
# 2 -0.002592 0.010946 -0.002068 0.000000 -0.001308 0.000000
# 3 -0.008115 -0.002068 0.026529 0.000000 0.000543 0.000000
# 4 0.000000 0.000000 0.000000 0.034769 0.000000 -0.005124
# 5 -0.002955 -0.001308 0.000543 0.000000 0.026559 0.000000
# 6 0.000000 0.000000 0.000000 -0.005124 0.000000 0.036267
#
#
# Mechanical properties :
#
#
# Convention : Reuss Voigt Hill
#
# Bulk Modulus (GPa) = 42.54506 54.79460 48.66983
# Shear Modulus (GPa) = 27.77237 31.71448 29.74342
#
# Velocity S-wave (km/s) = 3.50767 3.74835 3.63001
# Velocity P-wave (km/s) = 5.93745 6.55810 6.25548
#
# Compressibility (1/GPa) = 0.02350449
#
# Stress axis : x y z
#
# Youngs Moduli (GPa) = 86.36082 91.35627 37.69413
#
# Poissons Ratio (x) = 0.23676 0.30590
# Poissons Ratio (y) = 0.22382 0.07796
# Poissons Ratio (z) = 0.70085 0.18894
#
# Static dielectric constant tensor:
#      x y z
#    x 4.433190 0.000000 -0.114050 
#    y 0.000000 4.363410 0.000000 
#    z -0.114050 0.000000 3.709570 
# 
# 
# High freq. dielectric constant tensor:
#      x y z
#    x 1.906120 0.000000 -0.009620 
#    y 0.000000 1.903650 0.000000 
#    z -0.009620 0.000000 1.869260 
# 
# From -- ./inp_files/295292.got.cif
#   From: 2010.06.25/outbox.cif.g09.slc.cpg/sg15_148_cif.got.tgz:295292.got - 2010.06.28 07:06:18.
