data_PCOD8132204
_publ_section_title
;
Structure prediction by ZEFSAII (Michael W. Deem and Ramdas Pophale) SiO2 
 PCOD8132204
Probable space group: C 2/C
;
_chemical_formula_sum "Si O2"
_cell_formula_units_Z 52
_cell_length_a 26.901498
_cell_length_b 19.456885
_cell_length_c 15.244532
_cell_angle_alpha 90.000000
_cell_angle_beta 19.891568
_cell_angle_gamma 90.000000
_cell_volume 2714.880593
_symmetry_space_group_name_H-M "C 2/C"
_symmetry_group_IT_number 15
_symmetry_cell_setting 'monoclinic'
loop_
_space_group_symop_operation_xyz
x,y,z
-x,y,1/2-z
-x,-y,-z
x,-y,1/2+z
1/2+x,1/2+y,z
1/2-x,1/2+y,1/2-z
1/2-x,1/2-y,-z
1/2+x,1/2-y,1/2+z
loop_
_atom_site_type_symbol
_atom_site_label
_atom_site_fract_x
_atom_site_fract_y
_atom_site_fract_z
Si Si1 0.716150 0.885787 0.778869
Si Si2 0.655410 0.991573 0.512015
Si Si3 0.038229 0.955267 0.520396
Si Si4 0.661128 0.211774 0.512059
Si Si5 0.000000 0.950182 0.250000
Si Si6 0.803369 0.848089 0.951663
Si Si7 0.560012 0.061097 0.844052
O O1 0.857894 0.900945 0.484481
O O2 0.685015 0.948256 0.894905
O O3 0.750846 0.816132 0.778127
O O4 0.569213 0.883881 0.963119
O O5 0.500000 0.954458 0.750000
O O6 0.649339 0.028161 0.615517
O O7 0.788641 0.937785 0.278352
O O8 0.953719 0.883039 0.669642
O O9 0.000000 0.000000 0.500000
O O10 0.997616 0.001324 0.670313
O O11 0.500000 0.187405 0.750000
O O12 0.718300 0.178873 0.506957
O O13 0.664633 0.293308 0.524386
O O14 0.687483 0.900594 0.187805
O O15 0.500000 0.000000 0.000000
#
# Coordination Sequence:
#
# PCOD8132204 Si02
#       7
#     8   8   8   8   4   8   8
#     4  10  18  36  59  82 119 164 204 247 311 377
#     4   9  18  34  55  81 126 162 184 242 326 373
#     4  11  20  36  58  93 135 149 199 271 318 377
#     4  11  21  40  60  80 121 163 209 253 298 374
#     4  10  22  34  60  94 120 162 206 254 332 382
#     4  11  22  35  61  93 113 160 208 250 314 372
#     4  11  19  33  57  91 123 154 202 253 313 382
#
# _framework density 19.153696
#
# number of rings (size 3 to 8) (size 9 to 14) (size 15 to 20)
#    0.000    1.538    4.615    2.308    1.077    0.000 
#    0.000    0.000    0.000    2.769    0.000    0.000 
#    0.000    0.000    0.000    0.000    0.000    0.000 
#
# Total GULP energy -322089.972266 kJ/mol
# GULP energy per Si atom -12388.075856 kJ/mol
# Density = 1.911010 g / cm^3
# Si number density = 19.153696 Si / 1000 Ang^3
#
#
#
# Elastic Constant Matrix: (Units=GPa)
#
#
# Indices 1 2 3 4 5 6 
#
# 1 69.7334 25.2842 39.8661 0.0012 -7.2695 -0.0027
# 2 25.2842 79.5146 53.4126 -0.0010 -12.1014 -0.0015
# 3 39.8661 53.4126 158.1808 -0.0041 -15.4129 -0.0018
# 4 0.0012 -0.0010 -0.0041 25.8391 0.0005 -0.0159
# 5 -7.2695 -12.1014 -15.4129 0.0005 27.8398 0.0019
# 6 -0.0027 -0.0015 -0.0018 -0.0159 0.0019 28.7019
#
#
#
# Elastic Compliance Matrix: (Units=1/GPa)
#
#
# Indices 1 2 3 4 5 6 
#
# 1 0.017468 -0.003201 -0.003184 -0.000001 0.001407 0.000001
# 2 -0.003201 0.017345 -0.004647 0.000000 0.004131 0.000000
# 3 -0.003184 -0.004647 0.008896 0.000001 0.002073 0.000000
# 4 -0.000001 0.000000 0.000001 0.038701 0.000000 0.000021
# 5 0.001407 0.004131 0.002073 0.000000 0.039230 -0.000002
# 6 0.000001 0.000000 0.000000 0.000021 -0.000002 0.034841
#
#
# Mechanical properties :
#
#
# Convention : Reuss Voigt Hill
#
# Bulk Modulus (GPa) = 46.20595 60.50605 53.35600
# Shear Modulus (GPa) = 26.91618 29.06721 27.99170
#
# Velocity S-wave (km/s) = 3.75276 3.89984 3.82701
# Velocity P-wave (km/s) = 6.55392 7.20671 6.88805
#
# Compressibility (1/GPa) = 0.02164223
#
# Stress axis : x y z
#
# Youngs Moduli (GPa) = 57.24662 57.65424 112.41312
#
# Poissons Ratio (x) = 0.18457 0.35797
# Poissons Ratio (y) = 0.18327 0.52244
# Poissons Ratio (z) = 0.18230 0.26795
#
# Static dielectric constant tensor:
#      x y z
#    x 3.618810 0.000000 -0.557820 
#    y 0.000000 3.450990 0.000000 
#    z -0.557820 0.000000 4.062840 
# 
# 
# High freq. dielectric constant tensor:
#      x y z
#    x 1.747970 0.000000 -0.016860 
#    y 0.000000 1.705900 0.000000 
#    z -0.016860 0.000000 1.754570 
# 
# From -- ./inp_files/179003.got.cif
#   From: 2010.06.25/outbox.cif.g09.slc.cpg/sg15_90_cif.got.tgz:179003.got - 2010.06.28 07:06:18.
