data_PCOD8132024
_publ_section_title
;
Structure prediction by ZEFSAII (Michael W. Deem and Ramdas Pophale) SiO2 
 PCOD8132024
Probable space group: C 2/C
;
_chemical_formula_sum "Si O2"
_cell_formula_units_Z 40
_cell_length_a 18.702245
_cell_length_b 14.671045
_cell_length_c 14.655039
_cell_angle_alpha 90.000000
_cell_angle_beta 28.040472
_cell_angle_gamma 90.000000
_cell_volume 1890.286029
_symmetry_space_group_name_H-M "C 2/C"
_symmetry_group_IT_number 15
_symmetry_cell_setting 'monoclinic'
loop_
_space_group_symop_operation_xyz
x,y,z
-x,y,1/2-z
-x,-y,-z
x,-y,1/2+z
1/2+x,1/2+y,z
1/2-x,1/2+y,1/2-z
1/2-x,1/2-y,-z
1/2+x,1/2-y,1/2+z
loop_
_atom_site_type_symbol
_atom_site_label
_atom_site_fract_x
_atom_site_fract_y
_atom_site_fract_z
Si Si1 0.201784 0.517990 0.095464
Si Si2 0.145548 0.463553 0.455877
Si Si3 0.741842 0.375924 0.803363
Si Si4 0.860772 0.324776 0.340066
Si Si5 0.941226 0.708183 0.548501
O O1 0.307431 0.573750 0.046885
O O2 0.248219 0.412557 0.045024
O O3 0.031853 0.517331 0.329659
O O4 0.219492 0.554643 0.972205
O O5 0.220274 0.550029 0.318910
O O6 0.165641 0.370638 0.375325
O O7 0.603093 0.309824 0.933829
O O8 0.883379 0.311347 0.670722
O O9 0.750000 0.250000 0.500000
O O10 0.929563 0.291269 0.169185
O O11 0.000000 0.347749 0.250000
#
# Coordination Sequence:
#
# PCOD8132024 Si02
#       5
#     8   8   8   8   8
#     4  10  18  35  60  83 111 158 195 232 277 344
#     4  10  18  36  59  83 114 151 200 232 276 348
#     4  11  21  38  60  86 119 150 196 241 284 345
#     4  12  21  35  61  90 116 146 196 238 291 340
#     4  11  21  36  58  87 115 153 190 239 291 338
#
# _framework density 21.160817999999999
#
# number of rings (size 3 to 8) (size 9 to 14) (size 15 to 20)
#    0.000    1.200    6.000    3.600    0.000    0.800 
#    0.000    1.000    4.400    0.000    0.000    0.000 
#    0.000    0.000    0.000    0.000    0.000    0.000 
#
# Total GULP energy -247899.567622 kJ/mol
# GULP energy per Si atom -12394.978381 kJ/mol
# Density = 2.111265 g / cm^3
# Si number density = 21.160818 Si / 1000 Ang^3
#
#
#
# Elastic Constant Matrix: (Units=GPa)
#
#
# Indices 1 2 3 4 5 6 
#
# 1 139.6432 62.4290 23.9145 0.0002 29.5623 -0.0001
# 2 62.4290 123.6462 23.9416 0.0002 13.9915 -0.0002
# 3 23.9145 23.9416 26.5286 0.0003 9.6420 -0.0003
# 4 0.0002 0.0002 0.0003 28.7994 -0.0001 0.8258
# 5 29.5623 13.9915 9.6420 -0.0001 22.0790 0.0000
# 6 -0.0001 -0.0002 -0.0003 0.8258 0.0000 47.8470
#
#
#
# Elastic Compliance Matrix: (Units=1/GPa)
#
#
# Indices 1 2 3 4 5 6 
#
# 1 0.012119 -0.004207 -0.002614 0.000000 -0.012418 0.000000
# 2 -0.004207 0.011408 -0.007040 0.000000 0.001479 0.000000
# 3 -0.002614 -0.007040 0.051721 -0.000001 -0.014626 0.000000
# 4 0.000000 0.000000 -0.000001 0.034740 0.000000 -0.000600
# 5 -0.012418 0.001479 -0.014626 0.000000 0.067369 0.000000
# 6 0.000000 0.000000 0.000000 -0.000600 0.000000 0.020910
#
#
# Mechanical properties :
#
#
# Convention : Reuss Voigt Hill
#
# Bulk Modulus (GPa) = 21.04171 56.70982 38.87577
# Shear Modulus (GPa) = 20.67563 31.71394 26.19479
#
# Velocity S-wave (km/s) = 3.12921 3.87552 3.52218
# Velocity P-wave (km/s) = 4.79804 6.84718 5.91206
#
# Compressibility (1/GPa) = 0.04752465
#
# Stress axis : x y z
#
# Youngs Moduli (GPa) = 82.51756 87.66010 19.33465
#
# Poissons Ratio (x) = 0.36882 0.05054
# Poissons Ratio (y) = 0.34718 0.13611
# Poissons Ratio (z) = 0.21569 0.61712
#
# Static dielectric constant tensor:
#      x y z
#    x 4.173090 0.000000 0.220030 
#    y 0.000000 4.186400 0.000000 
#    z 0.220030 0.000000 3.544310 
# 
# 
# High freq. dielectric constant tensor:
#      x y z
#    x 1.840700 0.000000 0.029490 
#    y 0.000000 1.843400 0.000000 
#    z 0.029490 0.000000 1.780170 
# 
# From -- ./inp_files/37825.got.cif
#   From: 2010.06.25/outbox.cif.g09.slc.cpg/sg15_19_cif.got.tgz:37825.got - 2010.06.28 07:06:18.
