data_PCOD8132988
_publ_section_title
;
Structure prediction by ZEFSAII (Michael W. Deem and Ramdas Pophale) SiO2 
 PCOD8132988
Probable space group: C 2/C
;
_chemical_formula_sum "Si O2"
_cell_formula_units_Z 56
_cell_length_a 19.454570
_cell_length_b 13.590023
_cell_length_c 15.867935
_cell_angle_alpha 90.000000
_cell_angle_beta 136.625152
_cell_angle_gamma 90.000000
_cell_volume 2881.194658
_symmetry_space_group_name_H-M "C 2/C"
_symmetry_group_IT_number 15
_symmetry_cell_setting 'monoclinic'
loop_
_space_group_symop_operation_xyz
x,y,z
-x,y,1/2-z
-x,-y,-z
x,-y,1/2+z
1/2+x,1/2+y,z
1/2-x,1/2+y,1/2-z
1/2-x,1/2-y,-z
1/2+x,1/2-y,1/2+z
loop_
_atom_site_type_symbol
_atom_site_label
_atom_site_fract_x
_atom_site_fract_y
_atom_site_fract_z
Si Si1 0.153498 0.027188 0.543505
Si Si2 0.786003 0.139760 0.054158
Si Si3 0.039002 0.136788 0.171110
Si Si4 0.298381 0.129341 0.785414
Si Si5 0.979894 0.351312 0.330347
Si Si6 0.292376 0.347353 0.816371
Si Si7 0.852640 0.444657 0.925664
O O1 0.224766 0.068620 0.534529
O O2 0.191041 0.083485 0.662160
O O3 0.037564 0.048731 0.418357
O O4 0.172858 0.909539 0.570187
O O5 0.903821 0.135347 0.187078
O O6 0.716557 0.090952 0.060626
O O7 0.750000 0.250000 0.000000
O O8 0.125546 0.128201 0.180153
O O9 0.979504 0.240713 0.115454
O O10 0.364241 0.144025 0.758016
O O11 0.284174 0.231065 0.823611
O O12 0.347593 0.059936 0.900017
O O13 0.034901 0.423674 0.444564
O O14 0.000000 0.380625 0.250000
O O15 0.182615 0.384893 0.688925
#
# Coordination Sequence:
#
# PCOD8132988 Si02
#       7
#     8   8   8   8   8   8   8
#     4  11  19  32  53  75 101 134 170 212 258 305
#     4  11  20  33  53  81 105 127 167 219 261 301
#     4  10  19  31  51  78 105 130 161 211 266 306
#     4  10  21  35  50  73 105 137 172 212 253 308
#     4  11  19  31  53  78 100 129 167 214 262 301
#     4   9  20  34  50  73 102 136 171 206 253 314
#     4  10  20  34  52  74 103 135 168 212 263 307
#
# _framework density 19.436382999999999
#
# number of rings (size 3 to 8) (size 9 to 14) (size 15 to 20)
#    0.000    1.714    0.000    8.143    0.000    0.000 
#    0.000    0.714    0.000    1.714    0.000    0.000 
#    0.000    0.000    0.000    0.000    0.000    0.000 
#
# Total GULP energy -346971.998564 kJ/mol
# GULP energy per Si atom -12391.857092 kJ/mol
# Density = 1.939214 g / cm^3
# Si number density = 19.436383 Si / 1000 Ang^3
#
#
#
# Elastic Constant Matrix: (Units=GPa)
#
#
# Indices 1 2 3 4 5 6 
#
# 1 31.0623 24.1938 12.5114 0.0000 -3.6206 0.0000
# 2 24.1938 140.8143 46.6291 0.0000 -12.1156 0.0000
# 3 12.5114 46.6291 104.7746 0.0000 6.5852 0.0000
# 4 0.0000 0.0000 0.0000 32.0648 0.0000 -4.7139
# 5 -3.6206 -12.1156 6.5852 0.0000 29.1978 0.0000
# 6 0.0000 0.0000 0.0000 -4.7139 0.0000 25.5688
#
#
#
# Elastic Compliance Matrix: (Units=1/GPa)
#
#
# Indices 1 2 3 4 5 6 
#
# 1 0.037709 -0.005486 -0.002244 0.000000 0.002906 0.000000
# 2 -0.005486 0.009711 -0.003933 0.000000 0.004236 0.000000
# 3 -0.002244 -0.003933 0.011851 0.000000 -0.004583 0.000000
# 4 0.000000 0.000000 0.000000 0.032056 0.000000 0.005910
# 5 0.002906 0.004236 -0.004583 0.000000 0.037401 0.000000
# 6 0.000000 0.000000 0.000000 0.005910 0.000000 0.040200
#
#
# Mechanical properties :
#
#
# Convention : Reuss Voigt Hill
#
# Bulk Modulus (GPa) = 27.82055 49.25774 38.53914
# Shear Modulus (GPa) = 24.48173 30.25407 27.36790
#
# Velocity S-wave (km/s) = 3.55291 3.94962 3.75650
# Velocity P-wave (km/s) = 5.58351 6.79687 6.21985
#
# Compressibility (1/GPa) = 0.03594466
#
# Stress axis : x y z
#
# Youngs Moduli (GPa) = 26.51906 102.97683 84.38346
#
# Poissons Ratio (x) = 0.56490 0.18937
# Poissons Ratio (y) = 0.14548 0.33188
# Poissons Ratio (z) = 0.05951 0.40500
#
# Static dielectric constant tensor:
#      x y z
#    x 3.419520 0.000000 0.112760 
#    y 0.000000 3.557360 0.000000 
#    z 0.112760 0.000000 3.888240 
# 
# 
# High freq. dielectric constant tensor:
#      x y z
#    x 1.740660 0.000000 0.013950 
#    y 0.000000 1.742600 0.000000 
#    z 0.013950 0.000000 1.764080 
# 
# From -- ./inp_files/168483.got.cif
#   From: 2010.06.25/outbox.cif.g09.slc.cpg/sg15_85_cif.got.tgz:168483.got - 2010.06.28 07:06:18.
