data_PCOD8132575
_publ_section_title
;
Structure prediction by ZEFSAII (Michael W. Deem and Ramdas Pophale) SiO2 
 PCOD8132575
Probable space group: C 2/C
;
_chemical_formula_sum "Si O2"
_cell_formula_units_Z 56
_cell_length_a 23.109302
_cell_length_b 9.493834
_cell_length_c 14.503988
_cell_angle_alpha 90.000000
_cell_angle_beta 63.345738
_cell_angle_gamma 90.000000
_cell_volume 2843.951106
_symmetry_space_group_name_H-M "C 2/C"
_symmetry_group_IT_number 15
_symmetry_cell_setting 'monoclinic'
loop_
_space_group_symop_operation_xyz
x,y,z
-x,y,1/2-z
-x,-y,-z
x,-y,1/2+z
1/2+x,1/2+y,z
1/2-x,1/2+y,1/2-z
1/2-x,1/2-y,-z
1/2+x,1/2-y,1/2+z
loop_
_atom_site_type_symbol
_atom_site_label
_atom_site_fract_x
_atom_site_fract_y
_atom_site_fract_z
Si Si1 0.251798 0.420325 0.486987
Si Si2 0.838045 0.007137 0.760906
Si Si3 0.112497 0.293736 0.743970
Si Si4 0.615658 0.220726 0.836869
Si Si5 0.383496 0.125999 0.466859
Si Si6 0.010091 0.481225 0.347919
Si Si7 0.222416 0.504254 0.700414
O O1 0.250000 0.250000 0.500000
O O2 0.311006 0.475405 0.383634
O O3 0.182932 0.463261 0.490456
O O4 0.259130 0.507841 0.576271
O O5 0.882925 0.871920 0.712925
O O6 0.776463 0.000999 0.739017
O O7 0.886361 0.138923 0.712047
O O8 0.105908 0.290627 0.636777
O O9 0.051976 0.376584 0.828806
O O10 0.179851 0.362415 0.728994
O O11 0.546158 0.149386 0.869040
O O12 0.674676 0.135168 0.749085
O O13 0.622990 0.233829 0.942529
O O14 0.440974 0.013132 0.444815
O O15 0.000000 0.438262 0.250000
#
# Coordination Sequence:
#
# PCOD8132575 Si02
#       7
#     8   8   8   8   8   8   8
#     4  11  20  37  63  86 115 158 197 230 292 366
#     4  12  21  34  59  91 123 147 188 251 302 338
#     4   9  20  37  60  83 112 162 202 234 282 361
#     4  11  22  34  59  92 118 146 191 257 296 326
#     4  10  18  38  64  83 108 164 208 230 273 370
#     4   9  20  40  63  82 110 156 209 234 282 356
#     4  10  20  35  56  86 119 153 195 231 287 367
#
# _framework density 19.690915
#
# number of rings (size 3 to 8) (size 9 to 14) (size 15 to 20)
#    0.000    1.714    4.286    3.000    0.000    0.571 
#    0.000    2.857    3.143    0.000    0.000    0.000 
#    0.000    0.000    0.000    0.000    0.000    0.000 
#
# Total GULP energy -347069.083710 kJ/mol
# GULP energy per Si atom -12395.324418 kJ/mol
# Density = 1.964610 g / cm^3
# Si number density = 19.690915 Si / 1000 Ang^3
#
#
#
# Elastic Constant Matrix: (Units=GPa)
#
#
# Indices 1 2 3 4 5 6 
#
# 1 83.3382 36.0336 10.5984 0.0000 0.2020 0.0000
# 2 36.0336 122.9565 28.9215 0.0000 5.2152 0.0000
# 3 10.5984 28.9215 58.9726 0.0000 9.7090 0.0000
# 4 0.0000 0.0000 0.0000 22.4449 0.0000 1.1422
# 5 0.2020 5.2152 9.7090 0.0000 27.6108 0.0000
# 6 0.0000 0.0000 0.0000 1.1422 0.0000 8.8093
#
#
#
# Elastic Compliance Matrix: (Units=1/GPa)
#
#
# Indices 1 2 3 4 5 6 
#
# 1 0.013777 -0.003909 -0.000705 0.000000 0.000885 0.000000
# 2 -0.003909 0.010303 -0.004283 0.000000 -0.000412 0.000000
# 3 -0.000705 -0.004283 0.020221 0.000000 -0.006296 0.000000
# 4 0.000000 0.000000 0.000000 0.044849 0.000000 -0.005815
# 5 0.000885 -0.000412 -0.006296 0.000000 0.038503 0.000000
# 6 0.000000 0.000000 0.000000 -0.005815 0.000000 0.114271
#
#
# Mechanical properties :
#
#
# Convention : Reuss Voigt Hill
#
# Bulk Modulus (GPa) = 37.72452 46.26380 41.99416
# Shear Modulus (GPa) = 18.61829 24.42060 21.51944
#
# Velocity S-wave (km/s) = 3.07828 3.52546 3.30943
# Velocity P-wave (km/s) = 5.64219 6.33387 5.99801
#
# Compressibility (1/GPa) = 0.02650796
#
# Stress axis : x y z
#
# Youngs Moduli (GPa) = 72.58443 97.05490 49.45465
#
# Poissons Ratio (x) = 0.37942 0.03484
# Poissons Ratio (y) = 0.28376 0.21180
# Poissons Ratio (z) = 0.05114 0.41566
#
# Static dielectric constant tensor:
#      x y z
#    x 3.789670 0.000000 -0.017370 
#    y 0.000000 3.385620 0.000000 
#    z -0.017370 0.000000 3.761130 
# 
# 
# High freq. dielectric constant tensor:
#      x y z
#    x 1.773090 0.000000 0.005620 
#    y 0.000000 1.732310 0.000000 
#    z 0.005620 0.000000 1.770800 
# 
# From -- ./inp_files/171816.got.cif
#   From: 2010.06.25/outbox.cif.g09.slc.cpg/sg15_86_cif.got.tgz:171816.got - 2010.06.28 07:06:18.
