data_PCOD8132353
_publ_section_title
;
Structure prediction by ZEFSAII (Michael W. Deem and Ramdas Pophale) SiO2 
 PCOD8132353
Probable space group: C 2/C
;
_chemical_formula_sum "Si O2"
_cell_formula_units_Z 60
_cell_length_a 19.964935
_cell_length_b 9.196596
_cell_length_c 18.482551
_cell_angle_alpha 90.000000
_cell_angle_beta 50.041193
_cell_angle_gamma 90.000000
_cell_volume 2601.193717
_symmetry_space_group_name_H-M "C 2/C"
_symmetry_group_IT_number 15
_symmetry_cell_setting 'monoclinic'
loop_
_space_group_symop_operation_xyz
x,y,z
-x,y,1/2-z
-x,-y,-z
x,-y,1/2+z
1/2+x,1/2+y,z
1/2-x,1/2+y,1/2-z
1/2-x,1/2-y,-z
1/2+x,1/2-y,1/2+z
loop_
_atom_site_type_symbol
_atom_site_label
_atom_site_fract_x
_atom_site_fract_y
_atom_site_fract_z
Si Si1 0.500000 0.927423 0.750000
Si Si2 0.445499 0.192706 0.582401
Si Si3 0.960997 0.958713 0.918341
Si Si4 0.181020 0.591390 0.094972
Si Si5 0.684550 0.583412 0.375719
Si Si6 0.163015 0.921602 0.106472
Si Si7 0.144328 0.892410 0.284600
Si Si8 0.445155 0.877318 0.634371
O O1 0.406705 0.008755 0.831880
O O2 0.483284 0.835885 0.687911
O O3 0.509621 0.292340 0.587273
O O4 0.351354 0.265715 0.632514
O O5 0.487242 0.160688 0.475620
O O6 0.425106 0.048428 0.642838
O O7 0.915857 0.979842 0.870591
O O8 0.044535 0.060449 0.868688
O O9 0.891731 0.007597 0.025816
O O10 0.229810 0.612673 0.137220
O O11 0.149414 0.753063 0.092403
O O12 0.244275 0.521613 0.991126
O O13 0.709890 0.475334 0.292754
O O14 0.171340 0.938852 0.185801
O O15 0.143802 0.720258 0.305891
#
# Coordination Sequence:
#
# PCOD8132353 Si02
#       8
#     4   8   8   8   8   8   8   8
#     4  12  24  44  62  90 124 168 226 264 336 398
#     4  10  21  39  62  97 139 172 211 260 333 386
#     4  10  18  36  66  97 132 169 219 272 315 388
#     4  10  23  39  64  93 125 169 215 285 322 397
#     4  10  20  38  62  97 131 165 221 277 324 375
#     4  10  21  35  62  98 128 165 220 272 330 379
#     4  11  18  35  63  98 128 173 220 265 313 396
#     4  11  22  37  64  94 131 185 207 258 318 409
#
# _framework density 23.066331999999999
#
# number of rings (size 3 to 8) (size 9 to 14) (size 15 to 20)
#    0.000    1.600    4.000    2.000    3.733    0.000 
#    7.200    0.000    0.000    4.800    0.000    0.000 
#    0.000    0.000    0.000    0.000    0.000    0.000 
#
# Total GULP energy -371691.967593 kJ/mol
# GULP energy per Si atom -12389.732253 kJ/mol
# Density = 2.301383 g / cm^3
# Si number density = 23.066332 Si / 1000 Ang^3
#
#
#
# Elastic Constant Matrix: (Units=GPa)
#
#
# Indices 1 2 3 4 5 6 
#
# 1 113.2267 50.4811 41.4762 0.0000 0.7179 0.0000
# 2 50.4811 124.2296 27.3244 0.0001 9.2170 -0.0002
# 3 41.4762 27.3244 77.5951 0.0000 13.6935 0.0000
# 4 0.0000 0.0001 0.0000 16.4332 0.0000 7.4751
# 5 0.7179 9.2170 13.6935 0.0000 46.8429 0.0000
# 6 0.0000 -0.0002 0.0000 7.4751 0.0000 24.8265
#
#
#
# Elastic Compliance Matrix: (Units=1/GPa)
#
#
# Indices 1 2 3 4 5 6 
#
# 1 0.012757 -0.004081 -0.005787 0.000000 0.002299 0.000000
# 2 -0.004081 0.010064 -0.001080 0.000000 -0.001602 0.000000
# 3 -0.005787 -0.001080 0.017195 0.000000 -0.004725 0.000000
# 4 0.000000 0.000000 0.000000 0.070509 0.000000 -0.021230
# 5 0.002299 -0.001602 -0.004725 0.000000 0.023009 0.000000
# 6 0.000000 0.000000 0.000000 -0.021230 0.000000 0.046672
#
#
# Mechanical properties :
#
#
# Convention : Reuss Voigt Hill
#
# Bulk Modulus (GPa) = 55.18994 61.51275 58.35135
# Shear Modulus (GPa) = 24.02191 30.67185 27.34688
#
# Velocity S-wave (km/s) = 3.23062 3.65049 3.44695
# Velocity P-wave (km/s) = 6.15584 6.67037 6.41826
#
# Compressibility (1/GPa) = 0.01811924
#
# Stress axis : x y z
#
# Youngs Moduli (GPa) = 78.38877 99.35923 58.15637
#
# Poissons Ratio (x) = 0.40553 0.33657
# Poissons Ratio (y) = 0.31994 0.06279
# Poissons Ratio (z) = 0.45367 0.10728
#
# Static dielectric constant tensor:
#      x y z
#    x 4.327490 0.000000 0.062210 
#    y 0.000000 4.050020 0.000000 
#    z 0.062210 0.000000 4.392620 
# 
# 
# High freq. dielectric constant tensor:
#      x y z
#    x 1.909950 0.000000 0.005700 
#    y 0.000000 1.869450 0.000000 
#    z 0.005700 0.000000 1.931300 
# 
# From -- ./inp_files/252089.got.cif
#   From: 2010.06.25/outbox.cif.g09.slc.cpg/sg15_127_cif.got.tgz:252089.got - 2010.06.28 07:06:18.
