data_PCOD8132458
_publ_section_title
;
Structure prediction by ZEFSAII (Michael W. Deem and Ramdas Pophale) SiO2 
 PCOD8132458
Probable space group: C 2/C
;
_chemical_formula_sum "Si O2"
_cell_formula_units_Z 52
_cell_length_a 9.275732
_cell_length_b 22.507089
_cell_length_c 19.709481
_cell_angle_alpha 90.000000
_cell_angle_beta 143.152753
_cell_angle_gamma 90.000000
_cell_volume 2467.544232
_symmetry_space_group_name_H-M "C 2/C"
_symmetry_group_IT_number 15
_symmetry_cell_setting 'monoclinic'
loop_
_space_group_symop_operation_xyz
x,y,z
-x,y,1/2-z
-x,-y,-z
x,-y,1/2+z
1/2+x,1/2+y,z
1/2-x,1/2+y,1/2-z
1/2-x,1/2-y,-z
1/2+x,1/2-y,1/2+z
loop_
_atom_site_type_symbol
_atom_site_label
_atom_site_fract_x
_atom_site_fract_y
_atom_site_fract_z
Si Si1 0.000000 0.425615 0.750000
Si Si2 0.240966 0.779563 0.382740
Si Si3 0.216880 0.314296 0.516100
Si Si4 0.151704 0.112810 0.931658
Si Si5 0.000000 0.144696 0.250000
Si Si6 0.059428 0.149050 0.038527
Si Si7 0.368316 0.947551 0.844266
Si Si8 0.500000 0.540872 0.750000
O O1 0.220261 0.382077 0.842919
O O2 0.057825 0.465452 0.705213
O O3 0.429394 0.823515 0.413938
O O4 0.187533 0.817057 0.430215
O O5 0.370566 0.717768 0.448904
O O6 0.000000 0.768082 0.250000
O O7 0.250000 0.250000 0.500000
O O8 0.347108 0.316777 0.638759
O O9 0.331318 0.358735 0.503154
O O10 0.995900 0.081918 0.814831
O O11 0.007433 0.114131 0.948606
O O12 0.398180 0.075472 0.028320
O O13 0.822632 0.105847 0.229549
O O14 0.244373 0.002072 0.837360
#
# Coordination Sequence:
#
# PCOD8132458 Si02
#       8
#     4   8   8   8   4   8   8   4
#     4  10  18  37  64  93 121 161 214 264 312 368
#     4  11  21  39  64  94 133 168 204 249 309 392
#     4  10  22  38  58  95 133 165 210 257 308 377
#     4  11  22  40  64  89 124 167 207 259 314 373
#     4  11  18  38  64  85 119 172 212 257 300 376
#     4  10  21  38  61  96 130 163 205 254 313 380
#     4  10  22  38  66  85 117 161 218 265 309 367
#     4  11  24  43  60  92 120 163 224 259 320 370
#
# _framework density 21.073584
#
# number of rings (size 3 to 8) (size 9 to 14) (size 15 to 20)
#    0.000    1.538    4.615    0.923    0.000    0.000 
#   11.077    4.615    0.000    0.000    0.000    0.000 
#    0.000    0.000    0.000    0.000    0.000    0.000 
#
# Total GULP energy -322150.999343 kJ/mol
# GULP energy per Si atom -12390.423052 kJ/mol
# Density = 2.102562 g / cm^3
# Si number density = 21.073584 Si / 1000 Ang^3
#
#
#
# Elastic Constant Matrix: (Units=GPa)
#
#
# Indices 1 2 3 4 5 6 
#
# 1 111.0710 14.8455 44.0870 0.0036 -4.1862 0.0010
# 2 14.8455 52.3408 21.5131 0.0000 -10.5333 0.0000
# 3 44.0870 21.5131 99.7466 0.0104 -9.9926 0.0031
# 4 0.0036 0.0000 0.0104 -2.1822 0.0047 -11.6937
# 5 -4.1862 -10.5333 -9.9926 0.0047 31.8231 0.0016
# 6 0.0010 0.0000 0.0031 -11.6937 0.0016 17.3675
#
#
#
# Elastic Compliance Matrix: (Units=1/GPa)
#
#
# Indices 1 2 3 4 5 6 
#
# 1 0.010996 -0.001307 -0.004622 -0.000001 -0.000438 -0.000001
# 2 -0.001307 0.022170 -0.003599 -0.000002 0.006036 -0.000001
# 3 -0.004622 -0.003599 0.013076 0.000016 0.002306 0.000008
# 4 -0.000001 -0.000002 0.000016 -0.099446 0.000022 -0.066958
# 5 -0.000438 0.006036 0.002306 0.000022 0.034088 0.000011
# 6 -0.000001 -0.000001 0.000008 -0.066958 0.000011 0.012495
#
#
# Mechanical properties :
#
#
# Convention : Reuss Voigt Hill
#
# Bulk Modulus (GPa) = 36.78457 47.11659 41.95058
# Shear Modulus (GPa) = 232.57514 21.58252 127.07883
#
# Velocity S-wave (km/s) = 10.51679 3.20371 7.77389
# Velocity P-wave (km/s) = 12.84382 6.00763 10.02635
#
# Compressibility (1/GPa) = 0.02718531
#
# Stress axis : x y z
#
# Youngs Moduli (GPa) = 90.94141 45.10519 76.47806
#
# Poissons Ratio (x) = 0.05896 0.35349
# Poissons Ratio (y) = 0.11887 0.27526
# Poissons Ratio (z) = 0.42034 0.16234
#
# Static dielectric constant tensor:
#      x y z
#    x 4.234220 0.000010 -0.020650 
#    y 0.000010 4.570690 -0.000020 
#    z -0.020650 -0.000020 3.634040 
# 
# 
# High freq. dielectric constant tensor:
#      x y z
#    x 1.841870 0.000000 -0.004110 
#    y 0.000000 1.801610 0.000000 
#    z -0.004110 0.000000 1.816490 
# 
# From -- ./inp_files/80825.got.cif
#   From: 2010.06.25/outbox.cif.g09.slc.cpg/sg15_41_cif.got.tgz:80825.got - 2010.06.28 07:06:18.
