data_PCOD8132741
_publ_section_title
;
Structure prediction by ZEFSAII (Michael W. Deem and Ramdas Pophale) SiO2 
 PCOD8132741
Probable space group: C 2/C
;
_chemical_formula_sum "Si O2"
_cell_formula_units_Z 48
_cell_length_a 24.398493
_cell_length_b 11.743576
_cell_length_c 12.400728
_cell_angle_alpha 90.000000
_cell_angle_beta 39.647934
_cell_angle_gamma 90.000000
_cell_volume 2267.137038
_symmetry_space_group_name_H-M "C 2/C"
_symmetry_group_IT_number 15
_symmetry_cell_setting 'monoclinic'
loop_
_space_group_symop_operation_xyz
x,y,z
-x,y,1/2-z
-x,-y,-z
x,-y,1/2+z
1/2+x,1/2+y,z
1/2-x,1/2+y,1/2-z
1/2-x,1/2-y,-z
1/2+x,1/2-y,1/2+z
loop_
_atom_site_type_symbol
_atom_site_label
_atom_site_fract_x
_atom_site_fract_y
_atom_site_fract_z
Si Si1 0.085669 0.043569 0.434276
Si Si2 0.919025 0.586970 0.696130
Si Si3 0.145836 0.806262 0.386484
Si Si4 0.421974 0.158955 0.188855
Si Si5 0.293800 0.743305 0.318951
Si Si6 0.500000 0.775308 0.250000
Si Si7 0.000000 0.181320 0.750000
O O1 0.140750 0.136081 0.283883
O O2 0.060783 0.100649 0.586218
O O3 0.153014 0.940522 0.350629
O O4 0.000000 0.000000 0.500000
O O5 0.883725 0.461783 0.784775
O O6 0.848292 0.641901 0.725663
O O7 0.006295 0.606168 0.498593
O O8 0.929593 0.649000 0.794866
O O9 0.143758 0.735323 0.279034
O O10 0.224798 0.749233 0.328672
O O11 0.054460 0.801972 0.586289
O O12 0.448324 0.235148 0.249821
O O13 0.250000 0.750000 0.500000
#
# Coordination Sequence:
#
# PCOD8132741 Si02
#       7
#     8   8   8   8   8   4   4
#     4  12  26  48  74 102 142 194 251 300 368 447
#     4  10  20  41  65  95 136 170 231 282 363 424
#     4  11  24  41  67  99 141 177 242 293 367 421
#     4  10  22  40  67  96 129 179 227 296 348 436
#     4  12  26  45  68 105 140 186 237 304 366 432
#     4  10  18  40  68 100 122 190 228 286 348 444
#     4  12  22  44  74 100 132 182 258 290 356 450
#
# _framework density 21.172077000000002
#
# number of rings (size 3 to 8) (size 9 to 14) (size 15 to 20)
#    0.000    1.000    5.000    2.000    4.667    0.000 
#    3.000    0.833    0.000    0.000    0.000    0.000 
#    0.000    0.000    0.000    0.000    0.000    0.000 
#
# Total GULP energy -297370.849814 kJ/mol
# GULP energy per Si atom -12390.452076 kJ/mol
# Density = 2.112389 g / cm^3
# Si number density = 21.172077 Si / 1000 Ang^3
#
#
#
# Elastic Constant Matrix: (Units=GPa)
#
#
# Indices 1 2 3 4 5 6 
#
# 1 157.3665 60.6353 16.3290 0.0000 8.1820 0.0000
# 2 60.6353 158.0965 20.8384 0.0000 -0.7893 0.0000
# 3 16.3290 20.8384 45.0983 0.0000 3.8752 0.0000
# 4 0.0000 0.0000 0.0000 26.4394 0.0000 0.0168
# 5 8.1820 -0.7893 3.8752 0.0000 31.6411 0.0000
# 6 0.0000 0.0000 0.0000 0.0168 0.0000 31.7772
#
#
#
# Elastic Compliance Matrix: (Units=1/GPa)
#
#
# Indices 1 2 3 4 5 6 
#
# 1 0.007659 -0.002771 -0.001330 0.000000 -0.001887 0.000000
# 2 -0.002771 0.007748 -0.002683 0.000000 0.001239 0.000000
# 3 -0.001330 -0.002683 0.024125 0.000000 -0.002678 0.000000
# 4 0.000000 0.000000 0.000000 0.037822 0.000000 -0.000020
# 5 -0.001887 0.001239 -0.002678 0.000000 0.032451 0.000000
# 6 0.000000 0.000000 0.000000 -0.000020 0.000000 0.031469
#
#
# Mechanical properties :
#
#
# Convention : Reuss Voigt Hill
#
# Bulk Modulus (GPa) = 38.51731 61.79629 50.15680
# Shear Modulus (GPa) = 30.58141 35.48880 33.03510
#
# Velocity S-wave (km/s) = 3.80468 4.09859 3.95437
# Velocity P-wave (km/s) = 6.12640 7.18672 6.67764
#
# Compressibility (1/GPa) = 0.02596235
#
# Stress axis : x y z
#
# Youngs Moduli (GPa) = 130.57263 129.06544 41.45030
#
# Poissons Ratio (x) = 0.35769 0.05514
# Poissons Ratio (y) = 0.36187 0.11121
# Poissons Ratio (z) = 0.17370 0.34629
#
# Static dielectric constant tensor:
#      x y z
#    x 3.987000 0.000000 0.151270 
#    y 0.000000 4.636710 0.000000 
#    z 0.151270 0.000000 3.663820 
# 
# 
# High freq. dielectric constant tensor:
#      x y z
#    x 1.832530 0.000000 0.013830 
#    y 0.000000 1.851670 0.000000 
#    z 0.013830 0.000000 1.809200 
# 
# From -- ./inp_files/111469.got.cif
#   From: 2010.06.25/outbox.cif.g09.slc.cpg/sg15_56_cif.got.tgz:111469.got - 2010.06.28 07:06:18.
