data_PCOD8132137
_publ_section_title
;
Structure prediction by ZEFSAII (Michael W. Deem and Ramdas Pophale) SiO2 
 PCOD8132137
Probable space group: C 2/C
;
_chemical_formula_sum "Si O2"
_cell_formula_units_Z 56
_cell_length_a 8.706815
_cell_length_b 24.836892
_cell_length_c 16.404174
_cell_angle_alpha 90.000000
_cell_angle_beta 55.320346
_cell_angle_gamma 90.000000
_cell_volume 2917.195888
_symmetry_space_group_name_H-M "C 2/C"
_symmetry_group_IT_number 15
_symmetry_cell_setting 'monoclinic'
loop_
_space_group_symop_operation_xyz
x,y,z
-x,y,1/2-z
-x,-y,-z
x,-y,1/2+z
1/2+x,1/2+y,z
1/2-x,1/2+y,1/2-z
1/2-x,1/2-y,-z
1/2+x,1/2-y,1/2+z
loop_
_atom_site_type_symbol
_atom_site_label
_atom_site_fract_x
_atom_site_fract_y
_atom_site_fract_z
Si Si1 0.717021 0.401807 0.195716
Si Si2 0.910737 0.313070 0.688549
Si Si3 0.828078 0.961950 0.570451
Si Si4 0.250920 0.359091 0.486982
Si Si5 0.914798 0.805662 0.185658
Si Si6 0.317039 0.414769 0.752229
Si Si7 0.539458 0.997613 0.892522
O O1 0.500000 0.418963 0.250000
O O2 0.804810 0.379347 0.085802
O O3 0.733000 0.355823 0.263024
O O4 0.833927 0.454640 0.182787
O O5 0.831496 0.253236 0.690966
O O6 0.731303 0.351719 0.741402
O O7 0.000000 0.315472 0.750000
O O8 0.071011 0.329459 0.576898
O O9 0.825239 0.909084 0.516303
O O10 0.842454 0.943785 0.658844
O O11 0.645503 0.997423 0.606614
O O12 0.000000 0.000000 0.500000
O O13 0.424045 0.317396 0.429419
O O14 0.000000 0.804506 0.250000
O O15 0.500000 0.422570 0.750000
O O16 0.142023 0.440800 0.850848
O O17 0.500000 0.000000 0.000000
#
# Coordination Sequence:
#
# PCOD8132137 Si02
#       7
#     8   8   8   8   8   8   8
#     4   9  19  35  58  91 122 153 193 231 296 359
#     4  11  18  37  59  88 114 148 204 244 289 345
#     4  12  25  38  58  90 120 152 200 239 296 358
#     4  10  18  36  56  89 119 148 196 237 287 352
#     4   8  19  32  60  90 114 152 192 244 288 349
#     4  12  25  39  59  83 119 161 195 246 295 347
#     4  12  21  38  61  87 118 157 190 241 294 358
#
# _framework density 19.196515999999999
#
# number of rings (size 3 to 8) (size 9 to 14) (size 15 to 20)
#    0.000    1.714    4.286    2.143    4.000    0.000 
#    0.000    0.000    3.143    0.857    0.000    0.000 
#    0.000    0.000    0.000    0.000    0.000    0.000 
#
# Total GULP energy -347049.620729 kJ/mol
# GULP energy per Si atom -12394.629312 kJ/mol
# Density = 1.915282 g / cm^3
# Si number density = 19.196516 Si / 1000 Ang^3
#
#
#
# Elastic Constant Matrix: (Units=GPa)
#
#
# Indices 1 2 3 4 5 6 
#
# 1 104.2991 53.4125 34.8240 0.0000 -10.0373 0.0000
# 2 53.4125 149.4227 40.6404 0.0000 -13.9421 0.0000
# 3 34.8240 40.6404 102.8484 0.0000 -6.3175 0.0000
# 4 0.0000 0.0000 0.0000 26.4350 0.0000 -9.7949
# 5 -10.0373 -13.9421 -6.3175 0.0000 22.1295 0.0000
# 6 0.0000 0.0000 0.0000 -9.7949 0.0000 22.1771
#
#
#
# Elastic Compliance Matrix: (Units=1/GPa)
#
#
# Indices 1 2 3 4 5 6 
#
# 1 0.012540 -0.003495 -0.002698 0.000000 0.002715 0.000000
# 2 -0.003495 0.008827 -0.002097 0.000000 0.003377 0.000000
# 3 -0.002698 -0.002097 0.011511 0.000000 0.000741 0.000000
# 4 0.000000 0.000000 0.000000 0.045231 0.000000 0.019977
# 5 0.002715 0.003377 0.000741 0.000000 0.048759 0.000000
# 6 0.000000 0.000000 0.000000 0.019977 0.000000 0.053915
#
#
# Mechanical properties :
#
#
# Convention : Reuss Voigt Hill
#
# Bulk Modulus (GPa) = 61.36056 68.25821 64.80938
# Shear Modulus (GPa) = 24.65530 29.32790 26.99160
#
# Velocity S-wave (km/s) = 3.58769 3.91291 3.75382
# Velocity P-wave (km/s) = 7.01397 7.48661 7.25414
#
# Compressibility (1/GPa) = 0.01629711
#
# Stress axis : x y z
#
# Youngs Moduli (GPa) = 79.74515 113.28380 86.87498
#
# Poissons Ratio (x) = 0.39597 0.23439
# Poissons Ratio (y) = 0.27874 0.18219
# Poissons Ratio (z) = 0.21515 0.23757
#
# Static dielectric constant tensor:
#      x y z
#    x 3.136390 0.000000 -0.060190 
#    y 0.000000 1.866770 0.000000 
#    z -0.060190 0.000000 3.813940 
# 
# 
# High freq. dielectric constant tensor:
#      x y z
#    x 1.700470 0.000000 -0.008180 
#    y 0.000000 1.765630 0.000000 
#    z -0.008180 0.000000 1.764750 
# 
# From -- ./inp_files/137699.got.cif
#   From: 2010.06.25/outbox.cif.g09.slc.cpg/sg15_69_cif.got.tgz:137699.got - 2010.06.28 07:06:18.
