data_PCOD8132782
_publ_section_title
;
Structure prediction by ZEFSAII (Michael W. Deem and Ramdas Pophale) SiO2 
 PCOD8132782
Probable space group: C 2/C
;
_chemical_formula_sum "Si O2"
_cell_formula_units_Z 60
_cell_length_a 19.572815
_cell_length_b 13.813176
_cell_length_c 10.785452
_cell_angle_alpha 90.000000
_cell_angle_beta 96.491953
_cell_angle_gamma 90.000000
_cell_volume 2897.286302
_symmetry_space_group_name_H-M "C 2/C"
_symmetry_group_IT_number 15
_symmetry_cell_setting 'monoclinic'
loop_
_space_group_symop_operation_xyz
x,y,z
-x,y,1/2-z
-x,-y,-z
x,-y,1/2+z
1/2+x,1/2+y,z
1/2-x,1/2+y,1/2-z
1/2-x,1/2-y,-z
1/2+x,1/2-y,1/2+z
loop_
_atom_site_type_symbol
_atom_site_label
_atom_site_fract_x
_atom_site_fract_y
_atom_site_fract_z
Si Si1 0.076765 0.090106 0.519015
Si Si2 0.321839 0.800514 0.496114
Si Si3 0.888232 0.965674 0.209153
Si Si4 0.238100 0.423475 0.215699
Si Si5 0.000000 0.639280 0.250000
Si Si6 0.852794 0.403064 0.750768
Si Si7 0.447419 0.301436 0.071535
Si Si8 0.302944 0.733908 0.903550
O O1 0.090624 0.018184 0.641083
O O2 0.130933 0.177077 0.533273
O O3 0.999322 0.130203 0.506984
O O4 0.080203 0.037791 0.386351
O O5 0.250000 0.750000 0.500000
O O6 0.313777 0.890020 0.402284
O O7 0.347074 0.834885 0.632955
O O8 0.383150 0.726896 0.466956
O O9 0.806064 0.974876 0.175795
O O10 0.915742 0.857918 0.184294
O O11 0.193089 0.501600 0.281494
O O12 0.261363 0.329619 0.295687
O O13 0.934570 0.572442 0.275622
O O14 0.986052 0.706397 0.127717
O O15 0.825766 0.339671 0.860599
O O16 0.250000 0.750000 0.000000
#
# Coordination Sequence:
#
# PCOD8132782 Si02
#       8
#     8   8   8   8   4   8   8   8
#     4  11  22  40  62 100 129 176 214 268 329 395
#     4  11  21  40  65  94 119 167 217 264 315 384
#     4  11  22  36  66  93 137 162 219 266 329 393
#     4  11  24  41  62 100 126 164 214 270 319 386
#     4  10  18  42  62  86 116 180 216 250 312 388
#     4  11  23  39  69  91 126 169 215 264 321 386
#     4  11  19  38  65  86 125 170 218 260 318 392
#     4  11  23  42  65  92 134 171 209 264 328 386
#
# _framework density 20.709033000000002
#
# number of rings (size 3 to 8) (size 9 to 14) (size 15 to 20)
#    0.000    1.067    5.333    2.800    5.600    0.000 
#    2.400    4.000    0.000    0.000    0.000    0.000 
#    0.000    0.000    0.000    0.000    0.000    0.000 
#
# Total GULP energy -371850.501507 kJ/mol
# GULP energy per Si atom -12395.016717 kJ/mol
# Density = 2.066190 g / cm^3
# Si number density = 20.709033 Si / 1000 Ang^3
#
#
#
# Elastic Constant Matrix: (Units=GPa)
#
#
# Indices 1 2 3 4 5 6 
#
# 1 176.0793 42.9263 41.1496 0.0000 -14.8564 0.0000
# 2 42.9263 52.9882 14.0005 0.0000 -8.1046 0.0000
# 3 41.1496 14.0005 72.9195 0.0000 -16.0053 0.0000
# 4 0.0000 0.0000 0.0000 26.0590 0.0000 -1.5971
# 5 -14.8564 -8.1046 -16.0053 0.0000 28.0799 0.0000
# 6 0.0000 0.0000 0.0000 -1.5971 0.0000 36.3915
#
#
#
# Elastic Compliance Matrix: (Units=1/GPa)
#
#
# Indices 1 2 3 4 5 6 
#
# 1 0.007798 -0.005354 -0.003207 0.000000 0.000752 0.000000
# 2 -0.005354 0.023973 -0.000782 0.000000 0.003641 0.000000
# 3 -0.003207 -0.000782 0.017433 0.000000 0.008014 0.000000
# 4 0.000000 0.000000 0.000000 0.038478 0.000000 0.001689
# 5 0.000752 0.003641 0.008014 0.000000 0.041629 0.000000
# 6 0.000000 0.000000 0.000000 0.001689 0.000000 0.027553
#
#
# Mechanical properties :
#
#
# Convention : Reuss Voigt Hill
#
# Bulk Modulus (GPa) = 32.76961 55.34888 44.05925
# Shear Modulus (GPa) = 26.92170 31.70011 29.31090
#
# Velocity S-wave (km/s) = 3.60946 3.91671 3.76622
# Velocity P-wave (km/s) = 5.76447 6.87307 6.34304
#
# Compressibility (1/GPa) = 0.03051608
#
# Stress axis : x y z
#
# Youngs Moduli (GPa) = 128.24475 41.71301 57.36315
#
# Poissons Ratio (x) = 0.22335 0.18397
# Poissons Ratio (y) = 0.68668 0.04487
# Poissons Ratio (z) = 0.41130 0.03263
#
# Static dielectric constant tensor:
#      x y z
#    x 2.493500 0.000000 0.876000 
#    y 0.000000 -0.141800 0.000000 
#    z 0.876000 0.000000 -0.566110 
# 
# 
# High freq. dielectric constant tensor:
#      x y z
#    x 1.838370 0.000000 -0.003710 
#    y 0.000000 1.791090 0.000000 
#    z -0.003710 0.000000 1.789550 
# 
# From -- ./inp_files/105350.got.cif
#   From: 2010.06.25/outbox.cif.g09.slc.cpg/sg15_53_cif.got.tgz:105350.got - 2010.06.28 07:06:18.
