data_PCOD8132262
_publ_section_title
;
Structure prediction by ZEFSAII (Michael W. Deem and Ramdas Pophale) SiO2 
 PCOD8132262
Probable space group: C 2/C
;
_chemical_formula_sum "Si O2"
_cell_formula_units_Z 56
_cell_length_a 11.850626
_cell_length_b 17.057670
_cell_length_c 16.629697
_cell_angle_alpha 90.000000
_cell_angle_beta 135.786969
_cell_angle_gamma 90.000000
_cell_volume 2344.134488
_symmetry_space_group_name_H-M "C 2/C"
_symmetry_group_IT_number 15
_symmetry_cell_setting 'monoclinic'
loop_
_space_group_symop_operation_xyz
x,y,z
-x,y,1/2-z
-x,-y,-z
x,-y,1/2+z
1/2+x,1/2+y,z
1/2-x,1/2+y,1/2-z
1/2-x,1/2-y,-z
1/2+x,1/2-y,1/2+z
loop_
_atom_site_type_symbol
_atom_site_label
_atom_site_fract_x
_atom_site_fract_y
_atom_site_fract_z
Si Si1 0.516652 0.137992 0.399660
Si Si2 0.648889 0.001500 0.883433
Si Si3 0.152265 0.868564 0.676969
Si Si4 0.460204 0.094308 0.905680
Si Si5 0.651114 0.535593 0.664375
Si Si6 0.011517 0.808613 0.060411
Si Si7 0.875089 0.276290 0.249463
O O1 0.650873 0.090492 0.415383
O O2 0.345968 0.121698 0.269240
O O3 0.513358 0.098275 0.485852
O O4 0.550409 0.232720 0.419643
O O5 0.500000 0.018722 0.750000
O O6 0.622828 0.058445 0.947641
O O7 0.805343 0.024910 0.909613
O O8 0.104268 0.816715 0.729305
O O9 0.103524 0.820822 0.573099
O O10 0.066169 0.952950 0.643389
O O11 0.306936 0.041380 0.801742
O O12 0.417167 0.181967 0.854847
O O13 0.526511 0.607879 0.616308
O O14 0.195639 0.793239 0.125570
O O15 0.000000 0.310846 0.250000
#
# Coordination Sequence:
#
# PCOD8132262 Si02
#       7
#     8   8   8   8   8   8   8
#     4  11  21  37  64  95 122 158 209 260 301 368
#     4  10  19  36  63  91 118 157 212 252 287 364
#     4  11  21  38  58  87 125 163 196 249 319 370
#     4  10  18  36  61  90 115 152 203 252 297 348
#     4  10  21  39  64  86 122 166 210 249 301 378
#     4  10  22  39  61  88 123 162 194 256 320 364
#     4  10  21  38  60  88 118 155 203 249 300 375
#
# _framework density 23.889415
#
# number of rings (size 3 to 8) (size 9 to 14) (size 15 to 20)
#    0.000    1.714    4.286    3.000    0.000    0.571 
#    5.143    0.714    0.000    0.857    0.000    0.000 
#    0.000    0.000    0.000    0.000    0.000    0.000 
#
# Total GULP energy -346872.911272 kJ/mol
# GULP energy per Si atom -12388.318260 kJ/mol
# Density = 2.383504 g / cm^3
# Si number density = 23.889415 Si / 1000 Ang^3
#
#
#
# Elastic Constant Matrix: (Units=GPa)
#
#
# Indices 1 2 3 4 5 6 
#
# 1 43.5789 16.1090 19.6840 0.0000 -7.5039 0.0000
# 2 16.1090 193.1158 24.8061 0.0000 -5.7569 0.0000
# 3 19.6840 24.8061 106.8732 -0.0001 -6.6222 -0.0001
# 4 0.0000 0.0000 -0.0001 13.8402 0.0000 -11.7137
# 5 -7.5039 -5.7569 -6.6222 0.0000 15.9529 -0.0001
# 6 0.0000 0.0000 -0.0001 -11.7137 -0.0001 20.0312
#
#
#
# Elastic Compliance Matrix: (Units=1/GPa)
#
#
# Indices 1 2 3 4 5 6 
#
# 1 0.027105 -0.001431 -0.004005 0.000000 0.010571 0.000000
# 2 -0.001431 0.005446 -0.000945 0.000000 0.000900 0.000000
# 3 -0.004005 -0.000945 0.010445 0.000000 0.002111 0.000000
# 4 0.000000 0.000000 0.000000 0.143053 0.000001 0.083654
# 5 0.010571 0.000900 0.002111 0.000001 0.068858 0.000001
# 6 0.000000 0.000000 0.000000 0.083654 0.000001 0.098841
#
#
# Mechanical properties :
#
#
# Convention : Reuss Voigt Hill
#
# Bulk Modulus (GPa) = 33.07597 51.64067 42.35832
# Shear Modulus (GPa) = 13.27714 28.82945 21.05329
#
# Velocity S-wave (km/s) = 2.36005 3.47765 2.97186
# Velocity P-wave (km/s) = 4.61540 6.14727 5.43557
#
# Compressibility (1/GPa) = 0.03023343
#
# Stress axis : x y z
#
# Youngs Moduli (GPa) = 36.89325 183.62752 95.74341
#
# Poissons Ratio (x) = 0.26285 0.38345
# Poissons Ratio (y) = 0.05281 0.09044
# Poissons Ratio (z) = 0.14776 0.17346
#
# Static dielectric constant tensor:
#      x y z
#    x 3.850220 0.000000 -0.027810 
#    y 0.000000 4.994270 0.000000 
#    z -0.027810 0.000000 4.130090 
# 
# 
# High freq. dielectric constant tensor:
#      x y z
#    x 1.886070 0.000000 -0.000280 
#    y 0.000000 1.982390 0.000000 
#    z -0.000280 0.000000 1.944510 
# 
# From -- ./inp_files/206307.got.cif
#   From: 2010.06.25/outbox.cif.g09.slc.cpg/sg15_104_cif.got.tgz:206307.got - 2010.06.28 07:06:18.
