data_PCOD8132543
_publ_section_title
;
Structure prediction by ZEFSAII (Michael W. Deem and Ramdas Pophale) SiO2 
 PCOD8132543
Probable space group: C 2/C
;
_chemical_formula_sum "Si O2"
_cell_formula_units_Z 48
_cell_length_a 15.673210
_cell_length_b 8.683309
_cell_length_c 22.104095
_cell_angle_alpha 90.000000
_cell_angle_beta 51.260022
_cell_angle_gamma 90.000000
_cell_volume 2346.427740
_symmetry_space_group_name_H-M "C 2/C"
_symmetry_group_IT_number 15
_symmetry_cell_setting 'monoclinic'
loop_
_space_group_symop_operation_xyz
x,y,z
-x,y,1/2-z
-x,-y,-z
x,-y,1/2+z
1/2+x,1/2+y,z
1/2-x,1/2+y,1/2-z
1/2-x,1/2-y,-z
1/2+x,1/2-y,1/2+z
loop_
_atom_site_type_symbol
_atom_site_label
_atom_site_fract_x
_atom_site_fract_y
_atom_site_fract_z
Si Si1 0.000000 0.940033 0.250000
Si Si2 0.031187 0.169765 0.008364
Si Si3 0.985349 0.188778 0.341145
Si Si4 0.000000 0.552284 0.750000
Si Si5 0.358334 0.807293 0.872654
Si Si6 0.760029 0.323934 0.560666
Si Si7 0.137802 0.337324 0.493372
O O1 0.100363 0.841525 0.180830
O O2 0.952351 0.042192 0.215148
O O3 0.961198 0.303763 0.007895
O O4 0.010121 0.184421 0.089229
O O5 0.158370 0.210966 0.937825
O O6 0.000000 0.000000 0.000000
O O7 0.036279 0.346595 0.292292
O O8 0.864733 0.173533 0.361722
O O9 0.105769 0.453264 0.683312
O O10 0.227683 0.794915 0.938299
O O11 0.408376 0.816767 0.918089
O O12 0.750000 0.250000 0.500000
O O13 0.812764 0.493328 0.535921
#
# Coordination Sequence:
#
# PCOD8132543 Si02
#       7
#     4   8   8   4   8   8   8
#     4  10  18  38  62  84 122 166 212 252 302 388
#     4  11  24  37  63  98 130 158 210 271 316 359
#     4  10  21  40  63  88 125 170 210 246 317 378
#     4  10  22  38  66  86 130 168 212 244 312 392
#     4  10  21  36  65  96 118 164 212 258 310 374
#     4  10  21  38  63  90 124 161 207 255 311 368
#     4  11  22  39  65  95 128 156 215 265 317 364
#
# _framework density 20.456627000000001
#
# number of rings (size 3 to 8) (size 9 to 14) (size 15 to 20)
#    0.000    1.667    1.667    3.500    9.333    0.000 
#    0.000    1.667   14.667    0.000    0.000    0.000 
#    0.000    0.000    0.000    0.000    0.000    0.000 
#
# Total GULP energy -297378.688467 kJ/mol
# GULP energy per Si atom -12390.778686 kJ/mol
# Density = 2.041007 g / cm^3
# Si number density = 20.456627 Si / 1000 Ang^3
#
#
#
# Elastic Constant Matrix: (Units=GPa)
#
#
# Indices 1 2 3 4 5 6 
#
# 1 119.7205 46.0198 39.8197 0.0000 9.3146 0.0001
# 2 46.0198 139.4293 46.1669 0.0000 6.1031 0.0004
# 3 39.8197 46.1669 112.2459 0.0000 13.4487 0.0000
# 4 0.0000 0.0000 0.0000 30.6762 0.0000 2.5114
# 5 9.3146 6.1031 13.4487 0.0000 23.5419 0.0000
# 6 0.0001 0.0004 0.0000 2.5114 0.0000 29.8249
#
#
#
# Elastic Compliance Matrix: (Units=1/GPa)
#
#
# Indices 1 2 3 4 5 6 
#
# 1 0.010265 -0.002517 -0.002360 0.000000 -0.002061 0.000000
# 2 -0.002517 0.008921 -0.002811 0.000000 0.000289 0.000000
# 3 -0.002360 -0.002811 0.011490 0.000000 -0.004901 0.000000
# 4 0.000000 0.000000 0.000000 0.032825 0.000000 -0.002764
# 5 -0.002061 0.000289 -0.004901 0.000000 0.046018 0.000000
# 6 0.000000 0.000000 0.000000 -0.002764 0.000000 0.033762
#
#
# Mechanical properties :
#
#
# Convention : Reuss Voigt Hill
#
# Bulk Modulus (GPa) = 65.35426 70.60094 67.97760
# Shear Modulus (GPa) = 30.53336 32.76788 31.65062
#
# Velocity S-wave (km/s) = 3.86760 4.00662 3.93772
# Velocity P-wave (km/s) = 7.20843 7.48274 7.34687
#
# Compressibility (1/GPa) = 0.01530122
#
# Stress axis : x y z
#
# Youngs Moduli (GPa) = 97.41505 112.09705 87.03599
#
# Poissons Ratio (x) = 0.28211 0.20537
# Poissons Ratio (y) = 0.24516 0.24466
# Poissons Ratio (z) = 0.22986 0.31510
#
# Static dielectric constant tensor:
#      x y z
#    x 4.981490 0.000000 -1.291170 
#    y 0.000000 3.978140 0.000000 
#    z -1.291170 0.000000 4.934330 
# 
# 
# High freq. dielectric constant tensor:
#      x y z
#    x 1.761150 0.000000 0.000710 
#    y 0.000000 1.825220 0.000000 
#    z 0.000710 0.000000 1.808560 
# 
# From -- ./inp_files/276213.got.cif
#   From: 2010.06.25/outbox.cif.g09.slc.cpg/sg15_139_cif.got.tgz:276213.got - 2010.06.28 07:06:18.
