data_PCOD8132060
_publ_section_title
;
Structure prediction by ZEFSAII (Michael W. Deem and Ramdas Pophale) SiO2 
 PCOD8132060
Probable space group: C 2/C
;
_chemical_formula_sum "Si O2"
_cell_formula_units_Z 48
_cell_length_a 8.466160
_cell_length_b 20.460865
_cell_length_c 14.194959
_cell_angle_alpha 90.000000
_cell_angle_beta 90.000000
_cell_angle_gamma 90.000000
_cell_volume 2458.921160
_symmetry_space_group_name_H-M "C 2/C"
_symmetry_group_IT_number 15
_symmetry_cell_setting 'monoclinic'
loop_
_space_group_symop_operation_xyz
x,y,z
-x,y,1/2-z
-x,-y,-z
x,-y,1/2+z
1/2+x,1/2+y,z
1/2-x,1/2+y,1/2-z
1/2-x,1/2-y,-z
1/2+x,1/2-y,1/2+z
loop_
_atom_site_type_symbol
_atom_site_label
_atom_site_fract_x
_atom_site_fract_y
_atom_site_fract_z
Si Si1 0.187165 0.060825 0.056116
Si Si2 0.687609 0.686450 0.551886
Si Si3 0.812391 0.186450 0.551886
Si Si4 0.313858 0.858315 0.250000
Si Si5 0.686446 0.505072 0.250000
Si Si6 0.812835 0.939175 0.556116
O O1 0.240079 0.050291 0.163402
O O2 0.000000 0.061795 0.046592
O O3 0.255196 0.126968 0.011525
O O4 0.259576 1.000000 0.000000
O O5 0.750000 0.750000 0.500000
O O6 0.500000 0.687334 0.554728
O O7 0.749011 0.679339 0.658354
O O8 0.755196 0.626968 0.488475
O O9 0.750000 0.250000 0.500000
O O10 0.750989 0.179339 0.658354
O O11 0.500000 0.852297 0.250000
O O12 0.266454 0.934290 0.250000
O O13 0.500000 0.490804 0.250000
O O14 0.740079 0.550291 0.336598
#
# Coordination Sequence:
#
# PCOD8132060 Si02
#       6
#     8   8   8   8   8   8
#     4   9  17  32  59  90 116 154 202 244 295 363
#     4  11  23  41  63  90 125 162 204 254 307 368
#     4  11  23  41  63  90 125 162 204 254 307 368
#     4  12  24  39  60  89 121 161 205 249 312 372
#     4  10  18  35  62  89 117 155 205 253 300 360
#     4   9  17  32  59  90 116 154 202 244 295 363
#
# _framework density 19.520757
#
# number of rings (size 3 to 8) (size 9 to 14) (size 15 to 20)
#    0.000    1.667    3.333    2.500    0.000    1.333 
#    0.000    8.333    0.000    0.000    0.000    0.000 
#    0.000    0.000    0.000    0.000    0.000    0.000 
#
# Total GULP energy -297525.859783 kJ/mol
# GULP energy per Si atom -12396.910824 kJ/mol
# Density = 1.947633 g / cm^3
# Si number density = 19.520757 Si / 1000 Ang^3
#
#
#
# Elastic Constant Matrix: (Units=GPa)
#
#
# Indices 1 2 3 4 5 6 
#
# 1 73.9172 37.4921 44.3202 0.0000 0.0000 0.0000
# 2 37.4921 178.4464 109.7267 0.0000 0.0000 0.0000
# 3 44.3202 109.7267 214.3708 0.0000 -0.0001 0.0000
# 4 0.0000 0.0000 0.0000 37.6692 0.0000 0.0000
# 5 0.0000 0.0000 -0.0001 0.0000 19.7990 0.0000
# 6 0.0000 0.0000 0.0000 0.0000 0.0000 28.5298
#
#
#
# Elastic Compliance Matrix: (Units=1/GPa)
#
#
# Indices 1 2 3 4 5 6 
#
# 1 0.015883 -0.001923 -0.002299 0.000000 0.000000 0.000000
# 2 -0.001923 0.008411 -0.003907 0.000000 0.000000 0.000000
# 3 -0.002299 -0.003907 0.007140 0.000000 0.000000 0.000000
# 4 0.000000 0.000000 0.000000 0.026547 0.000000 0.000000
# 5 0.000000 0.000000 0.000000 0.000000 0.050508 0.000000
# 6 0.000000 0.000000 0.000000 0.000000 0.000000 0.035051
#
#
# Mechanical properties :
#
#
# Convention : Reuss Voigt Hill
#
# Bulk Modulus (GPa) = 65.90290 94.42358 80.16324
# Shear Modulus (GPa) = 30.32930 35.54594 32.93762
#
# Velocity S-wave (km/s) = 3.94597 4.27187 4.11215
# Velocity P-wave (km/s) = 7.38882 8.53274 7.98130
#
# Compressibility (1/GPa) = 0.01517384
#
# Stress axis : x y z
#
# Youngs Moduli (GPa) = 62.96134 118.89657 140.05156
#
# Poissons Ratio (x) = 0.22866 0.32202
# Poissons Ratio (y) = 0.12109 0.54724
# Poissons Ratio (z) = 0.14477 0.46458
#
# Static dielectric constant tensor:
#      x y z
#    x 3.287010 0.000000 0.000000 
#    y 0.000000 3.750490 0.000000 
#    z 0.000000 0.000000 4.042840 
# 
# 
# High freq. dielectric constant tensor:
#      x y z
#    x 1.733040 0.000000 0.000000 
#    y 0.000000 1.762700 0.000000 
#    z 0.000000 0.000000 1.782700 
# 
# From -- ./inp_files/134858.got.cif
#   From: 2010.06.25/outbox.cif.g09.slc.cpg/sg15_68_cif.got.tgz:134858.got - 2010.06.28 07:06:18.
