data_PCOD8132712
_publ_section_title
;
Structure prediction by ZEFSAII (Michael W. Deem and Ramdas Pophale) SiO2 
 PCOD8132712
Probable space group: C 2/C
;
_chemical_formula_sum "Si O2"
_cell_formula_units_Z 52
_cell_length_a 15.222501
_cell_length_b 10.932830
_cell_length_c 23.608711
_cell_angle_alpha 90.000000
_cell_angle_beta 139.837657
_cell_angle_gamma 90.000000
_cell_volume 2534.082023
_symmetry_space_group_name_H-M "C 2/C"
_symmetry_group_IT_number 15
_symmetry_cell_setting 'monoclinic'
loop_
_space_group_symop_operation_xyz
x,y,z
-x,y,1/2-z
-x,-y,-z
x,-y,1/2+z
1/2+x,1/2+y,z
1/2-x,1/2+y,1/2-z
1/2-x,1/2-y,-z
1/2+x,1/2-y,1/2+z
loop_
_atom_site_type_symbol
_atom_site_label
_atom_site_fract_x
_atom_site_fract_y
_atom_site_fract_z
Si Si1 0.143844 0.070175 0.960526
Si Si2 0.363168 0.524406 0.342160
Si Si3 0.565622 0.003734 0.163229
Si Si4 0.500000 0.921265 0.250000
Si Si5 0.789709 0.876454 0.415923
Si Si6 0.130382 0.335462 0.001784
Si Si7 0.971091 0.281416 0.431129
O O1 0.145529 0.192357 0.998402
O O2 0.990962 0.027752 0.869108
O O3 0.232465 0.090911 0.947425
O O4 0.215967 0.965663 0.033020
O O5 0.229012 0.513311 0.237812
O O6 0.358160 0.445935 0.397117
O O7 0.384285 0.665433 0.368565
O O8 0.524689 0.011016 0.209026
O O9 0.514013 0.874462 0.113355
O O10 0.498006 0.116585 0.097565
O O11 0.634159 0.836920 0.324988
O O12 0.877864 0.756863 0.473628
O O13 0.105021 0.353921 0.055899
#
# Coordination Sequence:
#
# PCOD8132712 Si02
#       7
#     8   8   8   4   8   8   8
#     4  10  19  36  64  88 119 163 200 255 306 375
#     4  10  21  40  63  88 123 165 210 248 311 378
#     4  11  25  37  63  90 126 155 214 256 312 361
#     4  10  22  40  58  92 114 166 210 262 292 374
#     4  10  18  40  63  87 119 161 216 245 305 381
#     4  11  21  38  62  95 122 155 208 257 314 369
#     4  11  22  39  65  88 123 170 198 257 316 377
#
# _framework density 20.520251999999999
#
# number of rings (size 3 to 8) (size 9 to 14) (size 15 to 20)
#    0.000    1.538    4.615    1.385    2.154    0.615 
#    0.000    0.769    0.000    0.000    0.000    0.000 
#    0.000    0.000    0.000    0.000    0.000    0.000 
#
# Total GULP energy -322437.531130 kJ/mol
# GULP energy per Si atom -12401.443505 kJ/mol
# Density = 2.047355 g / cm^3
# Si number density = 20.520252 Si / 1000 Ang^3
#
#
#
# Elastic Constant Matrix: (Units=GPa)
#
#
# Indices 1 2 3 4 5 6 
#
# 1 112.4029 48.1388 47.5677 0.0000 10.7087 0.0000
# 2 48.1388 62.5247 35.4642 0.0000 -0.5924 0.0000
# 3 47.5677 35.4642 79.2724 0.0000 24.0944 0.0000
# 4 0.0000 0.0000 0.0000 26.9672 0.0000 -4.0078
# 5 10.7087 -0.5924 24.0944 0.0000 38.3361 0.0000
# 6 0.0000 0.0000 0.0000 -4.0078 0.0000 26.9902
#
#
#
# Elastic Compliance Matrix: (Units=1/GPa)
#
#
# Indices 1 2 3 4 5 6 
#
# 1 0.014679 -0.008804 -0.004428 0.000000 -0.001454 0.000000
# 2 -0.008804 0.028816 -0.010496 0.000000 0.009502 0.000000
# 3 -0.004428 -0.010496 0.024279 0.000000 -0.014185 0.000000
# 4 0.000000 0.000000 0.000000 0.037919 0.000000 0.005631
# 5 -0.001454 0.009502 -0.014185 0.000000 0.035553 0.000000
# 6 0.000000 0.000000 0.000000 0.005631 0.000000 0.037887
#
#
# Mechanical properties :
#
#
# Convention : Reuss Voigt Hill
#
# Bulk Modulus (GPa) = 49.21937 57.39347 53.30642
# Shear Modulus (GPa) = 21.42596 26.66067 24.04332
#
# Velocity S-wave (km/s) = 3.23482 3.60840 3.42671
# Velocity P-wave (km/s) = 6.16359 6.73726 6.45680
#
# Compressibility (1/GPa) = 0.02031721
#
# Stress axis : x y z
#
# Youngs Moduli (GPa) = 68.12225 34.70323 41.18818
#
# Poissons Ratio (x) = 0.30554 0.18238
# Poissons Ratio (y) = 0.59976 0.43232
# Poissons Ratio (z) = 0.30164 0.36425
#
# Static dielectric constant tensor:
#      x y z
#    x 3.872440 0.000000 0.232570 
#    y 0.000000 3.462920 0.000000 
#    z 0.232570 0.000000 3.777660 
# 
# 
# High freq. dielectric constant tensor:
#      x y z
#    x 1.807660 0.000000 0.016690 
#    y 0.000000 1.783660 0.000000 
#    z 0.016690 0.000000 1.798340 
# 
# From -- ./inp_files/273891.got.cif
#   From: 2010.06.25/outbox.cif.g09.slc.cpg/sg15_137_cif.got.tgz:273891.got - 2010.06.28 07:06:18.
