data_PCOD8132556
_publ_section_title
;
Structure prediction by ZEFSAII (Michael W. Deem and Ramdas Pophale) SiO2 
 PCOD8132556
Probable space group: C 2/C
;
_chemical_formula_sum "Si O2"
_cell_formula_units_Z 52
_cell_length_a 14.540450
_cell_length_b 17.699206
_cell_length_c 16.367769
_cell_angle_alpha 90.000000
_cell_angle_beta 37.225660
_cell_angle_gamma 90.000000
_cell_volume 2548.265943
_symmetry_space_group_name_H-M "C 2/C"
_symmetry_group_IT_number 15
_symmetry_cell_setting 'monoclinic'
loop_
_space_group_symop_operation_xyz
x,y,z
-x,y,1/2-z
-x,-y,-z
x,-y,1/2+z
1/2+x,1/2+y,z
1/2-x,1/2+y,1/2-z
1/2-x,1/2-y,-z
1/2+x,1/2-y,1/2+z
loop_
_atom_site_type_symbol
_atom_site_label
_atom_site_fract_x
_atom_site_fract_y
_atom_site_fract_z
Si Si1 0.945593 0.691638 0.132957
Si Si2 0.944071 0.634310 0.702663
Si Si3 0.500000 0.098204 0.250000
Si Si4 0.119091 0.561483 0.447008
Si Si5 0.417398 0.433631 0.657456
Si Si6 0.224519 0.006122 0.900017
Si Si7 0.117200 0.769558 0.876233
O O1 0.899662 0.632999 0.096720
O O2 0.793821 0.729558 0.274175
O O3 0.026964 0.650231 0.151263
O O4 0.043880 0.755664 0.017512
O O5 0.793353 0.584472 0.818811
O O6 0.910303 0.702965 0.667891
O O7 0.000000 0.665422 0.750000
O O8 0.078447 0.581934 0.569241
O O9 0.648722 0.044885 0.145650
O O10 0.299522 0.541791 0.313414
O O11 0.000000 0.500000 0.500000
O O12 0.337789 0.458967 0.630873
O O13 0.579424 0.473890 0.560371
O O14 0.444919 0.344055 0.625724
#
# Coordination Sequence:
#
# PCOD8132556 Si02
#       7
#     8   8   4   8   8   8   8
#     4  10  22  37  63  87 128 166 208 260 313 389
#     4  11  22  37  68  91 126 169 209 261 317 389
#     4  12  20  40  66  98 122 166 218 268 320 360
#     4  10  18  38  62  91 120 166 210 250 318 377
#     4  10  21  40  64  93 122 173 211 262 313 383
#     4  11  21  38  67  92 126 160 218 262 317 368
#     4  10  21  42  61  93 125 170 208 251 329 387
#
# _framework density 20.406033000000001
#
# number of rings (size 3 to 8) (size 9 to 14) (size 15 to 20)
#    0.000    1.538    5.385    0.923    0.000    0.615 
#    0.000   13.077    0.000    3.692    0.000    0.000 
#    0.000    0.000    0.000    0.000    0.000    0.000 
#
# Total GULP energy -322242.274215 kJ/mol
# GULP energy per Si atom -12393.933624 kJ/mol
# Density = 2.035959 g / cm^3
# Si number density = 20.406033 Si / 1000 Ang^3
#
#
#
# Elastic Constant Matrix: (Units=GPa)
#
#
# Indices 1 2 3 4 5 6 
#
# 1 80.8617 27.4205 47.6795 -0.0021 -3.7545 0.0028
# 2 27.4205 75.9539 29.1999 0.0025 -14.7474 -0.0002
# 3 47.6795 29.1999 142.1795 0.0033 -35.8328 0.0021
# 4 -0.0021 0.0025 0.0033 31.9766 0.0032 -3.7612
# 5 -3.7545 -14.7474 -35.8328 0.0032 26.4558 -0.0049
# 6 0.0028 -0.0002 0.0021 -3.7612 -0.0049 26.0525
#
#
#
# Elastic Compliance Matrix: (Units=1/GPa)
#
#
# Indices 1 2 3 4 5 6 
#
# 1 0.018425 -0.005827 -0.007807 0.000003 -0.011207 -0.000003
# 2 -0.005827 0.016807 0.000994 -0.000003 0.009889 0.000002
# 3 -0.007807 0.000994 0.014131 -0.000004 0.018586 0.000003
# 4 0.000003 -0.000003 -0.000004 0.031813 -0.000009 0.004593
# 5 -0.011207 0.009889 0.018586 -0.000009 0.066895 0.000011
# 6 -0.000003 0.000002 0.000003 0.004593 0.000011 0.039047
#
#
# Mechanical properties :
#
#
# Convention : Reuss Voigt Hill
#
# Bulk Modulus (GPa) = 41.51746 56.39943 48.95845
# Shear Modulus (GPa) = 22.68341 29.87666 26.28004
#
# Velocity S-wave (km/s) = 3.33769 3.83052 3.59256
# Velocity P-wave (km/s) = 5.93662 6.87477 6.42284
#
# Compressibility (1/GPa) = 0.02408625
#
# Stress axis : x y z
#
# Youngs Moduli (GPa) = 54.27294 59.49870 70.76480
#
# Poissons Ratio (x) = 0.34667 0.55244
# Poissons Ratio (y) = 0.31622 -0.07037
# Poissons Ratio (z) = 0.42369 -0.05917
#
# Static dielectric constant tensor:
#      x y z
#    x 3.384920 -0.000020 -0.090130 
#    y -0.000020 5.063640 -0.000170 
#    z -0.090130 -0.000170 4.426480 
# 
# 
# High freq. dielectric constant tensor:
#      x y z
#    x 1.771510 0.000000 -0.004030 
#    y 0.000000 1.799980 0.000000 
#    z -0.004030 0.000000 1.817400 
# 
# From -- ./inp_files/206102.got.cif
#   From: 2010.06.25/outbox.cif.g09.slc.cpg/sg15_104_cif.got.tgz:206102.got - 2010.06.28 07:06:18.
