data_PCOD8132798
_publ_section_title
;
Structure prediction by ZEFSAII (Michael W. Deem and Ramdas Pophale) SiO2 
 PCOD8132798
Probable space group: C 2/C
;
_chemical_formula_sum "Si O2"
_cell_formula_units_Z 60
_cell_length_a 25.052272
_cell_length_b 8.460290
_cell_length_c 24.181629
_cell_angle_alpha 90.000000
_cell_angle_beta 34.474753
_cell_angle_gamma 90.000000
_cell_volume 2901.131229
_symmetry_space_group_name_H-M "C 2/C"
_symmetry_group_IT_number 15
_symmetry_cell_setting 'monoclinic'
loop_
_space_group_symop_operation_xyz
x,y,z
-x,y,1/2-z
-x,-y,-z
x,-y,1/2+z
1/2+x,1/2+y,z
1/2-x,1/2+y,1/2-z
1/2-x,1/2-y,-z
1/2+x,1/2-y,1/2+z
loop_
_atom_site_type_symbol
_atom_site_label
_atom_site_fract_x
_atom_site_fract_y
_atom_site_fract_z
Si Si1 0.996036 0.125877 0.629848
Si Si2 0.784716 0.581205 0.272802
Si Si3 0.204676 0.914874 0.557625
Si Si4 0.500000 0.528502 0.750000
Si Si5 0.988018 0.465449 0.575633
Si Si6 0.186201 0.029727 0.955883
Si Si7 0.304900 0.444831 0.248126
Si Si8 0.823401 0.397369 0.555576
O O1 0.999889 0.288566 0.591257
O O2 0.903329 0.022993 0.694344
O O3 0.998761 0.139425 0.695289
O O4 0.079721 0.019911 0.534793
O O5 0.881371 0.482879 0.180414
O O6 0.759664 0.571427 0.358306
O O7 0.697941 0.510937 0.311685
O O8 0.793515 0.760779 0.249607
O O9 0.250000 0.750000 0.500000
O O10 0.093044 0.914072 0.670036
O O11 0.212649 0.019949 0.495764
O O12 0.269134 0.985624 0.551454
O O13 0.000000 0.500000 0.500000
O O14 0.064629 0.571911 0.542502
O O15 0.198581 0.212847 0.929659
O O16 0.217389 0.527898 0.353680
#
# Coordination Sequence:
#
# PCOD8132798 Si02
#       8
#     8   8   8   4   8   8   8   8
#     4  10  23  42  66  98 128 171 218 260 334 386
#     4  11  24  40  61  91 127 163 215 264 322 386
#     4   9  20  40  64  95 128 166 215 262 321 384
#     4  10  18  42  70  94 136 174 216 276 312 400
#     4  11  24  43  62  90 131 168 214 270 324 390
#     4  10  23  40  63  96 124 162 214 265 323 389
#     4  11  22  40  65  89 126 169 211 265 320 389
#     4  11  21  42  64  90 124 167 209 264 324 376
#
# _framework density 20.681588999999999
#
# number of rings (size 3 to 8) (size 9 to 14) (size 15 to 20)
#    0.000    1.600    2.667    1.600    1.867    2.667 
#   12.000    2.000    0.000    0.000    0.000    0.000 
#    0.000    0.000    0.000    0.000    0.000    0.000 
#
# Total GULP energy -371646.606764 kJ/mol
# GULP energy per Si atom -12388.220225 kJ/mol
# Density = 2.063452 g / cm^3
# Si number density = 20.681589 Si / 1000 Ang^3
#
#
#
# Elastic Constant Matrix: (Units=GPa)
#
#
# Indices 1 2 3 4 5 6 
#
# 1 142.8868 23.4288 59.3066 0.0036 -5.5238 -0.0064
# 2 23.4288 36.9828 16.9334 0.0036 1.9650 -0.0030
# 3 59.3066 16.9334 116.7530 -0.0014 10.5076 -0.0030
# 4 0.0036 0.0036 -0.0014 29.9481 0.0001 -0.5217
# 5 -5.5238 1.9650 10.5076 0.0001 29.5591 0.0044
# 6 -0.0064 -0.0030 -0.0030 -0.5217 0.0044 29.4661
#
#
#
# Elastic Compliance Matrix: (Units=1/GPa)
#
#
# Indices 1 2 3 4 5 6 
#
# 1 0.009792 -0.004253 -0.004698 -0.000001 0.003782 0.000001
# 2 -0.004253 0.030816 -0.002121 -0.000003 -0.002090 0.000002
# 3 -0.004698 -0.002121 0.011699 0.000001 -0.004896 0.000001
# 4 -0.000001 -0.000003 0.000001 0.033401 -0.000001 0.000591
# 5 0.003782 -0.002090 -0.004896 -0.000001 0.036417 -0.000005
# 6 0.000001 0.000002 0.000001 0.000591 -0.000005 0.033948
#
#
# Mechanical properties :
#
#
# Convention : Reuss Voigt Hill
#
# Bulk Modulus (GPa) = 33.15189 55.10671 44.12930
# Shear Modulus (GPa) = 26.55737 30.92489 28.74113
#
# Velocity S-wave (km/s) = 3.58733 3.87109 3.73191
# Velocity P-wave (km/s) = 5.76394 6.83254 6.32086
#
# Compressibility (1/GPa) = 0.03016419
#
# Stress axis : x y z
#
# Youngs Moduli (GPa) = 102.12488 32.45048 85.47389
#
# Poissons Ratio (x) = 0.13802 0.40151
# Poissons Ratio (y) = 0.43437 0.18128
# Poissons Ratio (z) = 0.47973 0.06882
#
# Static dielectric constant tensor:
#      x y z
#    x 4.463020 0.000000 -0.074480 
#    y 0.000000 3.413190 0.000010 
#    z -0.074480 0.000010 4.004530 
# 
# 
# High freq. dielectric constant tensor:
#      x y z
#    x 1.834810 0.000000 -0.000250 
#    y 0.000000 1.780160 0.000000 
#    z -0.000250 0.000000 1.817760 
# 
# From -- ./inp_files/281645.got.cif
#   From: 2010.06.25/outbox.cif.g09.slc.cpg/sg15_141_cif.got.tgz:281645.got - 2010.06.28 07:06:18.
