data_PCOD8132890
_publ_section_title
;
Structure prediction by ZEFSAII (Michael W. Deem and Ramdas Pophale) SiO2 
 PCOD8132890
Probable space group: C 2/C
;
_chemical_formula_sum "Si O2"
_cell_formula_units_Z 56
_cell_length_a 15.433617
_cell_length_b 27.942638
_cell_length_c 8.728784
_cell_angle_alpha 90.000000
_cell_angle_beta 128.020688
_cell_angle_gamma 90.000000
_cell_volume 2965.503583
_symmetry_space_group_name_H-M "C 2/C"
_symmetry_group_IT_number 15
_symmetry_cell_setting 'monoclinic'
loop_
_space_group_symop_operation_xyz
x,y,z
-x,y,1/2-z
-x,-y,-z
x,-y,1/2+z
1/2+x,1/2+y,z
1/2-x,1/2+y,1/2-z
1/2-x,1/2-y,-z
1/2+x,1/2-y,1/2+z
loop_
_atom_site_type_symbol
_atom_site_label
_atom_site_fract_x
_atom_site_fract_y
_atom_site_fract_z
Si Si1 0.594326 0.463972 0.554420
Si Si2 0.712515 0.069861 0.726669
Si Si3 0.639914 0.176104 0.645890
Si Si4 0.385280 0.713194 0.886885
Si Si5 0.544462 0.390124 0.969177
Si Si6 0.000000 0.731221 0.250000
Si Si7 0.243563 0.998430 0.967489
Si Si8 0.500000 0.779753 0.250000
O O1 0.500000 0.500000 0.500000
O O2 0.543425 0.410975 0.505275
O O3 0.696863 0.465069 0.782589
O O4 0.639904 0.476018 0.436975
O O5 0.643844 0.118534 0.645597
O O6 0.688223 0.041228 0.541678
O O7 0.841061 0.081906 0.887587
O O8 0.682685 0.034538 0.837863
O O9 0.756802 0.202195 0.760632
O O10 0.569567 0.195773 0.429989
O O11 0.582187 0.187549 0.742858
O O12 0.417283 0.735426 0.757420
O O13 0.452548 0.664991 0.984895
O O14 0.419785 0.748742 0.058127
O O15 0.500000 0.398305 0.750000
#
# Coordination Sequence:
#
# PCOD8132890 Si02
#       8
#     8   8   8   8   8   4   8   4
#     4  11  17  27  45  72 115 163 190 209 266 343
#     4  10  21  33  52  79 113 147 186 236 274 344
#     4  10  22  40  63  85 112 147 200 242 289 351
#     4  10  21  36  59  90 122 147 191 235 288 351
#     4  11  18  28  48  79 121 154 185 218 268 346
#     4  10  22  42  62  83 115 156 186 246 306 338
#     4  10  19  30  48  75 116 154 189 225 281 329
#     4  10  20  40  64  85 111 154 186 244 306 342
#
# _framework density 18.883807999999998
#
# number of rings (size 3 to 8) (size 9 to 14) (size 15 to 20)
#    0.000    1.714    5.000    1.286    0.000    2.286 
#    0.000    5.714    0.000    2.571    0.000    0.000 
#    0.000    0.000    0.000    0.000    0.000    0.000 
#
# Total GULP energy -347081.941703 kJ/mol
# GULP energy per Si atom -12395.783632 kJ/mol
# Density = 1.884083 g / cm^3
# Si number density = 18.883808 Si / 1000 Ang^3
#
#
#
# Elastic Constant Matrix: (Units=GPa)
#
#
# Indices 1 2 3 4 5 6 
#
# 1 100.4265 66.4650 40.5836 0.0000 -11.3878 0.0000
# 2 66.4650 138.0427 37.5151 0.0000 -8.9586 0.0000
# 3 40.5836 37.5151 51.9280 0.0000 -15.0372 0.0000
# 4 0.0000 0.0000 0.0000 27.9190 0.0000 4.0403
# 5 -11.3878 -8.9586 -15.0372 0.0000 27.0011 0.0000
# 6 0.0000 0.0000 0.0000 4.0403 0.0000 30.1542
#
#
#
# Elastic Compliance Matrix: (Units=1/GPa)
#
#
# Indices 1 2 3 4 5 6 
#
# 1 0.017772 -0.005954 -0.009526 0.000000 0.000215 0.000000
# 2 -0.005954 0.011022 -0.003550 0.000000 -0.000831 0.000000
# 3 -0.009526 -0.003550 0.033100 0.000000 0.013239 0.000000
# 4 0.000000 0.000000 0.000000 0.036526 0.000000 -0.004894
# 5 0.000215 -0.000831 0.013239 0.000000 0.044223 0.000000
# 6 0.000000 0.000000 0.000000 -0.004894 0.000000 0.033819
#
#
# Mechanical properties :
#
#
# Convention : Reuss Voigt Hill
#
# Bulk Modulus (GPa) = 41.95585 64.39163 53.17374
# Shear Modulus (GPa) = 22.47529 26.73709 24.60619
#
# Velocity S-wave (km/s) = 3.45365 3.76689 3.61367
# Velocity P-wave (km/s) = 6.17817 7.28644 6.75507
#
# Compressibility (1/GPa) = 0.02383458
#
# Stress axis : x y z
#
# Youngs Moduli (GPa) = 56.26825 90.72952 30.21114
#
# Poissons Ratio (x) = 0.54022 0.28778
# Poissons Ratio (y) = 0.33503 0.10725
# Poissons Ratio (z) = 0.53599 0.32208
#
# Static dielectric constant tensor:
#      x y z
#    x 3.410350 0.000000 -0.255400 
#    y 0.000000 3.714280 0.000000 
#    z -0.255400 0.000000 3.372530 
# 
# 
# High freq. dielectric constant tensor:
#      x y z
#    x 1.716490 0.000000 -0.022770 
#    y 0.000000 1.741640 0.000000 
#    z -0.022770 0.000000 1.728190 
# 
# From -- ./inp_files/44623.got.cif
#   From: 2010.06.25/outbox.cif.g09.slc.cpg/sg15_23_cif.got.tgz:44623.got - 2010.06.28 07:06:18.
