data_PCOD8132934
_publ_section_title
;
Structure prediction by ZEFSAII (Michael W. Deem and Ramdas Pophale) SiO2 
 PCOD8132934
Probable space group: C 2/C
;
_chemical_formula_sum "Si O2"
_cell_formula_units_Z 64
_cell_length_a 28.974143
_cell_length_b 17.785512
_cell_length_c 25.507435
_cell_angle_alpha 90.000000
_cell_angle_beta 161.225488
_cell_angle_gamma 90.000000
_cell_volume 4230.482618
_symmetry_space_group_name_H-M "C 2/C"
_symmetry_group_IT_number 15
_symmetry_cell_setting 'monoclinic'
loop_
_space_group_symop_operation_xyz
x,y,z
-x,y,1/2-z
-x,-y,-z
x,-y,1/2+z
1/2+x,1/2+y,z
1/2-x,1/2+y,1/2-z
1/2-x,1/2-y,-z
1/2+x,1/2-y,1/2+z
loop_
_atom_site_type_symbol
_atom_site_label
_atom_site_fract_x
_atom_site_fract_y
_atom_site_fract_z
Si Si1 0.527009 0.919432 0.421069
Si Si2 0.389832 0.343339 0.672136
Si Si3 0.886090 0.469135 0.836378
Si Si4 0.909461 0.674959 0.700686
Si Si5 0.440280 0.530646 0.489734
Si Si6 0.092309 0.822834 0.600064
Si Si7 0.145272 0.921758 0.755577
Si Si8 0.592995 0.178427 0.089093
O O1 0.445963 0.876186 0.288723
O O2 0.691230 0.940231 0.584320
O O3 0.514765 0.865790 0.458236
O O4 0.436992 0.996440 0.335317
O O5 0.500000 0.382378 0.750000
O O6 0.254787 0.332182 0.489903
O O7 0.448789 0.262075 0.754923
O O8 0.359392 0.392944 0.690157
O O9 0.723797 0.495342 0.675990
O O10 0.893431 0.378005 0.846218
O O11 0.000000 0.500000 0.000000
O O12 0.000000 0.643144 0.750000
O O13 0.500000 0.500000 0.500000
O O14 0.447110 0.620820 0.490297
O O15 0.547802 0.497687 0.649653
O O16 0.078655 0.861537 0.642902
O O17 0.253444 0.793997 0.766135
O O18 0.991324 0.751895 0.485132
#
# Coordination Sequence:
#
# PCOD8132934 Si02
#       8
#     8   8   8   8   8   8   8   8
#     4  10  19  31  47  64  90 123 155 186 225 264
#     4  10  21  32  46  65  91 122 160 191 226 259
#     4   9  18  31  45  65  88 116 150 185 222 270
#     4  10  19  34  46  63  93 124 154 197 223 256
#     4   9  18  31  45  64  90 116 147 187 225 265
#     4   9  18  30  45  65  90 117 147 184 222 266
#     4  10  19  32  45  65  91 121 155 188 223 267
#     4   9  18  30  44  66  91 115 149 183 219 270
#
# _framework density 15.128297
#
# number of rings (size 3 to 8) (size 9 to 14) (size 15 to 20)
#    0.000    2.500    1.250    3.000    1.750    5.000 
#    0.000    0.000    0.000    0.000    0.000    0.000 
#    0.000    2.000    0.000    0.125    0.000    0.125 
#
# Total GULP energy -396526.272117 kJ/mol
# GULP energy per Si atom -12391.446004 kJ/mol
# Density = 1.509386 g / cm^3
# Si number density = 15.128297 Si / 1000 Ang^3
#
#
#
# Elastic Constant Matrix: (Units=GPa)
#
#
# Indices 1 2 3 4 5 6 
#
# 1 82.8796 44.8808 35.7607 -0.0141 10.8277 -0.0096
# 2 44.8808 77.8183 43.7730 -0.0359 5.5380 -0.0430
# 3 35.7607 43.7730 77.3106 -0.0337 10.3134 -0.0018
# 4 -0.0141 -0.0359 -0.0337 38.6126 -0.0187 1.7124
# 5 10.8277 5.5380 10.3134 -0.0187 26.3663 -0.0049
# 6 -0.0096 -0.0430 -0.0018 1.7124 -0.0049 24.9756
#
#
#
# Elastic Compliance Matrix: (Units=1/GPa)
#
#
# Indices 1 2 3 4 5 6 
#
# 1 0.018741 -0.008731 -0.003105 -0.000006 -0.004648 -0.000009
# 2 -0.008731 0.022925 -0.009261 0.000010 0.002393 0.000035
# 3 -0.003105 -0.009261 0.020241 0.000006 -0.004697 -0.000017
# 4 -0.000006 0.000010 0.000006 0.025977 0.000016 -0.001781
# 5 -0.004648 0.002393 -0.004697 0.000016 0.041171 0.000009
# 6 -0.000009 0.000035 -0.000017 -0.001781 0.000009 0.040161
#
#
# Mechanical properties :
#
#
# Convention : Reuss Voigt Hill
#
# Bulk Modulus (GPa) = 50.72777 54.09305 52.41041
# Shear Modulus (GPa) = 22.93784 25.56383 24.25084
#
# Velocity S-wave (km/s) = 3.89809 4.11518 4.00811
# Velocity P-wave (km/s) = 7.33926 7.64287 7.49260
#
# Compressibility (1/GPa) = 0.01971307
#
# Stress axis : x y z
#
# Youngs Moduli (GPa) = 53.35964 43.62082 49.40452
#
# Poissons Ratio (x) = 0.38086 0.15341
# Poissons Ratio (y) = 0.46589 0.45751
# Poissons Ratio (z) = 0.16569 0.40395
#
# Static dielectric constant tensor:
#      x y z
#    x 2.859770 -0.000030 0.176730 
#    y -0.000030 3.066620 -0.000040 
#    z 0.176730 -0.000040 3.084700 
# 
# 
# High freq. dielectric constant tensor:
#      x y z
#    x 1.563560 0.000000 0.023300 
#    y 0.000000 1.558710 0.000000 
#    z 0.023300 0.000000 1.585710 
# 
# From -- ./inp_files/283714.got.cif
#   From: 2010.06.25/outbox.cif.g09.slc.cpg/sg15_142_cif.got.tgz:283714.got - 2010.06.28 07:06:18.
