data_PCOD8132410
_publ_section_title
;
Structure prediction by ZEFSAII (Michael W. Deem and Ramdas Pophale) SiO2 
 PCOD8132410
Probable space group: C 2/C
;
_chemical_formula_sum "Si O2"
_cell_formula_units_Z 52
_cell_length_a 13.686470
_cell_length_b 18.015577
_cell_length_c 12.250042
_cell_angle_alpha 90.000000
_cell_angle_beta 64.799621
_cell_angle_gamma 90.000000
_cell_volume 2733.011307
_symmetry_space_group_name_H-M "C 2/C"
_symmetry_group_IT_number 15
_symmetry_cell_setting 'monoclinic'
loop_
_space_group_symop_operation_xyz
x,y,z
-x,y,1/2-z
-x,-y,-z
x,-y,1/2+z
1/2+x,1/2+y,z
1/2-x,1/2+y,1/2-z
1/2-x,1/2-y,-z
1/2+x,1/2-y,1/2+z
loop_
_atom_site_type_symbol
_atom_site_label
_atom_site_fract_x
_atom_site_fract_y
_atom_site_fract_z
Si Si1 0.881696 0.786712 0.359662
Si Si2 0.658384 0.766107 0.390362
Si Si3 0.329750 0.447263 0.459459
Si Si4 0.500000 0.526115 0.250000
Si Si5 0.344478 0.959608 0.590250
Si Si6 0.537017 0.908244 0.357153
Si Si7 0.829005 0.108058 0.194519
O O1 0.789817 0.758939 0.319448
O O2 0.885268 0.732804 0.463610
O O3 0.826194 0.863957 0.418107
O O4 0.000000 0.791871 0.250000
O O5 0.608186 0.835393 0.350143
O O6 0.623448 0.689339 0.351196
O O7 0.447122 0.477086 0.370314
O O8 0.232082 0.495399 0.456873
O O9 0.321142 0.445752 0.593695
O O10 0.410498 0.576388 0.241827
O O11 0.431763 0.912165 0.482795
O O12 0.285803 0.896465 0.689734
O O13 0.394156 0.018110 0.652277
O O14 0.500000 0.905191 0.250000
#
# Coordination Sequence:
#
# PCOD8132410 Si02
#       7
#     8   8   8   4   8   8   8
#     4  10  20  38  63  88 113 157 197 253 299 341
#     4  10  23  39  58  89 124 153 199 243 294 364
#     4  10  18  37  60  86 116 148 203 253 291 346
#     4  10  20  34  58  86 116 156 196 242 302 356
#     4  10  22  40  61  88 114 156 204 240 297 356
#     4  11  23  41  62  86 123 160 192 246 297 359
#     4  10  22  37  59  86 120 154 196 249 294 353
#
# _framework density 19.026631999999999
#
# number of rings (size 3 to 8) (size 9 to 14) (size 15 to 20)
#    0.000    1.846    2.308    1.385    3.231    0.000 
#    0.000    3.846    0.000    0.000    0.000    0.000 
#    0.000    0.000    0.000    0.000    0.000    0.000 
#
# Total GULP energy -322244.939541 kJ/mol
# GULP energy per Si atom -12394.036136 kJ/mol
# Density = 1.898333 g / cm^3
# Si number density = 19.026632 Si / 1000 Ang^3
#
#
#
# Elastic Constant Matrix: (Units=GPa)
#
#
# Indices 1 2 3 4 5 6 
#
# 1 79.4703 24.9435 54.6138 0.0000 -1.3845 0.0000
# 2 24.9435 66.8856 36.3008 0.0000 7.7377 0.0000
# 3 54.6138 36.3008 104.5187 0.0000 1.4716 0.0000
# 4 0.0000 0.0000 0.0000 22.1760 0.0000 6.8590
# 5 -1.3845 7.7377 1.4716 0.0000 33.7340 0.0000
# 6 0.0000 0.0000 0.0000 6.8590 0.0000 30.6118
#
#
#
# Elastic Compliance Matrix: (Units=1/GPa)
#
#
# Indices 1 2 3 4 5 6 
#
# 1 0.019996 -0.002441 -0.009626 0.000000 0.001801 0.000000
# 2 -0.002441 0.019263 -0.005354 0.000000 -0.004285 0.000000
# 3 -0.009626 -0.005354 0.016456 0.000000 0.000115 0.000000
# 4 0.000000 0.000000 0.000000 0.048452 0.000000 -0.010856
# 5 0.001801 -0.004285 0.000115 0.000000 0.030695 0.000000
# 6 0.000000 0.000000 0.000000 -0.010856 0.000000 0.035100
#
#
# Mechanical properties :
#
#
# Convention : Reuss Voigt Hill
#
# Bulk Modulus (GPa) = 47.91210 53.62122 50.76666
# Shear Modulus (GPa) = 23.61147 26.30546 24.95846
#
# Velocity S-wave (km/s) = 3.52656 3.72231 3.62576
# Velocity P-wave (km/s) = 6.46672 6.83502 6.65342
#
# Compressibility (1/GPa) = 0.02087156
#
# Stress axis : x y z
#
# Youngs Moduli (GPa) = 50.00971 51.91312 60.76967
#
# Poissons Ratio (x) = 0.12672 0.58497
# Poissons Ratio (y) = 0.12208 0.32539
# Poissons Ratio (z) = 0.48140 0.27797
#
# Static dielectric constant tensor:
#      x y z
#    x 3.804710 0.000000 -0.232510 
#    y 0.000000 3.418200 0.000000 
#    z -0.232510 0.000000 3.676570 
# 
# 
# High freq. dielectric constant tensor:
#      x y z
#    x 1.747380 0.000000 -0.005170 
#    y 0.000000 1.738300 0.000000 
#    z -0.005170 0.000000 1.739900 
# 
# From -- ./inp_files/98176.got.cif
#   From: 2010.06.25/outbox.cif.g09.slc.cpg/sg15_50_cif.got.tgz:98176.got - 2010.06.28 07:06:18.
