data_PCOD8132224
_publ_section_title
;
Structure prediction by ZEFSAII (Michael W. Deem and Ramdas Pophale) SiO2 
 PCOD8132224
Probable space group: C 2/C
;
_chemical_formula_sum "Si O2"
_cell_formula_units_Z 48
_cell_length_a 23.298369
_cell_length_b 13.594939
_cell_length_c 13.087457
_cell_angle_alpha 90.000000
_cell_angle_beta 148.268988
_cell_angle_gamma 90.000000
_cell_volume 2180.156735
_symmetry_space_group_name_H-M "C 2/C"
_symmetry_group_IT_number 15
_symmetry_cell_setting 'monoclinic'
loop_
_space_group_symop_operation_xyz
x,y,z
-x,y,1/2-z
-x,-y,-z
x,-y,1/2+z
1/2+x,1/2+y,z
1/2-x,1/2+y,1/2-z
1/2-x,1/2-y,-z
1/2+x,1/2-y,1/2+z
loop_
_atom_site_type_symbol
_atom_site_label
_atom_site_fract_x
_atom_site_fract_y
_atom_site_fract_z
Si Si1 0.250146 0.839549 0.597072
Si Si2 0.827395 0.846798 0.332871
Si Si3 0.262773 0.438481 0.714162
Si Si4 0.057651 0.186441 0.107441
Si Si5 0.874424 0.724267 0.589192
Si Si6 0.566437 0.783976 0.752587
O O1 0.283445 0.732400 0.688037
O O2 0.255021 0.919636 0.692341
O O3 0.341559 0.862729 0.647991
O O4 0.127037 0.821655 0.368637
O O5 0.811099 0.805210 0.423441
O O6 0.956376 0.864152 0.511672
O O7 0.758476 0.944079 0.202414
O O8 0.380148 0.400255 0.856229
O O9 0.173595 0.384646 0.507411
O O10 0.136419 0.242483 0.308747
O O11 0.021691 0.267347 0.970068
O O12 0.000000 0.717826 0.750000
O O13 0.500000 0.824759 0.750000
#
# Coordination Sequence:
#
# PCOD8132224 Si02
#       6
#     8   8   8   8   8   8
#     4   9  20  36  57  87 120 160 199 251 302 367
#     4   9  20  37  57  89 122 150 204 254 299 360
#     4  11  19  36  62  87 118 159 202 249 309 361
#     4  10  19  35  58  90 117 157 200 255 309 359
#     4   9  20  39  58  83 123 161 199 249 305 365
#     4  10  18  36  60  82 118 159 202 247 306 359
#
# _framework density 22.016766000000001
#
# number of rings (size 3 to 8) (size 9 to 14) (size 15 to 20)
#    0.000    2.333    1.667    2.000    0.000    0.000 
#   18.000    0.833    0.000    2.000    0.000    0.000 
#    0.000    0.000    0.000    0.000    0.000    0.000 
#
# Total GULP energy -297416.506741 kJ/mol
# GULP energy per Si atom -12392.354448 kJ/mol
# Density = 2.196666 g / cm^3
# Si number density = 22.016766 Si / 1000 Ang^3
#
#
#
# Elastic Constant Matrix: (Units=GPa)
#
#
# Indices 1 2 3 4 5 6 
#
# 1 131.7082 22.9798 21.6733 0.0000 -13.0043 0.0000
# 2 22.9798 96.4294 27.5535 0.0000 1.0269 0.0000
# 3 21.6733 27.5535 91.3346 0.0000 -18.5611 0.0000
# 4 0.0000 0.0000 0.0000 19.2489 0.0000 3.2573
# 5 -13.0043 1.0269 -18.5611 0.0000 31.9372 0.0000
# 6 0.0000 0.0000 0.0000 3.2573 0.0000 15.2888
#
#
#
# Elastic Compliance Matrix: (Units=1/GPa)
#
#
# Indices 1 2 3 4 5 6 
#
# 1 0.008333 -0.001778 -0.000839 0.000000 0.002963 0.000000
# 2 -0.001778 0.011932 -0.003859 0.000000 -0.003350 0.000000
# 3 -0.000839 -0.003859 0.013911 0.000000 0.007867 0.000000
# 4 0.000000 0.000000 0.000000 0.053894 0.000000 -0.011482
# 5 0.002963 -0.003350 0.007867 0.000000 0.037198 0.000000
# 6 0.000000 0.000000 0.000000 -0.011482 0.000000 0.067854
#
#
# Mechanical properties :
#
#
# Convention : Reuss Voigt Hill
#
# Bulk Modulus (GPa) = 47.11351 51.54280 49.32816
# Shear Modulus (GPa) = 23.45796 29.77936 26.61866
#
# Velocity S-wave (km/s) = 3.26768 3.68173 3.48087
# Velocity P-wave (km/s) = 5.97347 6.44477 6.21359
#
# Compressibility (1/GPa) = 0.02122533
#
# Stress axis : x y z
#
# Youngs Moduli (GPa) = 120.00049 83.80732 71.88745
#
# Poissons Ratio (x) = 0.14898 0.06032
# Poissons Ratio (y) = 0.21332 0.27738
# Poissons Ratio (z) = 0.10069 0.32338
#
# Static dielectric constant tensor:
#      x y z
#    x 4.376910 0.000000 -0.062820 
#    y 0.000000 3.316350 0.000000 
#    z -0.062820 0.000000 4.240100 
# 
# 
# High freq. dielectric constant tensor:
#      x y z
#    x 1.886000 0.000000 -0.005010 
#    y 0.000000 1.803320 0.000000 
#    z -0.005010 0.000000 1.880950 
# 
# From -- ./inp_files/178191.got.cif
#   From: 2010.06.25/outbox.cif.g09.slc.cpg/sg15_90_cif.got.tgz:178191.got - 2010.06.28 07:06:18.
