data_PCOD8132342
_publ_section_title
;
Structure prediction by ZEFSAII (Michael W. Deem and Ramdas Pophale) SiO2 
 PCOD8132342
Probable space group: C 2/C
;
_chemical_formula_sum "Si O2"
_cell_formula_units_Z 44
_cell_length_a 14.659892
_cell_length_b 11.580311
_cell_length_c 25.335334
_cell_angle_alpha 90.000000
_cell_angle_beta 149.523225
_cell_angle_gamma 90.000000
_cell_volume 2181.461251
_symmetry_space_group_name_H-M "C 2/C"
_symmetry_group_IT_number 15
_symmetry_cell_setting 'monoclinic'
loop_
_space_group_symop_operation_xyz
x,y,z
-x,y,1/2-z
-x,-y,-z
x,-y,1/2+z
1/2+x,1/2+y,z
1/2-x,1/2+y,1/2-z
1/2-x,1/2-y,-z
1/2+x,1/2-y,1/2+z
loop_
_atom_site_type_symbol
_atom_site_label
_atom_site_fract_x
_atom_site_fract_y
_atom_site_fract_z
Si Si1 0.693466 0.611953 0.574365
Si Si2 0.000000 0.562186 0.250000
Si Si3 0.968979 0.780187 0.673392
Si Si4 0.428563 0.501720 0.082643
Si Si5 0.848884 0.796309 0.339480
Si Si6 0.608658 0.849116 0.914692
O O1 0.828781 0.522582 0.670878
O O2 0.793948 0.698810 0.582991
O O3 0.543798 0.550467 0.463384
O O4 0.592592 0.681390 0.570504
O O5 0.033947 0.645435 0.317296
O O6 0.000000 0.804765 0.750000
O O7 0.133749 0.711310 0.728244
O O8 0.955162 0.904761 0.640579
O O9 0.571921 0.396920 0.159552
O O10 0.217340 0.465845 0.981590
O O11 0.934974 0.673322 0.365004
O O12 0.750000 0.750000 0.000000
#
# Coordination Sequence:
#
# PCOD8132342 Si02
#       6
#     8   4   8   8   8   8
#     4  10  19  37  59  84 113 150 199 235 284 347
#     4  10  18  36  66  76 114 162 186 234 296 332
#     4  10  21  38  56  82 122 151 191 238 289 348
#     4  10  21  36  59  83 114 157 191 240 292 336
#     4  10  20  37  56  86 112 144 198 242 276 349
#     4   9  21  39  56  87 120 147 195 239 288 348
#
# _framework density 20.169965999999999
#
# number of rings (size 3 to 8) (size 9 to 14) (size 15 to 20)
#    0.000    2.182    2.727    1.091    2.545    0.000 
#    6.545    3.636    0.000    0.000    0.000    0.000 
#    0.000    0.000    0.000    0.000    0.000    0.000 
#
# Total GULP energy -272579.782843 kJ/mol
# GULP energy per Si atom -12389.990129 kJ/mol
# Density = 2.012406 g / cm^3
# Si number density = 20.169966 Si / 1000 Ang^3
#
#
#
# Elastic Constant Matrix: (Units=GPa)
#
#
# Indices 1 2 3 4 5 6 
#
# 1 98.0586 51.7515 30.9541 0.0000 7.4738 0.0000
# 2 51.7515 93.9054 34.0039 0.0000 -3.2033 0.0000
# 3 30.9541 34.0039 58.5572 0.0000 -4.2715 -0.0001
# 4 0.0000 0.0000 0.0000 34.2972 -0.0001 -11.0859
# 5 7.4738 -3.2033 -4.2715 -0.0001 25.7123 0.0000
# 6 0.0000 0.0000 -0.0001 -11.0859 0.0000 39.7507
#
#
#
# Elastic Compliance Matrix: (Units=1/GPa)
#
#
# Indices 1 2 3 4 5 6 
#
# 1 0.016045 -0.007370 -0.004666 0.000000 -0.006357 0.000000
# 2 -0.007370 0.016873 -0.005662 0.000000 0.003304 0.000000
# 3 -0.004666 -0.005662 0.023159 0.000000 0.004498 0.000000
# 4 0.000000 0.000000 0.000000 0.032046 0.000000 0.008937
# 5 -0.006357 0.003304 0.004498 0.000000 0.041899 0.000000
# 6 0.000000 0.000000 0.000000 0.008937 0.000000 0.027649
#
#
# Mechanical properties :
#
#
# Convention : Reuss Voigt Hill
#
# Bulk Modulus (GPa) = 48.34725 53.77115 51.05920
# Shear Modulus (GPa) = 25.00512 28.87281 26.93897
#
# Velocity S-wave (km/s) = 3.52479 3.78759 3.65855
# Velocity P-wave (km/s) = 6.37083 6.77087 6.57389
#
# Compressibility (1/GPa) = 0.02068370
#
# Stress axis : x y z
#
# Youngs Moduli (GPa) = 62.32575 59.26541 43.17902
#
# Poissons Ratio (x) = 0.43677 0.20146
# Poissons Ratio (y) = 0.45932 0.24446
# Poissons Ratio (z) = 0.29079 0.33553
#
# Static dielectric constant tensor:
#      x y z
#    x 3.881310 0.000000 0.210860 
#    y 0.000000 3.865620 0.000000 
#    z 0.210860 0.000000 3.696880 
# 
# 
# High freq. dielectric constant tensor:
#      x y z
#    x 1.782100 0.000000 0.009150 
#    y 0.000000 1.783740 0.000000 
#    z 0.009150 0.000000 1.776890 
# 
# From -- ./inp_files/151725.got.cif
#   From: 2010.06.25/outbox.cif.g09.slc.cpg/sg15_76_cif.got.tgz:151725.got - 2010.06.28 07:06:18.
