data_PCOD8132106
_publ_section_title
;
Structure prediction by ZEFSAII (Michael W. Deem and Ramdas Pophale) SiO2 
 PCOD8132106
Probable space group: C 2/C
;
_chemical_formula_sum "Si O2"
_cell_formula_units_Z 48
_cell_length_a 19.142063
_cell_length_b 26.684657
_cell_length_c 8.754468
_cell_angle_alpha 90.000000
_cell_angle_beta 34.482329
_cell_angle_gamma 90.000000
_cell_volume 2531.705579
_symmetry_space_group_name_H-M "C 2/C"
_symmetry_group_IT_number 15
_symmetry_cell_setting 'monoclinic'
loop_
_space_group_symop_operation_xyz
x,y,z
-x,y,1/2-z
-x,-y,-z
x,-y,1/2+z
1/2+x,1/2+y,z
1/2-x,1/2+y,1/2-z
1/2-x,1/2-y,-z
1/2+x,1/2-y,1/2+z
loop_
_atom_site_type_symbol
_atom_site_label
_atom_site_fract_x
_atom_site_fract_y
_atom_site_fract_z
Si Si1 0.373157 0.894283 0.758564
Si Si2 0.142273 0.528381 0.984942
Si Si3 0.726678 0.843118 0.837533
Si Si4 0.500000 0.768450 0.250000
Si Si5 0.123112 0.237954 0.312019
Si Si6 0.868309 0.568037 0.816327
Si Si7 0.500000 0.815566 0.750000
O O1 0.271205 0.873777 0.824082
O O2 0.485379 0.921002 0.462672
O O3 0.422662 0.849216 0.773321
O O4 0.297877 0.934836 0.996042
O O5 0.189276 0.541713 0.730780
O O6 0.158727 0.470033 0.994904
O O7 0.000000 0.544590 0.250000
O O8 0.856834 0.814858 0.634612
O O9 0.617978 0.803142 0.016606
O O10 0.701670 0.880192 0.025159
O O11 0.517047 0.734380 0.372122
O O12 0.094133 0.281133 0.485829
O O13 0.250000 0.250000 0.000000
#
# Coordination Sequence:
#
# PCOD8132106 Si02
#       7
#     8   8   8   4   8   8   4
#     4  11  18  30  49  73 106 146 177 214 267 331
#     4  10  19  26  45  73 105 148 176 208 261 343
#     4  11  19  33  53  72 105 149 181 225 269 315
#     4  10  18  36  51  72 108 135 180 234 268 316
#     4  10  23  36  55  78 103 149 190 228 277 321
#     4  11  18  31  47  74 112 145 183 214 267 331
#     4  12  20  38  53  76 114 147 190 224 270 324
#
# _framework density 18.95955
#
# number of rings (size 3 to 8) (size 9 to 14) (size 15 to 20)
#    0.000    1.333    5.833    5.000    0.000    0.667 
#    0.000    0.000    0.000    0.000    0.000    0.000 
#    0.000   16.000    0.000    0.000    0.000    0.000 
#
# Total GULP energy -297449.920147 kJ/mol
# GULP energy per Si atom -12393.746673 kJ/mol
# Density = 1.891640 g / cm^3
# Si number density = 18.959550 Si / 1000 Ang^3
#
#
#
# Elastic Constant Matrix: (Units=GPa)
#
#
# Indices 1 2 3 4 5 6 
#
# 1 117.0906 69.7017 21.9355 0.0000 22.5831 0.0000
# 2 69.7017 120.0254 27.1698 0.0000 6.8856 0.0000
# 3 21.9355 27.1698 38.8363 0.0000 10.9596 0.0000
# 4 0.0000 0.0000 0.0000 20.5582 0.0000 14.9269
# 5 22.5831 6.8856 10.9596 0.0000 18.2099 0.0000
# 6 0.0000 0.0000 0.0000 14.9269 0.0000 42.8179
#
#
#
# Elastic Compliance Matrix: (Units=1/GPa)
#
#
# Indices 1 2 3 4 5 6 
#
# 1 0.017623 -0.009634 0.002320 0.000000 -0.019608 0.000000
# 2 -0.009634 0.015170 -0.008341 0.000000 0.011232 0.000000
# 3 0.002320 -0.008341 0.036374 0.000000 -0.021615 0.000000
# 4 0.000000 0.000000 0.000000 0.065128 0.000000 -0.022704
# 5 -0.019608 0.011232 -0.021615 0.000000 0.087994 0.000000
# 6 0.000000 0.000000 0.000000 -0.022704 0.000000 0.031270
#
#
# Mechanical properties :
#
#
# Convention : Reuss Voigt Hill
#
# Bulk Modulus (GPa) = 26.41595 57.06291 41.73943
# Shear Modulus (GPa) = 16.80746 26.79356 21.80051
#
# Velocity S-wave (km/s) = 2.98063 3.76333 3.39461
# Velocity P-wave (km/s) = 5.08021 7.00329 6.11779
#
# Compressibility (1/GPa) = 0.03785592
#
# Stress axis : x y z
#
# Youngs Moduli (GPa) = 56.74543 65.91903 27.49229
#
# Poissons Ratio (x) = 0.63507 -0.06378
# Poissons Ratio (y) = 0.54669 0.22931
# Poissons Ratio (z) = -0.13164 0.54983
#
# Static dielectric constant tensor:
#      x y z
#    x 4.635350 0.000000 0.267770 
#    y 0.000000 3.921710 0.000000 
#    z 0.267770 0.000000 3.073800 
# 
# 
# High freq. dielectric constant tensor:
#      x y z
#    x 1.738260 0.000000 0.056780 
#    y 0.000000 1.750160 0.000000 
#    z 0.056780 0.000000 1.666630 
# 
# From -- ./inp_files/33092.got.cif
#   From: 2010.06.25/outbox.cif.g09.slc.cpg/sg15_17_cif.got.tgz:33092.got - 2010.06.28 07:06:18.
