data_PCOD8132466
_publ_section_title
;
Structure prediction by ZEFSAII (Michael W. Deem and Ramdas Pophale) SiO2 
 PCOD8132466
Probable space group: C 2/C
;
_chemical_formula_sum "Si O2"
_cell_formula_units_Z 48
_cell_length_a 19.130291
_cell_length_b 9.245109
_cell_length_c 16.335980
_cell_angle_alpha 90.000000
_cell_angle_beta 124.218861
_cell_angle_gamma 90.000000
_cell_volume 2389.073072
_symmetry_space_group_name_H-M "C 2/C"
_symmetry_group_IT_number 15
_symmetry_cell_setting 'monoclinic'
loop_
_space_group_symop_operation_xyz
x,y,z
-x,y,1/2-z
-x,-y,-z
x,-y,1/2+z
1/2+x,1/2+y,z
1/2-x,1/2+y,1/2-z
1/2-x,1/2-y,-z
1/2+x,1/2-y,1/2+z
loop_
_atom_site_type_symbol
_atom_site_label
_atom_site_fract_x
_atom_site_fract_y
_atom_site_fract_z
Si Si1 0.883206 0.042714 0.507982
Si Si2 0.724185 0.934689 0.309399
Si Si3 0.653880 0.220329 0.195278
Si Si4 0.426630 0.251089 0.766473
Si Si5 0.503351 0.712291 0.480615
Si Si6 0.595521 0.429929 0.294652
O O1 0.791873 0.006299 0.413162
O O2 0.925501 0.179838 0.490996
O O3 0.954688 0.921923 0.540220
O O4 0.860330 0.066298 0.587775
O O5 0.683755 0.057516 0.226364
O O6 0.767422 0.812400 0.283757
O O7 0.649654 0.854500 0.310449
O O8 0.576979 0.209023 0.079725
O O9 0.627847 0.296286 0.262684
O O10 0.500000 0.231510 0.750000
O O11 0.393445 0.417780 0.746295
O O12 0.461011 0.198624 0.878246
O O13 0.500000 0.394772 0.250000
#
# Coordination Sequence:
#
# PCOD8132466 Si02
#       6
#     8   8   8   8   8   8
#     4  10  19  36  64  90 120 162 198 244 293 367
#     4  11  25  41  59  91 125 157 201 253 308 343
#     4  11  23  40  63  90 122 162 198 252 296 362
#     4  11  22  41  61  90 121 159 203 251 297 360
#     4  10  18  37  65  88 118 161 206 234 300 362
#     4  11  19  37  66  94 117 161 207 237 296 361
#
# _framework density 20.091474000000002
#
# number of rings (size 3 to 8) (size 9 to 14) (size 15 to 20)
#    0.000    1.333    5.000    4.000    0.000    2.667 
#    3.000    0.000    0.000    0.000    0.000    0.000 
#    0.000    0.000    0.000    0.000    0.000    0.000 
#
# Total GULP energy -297488.257226 kJ/mol
# GULP energy per Si atom -12395.344051 kJ/mol
# Density = 2.004575 g / cm^3
# Si number density = 20.091474 Si / 1000 Ang^3
#
#
#
# Elastic Constant Matrix: (Units=GPa)
#
#
# Indices 1 2 3 4 5 6 
#
# 1 69.2563 33.2765 46.0898 0.0000 10.9786 0.0000
# 2 33.2765 54.1830 27.1841 0.0000 16.7357 0.0000
# 3 46.0898 27.1841 121.4375 0.0000 -3.2946 0.0000
# 4 0.0000 0.0000 0.0000 11.3376 0.0000 -2.8460
# 5 10.9786 16.7357 -3.2946 0.0000 34.2427 0.0000
# 6 0.0000 0.0000 0.0000 -2.8460 0.0000 15.3738
#
#
#
# Elastic Compliance Matrix: (Units=1/GPa)
#
#
# Indices 1 2 3 4 5 6 
#
# 1 0.024838 -0.010595 -0.007150 0.000000 -0.003473 0.000000
# 2 -0.010595 0.030056 -0.003021 0.000000 -0.011584 0.000000
# 3 -0.007150 -0.003021 0.011758 0.000000 0.004900 0.000000
# 4 0.000000 0.000000 0.000000 0.092501 0.000000 0.017124
# 5 -0.003473 -0.011584 0.004900 0.000000 0.036450 0.000000
# 6 0.000000 0.000000 0.000000 0.017124 0.000000 0.068216
#
#
# Mechanical properties :
#
#
# Convention : Reuss Voigt Hill
#
# Bulk Modulus (GPa) = 39.80750 50.88641 45.34696
# Shear Modulus (GPa) = 15.93760 21.41257 18.67509
#
# Velocity S-wave (km/s) = 2.81953 3.26813 3.05208
# Velocity P-wave (km/s) = 5.51868 6.29470 5.91942
#
# Compressibility (1/GPa) = 0.02512089
#
# Stress axis : x y z
#
# Youngs Moduli (GPa) = 40.26050 33.27082 85.05196
#
# Poissons Ratio (x) = 0.35249 0.60809
# Poissons Ratio (y) = 0.42654 0.25698
# Poissons Ratio (z) = 0.28785 0.10053
#
# Static dielectric constant tensor:
#      x y z
#    x 15.640640 0.000000 -10.420200 
#    y 0.000000 3.399010 0.000000 
#    z -10.420200 0.000000 12.987920 
# 
# 
# High freq. dielectric constant tensor:
#      x y z
#    x 1.787010 0.000000 0.005020 
#    y 0.000000 1.753960 0.000000 
#    z 0.005020 0.000000 1.798030 
# 
# From -- ./inp_files/214100.got.cif
#   From: 2010.06.25/outbox.cif.g09.slc.cpg/sg15_108_cif.got.tgz:214100.got - 2010.06.28 07:06:18.
