data_PCOD8132430
_publ_section_title
;
Structure prediction by ZEFSAII (Michael W. Deem and Ramdas Pophale) SiO2 
 PCOD8132430
Probable space group: C 2/C
;
_chemical_formula_sum "Si O2"
_cell_formula_units_Z 40
_cell_length_a 9.570191
_cell_length_b 15.424393
_cell_length_c 21.416442
_cell_angle_alpha 90.000000
_cell_angle_beta 139.116149
_cell_angle_gamma 90.000000
_cell_volume 2069.207632
_symmetry_space_group_name_H-M "C 2/C"
_symmetry_group_IT_number 15
_symmetry_cell_setting 'monoclinic'
loop_
_space_group_symop_operation_xyz
x,y,z
-x,y,1/2-z
-x,-y,-z
x,-y,1/2+z
1/2+x,1/2+y,z
1/2-x,1/2+y,1/2-z
1/2-x,1/2-y,-z
1/2+x,1/2-y,1/2+z
loop_
_atom_site_type_symbol
_atom_site_label
_atom_site_fract_x
_atom_site_fract_y
_atom_site_fract_z
Si Si1 0.961420 0.066429 0.543072
Si Si2 0.970837 0.550659 0.405905
Si Si3 0.908618 0.370259 0.012814
Si Si4 0.007905 0.822350 0.553609
Si Si5 0.210836 0.544776 0.287665
O O1 0.720810 0.072435 0.485513
O O2 0.023531 0.158077 0.531456
O O3 0.000000 0.000000 0.500000
O O4 0.116084 0.034212 0.651161
O O5 0.947478 0.447853 0.411167
O O6 0.870506 0.609764 0.426679
O O7 0.835406 0.571736 0.298843
O O8 0.031916 0.280644 0.067605
O O9 0.681510 0.364453 0.969813
O O10 0.219906 0.868215 0.651906
O O11 0.000000 0.508223 0.250000
#
# Coordination Sequence:
#
# PCOD8132430 Si02
#       5
#     8   8   8   8   8
#     4  10  18  37  62  84 112 161 195 235 294 347
#     4  11  21  39  62  87 117 160 194 241 299 354
#     4  10  22  39  59  86 123 151 190 252 304 339
#     4  10  20  40  61  84 120 156 194 246 296 346
#     4  11  19  36  64  86 116 157 206 232 285 361
#
# _framework density 19.33107
#
# number of rings (size 3 to 8) (size 9 to 14) (size 15 to 20)
#    0.000    1.600    8.000    0.000    0.000    1.600 
#    3.600    0.000    0.000    0.000    0.000    0.000 
#    0.000    0.000    0.000    0.000    0.000    0.000 
#
# Total GULP energy -247885.379345 kJ/mol
# GULP energy per Si atom -12394.268967 kJ/mol
# Density = 1.928707 g / cm^3
# Si number density = 19.331070 Si / 1000 Ang^3
#
#
#
# Elastic Constant Matrix: (Units=GPa)
#
#
# Indices 1 2 3 4 5 6 
#
# 1 84.9039 37.6809 40.7949 0.0000 -8.9925 0.0000
# 2 37.6809 90.5160 35.6523 0.0000 -0.1447 0.0000
# 3 40.7949 35.6523 116.8161 0.0000 -8.2619 0.0000
# 4 0.0000 0.0000 0.0000 12.1642 0.0000 -3.9958
# 5 -8.9925 -0.1447 -8.2619 0.0000 30.0537 0.0000
# 6 0.0000 0.0000 0.0000 -3.9958 0.0000 23.7755
#
#
#
# Elastic Compliance Matrix: (Units=1/GPa)
#
#
# Indices 1 2 3 4 5 6 
#
# 1 0.016377 -0.005303 -0.003830 0.000000 0.003822 0.000000
# 2 -0.005303 0.014305 -0.002673 0.000000 -0.002253 0.000000
# 3 -0.003830 -0.002673 0.010843 0.000000 0.001822 0.000000
# 4 0.000000 0.000000 0.000000 0.087012 0.000000 0.014624
# 5 0.003822 -0.002253 0.001822 0.000000 0.034907 0.000000
# 6 0.000000 0.000000 0.000000 0.014624 0.000000 0.044518
#
#
# Mechanical properties :
#
#
# Convention : Reuss Voigt Hill
#
# Bulk Modulus (GPa) = 55.83046 57.83246 56.83146
# Shear Modulus (GPa) = 21.04871 25.07254 23.06062
#
# Velocity S-wave (km/s) = 3.30336 3.60531 3.45763
# Velocity P-wave (km/s) = 6.59496 6.87843 6.73818
#
# Compressibility (1/GPa) = 0.01791137
#
# Stress axis : x y z
#
# Youngs Moduli (GPa) = 61.06296 69.90804 92.22643
#
# Poissons Ratio (x) = 0.37069 0.35327
# Poissons Ratio (y) = 0.32379 0.24655
# Poissons Ratio (z) = 0.23390 0.18688
#
# Static dielectric constant tensor:
#      x y z
#    x 3.755820 0.000000 -0.164080 
#    y 0.000000 3.751360 0.000000 
#    z -0.164080 0.000000 3.553760 
# 
# 
# High freq. dielectric constant tensor:
#      x y z
#    x 1.764470 0.000000 -0.002790 
#    y 0.000000 1.740460 0.000000 
#    z -0.002790 0.000000 1.730170 
# 
# From -- ./inp_files/133303.got.cif
#   From: 2010.06.25/outbox.cif.g09.slc.cpg/sg15_67_cif.got.tgz:133303.got - 2010.06.28 07:06:18.
