data_PCOD8132280
_publ_section_title
;
Structure prediction by ZEFSAII (Michael W. Deem and Ramdas Pophale) SiO2 
 PCOD8132280
Probable space group: C 2/C
;
_chemical_formula_sum "Si O2"
_cell_formula_units_Z 52
_cell_length_a 16.628641
_cell_length_b 15.139544
_cell_length_c 19.923953
_cell_angle_alpha 90.000000
_cell_angle_beta 32.422102
_cell_angle_gamma 90.000000
_cell_volume 2689.263521
_symmetry_space_group_name_H-M "C 2/C"
_symmetry_group_IT_number 15
_symmetry_cell_setting 'monoclinic'
loop_
_space_group_symop_operation_xyz
x,y,z
-x,y,1/2-z
-x,-y,-z
x,-y,1/2+z
1/2+x,1/2+y,z
1/2-x,1/2+y,1/2-z
1/2-x,1/2-y,-z
1/2+x,1/2-y,1/2+z
loop_
_atom_site_type_symbol
_atom_site_label
_atom_site_fract_x
_atom_site_fract_y
_atom_site_fract_z
Si Si1 0.212594 0.017136 0.800470
Si Si2 0.875213 0.521458 0.388015
Si Si3 0.500000 0.852485 0.250000
Si Si4 0.010825 0.568119 0.432459
Si Si5 0.014351 0.755701 0.994933
Si Si6 0.904735 0.068920 0.988603
Si Si7 0.670252 0.797972 0.253639
O O1 0.324693 0.100615 0.724868
O O2 0.310460 0.931838 0.710481
O O3 0.150695 0.002715 0.918494
O O4 0.073060 0.037698 0.848545
O O5 0.711142 0.564616 0.491420
O O6 0.000000 0.566205 0.250000
O O7 0.874180 0.416050 0.373501
O O8 0.913268 0.537124 0.438260
O O9 0.573333 0.789660 0.254179
O O10 0.000000 0.500000 0.500000
O O11 0.948588 0.663491 0.495558
O O12 0.089526 0.832553 0.985857
O O13 0.088243 0.759454 0.868955
O O14 0.835599 0.764658 0.118633
#
# Coordination Sequence:
#
# PCOD8132280 Si02
#       7
#     8   8   4   8   8   8   8
#     4  10  18  37  62  86 114 164 203 240 303 372
#     4  10  19  36  63  93 112 164 208 245 299 378
#     4  10  18  36  62  86 124 158 210 250 306 372
#     4  12  21  39  64  86 123 162 204 251 308 370
#     4  11  25  37  62  93 127 156 209 256 319 357
#     4  10  20  36  62  91 117 157 208 250 296 372
#     4  11  21  39  60  93 121 164 204 258 303 378
#
# _framework density 19.336148000000001
#
# number of rings (size 3 to 8) (size 9 to 14) (size 15 to 20)
#    0.462    0.923    6.154    0.923    0.000    1.231 
#    0.000    0.769    0.000    0.000    0.000    0.000 
#    0.000    0.000    0.000    0.000    0.000    0.000 
#
# Total GULP energy -322248.120846 kJ/mol
# GULP energy per Si atom -12394.158494 kJ/mol
# Density = 1.929214 g / cm^3
# Si number density = 19.336148 Si / 1000 Ang^3
#
#
#
# Elastic Constant Matrix: (Units=GPa)
#
#
# Indices 1 2 3 4 5 6 
#
# 1 169.0735 35.9349 53.2669 0.0003 -5.4982 0.0008
# 2 35.9349 60.4150 13.5671 0.0043 0.6382 0.0002
# 3 53.2669 13.5671 84.5104 0.0064 -6.8628 0.0002
# 4 0.0003 0.0043 0.0064 30.5092 -0.0002 -2.1219
# 5 -5.4982 0.6382 -6.8628 -0.0002 27.3813 -0.0008
# 6 0.0008 0.0002 0.0002 -2.1219 -0.0008 20.3411
#
#
#
# Elastic Compliance Matrix: (Units=1/GPa)
#
#
# Indices 1 2 3 4 5 6 
#
# 1 0.008165 -0.003857 -0.004478 0.000001 0.000607 0.000000
# 2 -0.003857 0.019027 -0.000737 -0.000002 -0.001403 0.000000
# 3 -0.004478 -0.000737 0.015007 -0.000003 0.002879 0.000000
# 4 0.000001 -0.000002 -0.000003 0.033017 0.000000 0.003444
# 5 0.000607 -0.001403 0.002879 0.000000 0.037398 0.000001
# 6 0.000000 0.000000 0.000000 0.003444 0.000001 0.049521
#
#
# Mechanical properties :
#
#
# Convention : Reuss Voigt Hill
#
# Bulk Modulus (GPa) = 41.57210 57.72630 49.64920
# Shear Modulus (GPa) = 26.55379 29.72831 28.14105
#
# Velocity S-wave (km/s) = 3.70979 3.92528 3.81906
# Velocity P-wave (km/s) = 6.31636 7.10371 6.72157
#
# Compressibility (1/GPa) = 0.02405459
#
# Stress axis : x y z
#
# Youngs Moduli (GPa) = 122.47534 52.55715 66.63382
#
# Poissons Ratio (x) = 0.20273 0.29837
# Poissons Ratio (y) = 0.47243 0.04912
# Poissons Ratio (z) = 0.54842 0.03874
#
# Static dielectric constant tensor:
#      x y z
#    x 3.562010 0.000010 -0.356820 
#    y 0.000010 3.505890 -0.000010 
#    z -0.356820 -0.000010 4.048230 
# 
# 
# High freq. dielectric constant tensor:
#      x y z
#    x 1.745050 0.000000 -0.012870 
#    y 0.000000 1.739920 0.000000 
#    z -0.012870 0.000000 1.745130 
# 
# From -- ./inp_files/206087.got.cif
#   From: 2010.06.25/outbox.cif.g09.slc.cpg/sg15_104_cif.got.tgz:206087.got - 2010.06.28 07:06:18.
