data_PCOD8132649
_publ_section_title
;
Structure prediction by ZEFSAII (Michael W. Deem and Ramdas Pophale) SiO2 
 PCOD8132649
Probable space group: C 2/C
;
_chemical_formula_sum "Si O2"
_cell_formula_units_Z 64
_cell_length_a 28.068584
_cell_length_b 10.172022
_cell_length_c 22.662532
_cell_angle_alpha 90.000000
_cell_angle_beta 149.974671
_cell_angle_gamma 90.000000
_cell_volume 3237.714849
_symmetry_space_group_name_H-M "C 2/C"
_symmetry_group_IT_number 15
_symmetry_cell_setting 'monoclinic'
loop_
_space_group_symop_operation_xyz
x,y,z
-x,y,1/2-z
-x,-y,-z
x,-y,1/2+z
1/2+x,1/2+y,z
1/2-x,1/2+y,1/2-z
1/2-x,1/2-y,-z
1/2+x,1/2-y,1/2+z
loop_
_atom_site_type_symbol
_atom_site_label
_atom_site_fract_x
_atom_site_fract_y
_atom_site_fract_z
Si Si1 0.076171 0.434107 0.659886
Si Si2 0.468098 0.722448 0.474909
Si Si3 0.115825 0.450769 0.512803
Si Si4 0.606918 0.659352 0.526614
Si Si5 0.380304 0.264820 0.192250
Si Si6 0.166691 0.324436 0.985037
Si Si7 0.299781 0.092277 0.787360
Si Si8 0.443618 0.396417 0.070323
O O1 0.038162 0.341784 0.566930
O O2 0.101203 0.357276 0.745631
O O3 0.169660 0.506206 0.736565
O O4 0.993900 0.538950 0.585400
O O5 0.508101 0.664056 0.456999
O O6 0.360452 0.773486 0.351950
O O7 0.468967 0.616470 0.528292
O O8 0.134084 0.295553 0.522722
O O9 0.132685 0.532464 0.470681
O O10 0.186509 0.511814 0.637487
O O11 0.689244 0.625355 0.662050
O O12 0.595482 0.545409 0.464348
O O13 0.385360 0.209034 0.131777
O O14 0.462321 0.374296 0.288979
O O15 0.279723 0.330978 0.098563
O O16 0.136616 0.211760 0.999535
#
# Coordination Sequence:
#
# PCOD8132649 Si02
#       8
#     8   8   8   8   8   8   8   8
#     4  10  18  39  62  83 120 168 202 254 306 369
#     4  10  20  37  54  88 122 168 204 242 300 381
#     4  11  22  38  62  89 127 165 214 248 314 384
#     4  12  25  35  59  95 132 164 203 251 323 381
#     4  10  23  39  71  89 117 160 222 273 295 372
#     4  11  22  42  67  94 114 162 222 262 316 365
#     4  11  21  35  62  85 128 169 198 253 308 384
#     4  11  23  38  61  91 128 160 206 264 311 366
#
# _framework density 19.767026999999999
#
# number of rings (size 3 to 8) (size 9 to 14) (size 15 to 20)
#    0.000    1.250    6.250    2.250    5.250    1.000 
#    0.000    0.000    5.500    2.250    0.000    0.000 
#    0.000    0.000    0.000    0.000    0.000    0.000 
#
# Total GULP energy -396839.108746 kJ/mol
# GULP energy per Si atom -12401.222148 kJ/mol
# Density = 1.972204 g / cm^3
# Si number density = 19.767027 Si / 1000 Ang^3
#
#
#
# Elastic Constant Matrix: (Units=GPa)
#
#
# Indices 1 2 3 4 5 6 
#
# 1 72.4197 34.7835 20.6892 0.0000 -5.9201 0.0000
# 2 34.7835 123.7679 42.4473 0.0000 -4.4768 0.0000
# 3 20.6892 42.4473 94.9208 0.0000 -2.4503 0.0000
# 4 0.0000 0.0000 0.0000 21.0585 0.0000 2.1810
# 5 -5.9201 -4.4768 -2.4503 0.0000 25.1013 0.0000
# 6 0.0000 0.0000 0.0000 2.1810 0.0000 17.8656
#
#
#
# Elastic Compliance Matrix: (Units=1/GPa)
#
#
# Indices 1 2 3 4 5 6 
#
# 1 0.016433 -0.003907 -0.001757 0.000000 0.003007 0.000000
# 2 -0.003907 0.010514 -0.003835 0.000000 0.000579 0.000000
# 3 -0.001757 -0.003835 0.012637 0.000000 0.000135 0.000000
# 4 0.000000 0.000000 0.000000 0.048095 0.000000 -0.005871
# 5 0.003007 0.000579 0.000135 0.000000 0.040664 0.000000
# 6 0.000000 0.000000 0.000000 -0.005871 0.000000 0.056690
#
#
# Mechanical properties :
#
#
# Convention : Reuss Voigt Hill
#
# Bulk Modulus (GPa) = 48.57876 54.10536 51.34206
# Shear Modulus (GPa) = 23.70878 25.68430 24.69654
#
# Velocity S-wave (km/s) = 3.46701 3.60856 3.53849
# Velocity P-wave (km/s) = 6.37620 6.69277 6.53640
#
# Compressibility (1/GPa) = 0.02058513
#
# Stress axis : x y z
#
# Youngs Moduli (GPa) = 60.85444 95.11246 79.13534
#
# Poissons Ratio (x) = 0.37159 0.13904
# Poissons Ratio (y) = 0.23775 0.30350
# Poissons Ratio (z) = 0.10692 0.36477
#
# Static dielectric constant tensor:
#      x y z
#    x 3.499760 0.000000 0.091160 
#    y 0.000000 3.618020 0.000000 
#    z 0.091160 0.000000 3.696770 
# 
# 
# High freq. dielectric constant tensor:
#      x y z
#    x 1.759410 0.000000 0.014580 
#    y 0.000000 1.762830 0.000000 
#    z 0.014580 0.000000 1.764120 
# 
# From -- ./inp_files/284463.got.cif
#   From: 2010.06.25/outbox.cif.g09.slc.cpg/sg15_143_cif.got.tgz:284463.got - 2010.06.28 07:06:18.
