data_PCOD8132508
_publ_section_title
;
Structure prediction by ZEFSAII (Michael W. Deem and Ramdas Pophale) SiO2 
 PCOD8132508
Probable space group: C 2/C
;
_chemical_formula_sum "Si O2"
_cell_formula_units_Z 44
_cell_length_a 9.289201
_cell_length_b 29.756609
_cell_length_c 9.307098
_cell_angle_alpha 90.000000
_cell_angle_beta 64.338624
_cell_angle_gamma 90.000000
_cell_volume 2318.882681
_symmetry_space_group_name_H-M "C 2/C"
_symmetry_group_IT_number 15
_symmetry_cell_setting 'monoclinic'
loop_
_space_group_symop_operation_xyz
x,y,z
-x,y,1/2-z
-x,-y,-z
x,-y,1/2+z
1/2+x,1/2+y,z
1/2-x,1/2+y,1/2-z
1/2-x,1/2-y,-z
1/2+x,1/2-y,1/2+z
loop_
_atom_site_type_symbol
_atom_site_label
_atom_site_fract_x
_atom_site_fract_y
_atom_site_fract_z
Si Si1 0.500000 0.497403 0.750000
Si Si2 0.143695 0.126108 0.576654
Si Si3 0.124481 0.221225 0.468521
Si Si4 0.421013 0.560647 0.546284
Si Si5 0.262533 0.731407 0.651034
Si Si6 0.829335 0.370471 0.265880
O O1 0.384108 0.528446 0.700585
O O2 0.594360 0.466230 0.596108
O O3 0.165603 0.168598 0.463432
O O4 0.303229 0.119603 0.605827
O O5 0.000000 0.135811 0.750000
O O6 0.098404 0.082442 0.498903
O O7 0.250000 0.250000 0.500000
O O8 0.150855 0.235657 0.292776
O O9 0.949991 0.231516 0.609604
O O10 0.295994 0.600758 0.587891
O O11 0.250000 0.750000 0.500000
O O12 0.193606 0.681634 0.691534
O O13 0.000000 0.386267 0.250000
#
# Coordination Sequence:
#
# PCOD8132508 Si02
#       6
#     4   8   8   8   8   8
#     4  10  20  36  70  98 110 148 206 256 300 384
#     4  10  18  38  60  82 115 164 198 244 308 359
#     4  12  21  38  60  83 115 161 210 248 294 356
#     4  10  20  39  66  90 120 154 200 249 310 372
#     4  12  25  38  56  87 121 162 210 258 293 352
#     4  11  21  39  58  84 124 166 194 244 319 357
#
# _framework density 18.974656
#
# number of rings (size 3 to 8) (size 9 to 14) (size 15 to 20)
#    0.000    1.091    8.182    2.182    0.000    1.455 
#    0.000    0.909    0.000    0.000    0.000    0.000 
#    0.000    0.000    0.000    0.000    0.000    0.000 
#
# Total GULP energy -272619.258320 kJ/mol
# GULP energy per Si atom -12391.784469 kJ/mol
# Density = 1.893147 g / cm^3
# Si number density = 18.974656 Si / 1000 Ang^3
#
#
#
# Elastic Constant Matrix: (Units=GPa)
#
#
# Indices 1 2 3 4 5 6 
#
# 1 104.1887 28.2763 12.8822 0.0000 8.6875 0.0000
# 2 28.2763 113.3000 40.5253 0.0000 16.2320 0.0000
# 3 12.8822 40.5253 82.8332 0.0000 17.6365 0.0000
# 4 0.0000 0.0000 0.0000 33.9785 0.0000 -5.8859
# 5 8.6875 16.2320 17.6365 0.0000 25.4295 0.0000
# 6 0.0000 0.0000 0.0000 -5.8859 0.0000 5.4230
#
#
#
# Elastic Compliance Matrix: (Units=1/GPa)
#
#
# Indices 1 2 3 4 5 6 
#
# 1 0.010395 -0.002277 -0.000066 0.000000 -0.002052 0.000000
# 2 -0.002277 0.011511 -0.004551 0.000000 -0.003414 0.000000
# 3 -0.000066 -0.004551 0.016057 0.000000 -0.008209 0.000000
# 4 0.000000 0.000000 0.000000 0.036245 0.000000 0.039339
# 5 -0.002052 -0.003414 -0.008209 0.000000 0.047898 0.000000
# 6 0.000000 0.000000 0.000000 0.039339 0.000000 0.227096
#
#
# Mechanical properties :
#
#
# Convention : Reuss Voigt Hill
#
# Bulk Modulus (GPa) = 41.36239 51.52103 46.44171
# Shear Modulus (GPa) = 13.47538 27.54208 20.50873
#
# Velocity S-wave (km/s) = 2.66781 3.81401 3.29119
# Velocity P-wave (km/s) = 5.59783 6.82694 6.24271
#
# Compressibility (1/GPa) = 0.02417655
#
# Stress axis : x y z
#
# Youngs Moduli (GPa) = 96.19881 86.87248 62.27851
#
# Poissons Ratio (x) = 0.19779 0.00410
# Poissons Ratio (y) = 0.21902 0.28342
# Poissons Ratio (z) = 0.00633 0.39534
#
# Static dielectric constant tensor:
#      x y z
#    x 3.985130 0.000000 -0.301130 
#    y 0.000000 3.514700 0.000000 
#    z -0.301130 0.000000 5.090790 
# 
# 
# High freq. dielectric constant tensor:
#      x y z
#    x 1.728150 0.000000 0.028890 
#    y 0.000000 1.749280 0.000000 
#    z 0.028890 0.000000 1.715430 
# 
# From -- ./inp_files/25453.got.cif
#   From: 2010.06.25/outbox.cif.g09.slc.cpg/sg15_13_cif.got.tgz:25453.got - 2010.06.28 07:06:18.
