data_PCOD8132732
_publ_section_title
;
Structure prediction by ZEFSAII (Michael W. Deem and Ramdas Pophale) SiO2 
 PCOD8132732
Probable space group: C 2/C
;
_chemical_formula_sum "Si O2"
_cell_formula_units_Z 60
_cell_length_a 23.984848
_cell_length_b 8.904439
_cell_length_c 25.185559
_cell_angle_alpha 90.000000
_cell_angle_beta 147.780430
_cell_angle_gamma 90.000000
_cell_volume 2867.853627
_symmetry_space_group_name_H-M "C 2/C"
_symmetry_group_IT_number 15
_symmetry_cell_setting 'monoclinic'
loop_
_space_group_symop_operation_xyz
x,y,z
-x,y,1/2-z
-x,-y,-z
x,-y,1/2+z
1/2+x,1/2+y,z
1/2-x,1/2+y,1/2-z
1/2-x,1/2-y,-z
1/2+x,1/2-y,1/2+z
loop_
_atom_site_type_symbol
_atom_site_label
_atom_site_fract_x
_atom_site_fract_y
_atom_site_fract_z
Si Si1 0.800646 0.799229 0.668360
Si Si2 0.647254 0.896379 0.195407
Si Si3 0.550387 0.518643 0.983024
Si Si4 0.094911 0.108074 0.722386
Si Si5 0.763743 0.178570 0.318388
Si Si6 0.366600 0.723964 0.111447
Si Si7 0.572589 0.804849 0.449185
Si Si8 0.500000 0.545581 0.750000
O O1 0.791148 0.672808 0.705074
O O2 0.866485 0.721115 0.672775
O O3 0.686362 0.863021 0.559345
O O4 0.865176 0.937003 0.744367
O O5 0.667400 0.790888 0.161455
O O6 0.521772 0.907089 0.104066
O O7 0.698370 0.061026 0.228596
O O8 0.479040 0.625981 0.888731
O O9 0.561828 0.363313 0.961585
O O10 0.500000 0.500000 0.000000
O O11 0.662721 0.594096 0.080617
O O12 0.186395 0.227139 0.792104
O O13 0.039495 0.148988 0.733524
O O14 0.437036 0.806471 0.123378
O O15 0.405458 0.552143 0.148067
O O16 0.250000 0.750000 0.000000
#
# Coordination Sequence:
#
# PCOD8132732 Si02
#       8
#     8   8   8   8   8   8   8   4
#     4  10  20  37  64  91 125 161 213 255 307 371
#     4  12  23  40  61  92 124 164 207 262 314 383
#     4  12  21  41  65  92 127 167 208 257 326 375
#     4  11  24  43  65  92 126 174 210 258 324 378
#     4  12  27  42  64  93 126 163 213 262 322 386
#     4   9  18  32  59  96 121 160 211 252 296 370
#     4  11  20  36  64  96 124 164 209 259 312 368
#     4  10  18  40  66  84 130 176 210 258 318 380
#
# _framework density 20.921571
#
# number of rings (size 3 to 8) (size 9 to 14) (size 15 to 20)
#    0.000    1.067    5.333    2.400    0.000    1.067 
#    0.000    4.000    0.000    0.000    0.000    0.000 
#    0.000    0.000    0.000    0.000    0.000    0.000 
#
# Total GULP energy -371747.532491 kJ/mol
# GULP energy per Si atom -12391.584416 kJ/mol
# Density = 2.087395 g / cm^3
# Si number density = 20.921571 Si / 1000 Ang^3
#
#
#
# Elastic Constant Matrix: (Units=GPa)
#
#
# Indices 1 2 3 4 5 6 
#
# 1 123.3265 33.9440 56.2400 0.0000 19.8398 0.0000
# 2 33.9440 44.9317 13.8711 0.0000 -2.0480 0.0000
# 3 56.2400 13.8711 113.7295 0.0000 -6.3811 0.0000
# 4 0.0000 0.0000 0.0000 23.8138 0.0000 8.9717
# 5 19.8398 -2.0480 -6.3811 0.0000 13.8399 0.0000
# 6 0.0000 0.0000 0.0000 8.9717 0.0000 32.4234
#
#
#
# Elastic Compliance Matrix: (Units=1/GPa)
#
#
# Indices 1 2 3 4 5 6 
#
# 1 0.027434 -0.018610 -0.014020 0.000000 -0.048545 0.000000
# 2 -0.018610 0.035815 0.006805 0.000000 0.035114 0.000000
# 3 -0.014020 0.006805 0.016507 0.000000 0.028716 0.000000
# 4 0.000000 0.000000 0.000000 0.046879 0.000000 -0.012972
# 5 -0.048545 0.035114 0.028716 0.000000 0.160282 0.000000
# 6 0.000000 0.000000 0.000000 -0.012972 0.000000 0.034431
#
#
# Mechanical properties :
#
#
# Convention : Reuss Voigt Hill
#
# Bulk Modulus (GPa) = 35.58060 54.45531 45.01795
# Shear Modulus (GPa) = 13.07647 25.87760 19.47703
#
# Velocity S-wave (km/s) = 2.50276 3.52075 3.05447
# Velocity P-wave (km/s) = 5.03938 6.52782 5.83128
#
# Compressibility (1/GPa) = 0.02810520
#
# Stress axis : x y z
#
# Youngs Moduli (GPa) = 36.45156 27.92158 60.57995
#
# Poissons Ratio (x) = 0.51961 0.84934
# Poissons Ratio (y) = 0.67835 -0.41222
# Poissons Ratio (z) = 0.51106 -0.18999
#
# Static dielectric constant tensor:
#      x y z
#    x 4.341340 0.000000 0.127040 
#    y 0.000000 3.420350 0.000000 
#    z 0.127040 0.000000 4.162150 
# 
# 
# High freq. dielectric constant tensor:
#      x y z
#    x 1.842100 0.000000 0.004160 
#    y 0.000000 1.770000 0.000000 
#    z 0.004160 0.000000 1.835390 
# 
# From -- ./inp_files/303123.got.cif
#   From: 2010.06.25/outbox.cif.g09.slc.cpg/sg15_152_cif.got.tgz:303123.got - 2010.06.28 07:06:18.
