data_PCOD8132946
_publ_section_title
;
Structure prediction by ZEFSAII (Michael W. Deem and Ramdas Pophale) SiO2 
 PCOD8132946
Probable space group: C 2/C
;
_chemical_formula_sum "Si O2"
_cell_formula_units_Z 64
_cell_length_a 20.986269
_cell_length_b 23.415954
_cell_length_c 8.859770
_cell_angle_alpha 90.000000
_cell_angle_beta 65.028357
_cell_angle_gamma 90.000000
_cell_volume 3946.802688
_symmetry_space_group_name_H-M "C 2/C"
_symmetry_group_IT_number 15
_symmetry_cell_setting 'monoclinic'
loop_
_space_group_symop_operation_xyz
x,y,z
-x,y,1/2-z
-x,-y,-z
x,-y,1/2+z
1/2+x,1/2+y,z
1/2-x,1/2+y,1/2-z
1/2-x,1/2-y,-z
1/2+x,1/2-y,1/2+z
loop_
_atom_site_type_symbol
_atom_site_label
_atom_site_fract_x
_atom_site_fract_y
_atom_site_fract_z
Si Si1 0.143016 0.940620 0.283357
Si Si2 0.229991 0.167950 0.697071
Si Si3 0.729991 0.332050 0.842946
Si Si4 0.856984 0.940620 0.569389
Si Si5 0.000000 0.763752 0.923759
Si Si6 0.651250 0.228165 0.422371
Si Si7 0.500000 0.385481 0.428977
Si Si8 0.348750 0.771835 0.224871
O O1 0.204969 0.895972 0.258903
O O2 0.068962 0.917562 0.423799
O O3 0.164605 1.000000 0.335395
O O4 0.135139 0.950383 0.114861
O O5 0.224848 0.181303 0.525152
O O6 0.179606 0.211337 0.835343
O O7 0.309902 0.176508 0.675592
O O8 0.704969 0.395972 0.831159
O O9 0.809902 0.323492 0.704604
O O10 0.679606 0.288664 0.805445
O O11 0.931038 0.917562 0.561724
O O12 0.000000 0.783471 0.750000
O O13 0.068110 0.725083 0.892003
O O14 0.931890 0.725083 0.028222
O O15 1.000000 0.820091 0.023140
O O16 0.667783 0.222599 0.582217
O O17 0.500000 0.385541 0.250000
#
# Coordination Sequence:
#
# PCOD8132946 Si02
#       8
#     8   8   8   8   8   8   8   8
#     4  10  21  33  48  68  94 128 166 199 234 277
#     4  10  19  32  48  69  94 124 159 197 237 281
#     4  10  19  32  48  69  94 124 159 197 237 281
#     4  10  21  33  48  68  94 128 166 199 234 277
#     4  10  20  31  47  72  98 127 160 193 235 285
#     4  10  19  31  48  70  95 124 157 195 238 283
#     4  10  19  33  47  66  96 131 165 197 230 271
#     4  10  19  31  48  70  95 124 157 195 238 283
#
# _framework density 16.215658000000001
#
# number of rings (size 3 to 8) (size 9 to 14) (size 15 to 20)
#    0.000    2.000    2.500    3.375    0.000    4.000 
#    0.000    0.000    0.000    0.000    0.000    0.875 
#    0.000    0.000    0.000    0.000    0.000    0.000 
#
# Total GULP energy -396775.524977 kJ/mol
# GULP energy per Si atom -12399.235156 kJ/mol
# Density = 1.617875 g / cm^3
# Si number density = 16.215658 Si / 1000 Ang^3
#
#
#
# Elastic Constant Matrix: (Units=GPa)
#
#
# Indices 1 2 3 4 5 6 
#
# 1 102.0245 54.8924 32.8538 0.0000 -17.9685 0.0000
# 2 54.8924 102.5032 39.2502 0.0000 -11.3459 0.0000
# 3 32.8538 39.2502 57.9346 0.0000 -14.0115 0.0000
# 4 0.0000 0.0000 0.0000 26.3237 0.0000 1.9663
# 5 -17.9685 -11.3459 -14.0115 0.0000 25.0693 0.0000
# 6 0.0000 0.0000 0.0000 1.9663 0.0000 23.6128
#
#
#
# Elastic Compliance Matrix: (Units=1/GPa)
#
#
# Indices 1 2 3 4 5 6 
#
# 1 0.015284 -0.006411 -0.002747 0.000000 0.006517 0.000000
# 2 -0.006411 0.015890 -0.007518 0.000000 -0.001606 0.000000
# 3 -0.002747 -0.007518 0.026147 0.000000 0.009242 0.000000
# 4 0.000000 0.000000 0.000000 0.038226 0.000000 -0.003183
# 5 0.006517 -0.001606 0.009242 0.000000 0.049000 0.000000
# 6 0.000000 0.000000 0.000000 -0.003183 0.000000 0.042615
#
#
# Mechanical properties :
#
#
# Convention : Reuss Voigt Hill
#
# Bulk Modulus (GPa) = 41.72214 57.38392 49.55303
# Shear Modulus (GPa) = 21.88135 24.03221 22.95678
#
# Velocity S-wave (km/s) = 3.67740 3.85390 3.76668
# Velocity P-wave (km/s) = 6.61940 7.43426 7.03863
#
# Compressibility (1/GPa) = 0.02396809
#
# Stress axis : x y z
#
# Youngs Moduli (GPa) = 65.42985 62.93176 38.24459
#
# Poissons Ratio (x) = 0.40347 0.10507
# Poissons Ratio (y) = 0.41949 0.28753
# Poissons Ratio (z) = 0.17975 0.47313
#
# Static dielectric constant tensor:
#      x y z
#    x 3.318810 0.000000 -0.113630 
#    y 0.000000 2.889270 0.000000 
#    z -0.113630 0.000000 3.162150 
# 
# 
# High freq. dielectric constant tensor:
#      x y z
#    x 1.625000 0.000000 0.003540 
#    y 0.000000 1.593880 0.000000 
#    z 0.003540 0.000000 1.629880 
# 
# From -- ./inp_files/58470.got.cif
#   From: 2010.06.25/outbox.cif.g09.slc.cpg/sg15_30_cif.got.tgz:58470.got - 2010.06.28 07:06:18.
