data_PCOD8132020
_publ_section_title
;
Structure prediction by ZEFSAII (Michael W. Deem and Ramdas Pophale) SiO2 
 PCOD8132020
Probable space group: C 2/C
;
_chemical_formula_sum "Si O2"
_cell_formula_units_Z 56
_cell_length_a 9.409230
_cell_length_b 15.367392
_cell_length_c 25.120134
_cell_angle_alpha 90.000000
_cell_angle_beta 61.891063
_cell_angle_gamma 90.000000
_cell_volume 3203.841908
_symmetry_space_group_name_H-M "C 2/C"
_symmetry_group_IT_number 15
_symmetry_cell_setting 'monoclinic'
loop_
_space_group_symop_operation_xyz
x,y,z
-x,y,1/2-z
-x,-y,-z
x,-y,1/2+z
1/2+x,1/2+y,z
1/2-x,1/2+y,1/2-z
1/2-x,1/2-y,-z
1/2+x,1/2-y,1/2+z
loop_
_atom_site_type_symbol
_atom_site_label
_atom_site_fract_x
_atom_site_fract_y
_atom_site_fract_z
Si Si1 0.914053 0.802308 0.621934
Si Si2 0.174457 0.292141 0.565751
Si Si3 0.389260 0.664090 0.640369
Si Si4 0.870800 0.287342 0.231668
Si Si5 0.003990 0.988925 0.583980
Si Si6 0.268711 0.983812 0.956967
Si Si7 0.397056 0.854034 0.385819
O O1 0.797802 0.791390 0.592696
O O2 0.822823 0.782639 0.694327
O O3 0.056139 0.731169 0.587971
O O4 0.994438 0.896756 0.615345
O O5 0.250000 0.250000 0.500000
O O6 0.134462 0.392889 0.559882
O O7 0.015101 0.242008 0.611544
O O8 0.290108 0.678457 0.712083
O O9 0.474960 0.569742 0.629269
O O10 0.278091 0.664446 0.607875
O O11 0.000000 0.244645 0.250000
O O12 0.969319 0.366661 0.185054
O O13 0.182460 0.001197 0.528673
O O14 0.867746 0.985949 0.563456
O O15 0.396258 0.060782 0.923142
#
# Coordination Sequence:
#
# PCOD8132020 Si02
#       7
#     8   8   8   8   8   8   8
#     4   9  20  36  56  81 107 136 187 221 262 322
#     4  11  21  35  53  82 115 140 171 222 276 327
#     4  10  18  35  60  74 108 148 176 221 275 312
#     4   8  17  37  58  77 103 137 190 230 258 313
#     4   9  17  31  55  80 103 145 179 211 265 337
#     4   9  17  33  53  78 108 140 183 214 262 328
#     4   8  18  36  55  78 100 139 189 224 252 318
#
# _framework density 17.479016000000001
#
# number of rings (size 3 to 8) (size 9 to 14) (size 15 to 20)
#    0.857    2.000    1.429    0.000    2.000    1.143 
#    2.571    2.143    3.143    0.000    0.000    0.000 
#    0.000    0.000    0.000    0.000    0.000    0.000 
#
# Total GULP energy -346886.197480 kJ/mol
# GULP energy per Si atom -12388.792767 kJ/mol
# Density = 1.743923 g / cm^3
# Si number density = 17.479016 Si / 1000 Ang^3
#
#
#
# Elastic Constant Matrix: (Units=GPa)
#
#
# Indices 1 2 3 4 5 6 
#
# 1 48.2844 49.2416 38.4843 0.0000 -8.0970 0.0000
# 2 49.2416 178.3351 76.4533 0.0000 -20.5008 0.0000
# 3 38.4843 76.4533 123.1525 0.0000 -12.5969 0.0000
# 4 0.0000 0.0000 0.0000 27.1435 0.0000 -0.0191
# 5 -8.0970 -20.5008 -12.5969 0.0000 27.8690 0.0000
# 6 0.0000 0.0000 0.0000 -0.0191 0.0000 23.7913
#
#
#
# Elastic Compliance Matrix: (Units=1/GPa)
#
#
# Indices 1 2 3 4 5 6 
#
# 1 0.032017 -0.005993 -0.006064 0.000000 0.002152 0.000000
# 2 -0.005993 0.009133 -0.003447 0.000000 0.003419 0.000000
# 3 -0.006064 -0.003447 0.012284 0.000000 0.001254 0.000000
# 4 0.000000 0.000000 0.000000 0.036841 0.000000 0.000030
# 5 0.002152 0.003419 0.001254 0.000000 0.039590 0.000000
# 6 0.000000 0.000000 0.000000 0.000030 0.000000 0.042032
#
#
# Mechanical properties :
#
#
# Convention : Reuss Voigt Hill
#
# Bulk Modulus (GPa) = 44.59518 75.34783 59.97150
# Shear Modulus (GPa) = 23.76635 28.13360 25.94997
#
# Velocity S-wave (km/s) = 3.69142 4.01629 3.85728
# Velocity P-wave (km/s) = 6.61345 8.04417 7.36364
#
# Compressibility (1/GPa) = 0.02242395
#
# Stress axis : x y z
#
# Youngs Moduli (GPa) = 31.23325 109.49061 81.41001
#
# Poissons Ratio (x) = 0.65621 0.49370
# Poissons Ratio (y) = 0.18719 0.28065
# Poissons Ratio (z) = 0.18941 0.37745
#
# Static dielectric constant tensor:
#      x y z
#    x 2.955460 0.000000 -0.055350 
#    y 0.000000 3.442740 0.000000 
#    z -0.055350 0.000000 3.254210 
# 
# 
# High freq. dielectric constant tensor:
#      x y z
#    x 1.646920 0.000000 -0.005600 
#    y 0.000000 1.675560 0.000000 
#    z -0.005600 0.000000 1.673020 
# 
# From -- ./inp_files/288381.got.cif
#   From: 2010.06.25/outbox.cif.g09.slc.cpg/sg15_145_cif.got.tgz:288381.got - 2010.06.28 07:06:18.
