data_PCOD8132729
_publ_section_title
;
Structure prediction by ZEFSAII (Michael W. Deem and Ramdas Pophale) SiO2 
 PCOD8132729
Probable space group: C 2/C
;
_chemical_formula_sum "Si O2"
_cell_formula_units_Z 48
_cell_length_a 9.255976
_cell_length_b 25.556318
_cell_length_c 15.028907
_cell_angle_alpha 90.000000
_cell_angle_beta 141.375870
_cell_angle_gamma 90.000000
_cell_volume 2219.104233
_symmetry_space_group_name_H-M "C 2/C"
_symmetry_group_IT_number 15
_symmetry_cell_setting 'monoclinic'
loop_
_space_group_symop_operation_xyz
x,y,z
-x,y,1/2-z
-x,-y,-z
x,-y,1/2+z
1/2+x,1/2+y,z
1/2-x,1/2+y,1/2-z
1/2-x,1/2-y,-z
1/2+x,1/2-y,1/2+z
loop_
_atom_site_type_symbol
_atom_site_label
_atom_site_fract_x
_atom_site_fract_y
_atom_site_fract_z
Si Si1 0.421697 0.533309 0.544354
Si Si2 0.782712 0.630453 0.316023
Si Si3 0.479383 0.194996 0.922733
Si Si4 0.744833 0.876023 0.318352
Si Si5 0.949745 0.807661 0.555692
Si Si6 0.500000 0.463077 0.750000
Si Si7 0.000000 0.410749 0.750000
O O1 0.500000 0.500000 0.500000
O O2 0.631427 0.573541 0.664237
O O3 0.397241 0.497982 0.620885
O O4 0.172267 0.555995 0.396318
O O5 0.969586 0.658839 0.467792
O O6 0.563183 0.669163 0.200282
O O7 0.711436 0.573816 0.319764
O O8 0.869844 0.626263 0.256821
O O9 0.278896 0.165814 0.772546
O O10 0.418178 0.255409 0.917828
O O11 0.684483 0.203107 0.951110
O O12 0.500000 0.890083 0.250000
O O13 0.941195 0.852660 0.477271
#
# Coordination Sequence:
#
# PCOD8132729 Si02
#       7
#     8   8   8   8   8   4   4
#     4  12  27  46  67  99 135 180 232 283 346 406
#     4  12  23  44  66 100 138 175 226 275 342 405
#     4  10  21  34  72 103 129 172 222 280 325 396
#     4  10  22  39  65  98 137 170 216 280 333 399
#     4  10  18  40  66 102 136 170 218 274 339 390
#     4  12  26  44  72  97 129 180 234 290 330 410
#     4  12  28  46  68  91 141 184 214 286 350 402
#
# _framework density 21.63035
#
# number of rings (size 3 to 8) (size 9 to 14) (size 15 to 20)
#    0.000    1.000    5.000    1.000    5.833    3.333 
#    0.000    0.833    0.000    0.000    0.000    0.000 
#    0.000    0.000    0.000    0.000    0.000    0.000 
#
# Total GULP energy -297473.326521 kJ/mol
# GULP energy per Si atom -12394.721938 kJ/mol
# Density = 2.158112 g / cm^3
# Si number density = 21.630350 Si / 1000 Ang^3
#
#
#
# Elastic Constant Matrix: (Units=GPa)
#
#
# Indices 1 2 3 4 5 6 
#
# 1 68.8004 35.7637 25.0960 0.0000 -18.3466 0.0000
# 2 35.7637 134.9006 50.1507 0.0000 -9.5041 0.0000
# 3 25.0960 50.1507 119.2774 0.0000 -17.5153 0.0000
# 4 0.0000 0.0000 0.0000 36.4874 0.0000 -9.1551
# 5 -18.3466 -9.5041 -17.5153 0.0000 34.8870 0.0000
# 6 0.0000 0.0000 0.0000 -9.1551 0.0000 21.5076
#
#
#
# Elastic Compliance Matrix: (Units=1/GPa)
#
#
# Indices 1 2 3 4 5 6 
#
# 1 0.019343 -0.004125 -0.001087 0.000000 0.008503 0.000000
# 2 -0.004125 0.009677 -0.003382 0.000000 -0.001231 0.000000
# 3 -0.001087 -0.003382 0.010596 0.000000 0.003827 0.000000
# 4 0.000000 0.000000 0.000000 0.030684 0.000000 0.013061
# 5 0.008503 -0.001231 0.003827 0.000000 0.034722 0.000000
# 6 0.000000 0.000000 0.000000 0.013061 0.000000 0.052055
#
#
# Mechanical properties :
#
#
# Convention : Reuss Voigt Hill
#
# Bulk Modulus (GPa) = 44.58433 60.55547 52.56990
# Shear Modulus (GPa) = 27.51193 32.70760 30.10976
#
# Velocity S-wave (km/s) = 3.57026 3.89281 3.73502
# Velocity P-wave (km/s) = 6.13615 6.94706 6.55416
#
# Compressibility (1/GPa) = 0.02242941
#
# Stress axis : x y z
#
# Youngs Moduli (GPa) = 51.69881 103.33959 94.37297
#
# Poissons Ratio (x) = 0.42627 0.10257
# Poissons Ratio (y) = 0.21325 0.31912
# Poissons Ratio (z) = 0.05619 0.34944
#
# Static dielectric constant tensor:
#      x y z
#    x 3.394300 0.000000 -0.423430 
#    y 0.000000 4.319020 0.000000 
#    z -0.423430 0.000000 3.294950 
# 
# 
# High freq. dielectric constant tensor:
#      x y z
#    x 1.818390 0.000000 -0.017910 
#    y 0.000000 1.863350 0.000000 
#    z -0.017910 0.000000 1.860130 
# 
# From -- ./inp_files/139084.got.cif
#   From: 2010.06.25/outbox.cif.g09.slc.cpg/sg15_70_cif.got.tgz:139084.got - 2010.06.28 07:06:18.
