data_PCOD8132075
_publ_section_title
;
Structure prediction by ZEFSAII (Michael W. Deem and Ramdas Pophale) SiO2 
 PCOD8132075
Probable space group: C 2/C
;
_chemical_formula_sum "Si O2"
_cell_formula_units_Z 56
_cell_length_a 9.089975
_cell_length_b 17.265738
_cell_length_c 22.625756
_cell_angle_alpha 90.000000
_cell_angle_beta 129.770145
_cell_angle_gamma 90.000000
_cell_volume 2729.360473
_symmetry_space_group_name_H-M "C 2/C"
_symmetry_group_IT_number 15
_symmetry_cell_setting 'monoclinic'
loop_
_space_group_symop_operation_xyz
x,y,z
-x,y,1/2-z
-x,-y,-z
x,-y,1/2+z
1/2+x,1/2+y,z
1/2-x,1/2+y,1/2-z
1/2-x,1/2-y,-z
1/2+x,1/2-y,1/2+z
loop_
_atom_site_type_symbol
_atom_site_label
_atom_site_fract_x
_atom_site_fract_y
_atom_site_fract_z
Si Si1 0.955950 0.900603 0.598422
Si Si2 0.818170 0.720235 0.453478
Si Si3 0.754139 0.886489 0.423607
Si Si4 0.379199 0.840231 0.278416
Si Si5 0.710195 0.788294 0.817681
Si Si6 0.950961 0.932315 0.364271
Si Si7 0.259554 0.804166 0.445809
O O1 0.158589 0.862263 0.634194
O O2 0.837616 0.841606 0.610688
O O3 0.826258 0.911586 0.506361
O O4 0.986571 0.981637 0.640015
O O5 0.750000 0.750000 0.500000
O O6 0.825762 0.800382 0.418650
O O7 0.018443 0.675777 0.507832
O O8 0.521735 0.885071 0.360612
O O9 0.843482 0.945225 0.399200
O O10 0.500000 0.821675 0.250000
O O11 0.302924 0.761392 0.288284
O O12 0.195469 0.894993 0.220224
O O13 0.500000 0.820852 0.750000
O O14 0.678785 0.738288 0.867955
O O15 0.142411 0.882890 0.423451
O O16 0.250000 0.750000 0.500000
#
# Coordination Sequence:
#
# PCOD8132075 Si02
#       7
#     8   8   8   8   8   8   8
#     4  11  22  39  63  95 125 163 208 274 314 372
#     4  10  18  35  63  88 116 167 215 246 302 382
#     4  10  18  38  65  88 120 171 214 252 311 393
#     4  10  22  39  66  91 122 177 217 255 320 400
#     4  12  22  39  67  94 127 169 216 260 324 380
#     4  11  23  37  60  96 134 154 209 275 323 357
#     4  12  22  39  66  98 124 169 221 260 307 395
#
# _framework density 20.517627000000001
#
# number of rings (size 3 to 8) (size 9 to 14) (size 15 to 20)
#    0.000    1.143    7.143    1.286    0.000    2.286 
#    0.000    0.000    3.143    0.000    0.000    0.000 
#    0.000    0.000    0.000    0.000    0.000    0.000 
#
# Total GULP energy -347049.921198 kJ/mol
# GULP energy per Si atom -12394.640043 kJ/mol
# Density = 2.047093 g / cm^3
# Si number density = 20.517627 Si / 1000 Ang^3
#
#
#
# Elastic Constant Matrix: (Units=GPa)
#
#
# Indices 1 2 3 4 5 6 
#
# 1 77.8378 25.7270 33.7366 0.0000 23.1865 0.0000
# 2 25.7270 112.7081 30.2416 0.0000 13.5369 0.0000
# 3 33.7366 30.2416 109.4460 0.0000 26.1847 0.0000
# 4 0.0000 0.0000 0.0000 25.2462 0.0000 6.2754
# 5 23.1865 13.5369 26.1847 0.0000 44.6556 0.0000
# 6 0.0000 0.0000 0.0000 6.2754 0.0000 21.6214
#
#
#
# Elastic Compliance Matrix: (Units=1/GPa)
#
#
# Indices 1 2 3 4 5 6 
#
# 1 0.016775 -0.002261 -0.003055 0.000000 -0.006234 0.000000
# 2 -0.002261 0.009984 -0.001883 0.000000 -0.000749 0.000000
# 3 -0.003055 -0.001883 0.011728 0.000000 -0.004720 0.000000
# 4 0.000000 0.000000 0.000000 0.042690 0.000000 -0.012390
# 5 -0.006234 -0.000749 -0.004720 0.000000 0.028625 0.000000
# 6 0.000000 0.000000 0.000000 -0.012390 0.000000 0.049847
#
#
# Mechanical properties :
#
#
# Convention : Reuss Voigt Hill
#
# Bulk Modulus (GPa) = 41.51033 53.26693 47.38863
# Shear Modulus (GPa) = 27.46119 32.32375 29.89247
#
# Velocity S-wave (km/s) = 3.66241 3.97345 3.82110
# Velocity P-wave (km/s) = 6.17736 6.86069 6.52797
#
# Compressibility (1/GPa) = 0.02409039
#
# Stress axis : x y z
#
# Youngs Moduli (GPa) = 59.61099 100.16430 85.26553
#
# Poissons Ratio (x) = 0.22645 0.26048
# Poissons Ratio (y) = 0.13477 0.16052
# Poissons Ratio (z) = 0.18211 0.18857
#
# Static dielectric constant tensor:
#      x y z
#    x 3.736570 0.000000 0.237440 
#    y 0.000000 3.808150 0.000000 
#    z 0.237440 0.000000 3.900070 
# 
# 
# High freq. dielectric constant tensor:
#      x y z
#    x 1.797360 0.000000 0.024340 
#    y 0.000000 1.776710 0.000000 
#    z 0.024340 0.000000 1.809090 
# 
# From -- ./inp_files/265594.got.cif
#   From: 2010.06.25/outbox.cif.g09.slc.cpg/sg15_133_cif.got.tgz:265594.got - 2010.06.28 07:06:18.
