data_PCOD8132455
_publ_section_title
;
Structure prediction by ZEFSAII (Michael W. Deem and Ramdas Pophale) SiO2 
 PCOD8132455
Probable space group: C 2/C
;
_chemical_formula_sum "Si O2"
_cell_formula_units_Z 60
_cell_length_a 16.585723
_cell_length_b 9.440753
_cell_length_c 19.961473
_cell_angle_alpha 90.000000
_cell_angle_beta 118.824556
_cell_angle_gamma 90.000000
_cell_volume 2738.340014
_symmetry_space_group_name_H-M "C 2/C"
_symmetry_group_IT_number 15
_symmetry_cell_setting 'monoclinic'
loop_
_space_group_symop_operation_xyz
x,y,z
-x,y,1/2-z
-x,-y,-z
x,-y,1/2+z
1/2+x,1/2+y,z
1/2-x,1/2+y,1/2-z
1/2-x,1/2-y,-z
1/2+x,1/2-y,1/2+z
loop_
_atom_site_type_symbol
_atom_site_label
_atom_site_fract_x
_atom_site_fract_y
_atom_site_fract_z
Si Si1 0.500000 0.781189 0.750000
Si Si2 0.954124 0.508272 0.343883
Si Si3 0.380816 0.840156 0.063756
Si Si4 0.328995 0.392553 0.145358
Si Si5 0.147886 0.636807 0.802703
Si Si6 0.758051 0.621979 0.296508
Si Si7 0.764435 0.117482 0.364911
Si Si8 0.178100 0.955703 0.991305
O O1 0.587538 0.680105 0.782874
O O2 0.496540 0.874640 0.681542
O O3 0.922956 0.371915 0.287020
O O4 0.865750 0.578935 0.345103
O O5 0.032521 0.439942 0.424554
O O6 0.394663 0.796143 0.147508
O O7 0.378767 0.690979 0.023426
O O8 0.284800 0.923027 0.015580
O O9 0.300118 0.523532 0.178657
O O10 0.247584 0.275520 0.110944
O O11 0.357771 0.443916 0.082775
O O12 0.241437 0.718918 0.817801
O O13 0.169458 0.472096 0.829394
O O14 0.710648 0.616472 0.203975
O O15 0.835401 0.037188 0.443220
#
# Coordination Sequence:
#
# PCOD8132455 Si02
#       8
#     4   8   8   8   8   8   8   8
#     4  12  22  38  62 100 134 162 222 272 324 382
#     4  11  21  38  66  97 130 170 218 276 324 385
#     4  10  19  39  63  95 125 172 224 261 313 395
#     4  12  23  41  65 102 128 170 218 277 325 393
#     4  10  18  37  64  90 125 165 215 269 317 383
#     4  11  23  39  67 100 127 165 221 277 331 375
#     4  10  20  37  62  90 125 174 204 263 324 389
#     4  10  22  38  65  91 134 176 219 255 329 400
#
# _framework density 21.911086000000001
#
# number of rings (size 3 to 8) (size 9 to 14) (size 15 to 20)
#    0.000    1.333    5.333    2.800    0.000    1.067 
#    0.000    0.667    0.000    8.800    0.000    0.000 
#    0.000    0.000    0.000    0.000    0.000    0.000 
#
# Total GULP energy -371704.532720 kJ/mol
# GULP energy per Si atom -12390.151091 kJ/mol
# Density = 2.186122 g / cm^3
# Si number density = 21.911086 Si / 1000 Ang^3
#
#
#
# Elastic Constant Matrix: (Units=GPa)
#
#
# Indices 1 2 3 4 5 6 
#
# 1 65.9762 14.2427 7.8666 0.0000 5.6648 0.0000
# 2 14.2427 85.3684 22.4519 0.0000 4.6160 0.0000
# 3 7.8666 22.4519 53.6653 0.0000 -0.2521 0.0000
# 4 0.0000 0.0000 0.0000 22.2409 0.0000 -3.8138
# 5 5.6648 4.6160 -0.2521 0.0000 30.8618 0.0000
# 6 0.0000 0.0000 0.0000 -3.8138 0.0000 29.1227
#
#
#
# Elastic Compliance Matrix: (Units=1/GPa)
#
#
# Indices 1 2 3 4 5 6 
#
# 1 0.016021 -0.002146 -0.001463 0.000000 -0.002632 0.000000
# 2 -0.002146 0.013576 -0.005373 0.000000 -0.001681 0.000000
# 3 -0.001463 -0.005373 0.021102 0.000000 0.001245 0.000000
# 4 0.000000 0.000000 0.000000 0.045995 0.000000 0.006023
# 5 -0.002632 -0.001681 0.001245 0.000000 0.033147 0.000000
# 6 0.000000 0.000000 0.000000 0.006023 0.000000 0.035126
#
#
# Mechanical properties :
#
#
# Convention : Reuss Voigt Hill
#
# Bulk Modulus (GPa) = 30.54836 32.68136 31.61486
# Shear Modulus (GPa) = 25.79413 27.14167 26.46790
#
# Velocity S-wave (km/s) = 3.43478 3.52336 3.47935
# Velocity P-wave (km/s) = 5.45000 5.61248 5.53184
#
# Compressibility (1/GPa) = 0.03273498
#
# Stress axis : x y z
#
# Youngs Moduli (GPa) = 62.41962 73.65980 47.38830
#
# Poissons Ratio (x) = 0.15806 0.06933
# Poissons Ratio (y) = 0.13394 0.25462
# Poissons Ratio (z) = 0.09132 0.39578
#
# Static dielectric constant tensor:
#      x y z
#    x 3.608290 0.000000 -0.015230 
#    y 0.000000 4.111410 0.000000 
#    z -0.015230 0.000000 4.121840 
# 
# 
# High freq. dielectric constant tensor:
#      x y z
#    x 1.822590 0.000000 -0.003420 
#    y 0.000000 1.872790 0.000000 
#    z -0.003420 0.000000 1.851080 
# 
# From -- ./inp_files/247853.got.cif
#   From: 2010.06.25/outbox.cif.g09.slc.cpg/sg15_124_cif.got.tgz:247853.got - 2010.06.28 07:06:18.
