data_PCOD8132051
_publ_section_title
;
Structure prediction by ZEFSAII (Michael W. Deem and Ramdas Pophale) SiO2 
 PCOD8132051
Probable space group: C 2/C
;
_chemical_formula_sum "Si O2"
_cell_formula_units_Z 48
_cell_length_a 31.857535
_cell_length_b 10.017229
_cell_length_c 16.803595
_cell_angle_alpha 90.000000
_cell_angle_beta 27.851714
_cell_angle_gamma 90.000000
_cell_volume 2505.248047
_symmetry_space_group_name_H-M "C 2/C"
_symmetry_group_IT_number 15
_symmetry_cell_setting 'monoclinic'
loop_
_space_group_symop_operation_xyz
x,y,z
-x,y,1/2-z
-x,-y,-z
x,-y,1/2+z
1/2+x,1/2+y,z
1/2-x,1/2+y,1/2-z
1/2-x,1/2-y,-z
1/2+x,1/2-y,1/2+z
loop_
_atom_site_type_symbol
_atom_site_label
_atom_site_fract_x
_atom_site_fract_y
_atom_site_fract_z
Si Si1 0.887395 0.015049 0.091625
Si Si2 0.160526 0.705910 0.108198
Si Si3 0.272965 0.078886 0.039318
Si Si4 0.626156 0.323692 0.671914
Si Si5 0.905854 0.938369 0.385224
Si Si6 0.476517 0.311651 0.047558
O O1 0.898732 0.878578 0.123104
O O2 0.796990 0.087976 0.271538
O O3 0.867190 0.999531 0.032076
O O4 0.980285 0.093041 0.956963
O O5 0.150716 0.816516 0.055325
O O6 0.076541 0.700688 0.311771
O O7 0.250000 0.750000 0.000000
O O8 0.171404 0.558622 0.054242
O O9 0.215543 0.102901 0.055109
O O10 0.345141 0.197382 0.929185
O O11 0.577247 0.435883 0.701652
O O12 0.558531 0.265661 0.853218
O O13 0.000000 0.872259 0.250000
#
# Coordination Sequence:
#
# PCOD8132051 Si02
#       6
#     8   8   8   8   8   8
#     4  10  19  35  60  87 115 155 201 238 290 363
#     4  12  21  37  63  93 118 156 201 253 295 351
#     4  10  22  39  58  87 123 150 194 253 300 346
#     4  10  21  39  60  85 118 158 198 240 297 363
#     4  12  21  36  64  90 114 159 207 242 288 361
#     4  10  18  35  62  84 112 162 198 232 296 365
#
# _framework density 19.159779
#
# number of rings (size 3 to 8) (size 9 to 14) (size 15 to 20)
#    0.000    1.333    6.667    1.000    0.000    2.000 
#    0.000    0.833    0.000    0.000    0.000    0.000 
#    0.000    0.000    0.000    0.000    0.000    0.000 
#
# Total GULP energy -297354.627699 kJ/mol
# GULP energy per Si atom -12389.776154 kJ/mol
# Density = 1.911617 g / cm^3
# Si number density = 19.159779 Si / 1000 Ang^3
#
#
#
# Elastic Constant Matrix: (Units=GPa)
#
#
# Indices 1 2 3 4 5 6 
#
# 1 90.9325 35.4329 29.7468 0.0000 6.7219 0.0000
# 2 35.4329 95.8422 37.2600 0.0000 -1.0322 0.0000
# 3 29.7468 37.2600 95.4644 0.0000 8.6799 0.0000
# 4 0.0000 0.0000 0.0000 34.9615 0.0000 -0.1991
# 5 6.7219 -1.0322 8.6799 0.0000 28.3268 0.0000
# 6 0.0000 0.0000 0.0000 -0.1991 0.0000 20.1279
#
#
#
# Elastic Compliance Matrix: (Units=1/GPa)
#
#
# Indices 1 2 3 4 5 6 
#
# 1 0.013578 -0.004122 -0.002382 0.000000 -0.002642 0.000000
# 2 -0.004122 0.013660 -0.004301 0.000000 0.002794 0.000000
# 3 -0.002382 -0.004301 0.013227 0.000000 -0.003645 0.000000
# 4 0.000000 0.000000 0.000000 0.028605 0.000000 0.000283
# 5 -0.002642 0.002794 -0.003645 0.000000 0.037148 0.000000
# 6 0.000000 0.000000 0.000000 0.000283 0.000000 0.049685
#
#
# Mechanical properties :
#
#
# Convention : Reuss Voigt Hill
#
# Bulk Modulus (GPa) = 53.03584 54.12430 53.58007
# Shear Modulus (GPa) = 27.20379 28.66986 27.93683
#
# Velocity S-wave (km/s) = 3.77216 3.87247 3.82265
# Velocity P-wave (km/s) = 6.83470 6.95018 6.89268
#
# Compressibility (1/GPa) = 0.01885517
#
# Stress axis : x y z
#
# Youngs Moduli (GPa) = 73.64887 73.20634 75.60097
#
# Poissons Ratio (x) = 0.30178 0.18006
# Poissons Ratio (y) = 0.30360 0.32516
# Poissons Ratio (z) = 0.17541 0.31486
#
# Static dielectric constant tensor:
#      x y z
#    x 3.484650 0.000000 0.092320 
#    y 0.000000 3.570150 0.000000 
#    z 0.092320 0.000000 3.728800 
# 
# 
# High freq. dielectric constant tensor:
#      x y z
#    x 1.732800 0.000000 0.009620 
#    y 0.000000 1.713360 0.000000 
#    z 0.009620 0.000000 1.759810 
# 
# From -- ./inp_files/224517.got.cif
#   From: 2010.06.25/outbox.cif.g09.slc.cpg/sg15_113_cif.got.tgz:224517.got - 2010.06.28 07:06:18.
