data_PCOD8132889
_publ_section_title
;
Structure prediction by ZEFSAII (Michael W. Deem and Ramdas Pophale) SiO2 
 PCOD8132889
Probable space group: C 2/C
;
_chemical_formula_sum "Si O2"
_cell_formula_units_Z 64
_cell_length_a 12.852092
_cell_length_b 29.344294
_cell_length_c 9.205445
_cell_angle_alpha 90.000000
_cell_angle_beta 78.386854
_cell_angle_gamma 90.000000
_cell_volume 3400.631833
_symmetry_space_group_name_H-M "C 2/C"
_symmetry_group_IT_number 15
_symmetry_cell_setting 'monoclinic'
loop_
_space_group_symop_operation_xyz
x,y,z
-x,y,1/2-z
-x,-y,-z
x,-y,1/2+z
1/2+x,1/2+y,z
1/2-x,1/2+y,1/2-z
1/2-x,1/2-y,-z
1/2+x,1/2-y,1/2+z
loop_
_atom_site_type_symbol
_atom_site_label
_atom_site_fract_x
_atom_site_fract_y
_atom_site_fract_z
Si Si1 0.432687 0.817020 0.125999
Si Si2 0.731938 0.630083 0.644015
Si Si3 0.441579 0.336998 0.126402
Si Si4 0.106673 0.953398 0.811208
Si Si5 0.905246 0.738918 0.066452
Si Si6 0.320427 0.732921 0.278430
Si Si7 0.114660 0.037736 0.645180
Si Si8 0.879930 0.856282 0.613584
O O1 0.500000 0.828326 0.250000
O O2 0.359088 0.860842 0.111175
O O3 0.356538 0.772927 0.160930
O O4 0.514379 0.803998 0.972303
O O5 0.682813 0.651437 0.809000
O O6 0.702260 0.576956 0.645806
O O7 0.687637 0.655175 0.512191
O O8 0.500000 0.358126 0.250000
O O9 0.463858 0.282925 0.114653
O O10 0.495301 0.361705 0.971460
O O11 0.160082 0.903054 0.798784
O O12 0.000000 0.948856 0.750000
O O13 0.169313 0.992911 0.704660
O O14 0.092560 0.969994 0.981060
O O15 0.806291 0.725268 0.195422
O O16 0.860878 0.754253 0.924417
O O17 0.373810 0.685048 0.225912
O O18 0.000000 0.048696 0.750000
#
# Coordination Sequence:
#
# PCOD8132889 Si02
#       8
#     8   8   8   8   8   8   8   8
#     4  10  20  34  52  74 102 141 179 219 263 306
#     4  10  20  35  52  74 108 139 178 218 258 321
#     4  10  19  30  48  75 102 139 175 209 258 310
#     4  10  20  32  53  81 111 141 173 213 270 325
#     4  10  20  33  47  72 106 138 180 220 250 300
#     4  10  20  34  49  73 106 141 180 216 258 309
#     4  10  19  36  52  81 113 141 172 216 267 325
#     4  10  21  33  52  80 107 143 176 211 267 318
#
# _framework density 18.820032000000001
#
# number of rings (size 3 to 8) (size 9 to 14) (size 15 to 20)
#    0.000    2.000    2.500    3.375    1.750    1.500 
#    0.000    0.000    0.000    0.000    0.000    7.875 
#    0.000    0.000    0.000    0.000    0.000    0.000 
#
# Total GULP energy -396434.472100 kJ/mol
# GULP energy per Si atom -12388.577253 kJ/mol
# Density = 1.877720 g / cm^3
# Si number density = 18.820032 Si / 1000 Ang^3
#
#
#
# Elastic Constant Matrix: (Units=GPa)
#
#
# Indices 1 2 3 4 5 6 
#
# 1 89.6467 34.5331 22.3652 0.0000 -11.1755 0.0000
# 2 34.5331 102.8817 25.8271 0.0000 0.7364 0.0000
# 3 22.3652 25.8271 53.5514 0.0000 -1.8319 0.0000
# 4 0.0000 0.0000 0.0000 26.4435 0.0000 2.8749
# 5 -11.1755 0.7364 -1.8319 0.0000 19.2803 0.0000
# 6 0.0000 0.0000 0.0000 2.8749 0.0000 18.6728
#
#
#
# Elastic Compliance Matrix: (Units=1/GPa)
#
#
# Indices 1 2 3 4 5 6 
#
# 1 0.014717 -0.004014 -0.003926 0.000000 0.008310 0.000000
# 2 -0.004014 0.012170 -0.004303 0.000000 -0.003200 0.000000
# 3 -0.003926 -0.004303 0.022389 0.000000 0.000016 0.000000
# 4 0.000000 0.000000 0.000000 0.038460 0.000000 -0.005921
# 5 0.008310 -0.003200 0.000016 0.000000 0.056807 0.000000
# 6 0.000000 0.000000 0.000000 -0.005921 0.000000 0.054466
#
#
# Mechanical properties :
#
#
# Convention : Reuss Voigt Hill
#
# Bulk Modulus (GPa) = 40.33777 45.72562 43.03170
# Shear Modulus (GPa) = 21.57429 23.76960 22.67194
#
# Velocity S-wave (km/s) = 3.38945 3.55772 3.47460
# Velocity P-wave (km/s) = 6.06612 6.42071 6.24593
#
# Compressibility (1/GPa) = 0.02479066
#
# Stress axis : x y z
#
# Youngs Moduli (GPa) = 67.95094 82.16829 44.66463
#
# Poissons Ratio (x) = 0.32979 0.17536
# Poissons Ratio (y) = 0.27273 0.19218
# Poissons Ratio (z) = 0.26679 0.35355
#
# Static dielectric constant tensor:
#      x y z
#    x 3.373950 0.000000 -0.176570 
#    y 0.000000 3.590890 0.000000 
#    z -0.176570 0.000000 3.630100 
# 
# 
# High freq. dielectric constant tensor:
#      x y z
#    x 1.691070 0.000000 0.004000 
#    y 0.000000 1.718710 0.000000 
#    z 0.004000 0.000000 1.733180 
# 
# From -- ./inp_files/44271.got.cif
#   From: 2010.06.25/outbox.cif.g09.slc.cpg/sg15_23_cif.got.tgz:44271.got - 2010.06.28 07:06:18.
