data_PCOD8132721
_publ_section_title
;
Structure prediction by ZEFSAII (Michael W. Deem and Ramdas Pophale) SiO2 
 PCOD8132721
Probable space group: C 2/C
;
_chemical_formula_sum "Si O2"
_cell_formula_units_Z 60
_cell_length_a 22.252002
_cell_length_b 21.647063
_cell_length_c 11.502509
_cell_angle_alpha 90.000000
_cell_angle_beta 29.498975
_cell_angle_gamma 90.000000
_cell_volume 2728.259928
_symmetry_space_group_name_H-M "C 2/C"
_symmetry_group_IT_number 15
_symmetry_cell_setting 'monoclinic'
loop_
_space_group_symop_operation_xyz
x,y,z
-x,y,1/2-z
-x,-y,-z
x,-y,1/2+z
1/2+x,1/2+y,z
1/2-x,1/2+y,1/2-z
1/2-x,1/2-y,-z
1/2+x,1/2-y,1/2+z
loop_
_atom_site_type_symbol
_atom_site_label
_atom_site_fract_x
_atom_site_fract_y
_atom_site_fract_z
Si Si1 0.355096 0.360326 0.287877
Si Si2 0.876077 0.215536 0.528009
Si Si3 0.005775 0.574664 0.991517
Si Si4 0.764792 0.967570 0.290441
Si Si5 0.705440 0.153158 0.260690
Si Si6 0.267438 0.612508 0.568312
Si Si7 0.886100 0.090515 0.133570
Si Si8 0.500000 0.949487 0.750000
O O1 0.270287 0.412262 0.373574
O O2 0.280644 0.329083 0.518365
O O3 0.390069 0.308249 0.135976
O O4 0.477221 0.392029 0.132618
O O5 0.843220 0.286945 0.591432
O O6 0.773336 0.177367 0.628854
O O7 0.000000 0.205991 0.250000
O O8 0.135825 0.601401 0.729768
O O9 0.000000 0.500000 0.000000
O O10 0.902937 0.605533 0.085971
O O11 0.994853 0.594723 0.145523
O O12 0.796572 0.943579 0.107900
O O13 0.623358 0.991765 0.535104
O O14 0.864834 0.017318 0.158659
O O15 0.793252 0.121212 0.202781
O O16 0.366944 0.611795 0.298813
#
# Coordination Sequence:
#
# PCOD8132721 Si02
#       8
#     8   8   8   8   8   8   8   4
#     4  11  24  49  67  99 142 184 233 282 350 424
#     4  11  25  50  73  97 136 183 244 295 347 417
#     4  11  23  42  68 103 142 174 232 293 357 420
#     4  10  22  39  72 101 140 183 228 286 349 425
#     4  12  27  43  71 104 134 189 235 295 344 416
#     4  10  24  43  69 102 136 187 229 285 360 411
#     4  12  25  42  68 104 146 181 224 284 353 428
#     4  10  18  40  64  94 142 176 222 280 340 416
#
# _framework density 21.992038999999998
#
# number of rings (size 3 to 8) (size 9 to 14) (size 15 to 20)
#    0.000    1.067    2.667    3.600    3.733    1.600 
#    2.400    1.333    0.000    0.000    0.000    0.000 
#    0.000    0.000    0.000    0.000    0.000    0.000 
#
# Total GULP energy -371990.362408 kJ/mol
# GULP energy per Si atom -12399.678747 kJ/mol
# Density = 2.194198 g / cm^3
# Si number density = 21.992039 Si / 1000 Ang^3
#
#
#
# Elastic Constant Matrix: (Units=GPa)
#
#
# Indices 1 2 3 4 5 6 
#
# 1 99.9510 21.2309 27.1747 0.0003 -3.1619 0.0001
# 2 21.2309 78.4002 25.0058 0.0000 -0.4308 0.0000
# 3 27.1747 25.0058 83.5325 0.0005 -7.2720 -0.0001
# 4 0.0003 0.0000 0.0005 34.6349 -0.0002 -21.1302
# 5 -3.1619 -0.4308 -7.2720 -0.0002 46.6130 -0.0001
# 6 0.0001 0.0000 -0.0001 -21.1302 -0.0001 51.8073
#
#
#
# Elastic Compliance Matrix: (Units=1/GPa)
#
#
# Indices 1 2 3 4 5 6 
#
# 1 0.011278 -0.002090 -0.003020 0.000000 0.000275 0.000000
# 2 -0.002090 0.014502 -0.003712 0.000000 -0.000587 0.000000
# 3 -0.003020 -0.003712 0.014238 0.000000 0.001982 0.000000
# 4 0.000000 0.000000 0.000000 0.038437 0.000000 0.015677
# 5 0.000275 -0.000587 0.001982 0.000000 0.021776 0.000000
# 6 0.000000 0.000000 0.000000 0.015677 0.000000 0.025696
#
#
# Mechanical properties :
#
#
# Convention : Reuss Voigt Hill
#
# Bulk Modulus (GPa) = 44.69391 45.41185 45.05288
# Shear Modulus (GPa) = 33.10639 39.17586 36.14113
#
# Velocity S-wave (km/s) = 3.88413 4.22520 4.05825
# Velocity P-wave (km/s) = 6.36256 6.67062 6.51841
#
# Compressibility (1/GPa) = 0.02237441
#
# Stress axis : x y z
#
# Youngs Moduli (GPa) = 88.66489 68.95691 70.23640
#
# Poissons Ratio (x) = 0.14409 0.21209
# Poissons Ratio (y) = 0.18527 0.26075
# Poissons Ratio (z) = 0.26774 0.25600
#
# Static dielectric constant tensor:
#      x y z
#    x 4.203960 0.000000 0.055620 
#    y 0.000000 3.952120 0.000000 
#    z 0.055620 0.000000 4.115030 
# 
# 
# High freq. dielectric constant tensor:
#      x y z
#    x 1.882640 0.000000 0.003060 
#    y 0.000000 1.838780 0.000000 
#    z 0.003060 0.000000 1.875660 
# 
# From -- ./inp_files/119947.got.cif
#   From: 2010.06.25/outbox.cif.g09.slc.cpg/sg15_60_cif.got.tgz:119947.got - 2010.06.28 07:06:18.
