data_PCOD8132706
_publ_section_title
;
Structure prediction by ZEFSAII (Michael W. Deem and Ramdas Pophale) SiO2 
 PCOD8132706
Probable space group: C 2/C
;
_chemical_formula_sum "Si O2"
_cell_formula_units_Z 60
_cell_length_a 12.016256
_cell_length_b 21.180629
_cell_length_c 22.540248
_cell_angle_alpha 90.000000
_cell_angle_beta 149.950204
_cell_angle_gamma 90.000000
_cell_volume 2872.697007
_symmetry_space_group_name_H-M "C 2/C"
_symmetry_group_IT_number 15
_symmetry_cell_setting 'monoclinic'
loop_
_space_group_symop_operation_xyz
x,y,z
-x,y,1/2-z
-x,-y,-z
x,-y,1/2+z
1/2+x,1/2+y,z
1/2-x,1/2+y,1/2-z
1/2-x,1/2-y,-z
1/2+x,1/2-y,1/2+z
loop_
_atom_site_type_symbol
_atom_site_label
_atom_site_fract_x
_atom_site_fract_y
_atom_site_fract_z
Si Si1 0.500000 0.622475 0.750000
Si Si2 0.906561 0.330147 0.596234
Si Si3 0.790678 0.563060 0.124666
Si Si4 0.420533 0.698457 0.826985
Si Si5 0.837401 0.445881 0.001651
Si Si6 0.030063 0.991619 0.601699
Si Si7 0.607103 0.899112 0.234103
Si Si8 0.444521 0.078261 0.010338
O O1 0.390261 0.666060 0.749435
O O2 0.691661 0.580650 0.868580
O O3 0.885722 0.369304 0.648057
O O4 0.657490 0.310128 0.466899
O O5 0.001812 0.371391 0.586768
O O6 0.087483 0.274087 0.687314
O O7 0.602434 0.563630 0.089161
O O8 0.000000 0.525246 0.250000
O O9 0.698852 0.524570 0.026681
O O10 0.230690 0.668694 0.782084
O O11 0.919469 0.408203 0.097767
O O12 0.881042 0.405935 0.962062
O O13 0.569278 0.459013 0.884903
O O14 0.980548 0.509808 0.056466
O O15 0.211184 0.045700 0.693700
O O16 0.500000 0.899896 0.250000
#
# Coordination Sequence:
#
# PCOD8132706 Si02
#       8
#     4   8   8   8   8   8   8   8
#     4  10  18  40  62  90 118 168 214 254 310 376
#     4  10  21  39  59  87 121 159 213 263 304 359
#     4  11  21  35  58  87 123 157 197 259 319 371
#     4  10  21  38  63  86 117 163 213 261 299 362
#     4  11  22  36  61  94 128 169 198 254 324 391
#     4  11  21  37  57  93 131 154 195 263 319 384
#     4  12  23  39  66  93 126 169 210 257 323 385
#     4  10  21  37  59  90 132 163 207 254 315 389
#
# _framework density 20.886296999999999
#
# number of rings (size 3 to 8) (size 9 to 14) (size 15 to 20)
#    0.000    1.333    4.000    3.600    0.933    0.000 
#    0.000    0.000    2.933    0.800    0.000    0.000 
#    0.000    0.000    0.000    0.000    0.000    0.000 
#
# Total GULP energy -371713.991835 kJ/mol
# GULP energy per Si atom -12390.466395 kJ/mol
# Density = 2.083876 g / cm^3
# Si number density = 20.886297 Si / 1000 Ang^3
#
#
#
# Elastic Constant Matrix: (Units=GPa)
#
#
# Indices 1 2 3 4 5 6 
#
# 1 145.9656 48.6570 6.3332 -0.0030 16.5160 -0.0019
# 2 48.6570 103.5147 15.4096 -0.0055 8.4498 0.0033
# 3 6.3332 15.4096 36.6062 -0.0174 0.4263 -0.0051
# 4 -0.0030 -0.0055 -0.0174 19.9437 -0.0090 11.6588
# 5 16.5160 8.4498 0.4263 -0.0090 27.2307 0.0012
# 6 -0.0019 0.0033 -0.0051 11.6588 0.0012 30.4735
#
#
#
# Elastic Compliance Matrix: (Units=1/GPa)
#
#
# Indices 1 2 3 4 5 6 
#
# 1 0.008535 -0.003702 0.000129 -0.000003 -0.004030 0.000002
# 2 -0.003702 0.012186 -0.004472 -0.000001 -0.001466 -0.000002
# 3 0.000129 -0.004472 0.029168 0.000028 0.000853 -0.000005
# 4 -0.000003 -0.000001 0.000028 0.064586 0.000024 -0.024710
# 5 -0.004030 -0.001466 0.000853 0.000024 0.039609 -0.000011
# 6 0.000002 -0.000002 -0.000005 -0.024710 -0.000011 0.042269
#
#
# Mechanical properties :
#
#
# Convention : Reuss Voigt Hill
#
# Bulk Modulus (GPa) = 29.58735 47.43180 38.50957
# Shear Modulus (GPa) = 22.35017 29.90868 26.12943
#
# Velocity S-wave (km/s) = 3.27477 3.78825 3.54083
# Velocity P-wave (km/s) = 5.33812 6.47250 5.93249
#
# Compressibility (1/GPa) = 0.03379823
#
# Stress axis : x y z
#
# Youngs Moduli (GPa) = 117.15779 82.06055 34.28393
#
# Poissons Ratio (x) = 0.30381 -0.00441
# Poissons Ratio (y) = 0.43375 0.15332
# Poissons Ratio (z) = -0.01508 0.36699
#
# Static dielectric constant tensor:
#      x y z
#    x 4.107570 -0.000010 0.011510 
#    y -0.000010 3.854690 0.000000 
#    z 0.011510 0.000000 3.656090 
# 
# 
# High freq. dielectric constant tensor:
#      x y z
#    x 1.837970 0.000000 -0.005700 
#    y 0.000000 1.785510 0.000000 
#    z -0.005700 0.000000 1.798220 
# 
# From -- ./inp_files/271045.got.cif
#   From: 2010.06.25/outbox.cif.g09.slc.cpg/sg15_136_cif.got.tgz:271045.got - 2010.06.28 07:06:18.
