data_PCOD8132760
_publ_section_title
;
Structure prediction by ZEFSAII (Michael W. Deem and Ramdas Pophale) SiO2 
 PCOD8132760
Probable space group: C 2/C
;
_chemical_formula_sum "Si O2"
_cell_formula_units_Z 44
_cell_length_a 14.621405
_cell_length_b 14.278461
_cell_length_c 18.979547
_cell_angle_alpha 90.000000
_cell_angle_beta 31.524136
_cell_angle_gamma 90.000000
_cell_volume 2071.761954
_symmetry_space_group_name_H-M "C 2/C"
_symmetry_group_IT_number 15
_symmetry_cell_setting 'monoclinic'
loop_
_space_group_symop_operation_xyz
x,y,z
-x,y,1/2-z
-x,-y,-z
x,-y,1/2+z
1/2+x,1/2+y,z
1/2-x,1/2+y,1/2-z
1/2-x,1/2-y,-z
1/2+x,1/2-y,1/2+z
loop_
_atom_site_type_symbol
_atom_site_label
_atom_site_fract_x
_atom_site_fract_y
_atom_site_fract_z
Si Si1 0.093885 0.703628 0.873746
Si Si2 0.500000 0.526002 0.250000
Si Si3 0.701087 0.761621 0.630974
Si Si4 0.760138 0.846341 0.818173
Si Si5 0.265576 0.908112 0.997919
Si Si6 0.429374 0.997298 0.626048
O O1 0.245222 0.747427 0.823643
O O2 0.099331 0.770096 0.801260
O O3 0.149790 0.600497 0.809208
O O4 0.906362 0.704483 0.035779
O O5 0.653147 0.589410 0.179693
O O6 0.583586 0.459831 0.134855
O O7 0.500000 0.739039 0.750000
O O8 0.742771 0.868204 0.576698
O O9 0.808228 0.682896 0.517751
O O10 0.710641 0.912957 0.783751
O O11 0.426949 0.977978 0.907559
O O12 0.500000 0.000000 0.500000
#
# Coordination Sequence:
#
# PCOD8132760 Si02
#       6
#     8   4   8   8   8   8
#     4  11  23  42  65  94 131 171 210 266 324 381
#     4  12  22  42  66  86 120 180 224 250 318 398
#     4  11  22  34  62  99 133 151 206 270 327 376
#     4  11  24  41  67  91 127 169 221 262 317 389
#     4  11  21  36  62  93 122 167 209 253 317 396
#     4  10  18  41  60  87 126 172 201 254 329 388
#
# _framework density 21.237960999999999
#
# number of rings (size 3 to 8) (size 9 to 14) (size 15 to 20)
#    0.000    1.091    8.182    1.091    2.545    0.727 
#    0.000    5.455    0.000    0.000    0.000    0.000 
#    0.000    0.000    0.000    0.000    0.000    0.000 
#
# Total GULP energy -272659.718916 kJ/mol
# GULP energy per Si atom -12393.623587 kJ/mol
# Density = 2.118962 g / cm^3
# Si number density = 21.237961 Si / 1000 Ang^3
#
#
#
# Elastic Constant Matrix: (Units=GPa)
#
#
# Indices 1 2 3 4 5 6 
#
# 1 55.6577 40.0294 30.8265 -0.0052 -17.4817 0.0041
# 2 40.0294 147.6339 53.7533 0.0203 5.8811 0.0017
# 3 30.8265 53.7533 73.8397 0.0270 -12.5239 0.0043
# 4 -0.0052 0.0203 0.0270 33.9338 -0.0066 -0.2047
# 5 -17.4817 5.8811 -12.5239 -0.0066 23.8626 -0.0045
# 6 0.0041 0.0017 0.0043 -0.2047 -0.0045 32.0889
#
#
#
# Elastic Compliance Matrix: (Units=1/GPa)
#
#
# Indices 1 2 3 4 5 6 
#
# 1 0.034516 -0.009158 -0.003372 0.000018 0.025774 0.000000
# 2 -0.009158 0.012618 -0.007714 -0.000006 -0.013867 0.000000
# 3 -0.003372 -0.007714 0.022470 -0.000012 0.011224 -0.000001
# 4 0.000018 -0.000006 -0.000012 0.029470 0.000017 0.000188
# 5 0.025774 -0.013867 0.011224 0.000017 0.070097 0.000006
# 6 0.000000 0.000000 -0.000001 0.000188 0.000006 0.031165
#
#
# Mechanical properties :
#
#
# Convention : Reuss Voigt Hill
#
# Bulk Modulus (GPa) = 34.34486 58.48329 46.41407
# Shear Modulus (GPa) = 19.95784 28.14521 24.05152
#
# Velocity S-wave (km/s) = 3.06882 3.64432 3.36888
# Velocity P-wave (km/s) = 5.36315 6.73090 6.08558
#
# Compressibility (1/GPa) = 0.02911644
#
# Stress axis : x y z
#
# Youngs Moduli (GPa) = 28.97201 79.25386 44.50405
#
# Poissons Ratio (x) = 0.72579 0.15005
# Poissons Ratio (y) = 0.26532 0.34331
# Poissons Ratio (z) = 0.09768 0.61138
#
# Static dielectric constant tensor:
#      x y z
#    x 3.638750 -0.000010 -0.138810 
#    y -0.000010 4.363530 0.000010 
#    z -0.138810 0.000010 3.659070 
# 
# 
# High freq. dielectric constant tensor:
#      x y z
#    x 1.807040 0.000000 -0.013940 
#    y 0.000000 1.845310 0.000000 
#    z -0.013940 0.000000 1.810160 
# 
# From -- ./inp_files/168552.got.cif
#   From: 2010.06.25/outbox.cif.g09.slc.cpg/sg15_85_cif.got.tgz:168552.got - 2010.06.28 07:06:18.
