data_PCOD8132693
_publ_section_title
;
Structure prediction by ZEFSAII (Michael W. Deem and Ramdas Pophale) SiO2 
 PCOD8132693
Probable space group: C 2/C
;
_chemical_formula_sum "Si O2"
_cell_formula_units_Z 52
_cell_length_a 14.760529
_cell_length_b 10.812403
_cell_length_c 19.735246
_cell_angle_alpha 90.000000
_cell_angle_beta 126.678829
_cell_angle_gamma 90.000000
_cell_volume 2526.033568
_symmetry_space_group_name_H-M "C 2/C"
_symmetry_group_IT_number 15
_symmetry_cell_setting 'monoclinic'
loop_
_space_group_symop_operation_xyz
x,y,z
-x,y,1/2-z
-x,-y,-z
x,-y,1/2+z
1/2+x,1/2+y,z
1/2-x,1/2+y,1/2-z
1/2-x,1/2-y,-z
1/2+x,1/2-y,1/2+z
loop_
_atom_site_type_symbol
_atom_site_label
_atom_site_fract_x
_atom_site_fract_y
_atom_site_fract_z
Si Si1 0.556000 0.030502 0.909390
Si Si2 0.882636 0.746427 0.040173
Si Si3 0.339063 0.329887 0.756764
Si Si4 0.979393 0.969188 0.165562
Si Si5 0.852567 0.324906 0.386184
Si Si6 0.500000 0.850593 0.250000
Si Si7 0.251804 0.052084 0.403754
O O1 0.442668 0.081954 0.893181
O O2 0.566144 0.067085 0.835133
O O3 0.561150 0.882857 0.912765
O O4 0.657751 0.089978 0.999148
O O5 0.955183 0.856210 0.104989
O O6 0.750000 0.750000 0.000000
O O7 0.902237 0.762040 0.967870
O O8 0.412414 0.450901 0.810315
O O9 0.293014 0.263979 0.804137
O O10 0.412800 0.231585 0.750617
O O11 0.237268 0.365456 0.660083
O O12 0.000000 0.916180 0.250000
O O13 0.873132 0.064645 0.119964
O O14 0.761470 0.408974 0.384624
#
# Coordination Sequence:
#
# PCOD8132693 Si02
#       7
#     8   8   8   8   8   4   8
#     4  10  22  38  61  88 120 155 197 243 302 346
#     4  11  20  38  61  86 120 153 198 247 293 354
#     4  10  21  41  60  85 122 157 200 241 295 356
#     4  10  20  37  63  85 118 159 195 240 299 351
#     4  10  22  41  57  87 123 152 195 255 290 345
#     4  10  20  40  60  86 118 154 200 250 280 360
#     4  10  18  40  60  85 118 160 189 238 303 347
#
# _framework density 20.585633000000001
#
# number of rings (size 3 to 8) (size 9 to 14) (size 15 to 20)
#    0.000    1.846    5.385    1.846    1.077    1.231 
#   16.615    0.000    0.000    0.000    0.000    0.000 
#    0.000    0.000    0.000    0.000    0.000    0.000 
#
# Total GULP energy -322198.933391 kJ/mol
# GULP energy per Si atom -12392.266669 kJ/mol
# Density = 2.053878 g / cm^3
# Si number density = 20.585633 Si / 1000 Ang^3
#
#
#
# Elastic Constant Matrix: (Units=GPa)
#
#
# Indices 1 2 3 4 5 6 
#
# 1 33.3997 12.8749 13.8338 0.0000 -12.0005 0.0000
# 2 12.8749 77.4128 58.1746 0.0000 -21.0945 0.0000
# 3 13.8338 58.1746 157.2435 0.0000 -25.4558 0.0000
# 4 0.0000 0.0000 0.0000 48.6228 0.0000 -9.1855
# 5 -12.0005 -21.0945 -25.4558 0.0000 36.9855 0.0000
# 6 0.0000 0.0000 0.0000 -9.1855 0.0000 22.7757
#
#
#
# Elastic Compliance Matrix: (Units=1/GPa)
#
#
# Indices 1 2 3 4 5 6 
#
# 1 0.034568 -0.002865 -0.000484 0.000000 0.009249 0.000000
# 2 -0.002865 0.019564 -0.005999 0.000000 0.006100 0.000000
# 3 -0.000484 -0.005999 0.009051 0.000000 0.002651 0.000000
# 4 0.000000 0.000000 0.000000 0.022263 0.000000 0.008979
# 5 0.009249 0.006100 0.002651 0.000000 0.035342 0.000000
# 6 0.000000 0.000000 0.000000 0.008979 0.000000 0.047527
#
#
# Mechanical properties :
#
#
# Convention : Reuss Voigt Hill
#
# Bulk Modulus (GPa) = 22.47799 48.64695 35.56247
# Shear Modulus (GPa) = 24.77202 33.88832 29.33017
#
# Velocity S-wave (km/s) = 3.47272 4.06176 3.77873
# Velocity P-wave (km/s) = 5.19833 6.75869 6.02920
#
# Compressibility (1/GPa) = 0.04448796
#
# Stress axis : x y z
#
# Youngs Moduli (GPa) = 28.92811 51.11330 110.49084
#
# Poissons Ratio (x) = 0.14646 0.05346
# Poissons Ratio (y) = 0.08289 0.66278
# Poissons Ratio (z) = 0.01400 0.30660
#
# Static dielectric constant tensor:
#      x y z
#    x 3.747230 0.000000 -0.440400 
#    y 0.000000 3.805080 0.000000 
#    z -0.440400 0.000000 4.470700 
# 
# 
# High freq. dielectric constant tensor:
#      x y z
#    x 1.783410 0.000000 -0.011740 
#    y 0.000000 1.796420 0.000000 
#    z -0.011740 0.000000 1.819180 
# 
# From -- ./inp_files/243815.got.cif
#   From: 2010.06.25/outbox.cif.g09.slc.cpg/sg15_122_cif.got.tgz:243815.got - 2010.06.28 07:06:18.
