data_PCOD8132632
_publ_section_title
;
Structure prediction by ZEFSAII (Michael W. Deem and Ramdas Pophale) SiO2 
 PCOD8132632
Probable space group: C 2/C
;
_chemical_formula_sum "Si O2"
_cell_formula_units_Z 48
_cell_length_a 11.756944
_cell_length_b 19.216766
_cell_length_c 13.386239
_cell_angle_alpha 90.000000
_cell_angle_beta 136.626663
_cell_angle_gamma 90.000000
_cell_volume 2076.976410
_symmetry_space_group_name_H-M "C 2/C"
_symmetry_group_IT_number 15
_symmetry_cell_setting 'monoclinic'
loop_
_space_group_symop_operation_xyz
x,y,z
-x,y,1/2-z
-x,-y,-z
x,-y,1/2+z
1/2+x,1/2+y,z
1/2-x,1/2+y,1/2-z
1/2-x,1/2-y,-z
1/2+x,1/2-y,1/2+z
loop_
_atom_site_type_symbol
_atom_site_label
_atom_site_fract_x
_atom_site_fract_y
_atom_site_fract_z
Si Si1 0.534497 0.493487 0.378470
Si Si2 0.101378 0.675587 0.212300
Si Si3 0.224368 0.473432 0.804365
Si Si4 0.500000 0.750095 0.250000
Si Si5 0.442503 0.749166 0.427803
Si Si6 0.334170 0.354726 0.526842
Si Si7 0.500000 0.082121 0.750000
O O1 0.500000 0.457029 0.250000
O O2 0.688998 0.456609 0.532725
O O3 0.364028 0.488171 0.329339
O O4 0.584619 0.573049 0.392471
O O5 0.156334 0.597603 0.215608
O O6 0.256319 0.725113 0.330196
O O7 0.990896 0.700999 0.049301
O O8 0.000000 0.672712 0.250000
O O9 0.077312 0.530347 0.716881
O O10 0.549915 0.788522 0.176955
O O11 0.657714 0.698191 0.373157
O O12 0.562664 0.680636 0.498619
O O13 0.139838 0.363767 0.377962
#
# Coordination Sequence:
#
# PCOD8132632 Si02
#       7
#     8   8   8   4   8   8   4
#     4  10  18  38  69  99 136 182 221 285 356 414
#     4  12  24  46  68  98 142 191 240 277 335 426
#     4  10  21  38  68 102 141 177 228 281 347 418
#     4   8  18  42  67 102 132 175 224 288 356 412
#     4  10  23  44  70  96 136 189 225 293 349 399
#     4   9  18  39  67 100 139 168 228 288 360 410
#     4  10  20  38  69 110 138 175 220 302 350 412
#
# _framework density 23.110517000000002
#
# number of rings (size 3 to 8) (size 9 to 14) (size 15 to 20)
#    1.000    1.000    3.333    0.500    0.000    0.667 
#    3.000    7.500    0.000    0.000    0.000    0.000 
#    0.000    0.000    0.000    0.000    0.000    0.000 
#
# Total GULP energy -297349.868383 kJ/mol
# GULP energy per Si atom -12389.577849 kJ/mol
# Density = 2.305792 g / cm^3
# Si number density = 23.110517 Si / 1000 Ang^3
#
#
#
# Elastic Constant Matrix: (Units=GPa)
#
#
# Indices 1 2 3 4 5 6 
#
# 1 82.9822 8.2826 36.5949 0.0000 4.7691 0.0000
# 2 8.2826 66.2376 27.3746 0.0000 -1.6765 0.0000
# 3 36.5949 27.3746 108.3564 0.0000 -2.3695 0.0000
# 4 0.0000 0.0000 0.0000 38.5172 0.0000 6.1009
# 5 4.7691 -1.6765 -2.3695 0.0000 46.0423 0.0000
# 6 0.0000 0.0000 0.0000 6.1009 0.0000 22.0689
#
#
#
# Elastic Compliance Matrix: (Units=1/GPa)
#
#
# Indices 1 2 3 4 5 6 
#
# 1 0.014299 0.000201 -0.004917 0.000000 -0.001727 0.000000
# 2 0.000201 0.016867 -0.004321 0.000000 0.000371 0.000000
# 3 -0.004917 -0.004321 0.012002 0.000000 0.000970 0.000000
# 4 0.000000 0.000000 0.000000 0.027151 0.000000 -0.007506
# 5 -0.001727 0.000371 0.000970 0.000000 0.021961 0.000000
# 6 0.000000 0.000000 0.000000 -0.007506 0.000000 0.047388
#
#
# Mechanical properties :
#
#
# Convention : Reuss Voigt Hill
#
# Bulk Modulus (GPa) = 39.85222 44.67560 42.26391
# Shear Modulus (GPa) = 30.10086 33.68061 31.89074
#
# Velocity S-wave (km/s) = 3.61290 3.82170 3.71876
# Velocity P-wave (km/s) = 5.88945 6.23274 6.06353
#
# Compressibility (1/GPa) = 0.02509271
#
# Stress axis : x y z
#
# Youngs Moduli (GPa) = 69.93703 59.28670 83.31688
#
# Poissons Ratio (x) = -0.01189 0.40971
# Poissons Ratio (y) = -0.01403 0.36000
# Poissons Ratio (z) = 0.34391 0.25617
#
# Static dielectric constant tensor:
#      x y z
#    x 4.126950 0.000000 0.142670 
#    y 0.000000 4.046770 0.000000 
#    z 0.142670 0.000000 4.457890 
# 
# 
# High freq. dielectric constant tensor:
#      x y z
#    x 1.908110 0.000000 0.017270 
#    y 0.000000 1.904010 0.000000 
#    z 0.017270 0.000000 1.923950 
# 
# From -- ./inp_files/147499.got.cif
#   From: 2010.06.25/outbox.cif.g09.slc.cpg/sg15_74_cif.got.tgz:147499.got - 2010.06.28 07:06:18.
