data_PCOD8132777
_publ_section_title
;
Structure prediction by ZEFSAII (Michael W. Deem and Ramdas Pophale) SiO2 
 PCOD8132777
Probable space group: C 2/C
;
_chemical_formula_sum "Si O2"
_cell_formula_units_Z 48
_cell_length_a 27.143050
_cell_length_b 9.731872
_cell_length_c 16.928787
_cell_angle_alpha 90.000000
_cell_angle_beta 149.519387
_cell_angle_gamma 90.000000
_cell_volume 2268.298368
_symmetry_space_group_name_H-M "C 2/C"
_symmetry_group_IT_number 15
_symmetry_cell_setting 'monoclinic'
loop_
_space_group_symop_operation_xyz
x,y,z
-x,y,1/2-z
-x,-y,-z
x,-y,1/2+z
1/2+x,1/2+y,z
1/2-x,1/2+y,1/2-z
1/2-x,1/2-y,-z
1/2+x,1/2-y,1/2+z
loop_
_atom_site_type_symbol
_atom_site_label
_atom_site_fract_x
_atom_site_fract_y
_atom_site_fract_z
Si Si1 0.671106 0.708860 0.662538
Si Si2 0.026562 0.795717 0.696679
Si Si3 0.793725 0.464320 0.875983
Si Si4 0.274935 0.406447 0.548789
Si Si5 0.809657 0.653114 0.141661
Si Si6 0.988754 0.484381 0.822439
O O1 0.560135 0.685454 0.485018
O O2 0.719473 0.560311 0.727322
O O3 0.687097 0.779259 0.768861
O O4 0.724720 0.806016 0.672899
O O5 0.062050 0.635741 0.744527
O O6 0.000000 0.833545 0.750000
O O7 0.108293 0.903026 0.780228
O O8 0.779103 0.473370 0.950047
O O9 0.901230 0.505397 0.992899
O O10 0.250000 0.250000 0.500000
O O11 0.245155 0.505048 0.434517
O O12 0.922980 0.627430 0.276149
O O13 0.750000 0.750000 0.000000
O O14 0.000000 0.429515 0.750000
#
# Coordination Sequence:
#
# PCOD8132777 Si02
#       6
#     8   8   8   8   8   8
#     4  11  26  44  66 102 138 180 233 284 348 407
#     4  10  23  42  68  99 134 183 233 281 337 419
#     4  11  25  43  69  97 137 179 228 283 336 419
#     4  12  22  43  73  97 134 183 227 279 346 411
#     4  12  24  43  67 102 138 173 228 292 341 405
#     4  10  18  41  67  92 130 180 226 265 341 411
#
# _framework density 21.161235999999999
#
# number of rings (size 3 to 8) (size 9 to 14) (size 15 to 20)
#    0.000    1.000    5.000    2.000    4.667    4.667 
#    3.000    0.833    0.000    0.000    0.000    0.000 
#    0.000    0.000    0.000    0.000    0.000    0.000 
#
# Total GULP energy -297510.246058 kJ/mol
# GULP energy per Si atom -12396.260252 kJ/mol
# Density = 2.111307 g / cm^3
# Si number density = 21.161236 Si / 1000 Ang^3
#
#
#
# Elastic Constant Matrix: (Units=GPa)
#
#
# Indices 1 2 3 4 5 6 
#
# 1 66.2472 10.8636 35.6041 0.0000 15.4804 0.0000
# 2 10.8636 75.5494 43.9777 0.0000 17.9823 0.0000
# 3 35.6041 43.9777 125.9010 0.0000 1.5699 0.0000
# 4 0.0000 0.0000 0.0000 47.3117 0.0000 1.4434
# 5 15.4804 17.9823 1.5699 0.0000 34.4868 0.0000
# 6 0.0000 0.0000 0.0000 1.4434 0.0000 24.9069
#
#
#
# Elastic Compliance Matrix: (Units=1/GPa)
#
#
# Indices 1 2 3 4 5 6 
#
# 1 0.020843 0.003724 -0.007058 0.000000 -0.010976 0.000000
# 2 0.003724 0.020132 -0.007938 0.000000 -0.011808 0.000000
# 3 -0.007058 -0.007938 0.012628 0.000000 0.006733 0.000000
# 4 0.000000 0.000000 0.000000 0.021174 0.000000 -0.001227
# 5 -0.010976 -0.011808 0.006733 0.000000 0.039774 0.000000
# 6 0.000000 0.000000 0.000000 -0.001227 0.000000 0.040221
#
#
# Mechanical properties :
#
#
# Convention : Reuss Voigt Hill
#
# Bulk Modulus (GPa) = 32.19783 49.84314 41.02048
# Shear Modulus (GPa) = 26.64280 33.15790 29.90035
#
# Velocity S-wave (km/s) = 3.55214 3.96272 3.76304
# Velocity P-wave (km/s) = 5.66323 6.67403 6.18930
#
# Compressibility (1/GPa) = 0.03105800
#
# Stress axis : x y z
#
# Youngs Moduli (GPa) = 47.97887 49.67160 79.19137
#
# Poissons Ratio (x) = -0.18498 0.55894
# Poissons Ratio (y) = -0.17868 0.62864
# Poissons Ratio (z) = 0.33864 0.39430
#
# Static dielectric constant tensor:
#      x y z
#    x 3.856630 0.000000 0.182820 
#    y 0.000000 3.955170 0.000000 
#    z 0.182820 0.000000 4.170820 
# 
# 
# High freq. dielectric constant tensor:
#      x y z
#    x 1.817200 0.000000 0.006140 
#    y 0.000000 1.821940 0.000000 
#    z 0.006140 0.000000 1.843940 
# 
# From -- ./inp_files/224680.got.cif
#   From: 2010.06.25/outbox.cif.g09.slc.cpg/sg15_113_cif.got.tgz:224680.got - 2010.06.28 07:06:18.
