data_PCOD8132866
_publ_section_title
;
Structure prediction by ZEFSAII (Michael W. Deem and Ramdas Pophale) SiO2 
 PCOD8132866
Probable space group: C 2/C
;
_chemical_formula_sum "Si O2"
_cell_formula_units_Z 56
_cell_length_a 19.870790
_cell_length_b 25.304192
_cell_length_c 16.413164
_cell_angle_alpha 90.000000
_cell_angle_beta 159.210982
_cell_angle_gamma 90.000000
_cell_volume 2929.138482
_symmetry_space_group_name_H-M "C 2/C"
_symmetry_group_IT_number 15
_symmetry_cell_setting 'monoclinic'
loop_
_space_group_symop_operation_xyz
x,y,z
-x,y,1/2-z
-x,-y,-z
x,-y,1/2+z
1/2+x,1/2+y,z
1/2-x,1/2+y,1/2-z
1/2-x,1/2-y,-z
1/2+x,1/2-y,1/2+z
loop_
_atom_site_type_symbol
_atom_site_label
_atom_site_fract_x
_atom_site_fract_y
_atom_site_fract_z
Si Si1 0.793768 0.517078 0.109994
Si Si2 0.220541 0.910319 0.806754
Si Si3 0.183492 0.683060 0.501803
Si Si4 0.987539 0.561710 0.468297
Si Si5 0.500000 0.284140 0.250000
Si Si6 0.500000 0.929180 0.250000
Si Si7 0.573283 0.519218 0.704194
Si Si8 0.650781 0.387410 0.175818
O O1 0.916221 0.563262 0.292750
O O2 0.915891 0.464337 0.229460
O O3 0.719120 0.538197 0.939357
O O4 0.624905 0.501528 0.980714
O O5 0.348491 0.906659 0.870620
O O6 0.036500 0.871281 0.589163
O O7 0.154029 0.970830 0.743763
O O8 0.339684 0.893698 0.023196
O O9 0.368283 0.677465 0.653760
O O10 0.242888 0.659443 0.656073
O O11 0.000000 0.655348 0.250000
O O12 0.132943 0.745566 0.456659
O O13 0.000000 0.500000 0.500000
O O14 0.194017 0.587646 0.708388
O O15 0.553887 0.569659 0.625375
#
# Coordination Sequence:
#
# PCOD8132866 Si02
#       8
#     8   8   8   8   4   4   8   8
#     4  10  19  30  45  65  86 138 193 227 266 314
#     4  11  22  36  46  70 101 148 185 234 269 305
#     4   9  20  37  59  84 108 145 174 213 283 349
#     4  12  20  33  49  64 106 144 181 237 281 295
#     4   8  18  42  65  78 116 146 162 220 301 352
#     4  10  20  34  51  60  86 144 202 216 269 324
#     4  10  20  32  47  65 104 144 185 231 271 298
#     4  12  23  31  52  79 106 134 188 229 261 328
#
# _framework density 19.118248999999999
#
# number of rings (size 3 to 8) (size 9 to 14) (size 15 to 20)
#    0.429    1.143    4.286    2.143    2.000    2.286 
#    0.000    0.000    0.000    0.000    0.000    0.000 
#    0.000    1.143    0.000    0.143    0.000    0.000 
#
# Total GULP energy -346941.915129 kJ/mol
# GULP energy per Si atom -12390.782683 kJ/mol
# Density = 1.907474 g / cm^3
# Si number density = 19.118249 Si / 1000 Ang^3
#
#
#
# Elastic Constant Matrix: (Units=GPa)
#
#
# Indices 1 2 3 4 5 6 
#
# 1 81.4450 11.3271 46.0390 0.0000 14.7928 0.0000
# 2 11.3271 22.3193 15.4642 0.0000 -1.4813 0.0000
# 3 46.0390 15.4642 151.0913 0.0002 -4.2170 0.0000
# 4 0.0000 0.0000 0.0002 11.2765 0.0000 -4.9918
# 5 14.7928 -1.4813 -4.2170 0.0000 44.7871 0.0000
# 6 0.0000 0.0000 0.0000 -4.9918 0.0000 17.4061
#
#
#
# Elastic Compliance Matrix: (Units=1/GPa)
#
#
# Indices 1 2 3 4 5 6 
#
# 1 0.016872 -0.005696 -0.004731 0.000000 -0.006207 0.000000
# 2 -0.005696 0.050205 -0.003313 0.000000 0.003230 0.000000
# 3 -0.004731 -0.003313 0.008462 0.000000 0.002250 0.000000
# 4 0.000000 0.000000 0.000000 0.101575 0.000000 0.029130
# 5 -0.006207 0.003230 0.002250 0.000000 0.024697 0.000000
# 6 0.000000 0.000000 0.000000 0.029130 0.000000 0.065806
#
#
# Mechanical properties :
#
#
# Convention : Reuss Voigt Hill
#
# Bulk Modulus (GPa) = 20.80804 44.50180 32.65492
# Shear Modulus (GPa) = 16.07116 26.82896 21.45006
#
# Velocity S-wave (km/s) = 2.90249 3.75015 3.35321
# Velocity P-wave (km/s) = 4.70532 6.48685 5.66654
#
# Compressibility (1/GPa) = 0.04805835
#
# Stress axis : x y z
#
# Youngs Moduli (GPa) = 59.26871 19.91844 118.17482
#
# Poissons Ratio (x) = 0.11346 0.55913
# Poissons Ratio (y) = 0.33762 0.39146
# Poissons Ratio (z) = 0.28042 0.06598
#
# Static dielectric constant tensor:
#      x y z
#    x 3.607140 0.000000 -0.188150 
#    y 0.000000 2.740060 0.000000 
#    z -0.188150 0.000000 4.395190 
# 
# 
# High freq. dielectric constant tensor:
#      x y z
#    x 1.745260 0.000000 0.009240 
#    y 0.000000 1.645810 0.000000 
#    z 0.009240 0.000000 1.779140 
# 
# From -- ./inp_files/217105.got.cif
#   From: 2010.06.25/outbox.cif.g09.slc.cpg/sg15_109_cif.got.tgz:217105.got - 2010.06.28 07:06:18.
