data_PCOD8132242
_publ_section_title
;
Structure prediction by ZEFSAII (Michael W. Deem and Ramdas Pophale) SiO2 
 PCOD8132242
Probable space group: C 2/C
;
_chemical_formula_sum "Si O2"
_cell_formula_units_Z 60
_cell_length_a 8.542916
_cell_length_b 23.431399
_cell_length_c 15.416105
_cell_angle_alpha 90.000000
_cell_angle_beta 99.590337
_cell_angle_gamma 90.000000
_cell_volume 3042.752070
_symmetry_space_group_name_H-M "C 2/C"
_symmetry_group_IT_number 15
_symmetry_cell_setting 'monoclinic'
loop_
_space_group_symop_operation_xyz
x,y,z
-x,y,1/2-z
-x,-y,-z
x,-y,1/2+z
1/2+x,1/2+y,z
1/2-x,1/2+y,1/2-z
1/2-x,1/2-y,-z
1/2+x,1/2-y,1/2+z
loop_
_atom_site_type_symbol
_atom_site_label
_atom_site_fract_x
_atom_site_fract_y
_atom_site_fract_z
Si Si1 0.500000 0.718214 0.750000
Si Si2 0.840357 0.159919 0.484441
Si Si3 0.645649 0.511870 0.709750
Si Si4 0.801376 0.543246 0.061369
Si Si5 0.379088 0.368731 0.376660
Si Si6 0.981951 0.634920 0.651490
Si Si7 0.300225 0.764945 0.375823
Si Si8 0.620859 0.020361 0.613696
O O1 0.573407 0.683135 0.678789
O O2 0.350214 0.753285 0.698293
O O3 0.719744 0.111441 0.440126
O O4 0.755660 0.195280 0.551335
O O5 0.878958 0.205318 0.411921
O O6 0.003498 0.129794 0.529953
O O7 0.500000 0.483902 0.750000
O O8 0.681835 0.480297 0.623061
O O9 0.599857 0.575893 0.680483
O O10 0.793259 0.510045 0.787996
O O11 0.982051 0.526569 0.100115
O O12 0.766360 0.515660 0.961968
O O13 0.200751 0.359656 0.394445
O O14 0.000000 0.610737 0.750000
O O15 0.067650 0.696467 0.659020
O O16 0.058149 0.585666 0.599130
#
# Coordination Sequence:
#
# PCOD8132242 Si02
#       8
#     4   8   8   8   8   8   8   8
#     4  10  18  36  60  92 106 162 210 262 304 372
#     4  10  23  41  58  88 126 168 204 261 316 391
#     4  12  23  38  62  93 130 166 209 268 317 387
#     4  11  23  41  63  91 129 167 211 256 323 391
#     4  11  21  34  65  92 120 157 214 263 317 363
#     4  12  19  36  64  95 121 157 210 278 311 365
#     4  10  21  39  62  86 123 157 217 257 320 373
#     4  11  22  40  63  95 125 165 217 262 325 379
#
# _framework density 19.718990999999999
#
# number of rings (size 3 to 8) (size 9 to 14) (size 15 to 20)
#    0.000    1.067    6.000    1.200    0.000    2.667 
#    2.400    0.667    0.000    0.000    0.000    0.000 
#    0.000    0.000    0.000    0.000    0.000    0.000 
#
# Total GULP energy -371834.188581 kJ/mol
# GULP energy per Si atom -12394.472953 kJ/mol
# Density = 1.967411 g / cm^3
# Si number density = 19.718991 Si / 1000 Ang^3
#
#
#
# Elastic Constant Matrix: (Units=GPa)
#
#
# Indices 1 2 3 4 5 6 
#
# 1 108.6331 38.5134 45.8063 0.0000 -0.7112 0.0000
# 2 38.5134 77.1298 51.1214 0.0000 15.7138 0.0000
# 3 45.8063 51.1214 107.9550 0.0000 6.4472 0.0000
# 4 0.0000 0.0000 0.0000 28.7927 0.0000 4.3956
# 5 -0.7112 15.7138 6.4472 0.0000 37.7521 0.0000
# 6 0.0000 0.0000 0.0000 4.3956 0.0000 21.8463
#
#
#
# Elastic Compliance Matrix: (Units=1/GPa)
#
#
# Indices 1 2 3 4 5 6 
#
# 1 0.012162 -0.004499 -0.003188 0.000000 0.002646 0.000000
# 2 -0.004499 0.022227 -0.008142 0.000000 -0.007946 0.000000
# 3 -0.003188 -0.008142 0.014420 0.000000 0.000866 0.000000
# 4 0.000000 0.000000 0.000000 0.035832 0.000000 -0.007209
# 5 0.002646 -0.007946 0.000866 0.000000 0.029698 0.000000
# 6 0.000000 0.000000 0.000000 -0.007209 0.000000 0.047225
#
#
# Mechanical properties :
#
#
# Convention : Reuss Voigt Hill
#
# Bulk Modulus (GPa) = 58.30664 62.73336 60.52000
# Shear Modulus (GPa) = 25.13355 28.23002 26.68178
#
# Velocity S-wave (km/s) = 3.57401 3.78777 3.68244
# Velocity P-wave (km/s) = 6.83113 7.14230 6.98845
#
# Compressibility (1/GPa) = 0.01715070
#
# Stress axis : x y z
#
# Youngs Moduli (GPa) = 82.22429 44.99054 69.34994
#
# Poissons Ratio (x) = 0.20241 0.22109
# Poissons Ratio (y) = 0.36992 0.56464
# Poissons Ratio (z) = 0.26213 0.36631
#
# Static dielectric constant tensor:
#      x y z
#    x 3.685260 0.000000 0.075250 
#    y 0.000000 3.499090 0.000000 
#    z 0.075250 0.000000 3.835900 
# 
# 
# High freq. dielectric constant tensor:
#      x y z
#    x 1.769710 0.000000 0.002270 
#    y 0.000000 1.742390 0.000000 
#    z 0.002270 0.000000 1.772590 
# 
# From -- ./inp_files/137882.got.cif
#   From: 2010.06.25/outbox.cif.g09.slc.cpg/sg15_69_cif.got.tgz:137882.got - 2010.06.28 07:06:18.
