data_PCOD8132358
_publ_section_title
;
Structure prediction by ZEFSAII (Michael W. Deem and Ramdas Pophale) SiO2 
 PCOD8132358
Probable space group: C 2/C
;
_chemical_formula_sum "Si O2"
_cell_formula_units_Z 40
_cell_length_a 9.139343
_cell_length_b 16.239147
_cell_length_c 20.941469
_cell_angle_alpha 90.000000
_cell_angle_beta 148.486102
_cell_angle_gamma 90.000000
_cell_volume 1624.584463
_symmetry_space_group_name_H-M "C 2/C"
_symmetry_group_IT_number 15
_symmetry_cell_setting 'monoclinic'
loop_
_space_group_symop_operation_xyz
x,y,z
-x,y,1/2-z
-x,-y,-z
x,-y,1/2+z
1/2+x,1/2+y,z
1/2-x,1/2+y,1/2-z
1/2-x,1/2-y,-z
1/2+x,1/2-y,1/2+z
loop_
_atom_site_type_symbol
_atom_site_label
_atom_site_fract_x
_atom_site_fract_y
_atom_site_fract_z
Si Si1 0.213037 0.059511 0.958117
Si Si2 0.293114 0.402787 0.614778
Si Si3 0.814739 0.637204 0.126657
Si Si4 0.222297 0.775373 0.071507
Si Si5 0.346918 0.709906 0.805087
O O1 0.027006 0.129586 0.854999
O O2 0.084655 0.970650 0.889794
O O3 0.522712 0.061227 0.047389
O O4 0.225293 0.071373 0.039398
O O5 0.500000 0.380734 0.750000
O O6 0.226504 0.319778 0.549935
O O7 0.000000 0.591608 0.250000
O O8 0.013752 0.710865 0.175371
O O9 0.532641 0.673915 0.054898
O O10 0.145672 0.773619 0.117285
O O11 0.526871 0.810930 0.166158
#
# Coordination Sequence:
#
# PCOD8132358 Si02
#       5
#     8   8   8   8   8
#     4  10  21  37  59  98 142 169 218 288 335 391
#     4  11  19  36  67 100 133 167 221 286 345 383
#     4  11  21  36  61  97 144 181 223 270 336 404
#     4  10  18  36  67  98 129 174 227 284 329 397
#     4  10  18  37  62  97 135 167 229 284 334 385
#
# _framework density 24.621680999999999
#
# number of rings (size 3 to 8) (size 9 to 14) (size 15 to 20)
#    0.000    1.600    6.000    1.200    0.000    1.600 
#    0.000    0.000    0.000    4.800   31.200    0.000 
#    6.000    0.000    0.000    0.000    0.000    0.000 
#
# Total GULP energy -247882.394695 kJ/mol
# GULP energy per Si atom -12394.119735 kJ/mol
# Density = 2.456564 g / cm^3
# Si number density = 24.621681 Si / 1000 Ang^3
#
#
#
# Elastic Constant Matrix: (Units=GPa)
#
#
# Indices 1 2 3 4 5 6 
#
# 1 54.0088 10.8595 26.2480 -0.0042 0.9229 0.0004
# 2 10.8595 99.0100 9.8024 -0.0026 -13.5498 -0.0033
# 3 26.2480 9.8024 110.3467 0.0054 -2.2248 -0.0082
# 4 -0.0042 -0.0026 0.0054 12.7023 -0.0034 21.7852
# 5 0.9229 -13.5498 -2.2248 -0.0034 36.9236 0.0010
# 6 0.0004 -0.0033 -0.0082 21.7852 0.0010 26.8865
#
#
#
# Elastic Compliance Matrix: (Units=1/GPa)
#
#
# Indices 1 2 3 4 5 6 
#
# 1 0.021354 -0.002072 -0.004927 -0.000030 -0.001591 0.000022
# 2 -0.002072 0.010919 -0.000396 -0.000002 0.004035 0.000003
# 3 -0.004927 -0.000396 0.010282 0.000029 0.000597 -0.000020
# 4 -0.000030 -0.000002 0.000029 -0.202038 -0.000021 0.163705
# 5 -0.001591 0.004035 0.000597 -0.000021 0.028639 0.000017
# 6 0.000022 0.000003 -0.000020 0.163705 0.000017 -0.095451
#
#
# Mechanical properties :
#
#
# Convention : Reuss Voigt Hill
#
# Bulk Modulus (GPa) = 36.01806 39.68727 37.85267
# Shear Modulus (GPa) = -24.72185 29.73284 2.50549
#
# Velocity S-wave (km/s) = -3.17214 3.47881 1.00985
# Velocity P-wave (km/s) = 1.11522 5.68242 4.09473
#
# Compressibility (1/GPa) = 0.02776385
#
# Stress axis : x y z
#
# Youngs Moduli (GPa) = 46.82951 91.58688 97.26080
#
# Poissons Ratio (x) = 0.18977 0.47925
# Poissons Ratio (y) = 0.09703 0.03849
# Poissons Ratio (z) = 0.23075 0.03624
#
# Static dielectric constant tensor:
#      x y z
#    x 4.423320 0.000000 0.066960 
#    y 0.000000 4.491190 -0.000010 
#    z 0.066960 -0.000010 5.130740 
# 
# 
# High freq. dielectric constant tensor:
#      x y z
#    x 1.979060 0.000000 0.011040 
#    y 0.000000 1.956820 0.000000 
#    z 0.011040 0.000000 1.991850 
# 
# From -- ./inp_files/197584.got.cif
#   From: 2010.06.25/outbox.cif.g09.slc.cpg/sg15_99_cif.got.tgz:197584.got - 2010.06.28 07:06:18.
