data_PCOD8132021
_publ_section_title
;
Structure prediction by ZEFSAII (Michael W. Deem and Ramdas Pophale) SiO2 
 PCOD8132021
Probable space group: C 2/C
;
_chemical_formula_sum "Si O2"
_cell_formula_units_Z 56
_cell_length_a 17.006945
_cell_length_b 15.161716
_cell_length_c 14.133609
_cell_angle_alpha 90.000000
_cell_angle_beta 51.526605
_cell_angle_gamma 90.000000
_cell_volume 2853.201479
_symmetry_space_group_name_H-M "C 2/C"
_symmetry_group_IT_number 15
_symmetry_cell_setting 'monoclinic'
loop_
_space_group_symop_operation_xyz
x,y,z
-x,y,1/2-z
-x,-y,-z
x,-y,1/2+z
1/2+x,1/2+y,z
1/2-x,1/2+y,1/2-z
1/2-x,1/2-y,-z
1/2+x,1/2-y,1/2+z
loop_
_atom_site_type_symbol
_atom_site_label
_atom_site_fract_x
_atom_site_fract_y
_atom_site_fract_z
Si Si1 0.804978 0.761817 0.782207
Si Si2 0.117731 0.409005 0.170020
Si Si3 0.741732 0.497569 0.805951
Si Si4 0.891280 0.165921 0.040079
Si Si5 0.242704 0.058106 0.102959
Si Si6 0.385058 0.608751 0.843004
Si Si7 0.374874 0.667490 0.645470
O O1 0.858151 0.685243 0.801471
O O2 0.850189 0.758735 0.641012
O O3 0.823193 0.854109 0.823441
O O4 0.684407 0.750092 0.856444
O O5 0.162709 0.490930 0.196851
O O6 0.000000 0.423343 0.250000
O O7 0.164546 0.412999 0.030732
O O8 0.662397 0.423588 0.890947
O O9 0.785605 0.482009 0.668279
O O10 0.676419 0.584623 0.864715
O O11 0.868227 0.175107 0.944944
O O12 0.009846 0.166070 0.969465
O O13 0.176180 0.982975 0.101062
O O14 0.500000 0.577785 0.750000
O O15 0.356650 0.665395 0.772178
#
# Coordination Sequence:
#
# PCOD8132021 Si02
#       7
#     8   8   8   8   8   8   8
#     4  10  23  36  53  86 118 156 185 229 292 344
#     4  11  23  38  57  83 120 154 190 230 286 341
#     4   9  19  37  58  85 110 151 196 238 281 328
#     4  10  18  35  60  80 114 149 191 237 283 336
#     4  10  20  38  59  82 119 145 194 243 276 337
#     4   9  18  34  61  89 106 147 195 244 282 326
#     4   9  19  34  56  84 118 147 189 236 287 332
#
# _framework density 19.627074
#
# number of rings (size 3 to 8) (size 9 to 14) (size 15 to 20)
#    0.000    2.286    1.429    0.857    2.000    2.857 
#    0.000    0.000    0.000    3.429    0.000    0.000 
#    0.000    0.000    0.000    0.000    0.000    0.000 
#
# Total GULP energy -346965.165946 kJ/mol
# GULP energy per Si atom -12391.613070 kJ/mol
# Density = 1.958240 g / cm^3
# Si number density = 19.627074 Si / 1000 Ang^3
#
#
#
# Elastic Constant Matrix: (Units=GPa)
#
#
# Indices 1 2 3 4 5 6 
#
# 1 105.7457 17.6593 44.9379 0.0000 -14.0802 0.0000
# 2 17.6593 44.1723 22.6193 0.0000 -2.9624 0.0000
# 3 44.9379 22.6193 114.6160 0.0000 -3.8046 0.0000
# 4 0.0000 0.0000 0.0000 20.8555 0.0000 -2.1548
# 5 -14.0802 -2.9624 -3.8046 0.0000 24.8860 0.0000
# 6 0.0000 0.0000 0.0000 -2.1548 0.0000 13.9283
#
#
#
# Elastic Compliance Matrix: (Units=1/GPa)
#
#
# Indices 1 2 3 4 5 6 
#
# 1 0.012463 -0.002418 -0.004206 0.000000 0.006120 0.000000
# 2 -0.002418 0.025779 -0.004104 0.000000 0.001073 0.000000
# 3 -0.004206 -0.004104 0.011145 0.000000 -0.001164 0.000000
# 4 0.000000 0.000000 0.000000 0.048728 0.000000 0.007539
# 5 0.006120 0.001073 -0.001164 0.000000 0.043596 0.000000
# 6 0.000000 0.000000 0.000000 0.007539 0.000000 0.072962
#
#
# Mechanical properties :
#
#
# Convention : Reuss Voigt Hill
#
# Bulk Modulus (GPa) = 35.80261 48.32968 42.06614
# Shear Modulus (GPa) = 20.37171 23.88848 22.13009
#
# Velocity S-wave (km/s) = 3.22520 3.49251 3.36151
# Velocity P-wave (km/s) = 5.67012 6.39851 6.04530
#
# Compressibility (1/GPa) = 0.02793092
#
# Stress axis : x y z
#
# Youngs Moduli (GPa) = 80.23878 38.79175 89.72614
#
# Poissons Ratio (x) = 0.09381 0.37738
# Poissons Ratio (y) = 0.19403 0.36821
# Poissons Ratio (z) = 0.33748 0.15919
#
# Static dielectric constant tensor:
#      x y z
#    x 3.734640 0.000000 0.280440 
#    y 0.000000 3.471750 0.000000 
#    z 0.280440 0.000000 3.829340 
# 
# 
# High freq. dielectric constant tensor:
#      x y z
#    x 1.762420 0.000000 0.015790 
#    y 0.000000 1.746850 0.000000 
#    z 0.015790 0.000000 1.774100 
# 
# From -- ./inp_files/105800.got.cif
#   From: 2010.06.25/outbox.cif.g09.slc.cpg/sg15_53_cif.got.tgz:105800.got - 2010.06.28 07:06:18.
