data_PCOD8132324
_publ_section_title
;
Structure prediction by ZEFSAII (Michael W. Deem and Ramdas Pophale) SiO2 
 PCOD8132324
Probable space group: C 2/C
;
_chemical_formula_sum "Si O2"
_cell_formula_units_Z 60
_cell_length_a 20.413248
_cell_length_b 9.074229
_cell_length_c 20.072221
_cell_angle_alpha 90.000000
_cell_angle_beta 49.931660
_cell_angle_gamma 90.000000
_cell_volume 2845.352362
_symmetry_space_group_name_H-M "C 2/C"
_symmetry_group_IT_number 15
_symmetry_cell_setting 'monoclinic'
loop_
_space_group_symop_operation_xyz
x,y,z
-x,y,1/2-z
-x,-y,-z
x,-y,1/2+z
1/2+x,1/2+y,z
1/2-x,1/2+y,1/2-z
1/2-x,1/2-y,-z
1/2+x,1/2-y,1/2+z
loop_
_atom_site_type_symbol
_atom_site_label
_atom_site_fract_x
_atom_site_fract_y
_atom_site_fract_z
Si Si1 0.559278 0.504822 0.651911
Si Si2 0.471303 0.769193 0.149415
Si Si3 0.964441 0.687942 0.381759
Si Si4 0.000000 0.478171 0.250000
Si Si5 0.397815 0.039815 0.016846
Si Si6 0.209667 0.331972 0.226878
Si Si7 0.227007 0.833038 0.581574
Si Si8 0.646687 0.133084 0.310959
O O1 0.500000 0.561521 0.750000
O O2 0.507283 0.390503 0.641330
O O3 0.577281 0.650615 0.596721
O O4 0.643962 0.432775 0.625983
O O5 0.374981 0.757876 0.183564
O O6 0.454535 0.869800 0.226715
O O7 0.537309 0.839794 0.055057
O O8 0.927078 0.622391 0.474855
O O9 0.938205 0.583917 0.335404
O O10 0.068974 0.690730 0.315657
O O11 0.302607 0.058458 0.051839
O O12 0.397803 0.054297 0.096244
O O13 0.213815 0.289420 0.146636
O O14 0.293800 0.271605 0.209489
O O15 0.204599 0.509427 0.236480
O O16 0.250000 0.750000 0.500000
#
# Coordination Sequence:
#
# PCOD8132324 Si02
#       8
#     8   8   8   4   8   8   8   8
#     4  12  23  39  65 101 134 161 217 282 326 392
#     4  11  20  39  69  90 124 177 217 256 340 390
#     4  11  24  39  66  96 132 168 215 276 336 387
#     4  10  18  36  64  92 114 176 212 250 328 414
#     4  10  23  43  66  91 130 180 217 269 328 409
#     4  11  24  41  68  93 130 180 215 280 318 400
#     4  11  23  41  66  97 130 170 227 268 336 400
#     4  11  25  45  65  96 135 174 231 266 330 402
#
# _framework density 21.087019999999999
#
# number of rings (size 3 to 8) (size 9 to 14) (size 15 to 20)
#    0.000    1.067    6.667    0.400    3.733    0.533 
#    2.400    0.667    0.000    0.000    0.000    0.000 
#    0.000    0.000    0.000    0.000    0.000    0.000 
#
# Total GULP energy -371891.742941 kJ/mol
# GULP energy per Si atom -12396.391431 kJ/mol
# Density = 2.103902 g / cm^3
# Si number density = 21.087020 Si / 1000 Ang^3
#
#
#
# Elastic Constant Matrix: (Units=GPa)
#
#
# Indices 1 2 3 4 5 6 
#
# 1 67.8897 19.7205 23.4251 -0.0001 -4.3349 0.0001
# 2 19.7205 103.6228 22.3556 -0.0009 12.5038 0.0009
# 3 23.4251 22.3556 77.7526 0.0000 -3.3648 0.0000
# 4 -0.0001 -0.0009 0.0000 24.1985 0.0002 -1.0269
# 5 -4.3349 12.5038 -3.3648 0.0002 25.8658 -0.0001
# 6 0.0001 0.0009 0.0000 -1.0269 -0.0001 14.6263
#
#
#
# Elastic Compliance Matrix: (Units=1/GPa)
#
#
# Indices 1 2 3 4 5 6 
#
# 1 0.017242 -0.002817 -0.004225 0.000000 0.003702 0.000000
# 2 -0.002817 0.011554 -0.002751 0.000000 -0.006415 -0.000001
# 3 -0.004225 -0.002751 0.015037 0.000000 0.002578 0.000000
# 4 0.000000 0.000000 0.000000 0.041448 0.000000 0.002910
# 5 0.003702 -0.006415 0.002578 0.000000 0.042718 0.000001
# 6 0.000000 -0.000001 0.000000 0.002910 0.000001 0.068574
#
#
# Mechanical properties :
#
#
# Convention : Reuss Voigt Hill
#
# Bulk Modulus (GPa) = 41.24029 42.25192 41.74611
# Shear Modulus (GPa) = 22.29747 25.18904 23.74325
#
# Velocity S-wave (km/s) = 3.25530 3.45994 3.35918
# Velocity P-wave (km/s) = 5.80766 6.00350 5.90640
#
# Compressibility (1/GPa) = 0.02424813
#
# Stress axis : x y z
#
# Youngs Moduli (GPa) = 57.99800 86.54983 66.50420
#
# Poissons Ratio (x) = 0.24377 0.28095
# Poissons Ratio (y) = 0.16336 0.18296
# Poissons Ratio (z) = 0.24502 0.23811
#
# Static dielectric constant tensor:
#      x y z
#    x 3.953950 0.000000 -0.046760 
#    y 0.000000 3.745250 0.000000 
#    z -0.046760 0.000000 3.899360 
# 
# 
# High freq. dielectric constant tensor:
#      x y z
#    x 1.831170 0.000000 -0.002130 
#    y 0.000000 1.818740 0.000000 
#    z -0.002130 0.000000 1.821500 
# 
# From -- ./inp_files/214273.got.cif
#   From: 2010.06.25/outbox.cif.g09.slc.cpg/sg15_108_cif.got.tgz:214273.got - 2010.06.28 07:06:18.
