data_PCOD8132995
_publ_section_title
;
Structure prediction by ZEFSAII (Michael W. Deem and Ramdas Pophale) SiO2 
 PCOD8132995
Probable space group: C 2/C
;
_chemical_formula_sum "Si O2"
_cell_formula_units_Z 36
_cell_length_a 16.718397
_cell_length_b 13.351628
_cell_length_c 7.339648
_cell_angle_alpha 90.000000
_cell_angle_beta 90.627762
_cell_angle_gamma 90.000000
_cell_volume 1638.241871
_symmetry_space_group_name_H-M "C 2/C"
_symmetry_group_IT_number 15
_symmetry_cell_setting 'monoclinic'
loop_
_space_group_symop_operation_xyz
x,y,z
-x,y,1/2-z
-x,-y,-z
x,-y,1/2+z
1/2+x,1/2+y,z
1/2-x,1/2+y,1/2-z
1/2-x,1/2-y,-z
1/2+x,1/2-y,1/2+z
loop_
_atom_site_type_symbol
_atom_site_label
_atom_site_fract_x
_atom_site_fract_y
_atom_site_fract_z
Si Si1 0.902949 0.893546 0.574762
Si Si2 0.339195 0.748337 0.336206
Si Si3 0.500000 0.565925 0.750000
Si Si4 0.281307 0.899617 0.037155
Si Si5 0.310241 0.122182 0.143717
O O1 0.911430 0.806464 0.729575
O O2 0.930794 0.998611 0.658844
O O3 0.811559 0.907145 0.514355
O O4 0.958515 0.865113 0.402961
O O5 0.369447 0.813089 0.512191
O O6 0.279107 0.661702 0.404501
O O7 0.291969 0.820416 0.196595
O O8 0.329934 0.862806 0.858165
O O9 0.316430 0.005520 0.098859
#
# Coordination Sequence:
#
# PCOD8132995 Si02
#       5
#     8   8   4   8   8
#     4  10  20  37  51  81 111 148 191 218 269 338
#     4  10  21  34  53  84 113 148 181 231 285 329
#     4  10  22  36  56  76 112 162 180 218 274 320
#     4  11  19  35  56  84 119 143 177 235 284 334
#     4  10  19  31  51  83 112 148 173 218 299 323
#
# _framework density 21.974775000000001
#
# number of rings (size 3 to 8) (size 9 to 14) (size 15 to 20)
#    0.000    1.778    2.222    5.333    0.000    0.000 
#   12.000    0.000    0.000    0.000    0.000    4.667 
#    0.000    0.000    0.000    0.000    0.000    0.000 
#
# Total GULP energy -223088.469148 kJ/mol
# GULP energy per Si atom -12393.803842 kJ/mol
# Density = 2.192476 g / cm^3
# Si number density = 21.974775 Si / 1000 Ang^3
#
#
#
# Elastic Constant Matrix: (Units=GPa)
#
#
# Indices 1 2 3 4 5 6 
#
# 1 26.9154 6.7876 23.1193 0.0000 -10.0958 0.0000
# 2 6.7876 77.7094 43.8563 0.0000 -21.1344 0.0000
# 3 23.1193 43.8563 182.8250 0.0000 -28.5483 0.0000
# 4 0.0000 0.0000 0.0000 54.7716 0.0000 -8.9290
# 5 -10.0958 -21.1344 -28.5483 0.0000 29.2860 0.0000
# 6 0.0000 0.0000 0.0000 -8.9290 0.0000 17.7998
#
#
#
# Elastic Compliance Matrix: (Units=1/GPa)
#
#
# Indices 1 2 3 4 5 6 
#
# 1 0.045060 0.001903 -0.004146 0.000000 0.012866 0.000000
# 2 0.001903 0.017038 -0.002719 0.000000 0.010301 0.000000
# 3 -0.004146 -0.002719 0.007215 0.000000 0.003642 0.000000
# 4 0.000000 0.000000 0.000000 0.019884 0.000000 0.009974
# 5 0.012866 0.010301 0.003642 0.000000 0.049565 0.000000
# 6 0.000000 0.000000 0.000000 0.009974 0.000000 0.061184
#
#
# Mechanical properties :
#
#
# Convention : Reuss Voigt Hill
#
# Bulk Modulus (GPa) = 16.83798 48.33068 32.58433
# Shear Modulus (GPa) = 21.77066 34.61726 28.19396
#
# Velocity S-wave (km/s) = 3.15097 3.97333 3.58581
# Velocity P-wave (km/s) = 4.57353 6.56440 5.65723
#
# Compressibility (1/GPa) = 0.05938953
#
# Stress axis : x y z
#
# Youngs Moduli (GPa) = 22.19250 58.69063 138.60181
#
# Poissons Ratio (x) = -0.11168 0.57459
# Poissons Ratio (y) = -0.04223 0.37690
# Poissons Ratio (z) = 0.09200 0.15960
#
# Static dielectric constant tensor:
#      x y z
#    x 3.248930 0.000000 -0.158580 
#    y 0.000000 4.111630 0.000000 
#    z -0.158580 0.000000 4.864800 
# 
# 
# High freq. dielectric constant tensor:
#      x y z
#    x 1.785050 0.000000 -0.001260 
#    y 0.000000 1.862950 0.000000 
#    z -0.001260 0.000000 1.904370 
# 
# From -- ./inp_files/46647.got.cif
#   From: 2010.06.25/outbox.cif.g09.slc.cpg/sg15_24_cif.got.tgz:46647.got - 2010.06.28 07:06:18.
