data_PCOD8132196
_publ_section_title
;
Structure prediction by ZEFSAII (Michael W. Deem and Ramdas Pophale) SiO2 
 PCOD8132196
Probable space group: C 2/C
;
_chemical_formula_sum "Si O2"
_cell_formula_units_Z 40
_cell_length_a 18.506630
_cell_length_b 7.423084
_cell_length_c 17.806550
_cell_angle_alpha 90.000000
_cell_angle_beta 58.056976
_cell_angle_gamma 90.000000
_cell_volume 2075.781077
_symmetry_space_group_name_H-M "C 2/C"
_symmetry_group_IT_number 15
_symmetry_cell_setting 'monoclinic'
loop_
_space_group_symop_operation_xyz
x,y,z
-x,y,1/2-z
-x,-y,-z
x,-y,1/2+z
1/2+x,1/2+y,z
1/2-x,1/2+y,1/2-z
1/2-x,1/2-y,-z
1/2+x,1/2-y,1/2+z
loop_
_atom_site_type_symbol
_atom_site_label
_atom_site_fract_x
_atom_site_fract_y
_atom_site_fract_z
Si Si1 0.922233 0.365733 0.458542
Si Si2 0.276336 0.055438 0.457422
Si Si3 0.905591 0.274669 0.786839
Si Si4 0.466074 0.789085 0.598119
Si Si5 0.593702 0.504104 0.582589
O O1 0.830154 0.448888 0.490246
O O2 0.917902 0.289073 0.545856
O O3 0.947781 0.195055 0.391542
O O4 0.995085 0.513658 0.408108
O O5 0.250000 0.250000 0.500000
O O6 0.334827 0.079477 0.350928
O O7 0.185882 0.959927 0.493173
O O8 0.898014 0.240982 0.701582
O O9 0.000000 0.355065 0.750000
O O10 0.897050 0.087490 0.838687
O O11 0.541488 0.640984 0.558209
#
# Coordination Sequence:
#
# PCOD8132196 Si02
#       5
#     8   8   8   8   8
#     4  11  20  35  63  81 112 156 193 224 304 348
#     4  10  18  36  59  80 114 150 188 234 281 340
#     4   9  17  37  54  78 117 144 182 244 272 322
#     4  10  21  38  56  86 119 146 189 251 280 338
#     4  10  20  36  60  83 112 153 196 231 285 352
#
# _framework density 19.269855
#
# number of rings (size 3 to 8) (size 9 to 14) (size 15 to 20)
#    0.000    2.000    6.000    1.200    0.000    0.000 
#   10.800    4.000    0.000    0.000    0.000    0.000 
#    0.000    0.000    0.000    0.000    0.000    0.000 
#
# Total GULP energy -247792.466944 kJ/mol
# GULP energy per Si atom -12389.623347 kJ/mol
# Density = 1.922600 g / cm^3
# Si number density = 19.269855 Si / 1000 Ang^3
#
#
#
# Elastic Constant Matrix: (Units=GPa)
#
#
# Indices 1 2 3 4 5 6 
#
# 1 86.0194 38.5166 53.9395 -0.0007 5.3237 -0.0067
# 2 38.5166 120.3512 31.7904 -0.0011 13.4594 -0.0114
# 3 53.9395 31.7904 122.3968 0.0000 1.0922 0.0020
# 4 -0.0007 -0.0011 0.0000 16.3884 0.0003 3.3165
# 5 5.3237 13.4594 1.0922 0.0003 33.8808 0.0008
# 6 -0.0067 -0.0114 0.0020 3.3165 0.0008 23.4163
#
#
#
# Elastic Compliance Matrix: (Units=1/GPa)
#
#
# Indices 1 2 3 4 5 6 
#
# 1 0.017614 -0.003725 -0.006785 0.000000 -0.001069 0.000004
# 2 -0.003725 0.010136 -0.000961 0.000000 -0.003410 0.000004
# 3 -0.006785 -0.000961 0.011400 0.000000 0.001080 -0.000003
# 4 0.000000 0.000000 0.000000 0.062819 0.000000 -0.008897
# 5 -0.001069 -0.003410 0.001080 0.000000 0.031003 -0.000003
# 6 0.000004 0.000004 -0.000003 -0.008897 -0.000003 0.043966
#
#
# Mechanical properties :
#
#
# Convention : Reuss Voigt Hill
#
# Bulk Modulus (GPa) = 61.69632 64.14004 62.91818
# Shear Modulus (GPa) = 24.35645 28.37182 26.36413
#
# Velocity S-wave (km/s) = 3.55909 3.84127 3.70287
# Velocity P-wave (km/s) = 6.99828 7.28226 7.14168
#
# Compressibility (1/GPa) = 0.01620842
#
# Stress axis : x y z
#
# Youngs Moduli (GPa) = 56.77166 98.65447 87.71698
#
# Poissons Ratio (x) = 0.36752 0.59520
# Poissons Ratio (y) = 0.21149 0.08426
# Poissons Ratio (z) = 0.38522 0.09477
#
# Static dielectric constant tensor:
#      x y z
#    x 3.918480 0.000000 -0.389640 
#    y 0.000000 3.699200 0.000000 
#    z -0.389640 0.000000 4.175240 
# 
# 
# High freq. dielectric constant tensor:
#      x y z
#    x 1.732370 0.000000 -0.004530 
#    y 0.000000 1.754140 0.000000 
#    z -0.004530 0.000000 1.734190 
# 
# From -- ./inp_files/208466.got.cif
#   From: 2010.06.25/outbox.cif.g09.slc.cpg/sg15_105_cif.got.tgz:208466.got - 2010.06.28 07:06:18.
