data_PCOD8132097
_publ_section_title
;
Structure prediction by ZEFSAII (Michael W. Deem and Ramdas Pophale) SiO2 
 PCOD8132097
Probable space group: C 2/C
;
_chemical_formula_sum "Si O2"
_cell_formula_units_Z 64
_cell_length_a 24.530857
_cell_length_b 18.943975
_cell_length_c 9.865896
_cell_angle_alpha 90.000000
_cell_angle_beta 129.421544
_cell_angle_gamma 90.000000
_cell_volume 3541.734153
_symmetry_space_group_name_H-M "C 2/C"
_symmetry_group_IT_number 15
_symmetry_cell_setting 'monoclinic'
loop_
_space_group_symop_operation_xyz
x,y,z
-x,y,1/2-z
-x,-y,-z
x,-y,1/2+z
1/2+x,1/2+y,z
1/2-x,1/2+y,1/2-z
1/2-x,1/2-y,-z
1/2+x,1/2-y,1/2+z
loop_
_atom_site_type_symbol
_atom_site_label
_atom_site_fract_x
_atom_site_fract_y
_atom_site_fract_z
Si Si1 0.552699 0.776901 0.944986
Si Si2 0.683769 0.295637 0.550714
Si Si3 0.389877 0.071893 0.023494
Si Si4 0.173277 0.777374 0.221732
Si Si5 0.892443 0.446639 0.836109
Si Si6 0.461905 0.194549 0.548835
Si Si7 0.226913 0.929250 0.272970
Si Si8 0.270876 0.551745 0.418222
O O1 0.500000 0.744479 0.750000
O O2 0.566357 0.857700 0.927305
O O3 0.623964 0.731093 0.058755
O O4 0.518512 0.770052 0.038325
O O5 0.758214 0.265279 0.719785
O O6 0.666237 0.266729 0.372541
O O7 0.684396 0.380184 0.554499
O O8 0.403237 0.039787 0.193604
O O9 0.307955 0.091206 0.873271
O O10 0.417738 0.015857 0.956989
O O11 0.179955 0.859062 0.190008
O O12 0.104703 0.746504 0.039594
O O13 0.810799 0.432148 0.743341
O O14 0.937496 0.380056 0.952267
O O15 0.500000 0.182471 0.750000
O O16 0.218941 0.965152 0.407431
O O17 0.200075 0.984925 0.119269
#
# Coordination Sequence:
#
# PCOD8132097 Si02
#       8
#     8   8   8   8   8   8   8   8
#     4  12  22  38  58  86 114 148 200 238 276 342
#     4  10  18  35  66  86 105 148 203 240 268 335
#     4  10  20  34  56  84 114 152 191 230 276 335
#     4  10  18  37  63  84 110 152 195 234 285 332
#     4  10  20  36  55  80 116 156 192 226 274 340
#     4  12  26  40  54  83 123 154 186 237 297 337
#     4   9  18  34  59  86 113 143 187 239 283 331
#     4   9  18  34  59  86 112 144 188 238 283 329
#
# _framework density 18.070245
#
# number of rings (size 3 to 8) (size 9 to 14) (size 15 to 20)
#    0.000    1.750    5.000    0.000    1.750    1.000 
#    2.250    0.625    0.000    1.500    0.000    0.000 
#    0.000    0.000    0.000    0.000    0.000    0.000 
#
# Total GULP energy -396920.938054 kJ/mol
# GULP energy per Si atom -12403.779314 kJ/mol
# Density = 1.802912 g / cm^3
# Si number density = 18.070245 Si / 1000 Ang^3
#
#
#
# Elastic Constant Matrix: (Units=GPa)
#
#
# Indices 1 2 3 4 5 6 
#
# 1 82.4156 24.3093 17.4690 0.0000 3.4647 0.0000
# 2 24.3093 61.5533 18.3024 0.0000 4.4990 0.0000
# 3 17.4690 18.3024 55.7430 0.0000 -2.4470 0.0000
# 4 0.0000 0.0000 0.0000 21.8333 0.0000 -2.3449
# 5 3.4647 4.4990 -2.4470 0.0000 22.6896 0.0000
# 6 0.0000 0.0000 0.0000 -2.3449 0.0000 27.9704
#
#
#
# Elastic Compliance Matrix: (Units=1/GPa)
#
#
# Indices 1 2 3 4 5 6 
#
# 1 0.014193 -0.004595 -0.003009 0.000000 -0.001581 0.000000
# 2 -0.004595 0.019904 -0.005263 0.000000 -0.003813 0.000000
# 3 -0.003009 -0.005263 0.020775 0.000000 0.003743 0.000000
# 4 0.000000 0.000000 0.000000 0.046218 0.000000 0.003875
# 5 -0.001581 -0.003813 0.003743 0.000000 0.045474 0.000000
# 6 0.000000 0.000000 0.000000 0.003875 0.000000 0.036077
#
#
# Mechanical properties :
#
#
# Convention : Reuss Voigt Hill
#
# Bulk Modulus (GPa) = 34.31788 35.54148 34.92968
# Shear Modulus (GPa) = 22.92669 23.80742 23.36705
#
# Velocity S-wave (km/s) = 3.56582 3.63367 3.59990
# Velocity P-wave (km/s) = 5.99884 6.10868 6.05401
#
# Compressibility (1/GPa) = 0.02913933
#
# Stress axis : x y z
#
# Youngs Moduli (GPa) = 70.45644 50.24028 48.13585
#
# Poissons Ratio (x) = 0.23087 0.14482
# Poissons Ratio (y) = 0.32376 0.25332
# Poissons Ratio (z) = 0.21197 0.26439
#
# Static dielectric constant tensor:
#      x y z
#    x 3.342570 0.000000 -0.023880 
#    y 0.000000 3.275670 0.000000 
#    z -0.023880 0.000000 3.189420 
# 
# 
# High freq. dielectric constant tensor:
#      x y z
#    x 1.696690 0.000000 -0.000380 
#    y 0.000000 1.693540 0.000000 
#    z -0.000380 0.000000 1.680870 
# 
# From -- ./inp_files/63424.got.cif
#   From: 2010.06.25/outbox.cif.g09.slc.cpg/sg15_32_cif.got.tgz:63424.got - 2010.06.28 07:06:18.
