data_PCOD8132757
_publ_section_title
;
Structure prediction by ZEFSAII (Michael W. Deem and Ramdas Pophale) SiO2 
 PCOD8132757
Probable space group: C 2/C
;
_chemical_formula_sum "Si O2"
_cell_formula_units_Z 44
_cell_length_a 19.562371
_cell_length_b 11.316789
_cell_length_c 24.958684
_cell_angle_alpha 90.000000
_cell_angle_beta 19.701453
_cell_angle_gamma 90.000000
_cell_volume 1862.729508
_symmetry_space_group_name_H-M "C 2/C"
_symmetry_group_IT_number 15
_symmetry_cell_setting 'monoclinic'
loop_
_space_group_symop_operation_xyz
x,y,z
-x,y,1/2-z
-x,-y,-z
x,-y,1/2+z
1/2+x,1/2+y,z
1/2-x,1/2+y,1/2-z
1/2-x,1/2-y,-z
1/2+x,1/2-y,1/2+z
loop_
_atom_site_type_symbol
_atom_site_label
_atom_site_fract_x
_atom_site_fract_y
_atom_site_fract_z
Si Si1 0.968491 0.134494 0.003742
Si Si2 0.284722 0.403933 0.455092
Si Si3 0.039542 0.239134 0.838702
Si Si4 0.000000 0.510597 0.250000
Si Si5 0.254338 0.336124 0.945531
Si Si6 0.152642 0.680939 0.715755
O O1 0.745981 0.186173 0.179609
O O2 0.039452 0.152128 0.889966
O O3 0.127431 0.206343 0.922825
O O4 0.000000 0.000000 0.000000
O O5 0.146128 0.331619 0.515394
O O6 0.494426 0.338087 0.317457
O O7 0.336926 0.533726 0.396058
O O8 0.156108 0.405948 0.604822
O O9 0.135903 0.435791 0.191356
O O10 0.383961 0.291413 0.798581
O O11 0.250000 0.250000 0.000000
O O12 0.009837 0.333839 0.115865
#
# Coordination Sequence:
#
# PCOD8132757 Si02
#       6
#     8   8   8   4   8   8
#     4  12  26  46  71  97 150 188 228 287 358 427
#     4  10  21  40  71  95 138 168 239 288 331 415
#     4  11  25  47  68 103 130 188 233 284 358 415
#     4  10  18  40  70  98 124 186 224 280 336 400
#     4  11  20  39  65 100 129 175 226 282 339 396
#     4  11  21  38  63  98 131 173 233 270 339 414
#
# _framework density 23.621251000000001
#
# number of rings (size 3 to 8) (size 9 to 14) (size 15 to 20)
#    0.000    1.091    3.636    5.455    0.000    2.182 
#    6.545    1.818    0.000    0.000    0.000    0.000 
#    0.000    0.000    0.000    0.000    0.000    0.000 
#
# Total GULP energy -272562.776959 kJ/mol
# GULP energy per Si atom -12389.217134 kJ/mol
# Density = 2.356749 g / cm^3
# Si number density = 23.621251 Si / 1000 Ang^3
#
#
#
# Elastic Constant Matrix: (Units=GPa)
#
#
# Indices 1 2 3 4 5 6 
#
# 1 90.9428 35.2915 43.6222 -0.0299 -33.6215 0.0182
# 2 35.2915 153.3543 43.1701 -0.0144 -13.4232 -0.0051
# 3 43.6222 43.1701 158.3650 -0.0291 -7.1998 -0.0625
# 4 -0.0299 -0.0144 -0.0291 35.8654 -0.0209 -0.8648
# 5 -33.6215 -13.4232 -7.1998 -0.0209 46.6031 0.0053
# 6 0.0182 -0.0051 -0.0625 -0.8648 0.0053 23.3149
#
#
#
# Elastic Compliance Matrix: (Units=1/GPa)
#
#
# Indices 1 2 3 4 5 6 
#
# 1 0.018002 -0.002019 -0.003871 0.000017 0.011808 -0.000027
# 2 -0.002019 0.007434 -0.001449 0.000000 0.000460 -0.000001
# 3 -0.003871 -0.001449 0.007684 0.000002 -0.002023 0.000024
# 4 0.000017 0.000000 0.000002 0.027907 0.000025 0.001035
# 5 0.011808 0.000460 -0.002023 0.000025 0.029796 -0.000020
# 6 -0.000027 -0.000001 0.000024 0.001035 -0.000020 0.042929
#
#
# Mechanical properties :
#
#
# Convention : Reuss Voigt Hill
#
# Bulk Modulus (GPa) = 54.23131 71.86997 63.05064
# Shear Modulus (GPa) = 32.34591 39.86192 36.10391
#
# Velocity S-wave (km/s) = 3.70450 4.11243 3.91378
# Velocity P-wave (km/s) = 6.42699 7.28296 6.86832
#
# Compressibility (1/GPa) = 0.01843953
#
# Stress axis : x y z
#
# Youngs Moduli (GPa) = 55.54998 134.51967 130.14061
#
# Poissons Ratio (x) = 0.27165 0.50382
# Poissons Ratio (y) = 0.11218 0.18861
# Poissons Ratio (z) = 0.21505 0.19496
#
# Static dielectric constant tensor:
#      x y z
#    x 4.354980 -0.000030 -0.070640 
#    y -0.000030 4.223990 0.000140 
#    z -0.070640 0.000140 5.387130 
# 
# 
# High freq. dielectric constant tensor:
#      x y z
#    x 1.923360 0.000000 -0.012380 
#    y 0.000000 1.939090 0.000010 
#    z -0.012380 0.000010 1.960060 
# 
# From -- ./inp_files/300807.got.cif
#   From: 2010.06.25/outbox.cif.g09.slc.cpg/sg15_151_cif.got.tgz:300807.got - 2010.06.28 07:06:18.
