data_PCOD8132364
_publ_section_title
;
Structure prediction by ZEFSAII (Michael W. Deem and Ramdas Pophale) SiO2 
 PCOD8132364
Probable space group: C 2/C
;
_chemical_formula_sum "Si O2"
_cell_formula_units_Z 44
_cell_length_a 13.905055
_cell_length_b 15.334121
_cell_length_c 25.932640
_cell_angle_alpha 90.000000
_cell_angle_beta 160.361025
_cell_angle_gamma 90.000000
_cell_volume 1858.390239
_symmetry_space_group_name_H-M "C 2/C"
_symmetry_group_IT_number 15
_symmetry_cell_setting 'monoclinic'
loop_
_space_group_symop_operation_xyz
x,y,z
-x,y,1/2-z
-x,-y,-z
x,-y,1/2+z
1/2+x,1/2+y,z
1/2-x,1/2+y,1/2-z
1/2-x,1/2-y,-z
1/2+x,1/2-y,1/2+z
loop_
_atom_site_type_symbol
_atom_site_label
_atom_site_fract_x
_atom_site_fract_y
_atom_site_fract_z
Si Si1 0.129674 0.232614 0.605262
Si Si2 0.482625 0.619923 0.622707
Si Si3 0.480986 0.323722 0.624211
Si Si4 0.696375 0.755441 0.806004
Si Si5 0.500000 0.917806 0.250000
Si Si6 0.427001 0.024809 0.603416
O O1 0.949736 0.196433 0.563357
O O2 0.361212 0.302620 0.742312
O O3 0.247795 0.143499 0.641456
O O4 0.961673 0.279984 0.474416
O O5 0.535312 0.669797 0.702995
O O6 0.175941 0.569889 0.469477
O O7 0.751466 0.552984 0.749689
O O8 0.250000 0.250000 0.500000
O O9 0.701421 0.321784 0.687054
O O10 0.312349 0.413104 0.542631
O O11 0.500000 0.804468 0.750000
O O12 0.605820 0.976932 0.351087
#
# Coordination Sequence:
#
# PCOD8132364 Si02
#       6
#     8   8   8   8   4   8
#     4  10  20  37  65  94 124 165 221 267 315 389
#     4  10  25  42  63  95 135 169 215 273 338 383
#     4  11  19  40  69  93 125 170 221 272 316 385
#     4  11  23  41  65  95 132 168 220 269 324 397
#     4  10  18  36  68  94 116 164 220 264 326 380
#     4  11  22  41  66  96 135 169 216 277 332 395
#
# _framework density 23.676406
#
# number of rings (size 3 to 8) (size 9 to 14) (size 15 to 20)
#    0.000    1.455    7.273    0.000    0.000    8.727 
#    1.636    3.636    0.000    0.000    0.000    0.000 
#    0.000    0.000    0.000    0.000    0.000    0.000 
#
# Total GULP energy -272583.969061 kJ/mol
# GULP energy per Si atom -12390.180412 kJ/mol
# Density = 2.362252 g / cm^3
# Si number density = 23.676406 Si / 1000 Ang^3
#
#
#
# Elastic Constant Matrix: (Units=GPa)
#
#
# Indices 1 2 3 4 5 6 
#
# 1 63.6763 -5.0085 12.1698 -0.0238 -2.8920 0.0018
# 2 -5.0085 44.7411 12.7515 -0.0135 -16.2838 -0.0031
# 3 12.1698 12.7515 70.5432 -0.0887 -42.2001 0.0065
# 4 -0.0238 -0.0135 -0.0887 53.7273 0.0161 -2.5409
# 5 -2.8920 -16.2838 -42.2001 0.0161 49.5344 0.0070
# 6 0.0018 -0.0031 0.0065 -2.5409 0.0070 18.0102
#
#
#
# Elastic Compliance Matrix: (Units=1/GPa)
#
#
# Indices 1 2 3 4 5 6 
#
# 1 0.016674 0.002392 -0.004601 0.000001 -0.002160 0.000001
# 2 0.002392 0.025755 0.000164 0.000005 0.008746 0.000001
# 3 -0.004601 0.000164 0.030205 0.000040 0.025518 -0.000015
# 4 0.000001 0.000005 0.000040 0.018738 0.000029 0.002644
# 5 -0.002160 0.008746 0.025518 0.000029 0.044677 -0.000021
# 6 0.000001 0.000001 -0.000015 0.002644 -0.000021 0.055897
#
#
# Mechanical properties :
#
#
# Convention : Reuss Voigt Hill
#
# Bulk Modulus (GPa) = 14.58938 24.30956 19.44947
# Shear Modulus (GPa) = 22.84316 34.85758 28.85037
#
# Velocity S-wave (km/s) = 3.10950 3.84115 3.49453
# Velocity P-wave (km/s) = 4.36662 5.47378 4.95125
#
# Compressibility (1/GPa) = 0.06854302
#
# Stress axis : x y z
#
# Youngs Moduli (GPa) = 59.97441 38.82748 33.10686
#
# Poissons Ratio (x) = -0.09286 0.15232
# Poissons Ratio (y) = -0.14344 -0.00542
# Poissons Ratio (z) = 0.27594 -0.00636
#
# Static dielectric constant tensor:
#      x y z
#    x 4.633120 0.001210 -0.231970 
#    y 0.001210 3.389900 -0.001170 
#    z -0.231970 -0.001170 4.683130 
# 
# 
# High freq. dielectric constant tensor:
#      x y z
#    x 1.930260 0.000000 -0.006370 
#    y 0.000000 1.899720 -0.000010 
#    z -0.006370 -0.000010 1.961360 
# 
# From -- ./inp_files/39523.got.cif
#   From: 2010.06.25/outbox.cif.g09.slc.cpg/sg15_20_cif.got.tgz:39523.got - 2010.06.28 07:06:18.
