data_PCOD8132606
_publ_section_title
;
Structure prediction by ZEFSAII (Michael W. Deem and Ramdas Pophale) SiO2 
 PCOD8132606
Probable space group: C 2/C
;
_chemical_formula_sum "Si O2"
_cell_formula_units_Z 40
_cell_length_a 15.650042
_cell_length_b 8.893500
_cell_length_c 13.964848
_cell_angle_alpha 90.000000
_cell_angle_beta 95.315815
_cell_angle_gamma 90.000000
_cell_volume 1935.319053
_symmetry_space_group_name_H-M "C 2/C"
_symmetry_group_IT_number 15
_symmetry_cell_setting 'monoclinic'
loop_
_space_group_symop_operation_xyz
x,y,z
-x,y,1/2-z
-x,-y,-z
x,-y,1/2+z
1/2+x,1/2+y,z
1/2-x,1/2+y,1/2-z
1/2-x,1/2-y,-z
1/2+x,1/2-y,1/2+z
loop_
_atom_site_type_symbol
_atom_site_label
_atom_site_fract_x
_atom_site_fract_y
_atom_site_fract_z
Si Si1 0.527605 0.510337 0.148334
Si Si2 0.904819 0.652297 0.829082
Si Si3 0.376093 0.611259 0.007524
Si Si4 0.712793 0.911388 0.015308
Si Si5 0.908895 0.585899 0.614290
O O1 0.500000 0.449309 0.250000
O O2 0.572980 0.672186 0.159321
O O3 0.440653 0.513583 0.078332
O O4 0.594954 0.400476 0.101474
O O5 0.825318 0.594073 0.882092
O O6 0.877403 0.622133 0.717704
O O7 0.988783 0.560595 0.872849
O O8 0.281787 0.543914 0.013104
O O9 0.378316 0.783654 0.038783
O O10 0.750000 0.750000 0.000000
O O11 0.636725 0.936350 0.929860
#
# Coordination Sequence:
#
# PCOD8132606 Si02
#       5
#     8   8   8   8   8
#     4  10  18  38  66  88 118 165 206 251 306 376
#     4  10  20  41  65  85 123 169 207 248 311 370
#     4  10  21  37  64  93 119 161 206 255 310 364
#     4  12  24  37  61  95 129 159 207 263 305 361
#     4  10  22  42  65  85 124 171 206 249 310 371
#
# _framework density 20.668426
#
# number of rings (size 3 to 8) (size 9 to 14) (size 15 to 20)
#    0.000    1.600    6.000    1.200    0.000    3.200 
#    0.000    2.000    0.000    0.000    0.000    0.000 
#    0.000    0.000    0.000    0.000    0.000    0.000 
#
# Total GULP energy -247990.033134 kJ/mol
# GULP energy per Si atom -12399.501657 kJ/mol
# Density = 2.062138 g / cm^3
# Si number density = 20.668426 Si / 1000 Ang^3
#
#
#
# Elastic Constant Matrix: (Units=GPa)
#
#
# Indices 1 2 3 4 5 6 
#
# 1 96.3184 33.7039 61.3783 0.0000 -32.5540 0.0000
# 2 33.7039 68.4936 42.2097 0.0000 0.7726 0.0000
# 3 61.3783 42.2097 155.0971 0.0000 -32.5876 0.0000
# 4 0.0000 0.0000 0.0000 29.8178 0.0000 3.9871
# 5 -32.5540 0.7726 -32.5876 0.0000 36.8297 0.0000
# 6 0.0000 0.0000 0.0000 3.9871 0.0000 21.2615
#
#
#
# Elastic Compliance Matrix: (Units=1/GPa)
#
#
# Indices 1 2 3 4 5 6 
#
# 1 0.020387 -0.008820 -0.002263 0.000000 0.016203 0.000000
# 2 -0.008820 0.022366 -0.005323 0.000000 -0.012975 0.000000
# 3 -0.002263 -0.005323 0.010312 0.000000 0.007235 0.000000
# 4 0.000000 0.000000 0.000000 0.034400 0.000000 -0.006451
# 5 0.016203 -0.012975 0.007235 0.000000 0.048148 0.000000
# 6 0.000000 0.000000 0.000000 -0.006451 0.000000 0.048243
#
#
# Mechanical properties :
#
#
# Convention : Reuss Voigt Hill
#
# Bulk Modulus (GPa) = 49.37391 66.05476 57.71434
# Shear Modulus (GPa) = 22.37948 29.75630 26.06789
#
# Velocity S-wave (km/s) = 3.29414 3.79845 3.55525
# Velocity P-wave (km/s) = 6.19749 7.16005 6.69609
#
# Compressibility (1/GPa) = 0.02025361
#
# Stress axis : x y z
#
# Youngs Moduli (GPa) = 49.05104 44.70973 96.97343
#
# Poissons Ratio (x) = 0.39433 0.21948
# Poissons Ratio (y) = 0.43262 0.51617
# Poissons Ratio (z) = 0.11102 0.23798
#
# Static dielectric constant tensor:
#      x y z
#    x 4.113160 0.000000 -0.282320 
#    y 0.000000 3.487840 0.000000 
#    z -0.282320 0.000000 3.997560 
# 
# 
# High freq. dielectric constant tensor:
#      x y z
#    x 1.814230 0.000000 -0.010080 
#    y 0.000000 1.784190 0.000000 
#    z -0.010080 0.000000 1.816890 
# 
# From -- ./inp_files/150669.got.cif
#   From: 2010.06.25/outbox.cif.g09.slc.cpg/sg15_76_cif.got.tgz:150669.got - 2010.06.28 07:06:18.
