data_PCOD8132107
_publ_section_title
;
Structure prediction by ZEFSAII (Michael W. Deem and Ramdas Pophale) SiO2 
 PCOD8132107
Probable space group: C 2/C
;
_chemical_formula_sum "Si O2"
_cell_formula_units_Z 36
_cell_length_a 28.541687
_cell_length_b 14.952876
_cell_length_c 9.147090
_cell_angle_alpha 90.000000
_cell_angle_beta 28.979942
_cell_angle_gamma 90.000000
_cell_volume 1891.403364
_symmetry_space_group_name_H-M "C 2/C"
_symmetry_group_IT_number 15
_symmetry_cell_setting 'monoclinic'
loop_
_space_group_symop_operation_xyz
x,y,z
-x,y,1/2-z
-x,-y,-z
x,-y,1/2+z
1/2+x,1/2+y,z
1/2-x,1/2+y,1/2-z
1/2-x,1/2-y,-z
1/2+x,1/2-y,1/2+z
loop_
_atom_site_type_symbol
_atom_site_label
_atom_site_fract_x
_atom_site_fract_y
_atom_site_fract_z
Si Si1 0.013751 0.592980 0.381640
Si Si2 0.886102 0.757657 0.748921
Si Si3 0.000000 0.004679 0.250000
Si Si4 0.060710 0.882610 0.328285
Si Si5 0.326741 0.771969 0.081999
O O1 0.000000 0.572669 0.250000
O O2 0.000000 0.500000 0.500000
O O3 0.933396 0.662318 0.662878
O O4 0.121224 0.635962 0.111718
O O5 0.869545 0.757382 0.621213
O O6 0.955439 0.837988 0.602967
O O7 0.788296 0.778775 0.104037
O O8 0.931322 0.064111 0.541670
O O9 0.071776 0.947356 0.157467
O O10 0.144907 0.808793 0.103678
#
# Coordination Sequence:
#
# PCOD8132107 Si02
#       5
#     8   8   4   8   8
#     4   9  18  35  53  74 101 136 171 208 249 305
#     4   9  17  34  56  74 101 138 173 205 259 307
#     4  10  20  32  54  74 106 130 172 210 266 292
#     4  10  18  36  51  77 103 136 165 218 254 308
#     4   9  17  34  56  74 101 138 173 205 259 307
#
# _framework density 19.033484999999999
#
# number of rings (size 3 to 8) (size 9 to 14) (size 15 to 20)
#    0.000    2.667    2.222    1.333    0.000    0.000 
#   16.000    1.111    0.000    0.000    0.000    0.000 
#    0.000    0.000    0.000    0.000    0.000    0.000 
#
# Total GULP energy -223121.223298 kJ/mol
# GULP energy per Si atom -12395.623517 kJ/mol
# Density = 1.899016 g / cm^3
# Si number density = 19.033485 Si / 1000 Ang^3
#
#
#
# Elastic Constant Matrix: (Units=GPa)
#
#
# Indices 1 2 3 4 5 6 
#
# 1 47.8851 38.0643 31.2111 0.0000 10.7044 0.0000
# 2 38.0643 143.3821 70.0611 0.0000 9.2751 0.0000
# 3 31.2111 70.0611 137.0642 0.0000 -11.0238 0.0000
# 4 0.0000 0.0000 0.0000 26.4147 0.0000 13.6718
# 5 10.7044 9.2751 -11.0238 0.0000 28.1784 0.0000
# 6 0.0000 0.0000 0.0000 13.6718 0.0000 22.7327
#
#
#
# Elastic Compliance Matrix: (Units=1/GPa)
#
#
# Indices 1 2 3 4 5 6 
#
# 1 0.031105 -0.004659 -0.005708 0.000000 -0.012516 0.000000
# 2 -0.004659 0.010756 -0.004728 0.000000 -0.003620 0.000000
# 3 -0.005708 -0.004728 0.011680 0.000000 0.008294 0.000000
# 4 0.000000 0.000000 0.000000 0.054969 0.000000 -0.033059
# 5 -0.012516 -0.003620 0.008294 0.000000 0.044679 0.000000
# 6 0.000000 0.000000 0.000000 -0.033059 0.000000 0.063872
#
#
# Mechanical properties :
#
#
# Convention : Reuss Voigt Hill
#
# Bulk Modulus (GPa) = 42.82655 67.44493 55.13574
# Shear Modulus (GPa) = 19.60529 28.06481 23.83505
#
# Velocity S-wave (km/s) = 3.21291 3.84408 3.54258
# Velocity P-wave (km/s) = 6.02604 7.43064 6.76490
#
# Compressibility (1/GPa) = 0.02335000
#
# Stress axis : x y z
#
# Youngs Moduli (GPa) = 32.14911 92.97452 85.61956
#
# Poissons Ratio (x) = 0.43314 0.48874
# Poissons Ratio (y) = 0.14977 0.40482
# Poissons Ratio (z) = 0.18352 0.43960
#
# Static dielectric constant tensor:
#      x y z
#    x 3.120460 0.000000 0.092040 
#    y 0.000000 3.578790 0.000000 
#    z 0.092040 0.000000 3.520500 
# 
# 
# High freq. dielectric constant tensor:
#      x y z
#    x 1.704270 0.000000 0.011100 
#    y 0.000000 1.751000 0.000000 
#    z 0.011100 0.000000 1.732720 
# 
# From -- ./inp_files/37615.got.cif
#   From: 2010.06.25/outbox.cif.g09.slc.cpg/sg15_19_cif.got.tgz:37615.got - 2010.06.28 07:06:18.
