data_PCOD8132456
_publ_section_title
;
Structure prediction by ZEFSAII (Michael W. Deem and Ramdas Pophale) SiO2 
 PCOD8132456
Probable space group: C 2/C
;
_chemical_formula_sum "Si O2"
_cell_formula_units_Z 36
_cell_length_a 8.789639
_cell_length_b 12.246674
_cell_length_c 24.789923
_cell_angle_alpha 90.000000
_cell_angle_beta 44.836846
_cell_angle_gamma 90.000000
_cell_volume 1881.521397
_symmetry_space_group_name_H-M "C 2/C"
_symmetry_group_IT_number 15
_symmetry_cell_setting 'monoclinic'
loop_
_space_group_symop_operation_xyz
x,y,z
-x,y,1/2-z
-x,-y,-z
x,-y,1/2+z
1/2+x,1/2+y,z
1/2-x,1/2+y,1/2-z
1/2-x,1/2-y,-z
1/2+x,1/2-y,1/2+z
loop_
_atom_site_type_symbol
_atom_site_label
_atom_site_fract_x
_atom_site_fract_y
_atom_site_fract_z
Si Si1 0.914776 0.355563 0.872755
Si Si2 0.905800 0.144432 0.627250
Si Si3 0.556848 0.625499 0.999997
Si Si4 0.321757 0.990439 0.000001
Si Si5 0.000000 0.500002 0.750000
O O1 0.665181 0.318782 0.923620
O O2 0.064744 0.249997 0.842622
O O3 0.008829 0.424498 0.800164
O O4 0.926545 0.425997 0.924056
O O5 0.859660 0.181213 0.576386
O O6 0.122752 0.073984 0.575954
O O7 0.709477 0.075507 0.699847
O O8 0.741356 0.612730 0.999996
O O9 0.500000 0.500000 0.000000
O O10 0.500000 0.000000 0.000000
#
# Coordination Sequence:
#
# PCOD8132456 Si02
#       5
#     8   8   8   8   4
#     4  10  20  39  63  84 115 167 201 243 309 372
#     4  10  20  39  63  84 115 167 201 243 309 372
#     4   8  14  35  62  81 109 158 198 243 301 343
#     4  10  18  37  64  91 115 151 210 263 292 351
#     4  12  20  42  62  82 136 162 202 244 320 376
#
# _framework density 19.133451000000001
#
# number of rings (size 3 to 8) (size 9 to 14) (size 15 to 20)
#    0.000    2.667    6.667    2.667    0.000    0.000 
#    8.000    4.444    0.000    0.000    0.000    0.000 
#    0.000    0.000    0.000    0.000    0.000    0.000 
#
# Total GULP energy -223050.488087 kJ/mol
# GULP energy per Si atom -12391.693783 kJ/mol
# Density = 1.908990 g / cm^3
# Si number density = 19.133451 Si / 1000 Ang^3
#
#
#
# Elastic Constant Matrix: (Units=GPa)
#
#
# Indices 1 2 3 4 5 6 
#
# 1 172.1731 56.3402 64.4332 0.0000 6.4586 0.0002
# 2 56.3402 95.1226 63.0826 0.0001 -0.4980 0.0001
# 3 64.4332 63.0826 145.6422 0.0009 -4.6110 -0.0001
# 4 0.0000 0.0001 0.0009 -7.4150 0.0000 3.1685
# 5 6.4586 -0.4980 -4.6110 0.0000 9.2207 -0.0001
# 6 0.0002 0.0001 -0.0001 3.1685 -0.0001 37.2636
#
#
#
# Elastic Compliance Matrix: (Units=1/GPa)
#
#
# Indices 1 2 3 4 5 6 
#
# 1 0.008007 -0.003204 -0.002375 0.000000 -0.006969 0.000000
# 2 -0.003204 0.016085 -0.005539 -0.000001 0.000343 0.000000
# 3 -0.002375 -0.005539 0.010526 0.000001 0.006628 0.000000
# 4 0.000000 -0.000001 0.000001 -0.130134 0.000001 0.011065
# 5 -0.006969 0.000343 0.006628 0.000001 0.116666 0.000000
# 6 0.000000 0.000000 0.000000 0.011065 0.000000 0.025895
#
#
# Mechanical properties :
#
#
# Convention : Reuss Voigt Hill
#
# Bulk Modulus (GPa) = 80.76030 86.73888 83.74959
# Shear Modulus (GPa) = 68.11179 23.08598 45.59888
#
# Velocity S-wave (km/s) = 5.97290 3.47735 4.88710
# Velocity P-wave (km/s) = 9.47987 7.84568 8.70123
#
# Compressibility (1/GPa) = 0.01238232
#
# Stress axis : x y z
#
# Youngs Moduli (GPa) = 124.89432 62.16870 95.00323
#
# Poissons Ratio (x) = 0.19916 0.22566
# Poissons Ratio (y) = 0.40011 0.52622
# Poissons Ratio (z) = 0.29666 0.34435
#
# Static dielectric constant tensor:
#      x y z
#    x 4.130840 0.000000 -0.348890 
#    y 0.000000 3.431460 -0.000010 
#    z -0.348890 -0.000010 9.006190 
# 
# 
# High freq. dielectric constant tensor:
#      x y z
#    x 1.744090 0.000000 0.000790 
#    y 0.000000 1.725080 0.000000 
#    z 0.000790 0.000000 1.732980 
# 
# From -- ./inp_files/262959.got.cif
#   From: 2010.06.25/outbox.cif.g09.slc.cpg/sg15_132_cif.got.tgz:262959.got - 2010.06.28 07:06:18.
