data_PCOD8132603
_publ_section_title
;
Structure prediction by ZEFSAII (Michael W. Deem and Ramdas Pophale) SiO2 
 PCOD8132603
Probable space group: C 2/C
;
_chemical_formula_sum "Si O2"
_cell_formula_units_Z 60
_cell_length_a 21.496418
_cell_length_b 15.189673
_cell_length_c 11.376238
_cell_angle_alpha 90.000000
_cell_angle_beta 57.027126
_cell_angle_gamma 90.000000
_cell_volume 3116.291327
_symmetry_space_group_name_H-M "C 2/C"
_symmetry_group_IT_number 15
_symmetry_cell_setting 'monoclinic'
loop_
_space_group_symop_operation_xyz
x,y,z
-x,y,1/2-z
-x,-y,-z
x,-y,1/2+z
1/2+x,1/2+y,z
1/2-x,1/2+y,1/2-z
1/2-x,1/2-y,-z
1/2+x,1/2-y,1/2+z
loop_
_atom_site_type_symbol
_atom_site_label
_atom_site_fract_x
_atom_site_fract_y
_atom_site_fract_z
Si Si1 0.331586 0.862096 0.118800
Si Si2 0.984542 0.897771 0.031031
Si Si3 0.130159 0.325813 0.676499
Si Si4 0.595196 0.183811 0.554934
Si Si5 0.084065 0.467343 0.913832
Si Si6 0.000000 0.802104 0.250000
Si Si7 0.671902 0.306569 0.319637
Si Si8 0.443605 0.243352 0.645869
O O1 0.248419 0.858070 0.254012
O O2 0.382910 0.780957 0.110523
O O3 0.363770 0.948488 0.146357
O O4 0.328388 0.864958 0.980345
O O5 0.014393 0.865707 0.125558
O O6 0.896544 0.875737 0.115036
O O7 0.036159 0.847646 0.880193
O O8 0.000000 0.000000 0.000000
O O9 0.099522 0.406776 0.784780
O O10 0.066879 0.263408 0.695315
O O11 0.181721 0.260859 0.700106
O O12 0.607996 0.080982 0.512550
O O13 0.662330 0.245673 0.444758
O O14 0.524376 0.200141 0.539599
O O15 0.582074 0.207206 0.702344
O O16 0.000000 0.500000 0.000000
#
# Coordination Sequence:
#
# PCOD8132603 Si02
#       8
#     8   8   8   8   8   4   8   8
#     4  12  22  37  60  91 119 161 204 245 314 371
#     4  10  21  40  62  92 111 154 211 253 292 356
#     4  10  21  39  61  88 124 160 200 249 310 370
#     4   9  20  40  58  83 124 157 199 246 306 363
#     4  11  22  36  60  95 121 159 203 259 296 369
#     4  10  18  38  66  86 114 158 200 248 302 364
#     4   9  22  41  58  84 124 158 196 253 305 366
#     4  10  20  37  64  85 114 163 198 244 312 367
#
# _framework density 19.253655999999999
#
# number of rings (size 3 to 8) (size 9 to 14) (size 15 to 20)
#    0.000    1.867    2.667    2.000    1.867    2.667 
#    4.800    1.333    0.000    0.000    0.000    0.000 
#    0.000    0.000    0.000    0.000    0.000    0.000 
#
# Total GULP energy -371719.789690 kJ/mol
# GULP energy per Si atom -12390.659656 kJ/mol
# Density = 1.920983 g / cm^3
# Si number density = 19.253656 Si / 1000 Ang^3
#
#
#
# Elastic Constant Matrix: (Units=GPa)
#
#
# Indices 1 2 3 4 5 6 
#
# 1 81.5218 48.2266 47.7225 0.0000 -12.5499 0.0000
# 2 48.2266 140.5393 53.3364 0.0000 -14.9659 0.0000
# 3 47.7225 53.3364 111.2590 0.0000 -6.3647 0.0000
# 4 0.0000 0.0000 0.0000 30.0756 0.0000 -1.2337
# 5 -12.5499 -14.9659 -6.3647 0.0000 25.9078 0.0000
# 6 0.0000 0.0000 0.0000 -1.2337 0.0000 32.5048
#
#
#
# Elastic Compliance Matrix: (Units=1/GPa)
#
#
# Indices 1 2 3 4 5 6 
#
# 1 0.018749 -0.003559 -0.006019 0.000000 0.005548 0.000000
# 2 -0.003559 0.009815 -0.002995 0.000000 0.003210 0.000000
# 3 -0.006019 -0.002995 0.012921 0.000000 -0.001471 0.000000
# 4 0.000000 0.000000 0.000000 0.033301 0.000000 0.001264
# 5 0.005548 0.003210 -0.001471 0.000000 0.042779 0.000000
# 6 0.000000 0.000000 0.000000 0.001264 0.000000 0.030813
#
#
# Mechanical properties :
#
#
# Convention : Reuss Voigt Hill
#
# Bulk Modulus (GPa) = 61.19814 70.21012 65.70413
# Shear Modulus (GPa) = 27.93742 29.96660 28.95201
#
# Velocity S-wave (km/s) = 3.81336 3.94942 3.88198
# Velocity P-wave (km/s) = 7.15843 7.57246 7.36836
#
# Compressibility (1/GPa) = 0.01634036
#
# Stress axis : x y z
#
# Youngs Moduli (GPa) = 53.33482 101.88221 77.39143
#
# Poissons Ratio (x) = 0.36260 0.46580
# Poissons Ratio (y) = 0.18982 0.23180
# Poissons Ratio (z) = 0.32101 0.30515
#
# Static dielectric constant tensor:
#      x y z
#    x 3.431430 0.000000 0.078980 
#    y 0.000000 3.564520 0.000000 
#    z 0.078980 0.000000 3.521110 
# 
# 
# High freq. dielectric constant tensor:
#      x y z
#    x 1.732120 0.000000 0.009830 
#    y 0.000000 1.748220 0.000000 
#    z 0.009830 0.000000 1.752740 
# 
# From -- ./inp_files/118780.got.cif
#   From: 2010.06.25/outbox.cif.g09.slc.cpg/sg15_60_cif.got.tgz:118780.got - 2010.06.28 07:06:18.
