data_PCOD8132560
_publ_section_title
;
Structure prediction by ZEFSAII (Michael W. Deem and Ramdas Pophale) SiO2 
 PCOD8132560
Probable space group: C 2/C
;
_chemical_formula_sum "Si O2"
_cell_formula_units_Z 64
_cell_length_a 13.713341
_cell_length_b 17.996968
_cell_length_c 14.735945
_cell_angle_alpha 90.000000
_cell_angle_beta 59.788422
_cell_angle_gamma 90.000000
_cell_volume 3142.833501
_symmetry_space_group_name_H-M "C 2/C"
_symmetry_group_IT_number 15
_symmetry_cell_setting 'monoclinic'
loop_
_space_group_symop_operation_xyz
x,y,z
-x,y,1/2-z
-x,-y,-z
x,-y,1/2+z
1/2+x,1/2+y,z
1/2-x,1/2+y,1/2-z
1/2-x,1/2-y,-z
1/2+x,1/2-y,1/2+z
loop_
_atom_site_type_symbol
_atom_site_label
_atom_site_fract_x
_atom_site_fract_y
_atom_site_fract_z
Si Si1 0.619212 0.176320 0.668989
Si Si2 0.878722 0.290619 0.852480
Si Si3 0.298621 0.270026 0.215664
Si Si4 0.976035 0.177619 0.370286
Si Si5 0.275083 0.575218 0.483372
Si Si6 0.462728 0.307218 0.466050
Si Si7 0.784640 0.921802 0.581193
Si Si8 0.292669 0.615450 0.280251
O O1 0.500000 0.138044 0.750000
O O2 0.694328 0.182258 0.725607
O O3 0.597878 0.259720 0.644043
O O4 0.677250 0.129390 0.563624
O O5 0.801844 0.237045 0.823752
O O6 0.889145 0.252271 0.945228
O O7 0.820387 0.369614 0.895066
O O8 0.000000 0.303459 0.750000
O O9 0.410863 0.312224 0.130498
O O10 0.293613 0.184935 0.181765
O O11 0.896119 0.112573 0.445952
O O12 0.038029 0.215917 0.427666
O O13 0.078715 0.144749 0.260501
O O14 0.265127 0.499405 0.542105
O O15 0.259301 0.564096 0.381931
O O16 0.401413 0.387417 0.488450
O O17 0.789311 0.931738 0.688728
#
# Coordination Sequence:
#
# PCOD8132560 Si02
#       8
#     8   8   8   8   8   8   8   8
#     4  12  22  38  64  98 125 159 211 273 311 366
#     4   9  20  40  66  87 122 170 211 259 310 369
#     4  10  18  38  62  94 122 156 208 267 313 360
#     4  11  20  37  64  93 125 160 210 270 316 365
#     4  12  23  39  61  93 131 169 206 254 324 382
#     4  10  20  37  64  93 118 161 214 257 308 373
#     4  10  24  41  59  92 131 170 210 253 316 386
#     4  10  21  40  64  86 127 166 211 258 324 364
#
# _framework density 20.363789000000001
#
# number of rings (size 3 to 8) (size 9 to 14) (size 15 to 20)
#    0.000    1.500    3.750    1.875    0.000    2.500 
#    2.250    2.500    0.000    8.250    0.000    0.000 
#    0.000    0.000    0.000    0.000    0.000    0.000 
#
# Total GULP energy -396705.761617 kJ/mol
# GULP energy per Si atom -12397.055051 kJ/mol
# Density = 2.031744 g / cm^3
# Si number density = 20.363789 Si / 1000 Ang^3
#
#
#
# Elastic Constant Matrix: (Units=GPa)
#
#
# Indices 1 2 3 4 5 6 
#
# 1 120.2221 37.3204 52.9729 0.0000 10.8440 0.0000
# 2 37.3204 81.1757 67.3256 0.0000 7.5294 0.0000
# 3 52.9729 67.3256 130.5957 0.0000 8.7118 0.0000
# 4 0.0000 0.0000 0.0000 36.3086 0.0000 3.6962
# 5 10.8440 7.5294 8.7118 0.0000 31.1684 0.0000
# 6 0.0000 0.0000 0.0000 3.6962 0.0000 15.8205
#
#
#
# Elastic Compliance Matrix: (Units=1/GPa)
#
#
# Indices 1 2 3 4 5 6 
#
# 1 0.010513 -0.002114 -0.003021 0.000000 -0.002303 0.000000
# 2 -0.002114 0.022086 -0.010416 0.000000 -0.001688 0.000000
# 3 -0.003021 -0.010416 0.014280 0.000000 -0.000424 0.000000
# 4 0.000000 0.000000 0.000000 0.028213 0.000000 -0.006592
# 5 -0.002303 -0.001688 -0.000424 0.000000 0.033411 0.000000
# 6 0.000000 0.000000 0.000000 -0.006592 0.000000 0.064749
#
#
# Mechanical properties :
#
#
# Convention : Reuss Voigt Hill
#
# Bulk Modulus (GPa) = 63.37980 71.91459 67.64719
# Shear Modulus (GPa) = 23.85331 28.28446 26.06888
#
# Velocity S-wave (km/s) = 3.42623 3.73092 3.58181
# Velocity P-wave (km/s) = 6.84422 7.34515 7.09911
#
# Compressibility (1/GPa) = 0.01577790
#
# Stress axis : x y z
#
# Youngs Moduli (GPa) = 95.12032 45.27675 70.02597
#
# Poissons Ratio (x) = 0.09574 0.21152
# Poissons Ratio (y) = 0.20113 0.72938
# Poissons Ratio (z) = 0.28733 0.47159
#
# Static dielectric constant tensor:
#      x y z
#    x 4.110680 0.000000 0.066870 
#    y 0.000000 3.212710 0.000000 
#    z 0.066870 0.000000 3.958690 
# 
# 
# High freq. dielectric constant tensor:
#      x y z
#    x 1.818780 0.000000 0.006550 
#    y 0.000000 1.744350 0.000000 
#    z 0.006550 0.000000 1.810590 
# 
# From -- ./inp_files/155181.got.cif
#   From: 2010.06.25/outbox.cif.g09.slc.cpg/sg15_78_cif.got.tgz:155181.got - 2010.06.28 07:06:18.
