data_PCOD8132548
_publ_section_title
;
Structure prediction by ZEFSAII (Michael W. Deem and Ramdas Pophale) SiO2 
 PCOD8132548
Probable space group: C 2/C
;
_chemical_formula_sum "Si O2"
_cell_formula_units_Z 56
_cell_length_a 20.635334
_cell_length_b 8.996594
_cell_length_c 17.805836
_cell_angle_alpha 90.000000
_cell_angle_beta 64.012523
_cell_angle_gamma 90.000000
_cell_volume 2971.381839
_symmetry_space_group_name_H-M "C 2/C"
_symmetry_group_IT_number 15
_symmetry_cell_setting 'monoclinic'
loop_
_space_group_symop_operation_xyz
x,y,z
-x,y,1/2-z
-x,-y,-z
x,-y,1/2+z
1/2+x,1/2+y,z
1/2-x,1/2+y,1/2-z
1/2-x,1/2-y,-z
1/2+x,1/2-y,1/2+z
loop_
_atom_site_type_symbol
_atom_site_label
_atom_site_fract_x
_atom_site_fract_y
_atom_site_fract_z
Si Si1 0.323679 0.980533 0.289104
Si Si2 0.058959 0.422239 0.057441
Si Si3 0.178465 0.243924 0.085143
Si Si4 0.285998 0.310470 0.597324
Si Si5 0.319178 0.592076 0.919676
Si Si6 0.567805 0.828307 0.669912
Si Si7 0.099225 0.390396 0.399805
O O1 0.310837 0.829816 0.342233
O O2 0.348915 0.943086 0.193179
O O3 0.250560 0.079809 0.322971
O O4 0.383366 0.077425 0.299578
O O5 0.111743 0.308042 0.071435
O O6 0.043487 0.569731 0.113275
O O7 0.981184 0.344152 0.085470
O O8 0.094499 0.473215 0.960945
O O9 0.161941 0.074080 0.114891
O O10 0.250000 0.250000 0.000000
O O11 0.286806 0.405615 0.520102
O O12 0.239039 0.160926 0.608195
O O13 0.364987 0.258135 0.583256
O O14 0.392256 0.685789 0.883022
O O15 0.500000 0.768057 0.750000
#
# Coordination Sequence:
#
# PCOD8132548 Si02
#       7
#     8   8   8   8   8   8   8
#     4  10  22  36  62  87 114 154 200 242 290 350
#     4  10  22  37  63  85 115 162 192 235 303 352
#     4  11  21  38  64  88 114 153 200 248 287 352
#     4  10  20  37  60  84 112 157 192 241 290 349
#     4  10  20  37  61  85 112 148 202 244 289 339
#     4  10  18  38  62  86 110 153 204 241 281 360
#     4  11  21  38  60  86 122 152 197 239 294 359
#
# _framework density 18.846450000000001
#
# number of rings (size 3 to 8) (size 9 to 14) (size 15 to 20)
#    0.000    1.714    4.286    0.857    0.000    2.286 
#    2.571    0.714    0.000    0.000    0.000    0.000 
#    0.000    0.000    0.000    0.000    0.000    0.000 
#
# Total GULP energy -347240.633420 kJ/mol
# GULP energy per Si atom -12401.451194 kJ/mol
# Density = 1.880355 g / cm^3
# Si number density = 18.846450 Si / 1000 Ang^3
#
#
#
# Elastic Constant Matrix: (Units=GPa)
#
#
# Indices 1 2 3 4 5 6 
#
# 1 105.5574 47.6053 26.5142 0.0000 -10.8884 0.0000
# 2 47.6053 111.7990 31.5584 0.0001 -5.3533 0.0001
# 3 26.5142 31.5584 105.2015 0.0000 -9.8638 0.0000
# 4 0.0000 0.0001 0.0000 23.2483 0.0000 -4.8902
# 5 -10.8884 -5.3533 -9.8638 0.0000 28.1215 0.0000
# 6 0.0000 0.0001 0.0000 -4.8902 0.0000 24.2234
#
#
#
# Elastic Compliance Matrix: (Units=1/GPa)
#
#
# Indices 1 2 3 4 5 6 
#
# 1 0.012277 -0.004678 -0.001374 0.000000 0.003381 0.000000
# 2 -0.004678 0.011575 -0.002333 0.000000 -0.000426 0.000000
# 3 -0.001374 -0.002333 0.010816 0.000000 0.002818 0.000000
# 4 0.000000 0.000000 0.000000 0.044922 0.000000 0.009069
# 5 0.003381 -0.000426 0.002818 0.000000 0.037776 0.000000
# 6 0.000000 0.000000 0.000000 0.009069 0.000000 0.043113
#
#
# Mechanical properties :
#
#
# Convention : Reuss Voigt Hill
#
# Bulk Modulus (GPa) = 55.87321 59.32374 57.59848
# Shear Modulus (GPa) = 27.29038 29.57731 28.43385
#
# Velocity S-wave (km/s) = 3.80944 3.96584 3.88843
# Velocity P-wave (km/s) = 7.00428 7.24681 7.12658
#
# Compressibility (1/GPa) = 0.01789767
#
# Stress axis : x y z
#
# Youngs Moduli (GPa) = 81.45229 86.39485 92.45633
#
# Poissons Ratio (x) = 0.40416 0.12703
# Poissons Ratio (y) = 0.38104 0.21571
# Poissons Ratio (z) = 0.11191 0.20157
#
# Static dielectric constant tensor:
#      x y z
#    x 3.466230 0.000000 -0.104100 
#    y 0.000000 3.442050 0.000000 
#    z -0.104100 0.000000 3.584850 
# 
# 
# High freq. dielectric constant tensor:
#      x y z
#    x 1.730240 0.000000 -0.008110 
#    y 0.000000 1.717510 0.000000 
#    z -0.008110 0.000000 1.738110 
# 
# From -- ./inp_files/209540.got.cif
#   From: 2010.06.25/outbox.cif.g09.slc.cpg/sg15_105_cif.got.tgz:209540.got - 2010.06.28 07:06:18.
