data_PCOD8132565
_publ_section_title
;
Structure prediction by ZEFSAII (Michael W. Deem and Ramdas Pophale) SiO2 
 PCOD8132565
Probable space group: C 2/C
;
_chemical_formula_sum "Si O2"
_cell_formula_units_Z 48
_cell_length_a 8.575428
_cell_length_b 30.989124
_cell_length_c 15.892377
_cell_angle_alpha 90.000000
_cell_angle_beta 145.340552
_cell_angle_gamma 90.000000
_cell_volume 2401.791365
_symmetry_space_group_name_H-M "C 2/C"
_symmetry_group_IT_number 15
_symmetry_cell_setting 'monoclinic'
loop_
_space_group_symop_operation_xyz
x,y,z
-x,y,1/2-z
-x,-y,-z
x,-y,1/2+z
1/2+x,1/2+y,z
1/2-x,1/2+y,1/2-z
1/2-x,1/2-y,-z
1/2+x,1/2-y,1/2+z
loop_
_atom_site_type_symbol
_atom_site_label
_atom_site_fract_x
_atom_site_fract_y
_atom_site_fract_z
Si Si1 0.446271 0.790469 0.823782
Si Si2 0.966480 0.962233 0.139049
Si Si3 0.695756 0.616576 0.637527
Si Si4 0.404088 0.964259 0.803526
Si Si5 0.262537 0.626032 0.306615
Si Si6 0.477799 0.303678 0.339037
O O1 0.500000 0.783511 0.750000
O O2 0.227020 0.829273 0.743120
O O3 0.345671 0.742765 0.808059
O O4 0.716321 0.805956 0.990849
O O5 0.043456 0.921967 0.116367
O O6 0.000000 0.947959 0.250000
O O7 0.159067 0.002703 0.207418
O O8 0.653586 0.975114 0.977422
O O9 0.542637 0.624082 0.482040
O O10 0.704299 0.659228 0.698854
O O11 0.000000 0.601758 0.750000
O O12 0.500000 0.966442 0.750000
O O13 0.280829 0.916660 0.769358
O O14 0.000000 0.631190 0.250000
O O15 0.500000 0.312062 0.250000
#
# Coordination Sequence:
#
# PCOD8132565 Si02
#       6
#     8   8   8   8   8   8
#     4   9  16  33  64  85 115 158 208 233 289 366
#     4  12  25  41  62  94 125 155 199 262 305 351
#     4  12  24  39  61  92 125 161 202 252 301 361
#     4  11  22  40  66  89 120 165 205 242 300 371
#     4  10  18  38  63  84 114 165 211 234 283 371
#     4  10  19  33  61  95 115 152 204 254 293 348
#
# _framework density 19.985081999999998
#
# number of rings (size 3 to 8) (size 9 to 14) (size 15 to 20)
#    0.000    1.333    6.667    2.000    2.333    0.000 
#    0.000    0.833    0.000    0.000    0.000    0.000 
#    0.000    0.000    0.000    0.000    0.000    0.000 
#
# Total GULP energy -297492.757433 kJ/mol
# GULP energy per Si atom -12395.531560 kJ/mol
# Density = 1.993960 g / cm^3
# Si number density = 19.985082 Si / 1000 Ang^3
#
#
#
# Elastic Constant Matrix: (Units=GPa)
#
#
# Indices 1 2 3 4 5 6 
#
# 1 29.5541 12.5973 24.1884 0.0000 -8.6901 0.0000
# 2 12.5973 167.9530 41.7475 0.0000 5.8313 0.0000
# 3 24.1884 41.7475 148.4394 0.0000 -16.0282 0.0000
# 4 0.0000 0.0000 0.0000 33.9772 0.0000 -2.2497
# 5 -8.6901 5.8313 -16.0282 0.0000 27.2318 0.0000
# 6 0.0000 0.0000 0.0000 -2.2497 0.0000 19.3821
#
#
#
# Elastic Compliance Matrix: (Units=1/GPa)
#
#
# Indices 1 2 3 4 5 6 
#
# 1 0.042167 -0.002291 -0.005041 0.000000 0.010979 0.000000
# 2 -0.002291 0.006703 -0.001864 0.000000 -0.003263 0.000000
# 3 -0.005041 -0.001864 0.008492 0.000000 0.003788 0.000000
# 4 0.000000 0.000000 0.000000 0.029659 0.000000 0.003443
# 5 0.010979 -0.003263 0.003788 0.000000 0.043154 0.000000
# 6 0.000000 0.000000 0.000000 0.003443 0.000000 0.051993
#
#
# Mechanical properties :
#
#
# Convention : Reuss Voigt Hill
#
# Bulk Modulus (GPa) = 25.66167 55.89031 40.77599
# Shear Modulus (GPa) = 23.41367 33.94579 28.67973
#
# Velocity S-wave (km/s) = 3.42651 4.12583 3.79232
# Velocity P-wave (km/s) = 5.34069 7.12203 6.29469
#
# Compressibility (1/GPa) = 0.03896862
#
# Stress axis : x y z
#
# Youngs Moduli (GPa) = 23.71514 149.19718 117.76353
#
# Poissons Ratio (x) = 0.34179 0.59369
# Poissons Ratio (y) = 0.05433 0.21953
# Poissons Ratio (z) = 0.11956 0.27812
#
# Static dielectric constant tensor:
#      x y z
#    x 3.215240 0.000000 -0.274780 
#    y 0.000000 4.502900 0.000000 
#    z -0.274780 0.000000 3.840050 
# 
# 
# High freq. dielectric constant tensor:
#      x y z
#    x 1.724050 0.000000 -0.022700 
#    y 0.000000 1.812360 0.000000 
#    z -0.022700 0.000000 1.792010 
# 
# From -- ./inp_files/194314.got.cif
#   From: 2010.06.25/outbox.cif.g09.slc.cpg/sg15_98_cif.got.tgz:194314.got - 2010.06.28 07:06:18.
