data_PCOD8132244
_publ_section_title
;
Structure prediction by ZEFSAII (Michael W. Deem and Ramdas Pophale) SiO2 
 PCOD8132244
Probable space group: C 2/C
;
_chemical_formula_sum "Si O2"
_cell_formula_units_Z 44
_cell_length_a 22.200738
_cell_length_b 22.680097
_cell_length_c 9.405865
_cell_angle_alpha 90.000000
_cell_angle_beta 27.000641
_cell_angle_gamma 90.000000
_cell_volume 2150.143080
_symmetry_space_group_name_H-M "C 2/C"
_symmetry_group_IT_number 15
_symmetry_cell_setting 'monoclinic'
loop_
_space_group_symop_operation_xyz
x,y,z
-x,y,1/2-z
-x,-y,-z
x,-y,1/2+z
1/2+x,1/2+y,z
1/2-x,1/2+y,1/2-z
1/2-x,1/2-y,-z
1/2+x,1/2-y,1/2+z
loop_
_atom_site_type_symbol
_atom_site_label
_atom_site_fract_x
_atom_site_fract_y
_atom_site_fract_z
Si Si1 0.500000 0.623713 0.250000
Si Si2 0.754565 0.042566 0.812999
Si Si3 0.082846 0.304800 0.799309
Si Si4 0.500000 0.145096 0.750000
Si Si5 0.245460 0.071237 0.357214
Si Si6 0.500000 0.894572 0.750000
Si Si7 0.881208 0.824983 0.258585
O O1 0.370394 0.584336 0.516884
O O2 0.493909 0.664058 0.403545
O O3 0.794225 0.977596 0.674786
O O4 0.732985 0.043529 0.029303
O O5 0.624956 0.062361 0.998319
O O6 0.084371 0.237248 0.738848
O O7 0.235905 0.325309 0.487775
O O8 0.997265 0.349853 0.887099
O O9 0.004790 0.308557 0.111295
O O10 0.624642 0.102026 0.478476
O O11 0.127209 0.120619 0.612201
#
# Coordination Sequence:
#
# PCOD8132244 Si02
#       7
#     4   8   8   4   8   4   8
#     4  10  19  42  61  87 114 177 200 250 304 380
#     4  11  24  38  63  87 132 155 215 245 314 354
#     4  10  20  36  65  87 124 152 207 253 309 363
#     4  10  18  36  60  92 112 168 198 242 322 364
#     4  10  22  39  59  92 120 170 200 261 295 377
#     4  12  21  40  57 103 120 157 196 278 294 364
#     4   9  19  39  59  85 117 170 200 242 305 382
#
# _framework density 20.463754999999999
#
# number of rings (size 3 to 8) (size 9 to 14) (size 15 to 20)
#    0.000    1.818    5.455    1.091    2.545    4.364 
#    0.000    3.636    0.000    0.000    0.000    0.000 
#    0.000    0.000    0.000    0.000    0.000    0.000 
#
# Total GULP energy -272594.575113 kJ/mol
# GULP energy per Si atom -12390.662505 kJ/mol
# Density = 2.041718 g / cm^3
# Si number density = 20.463755 Si / 1000 Ang^3
#
#
#
# Elastic Constant Matrix: (Units=GPa)
#
#
# Indices 1 2 3 4 5 6 
#
# 1 39.6176 20.5184 13.6744 -0.0009 11.2747 0.0024
# 2 20.5184 127.9680 16.7275 -0.0005 18.6481 0.0022
# 3 13.6744 16.7275 94.0595 -0.0029 24.2701 0.0018
# 4 -0.0009 -0.0005 -0.0029 26.2239 0.0009 12.8286
# 5 11.2747 18.6481 24.2701 0.0009 26.1095 -0.0012
# 6 0.0024 0.0022 0.0018 12.8286 -0.0012 28.4223
#
#
#
# Elastic Compliance Matrix: (Units=1/GPa)
#
#
# Indices 1 2 3 4 5 6 
#
# 1 0.030080 -0.003278 -0.001372 0.000003 -0.009373 -0.000004
# 2 -0.003278 0.009080 0.000223 0.000001 -0.005277 -0.000001
# 3 -0.001372 0.000223 0.014049 0.000003 -0.012627 -0.000003
# 4 0.000003 0.000001 0.000003 0.048939 -0.000008 -0.022089
# 5 -0.009373 -0.005277 -0.012627 -0.000008 0.057854 0.000008
# 6 -0.000004 -0.000001 -0.000003 -0.022089 0.000008 0.045154
#
#
# Mechanical properties :
#
#
# Convention : Reuss Voigt Hill
#
# Bulk Modulus (GPa) = 22.54423 40.38728 31.46576
# Shear Modulus (GPa) = 21.85376 30.19946 26.02661
#
# Velocity S-wave (km/s) = 3.27146 3.84572 3.57015
# Velocity P-wave (km/s) = 5.03095 6.28477 5.69249
#
# Compressibility (1/GPa) = 0.04435725
#
# Stress axis : x y z
#
# Youngs Moduli (GPa) = 33.24487 110.13402 71.17776
#
# Poissons Ratio (x) = 0.36100 0.09762
# Poissons Ratio (y) = 0.10897 -0.01591
# Poissons Ratio (z) = 0.04560 -0.02461
#
# Static dielectric constant tensor:
#      x y z
#    x 4.141760 0.000030 1.305850 
#    y 0.000030 4.079790 0.000060 
#    z 1.305850 0.000060 5.421750 
# 
# 
# High freq. dielectric constant tensor:
#      x y z
#    x 1.761890 0.000000 0.023490 
#    y 0.000000 1.824770 0.000000 
#    z 0.023490 0.000000 1.799680 
# 
# From -- ./inp_files/124425.got.cif
#   From: 2010.06.25/outbox.cif.g09.slc.cpg/sg15_63_cif.got.tgz:124425.got - 2010.06.28 07:06:18.
