data_PCOD8132338
_publ_section_title
;
Structure prediction by ZEFSAII (Michael W. Deem and Ramdas Pophale) SiO2 
 PCOD8132338
Probable space group: C 2/C
;
_chemical_formula_sum "Si O2"
_cell_formula_units_Z 64
_cell_length_a 8.970143
_cell_length_b 31.989562
_cell_length_c 16.007752
_cell_angle_alpha 90.000000
_cell_angle_beta 44.465632
_cell_angle_gamma 90.000000
_cell_volume 3217.618551
_symmetry_space_group_name_H-M "C 2/C"
_symmetry_group_IT_number 15
_symmetry_cell_setting 'monoclinic'
loop_
_space_group_symop_operation_xyz
x,y,z
-x,y,1/2-z
-x,-y,-z
x,-y,1/2+z
1/2+x,1/2+y,z
1/2-x,1/2+y,1/2-z
1/2-x,1/2-y,-z
1/2+x,1/2-y,1/2+z
loop_
_atom_site_type_symbol
_atom_site_label
_atom_site_fract_x
_atom_site_fract_y
_atom_site_fract_z
Si Si1 0.330558 0.222556 0.243189
Si Si2 0.114731 0.926137 0.785624
Si Si3 0.793894 0.816597 0.277815
Si Si4 0.486592 0.549289 0.001332
Si Si5 0.539724 0.341652 0.607302
Si Si6 0.449962 0.833855 0.552289
Si Si7 0.950348 0.407140 0.862417
Si Si8 0.751609 0.123358 0.644855
O O1 0.500000 0.217594 0.250000
O O2 0.265603 0.270296 0.251690
O O3 0.448304 0.206401 0.112813
O O4 0.106216 0.198932 0.350926
O O5 0.361354 0.940544 0.690708
O O6 0.000000 0.943370 0.750000
O O7 0.127115 0.875732 0.790332
O O8 0.974133 0.941752 0.917561
O O9 0.591159 0.827226 0.414494
O O10 0.833937 0.849883 0.189232
O O11 0.000000 0.818477 0.250000
O O12 0.669939 0.574852 0.878567
O O13 0.500000 0.500000 0.000000
O O14 0.265280 0.566417 0.052743
O O15 0.711382 0.338603 0.612641
O O16 0.654033 0.355476 0.476040
O O17 0.549380 0.872444 0.565128
O O18 0.000000 0.387630 0.750000
O O19 0.500000 0.123659 0.750000
#
# Coordination Sequence:
#
# PCOD8132338 Si02
#       8
#     8   8   8   8   8   8   8   8
#     4  11  26  39  63  96 130 171 230 286 322 369
#     4  10  18  36  65  95 124 152 209 270 322 378
#     4  11  27  43  60  93 133 182 220 272 327 397
#     4  10  24  42  65  96 129 168 211 266 335 404
#     4  11  22  39  65  92 127 167 220 278 318 383
#     4  12  22  40  65  94 125 173 228 263 325 384
#     4  10  20  37  68  97 119 160 208 271 324 380
#     4  11  24  44  65  89 131 177 216 263 340 403
#
# _framework density 19.890487
#
# number of rings (size 3 to 8) (size 9 to 14) (size 15 to 20)
#    0.000    1.250    3.750    1.500    7.000    4.000 
#    0.000    2.500    0.000    0.000    0.000    0.000 
#    0.000    0.000    0.000    0.000    0.000    0.000 
#
# Total GULP energy -396522.982588 kJ/mol
# GULP energy per Si atom -12391.343206 kJ/mol
# Density = 1.984522 g / cm^3
# Si number density = 19.890487 Si / 1000 Ang^3
#
#
#
# Elastic Constant Matrix: (Units=GPa)
#
#
# Indices 1 2 3 4 5 6 
#
# 1 111.1979 42.8578 30.4484 0.0000 4.3738 0.0000
# 2 42.8578 137.6198 36.9043 0.0000 7.0652 0.0000
# 3 30.4484 36.9043 82.7313 0.0000 6.0200 0.0000
# 4 0.0000 0.0000 0.0000 18.7569 0.0000 -0.9251
# 5 4.3738 7.0652 6.0200 0.0000 36.9275 0.0000
# 6 0.0000 0.0000 0.0000 -0.9251 0.0000 14.5059
#
#
#
# Elastic Compliance Matrix: (Units=1/GPa)
#
#
# Indices 1 2 3 4 5 6 
#
# 1 0.010766 -0.002590 -0.002783 0.000000 -0.000326 0.000000
# 2 -0.002590 0.008913 -0.002956 0.000000 -0.000917 0.000000
# 3 -0.002783 -0.002956 0.014538 0.000000 -0.001475 0.000000
# 4 0.000000 0.000000 0.000000 0.053482 0.000000 0.003411
# 5 -0.000326 -0.000917 -0.001475 0.000000 0.027534 0.000000
# 6 0.000000 0.000000 0.000000 0.003411 0.000000 0.069155
#
#
# Mechanical properties :
#
#
# Convention : Reuss Voigt Hill
#
# Bulk Modulus (GPa) = 56.95317 61.33001 59.14159
# Shear Modulus (GPa) = 24.16645 28.79396 26.48021
#
# Velocity S-wave (km/s) = 3.48943 3.80889 3.65266
# Velocity P-wave (km/s) = 6.70301 7.08832 6.89836
#
# Compressibility (1/GPa) = 0.01755829
#
# Stress axis : x y z
#
# Youngs Moduli (GPa) = 92.88446 112.20107 68.78719
#
# Poissons Ratio (x) = 0.29056 0.19147
# Poissons Ratio (y) = 0.24054 0.20333
# Poissons Ratio (z) = 0.25854 0.33165
#
# Static dielectric constant tensor:
#      x y z
#    x 3.906960 0.000000 0.283040 
#    y 0.000000 3.867150 0.000000 
#    z 0.283040 0.000000 3.195380 
# 
# 
# High freq. dielectric constant tensor:
#      x y z
#    x 1.798160 0.000000 -0.001530 
#    y 0.000000 1.750970 0.000000 
#    z -0.001530 0.000000 1.782980 
# 
# From -- ./inp_files/139788.got.cif
#   From: 2010.06.25/outbox.cif.g09.slc.cpg/sg15_70_cif.got.tgz:139788.got - 2010.06.28 07:06:18.
