data_PCOD8132619
_publ_section_title
;
Structure prediction by ZEFSAII (Michael W. Deem and Ramdas Pophale) SiO2 
 PCOD8132619
Probable space group: C 2/C
;
_chemical_formula_sum "Si O2"
_cell_formula_units_Z 64
_cell_length_a 9.140112
_cell_length_b 19.522841
_cell_length_c 19.361857
_cell_angle_alpha 90.000000
_cell_angle_beta 119.713091
_cell_angle_gamma 90.000000
_cell_volume 3000.685717
_symmetry_space_group_name_H-M "C 2/C"
_symmetry_group_IT_number 15
_symmetry_cell_setting 'monoclinic'
loop_
_space_group_symop_operation_xyz
x,y,z
-x,y,1/2-z
-x,-y,-z
x,-y,1/2+z
1/2+x,1/2+y,z
1/2-x,1/2+y,1/2-z
1/2-x,1/2-y,-z
1/2+x,1/2-y,1/2+z
loop_
_atom_site_type_symbol
_atom_site_label
_atom_site_fract_x
_atom_site_fract_y
_atom_site_fract_z
Si Si1 0.634031 0.311676 0.447683
Si Si2 0.557190 0.661536 0.073432
Si Si3 0.177904 0.357817 0.755309
Si Si4 0.682392 0.623043 0.817600
Si Si5 0.193840 0.037392 0.313760
Si Si6 0.789222 0.375606 0.960024
Si Si7 0.496063 0.191489 0.619799
Si Si8 0.217964 0.254334 0.647411
O O1 0.750000 0.250000 0.500000
O O2 0.619310 0.358180 0.511729
O O3 0.713053 0.356564 0.404837
O O4 0.449166 0.289084 0.380271
O O5 0.690662 0.627609 0.154494
O O6 0.382448 0.624218 0.038661
O O7 0.532331 0.742465 0.080856
O O8 0.176856 0.426803 0.709543
O O9 0.251351 0.293920 0.727427
O O10 0.000000 0.341354 0.750000
O O11 0.500000 0.648271 0.750000
O O12 0.705457 0.543288 0.809489
O O13 0.826312 0.663448 0.807730
O O14 0.269543 0.057386 0.406909
O O15 0.000000 0.061747 0.250000
O O16 0.816909 0.309794 0.919287
O O17 0.928972 0.370178 0.053469
O O18 0.374362 0.208176 0.656535
#
# Coordination Sequence:
#
# PCOD8132619 Si02
#       8
#     8   8   8   8   8   8   8   8
#     4  12  21  38  64  97 137 169 206 273 343 393
#     4  11  20  36  64  98 133 161 209 270 336 391
#     4  11  24  39  68 100 128 169 222 273 322 397
#     4  11  27  45  65  94 135 179 223 278 333 392
#     4  10  22  46  69  89 129 186 231 266 322 390
#     4  10  18  38  67  95 124 174 219 263 320 393
#     4  11  21  39  63  99 135 169 212 273 330 409
#     4  10  21  36  62  99 129 164 212 264 333 395
#
# _framework density 21.328458000000001
#
# number of rings (size 3 to 8) (size 9 to 14) (size 15 to 20)
#    0.000    1.250    5.000    1.500    1.750    1.500 
#    0.000    3.125    0.000    0.000    0.000    0.000 
#    0.000    0.000    0.000    0.000    0.000    0.000 
#
# Total GULP energy -396504.758778 kJ/mol
# GULP energy per Si atom -12390.773712 kJ/mol
# Density = 2.127991 g / cm^3
# Si number density = 21.328458 Si / 1000 Ang^3
#
#
#
# Elastic Constant Matrix: (Units=GPa)
#
#
# Indices 1 2 3 4 5 6 
#
# 1 130.0450 45.3839 35.4299 0.0000 1.3656 0.0000
# 2 45.3839 35.4491 20.8194 0.0000 1.0526 0.0000
# 3 35.4299 20.8194 81.2192 0.0000 1.4646 0.0000
# 4 0.0000 0.0000 0.0000 27.6741 0.0000 0.8907
# 5 1.3656 1.0526 1.4646 0.0000 40.4578 0.0000
# 6 0.0000 0.0000 0.0000 0.8907 0.0000 23.4246
#
#
#
# Elastic Compliance Matrix: (Units=1/GPa)
#
#
# Indices 1 2 3 4 5 6 
#
# 1 0.014119 -0.017022 -0.001796 0.000000 0.000031 0.000000
# 2 -0.017022 0.053743 -0.006340 0.000000 -0.000594 0.000000
# 3 -0.001796 -0.006340 0.014727 0.000000 -0.000308 0.000000
# 4 0.000000 0.000000 0.000000 0.036179 0.000000 -0.001376
# 5 0.000031 -0.000594 -0.000308 0.000000 0.024743 0.000000
# 6 0.000000 0.000000 0.000000 -0.001376 0.000000 0.042742
#
#
# Mechanical properties :
#
#
# Convention : Reuss Voigt Hill
#
# Bulk Modulus (GPa) = 30.98655 49.99774 40.49215
# Shear Modulus (GPa) = 20.21604 27.98330 24.09967
#
# Velocity S-wave (km/s) = 3.08205 3.62611 3.36509
# Velocity P-wave (km/s) = 5.21777 6.40502 5.84163
#
# Compressibility (1/GPa) = 0.03227206
#
# Stress axis : x y z
#
# Youngs Moduli (GPa) = 70.82551 18.60693 67.90371
#
# Poissons Ratio (x) = 0.31673 0.12198
# Poissons Ratio (y) = 1.20560 0.43052
# Poissons Ratio (z) = 0.12723 0.11797
#
# Static dielectric constant tensor:
#      x y z
#    x 4.446310 0.000000 0.000470 
#    y 0.000000 3.416200 0.000000 
#    z 0.000470 0.000000 3.967030 
# 
# 
# High freq. dielectric constant tensor:
#      x y z
#    x 1.850890 0.000000 0.000690 
#    y 0.000000 1.792140 0.000000 
#    z 0.000690 0.000000 1.846110 
# 
# From -- ./inp_files/233905.got.cif
#   From: 2010.06.25/outbox.cif.g09.slc.cpg/sg15_117_cif.got.tgz:233905.got - 2010.06.28 07:06:18.
