data_PCOD8132313
_publ_section_title
;
Structure prediction by ZEFSAII (Michael W. Deem and Ramdas Pophale) SiO2 
 PCOD8132313
Probable space group: C 2/C
;
_chemical_formula_sum "Si O2"
_cell_formula_units_Z 44
_cell_length_a 14.855732
_cell_length_b 9.433511
_cell_length_c 16.849863
_cell_angle_alpha 90.000000
_cell_angle_beta 72.487038
_cell_angle_gamma 90.000000
_cell_volume 2251.916596
_symmetry_space_group_name_H-M "C 2/C"
_symmetry_group_IT_number 15
_symmetry_cell_setting 'monoclinic'
loop_
_space_group_symop_operation_xyz
x,y,z
-x,y,1/2-z
-x,-y,-z
x,-y,1/2+z
1/2+x,1/2+y,z
1/2-x,1/2+y,1/2-z
1/2-x,1/2-y,-z
1/2+x,1/2-y,1/2+z
loop_
_atom_site_type_symbol
_atom_site_label
_atom_site_fract_x
_atom_site_fract_y
_atom_site_fract_z
Si Si1 0.469472 0.840478 0.023895
Si Si2 0.212079 0.297444 0.341618
Si Si3 0.094372 0.913568 0.487337
Si Si4 0.000000 0.932723 0.250000
Si Si5 0.328817 0.494832 0.197051
Si Si6 0.131951 0.838622 0.082662
O O1 0.397862 0.837467 0.117203
O O2 0.564094 0.747494 0.017847
O O3 0.411443 0.773956 0.966371
O O4 0.500000 0.000000 0.000000
O O5 0.257625 0.405988 0.268889
O O6 0.265059 0.293874 0.412952
O O7 0.222023 0.142602 0.302630
O O8 0.155024 0.913284 0.390488
O O9 0.146541 0.000812 0.543521
O O10 0.000000 0.000000 0.500000
O O11 0.071738 0.025235 0.284532
O O12 0.060947 0.834260 0.175936
#
# Coordination Sequence:
#
# PCOD8132313 Si02
#       6
#     8   8   8   4   8   8
#     4  11  22  37  61  90 122 153 202 253 302 348
#     4  11  24  39  62  90 123 156 203 253 301 358
#     4  10  18  39  64  82 116 164 200 233 300 370
#     4  10  18  36  64  86 110 164 204 232 302 376
#     4  11  22  38  62  88 122 156 204 249 301 364
#     4  10  20  38  65  86 116 165 202 239 302 370
#
# _framework density 19.538912
#
# number of rings (size 3 to 8) (size 9 to 14) (size 15 to 20)
#    0.000    1.455    7.273    0.545    2.545    0.000 
#    0.000    6.364    0.000    1.091    0.000    0.000 
#    0.000    0.000    0.000    0.000    0.000    0.000 
#
# Total GULP energy -272687.951989 kJ/mol
# GULP energy per Si atom -12394.906909 kJ/mol
# Density = 1.949444 g / cm^3
# Si number density = 19.538912 Si / 1000 Ang^3
#
#
#
# Elastic Constant Matrix: (Units=GPa)
#
#
# Indices 1 2 3 4 5 6 
#
# 1 74.5907 54.6874 30.3456 0.0000 4.0718 0.0000
# 2 54.6874 162.8765 42.4081 0.0000 -5.8344 0.0000
# 3 30.3456 42.4081 108.4923 0.0000 -10.3361 0.0000
# 4 0.0000 0.0000 0.0000 32.1701 0.0000 0.8688
# 5 4.0718 -5.8344 -10.3361 0.0000 15.4239 0.0000
# 6 0.0000 0.0000 0.0000 0.8688 0.0000 25.7887
#
#
#
# Elastic Compliance Matrix: (Units=1/GPa)
#
#
# Indices 1 2 3 4 5 6 
#
# 1 0.020130 -0.006021 -0.004273 0.000000 -0.010455 0.000000
# 2 -0.006021 0.008646 -0.001317 0.000000 0.003978 0.000000
# 3 -0.004273 -0.001317 0.011736 0.000000 0.008495 0.000000
# 4 0.000000 0.000000 0.000000 0.031113 0.000000 -0.001048
# 5 -0.010455 0.003978 0.008495 0.000000 0.074792 0.000000
# 6 0.000000 0.000000 0.000000 -0.001048 0.000000 0.038812
#
#
# Mechanical properties :
#
#
# Convention : Reuss Voigt Hill
#
# Bulk Modulus (GPa) = 57.83142 66.76019 62.29581
# Shear Modulus (GPa) = 23.34106 29.24443 26.29275
#
# Velocity S-wave (km/s) = 3.46004 3.87295 3.67230
# Velocity P-wave (km/s) = 6.75462 7.36490 7.06635
#
# Compressibility (1/GPa) = 0.01729164
#
# Stress axis : x y z
#
# Youngs Moduli (GPa) = 49.67757 115.65388 85.20453
#
# Poissons Ratio (x) = 0.69632 0.36408
# Poissons Ratio (y) = 0.29910 0.11220
# Poissons Ratio (z) = 0.21227 0.15230
#
# Static dielectric constant tensor:
#      x y z
#    x 3.874510 0.000000 0.101900 
#    y 0.000000 3.845540 0.000000 
#    z 0.101900 0.000000 3.899160 
# 
# 
# High freq. dielectric constant tensor:
#      x y z
#    x 1.748310 0.000000 -0.012040 
#    y 0.000000 1.742540 0.000000 
#    z -0.012040 0.000000 1.780510 
# 
# From -- ./inp_files/202583.got.cif
#   From: 2010.06.25/outbox.cif.g09.slc.cpg/sg15_102_cif.got.tgz:202583.got - 2010.06.28 07:06:18.
