data_PCOD8132593
_publ_section_title
;
Structure prediction by ZEFSAII (Michael W. Deem and Ramdas Pophale) SiO2 
 PCOD8132593
Probable space group: C 2/C
;
_chemical_formula_sum "Si O2"
_cell_formula_units_Z 60
_cell_length_a 12.566870
_cell_length_b 14.640731
_cell_length_c 17.455099
_cell_angle_alpha 90.000000
_cell_angle_beta 83.278295
_cell_angle_gamma 90.000000
_cell_volume 3189.456757
_symmetry_space_group_name_H-M "C 2/C"
_symmetry_group_IT_number 15
_symmetry_cell_setting 'monoclinic'
loop_
_space_group_symop_operation_xyz
x,y,z
-x,y,1/2-z
-x,-y,-z
x,-y,1/2+z
1/2+x,1/2+y,z
1/2-x,1/2+y,1/2-z
1/2-x,1/2-y,-z
1/2+x,1/2-y,1/2+z
loop_
_atom_site_type_symbol
_atom_site_label
_atom_site_fract_x
_atom_site_fract_y
_atom_site_fract_z
Si Si1 0.748423 0.290922 0.759703
Si Si2 0.500000 0.500492 0.750000
Si Si3 0.882921 0.541044 0.297497
Si Si4 0.760095 0.145710 0.521900
Si Si5 0.964115 0.710020 0.667578
Si Si6 0.803434 0.101160 0.692453
Si Si7 0.877391 0.864945 0.866164
Si Si8 0.047087 0.447383 0.065755
O O1 0.830732 0.358623 0.794930
O O2 0.644901 0.269352 0.821645
O O3 0.801823 0.194135 0.739970
O O4 0.719565 0.339160 0.682217
O O5 0.412817 0.557005 0.711005
O O6 0.448989 0.440817 0.820880
O O7 0.799589 0.461763 0.276078
O O8 0.902466 0.525118 0.384998
O O9 0.000000 0.535164 0.250000
O O10 0.750000 0.250000 0.500000
O O11 0.807919 0.123645 0.601625
O O12 0.833682 0.097164 0.450826
O O13 0.640234 0.112813 0.523384
O O14 0.000000 0.680720 0.750000
O O15 0.054963 0.773640 0.623404
O O16 0.960182 0.617389 0.617285
O O17 0.000000 0.500000 0.000000
#
# Coordination Sequence:
#
# PCOD8132593 Si02
#       8
#     8   4   8   8   8   8   8   8
#     4  11  21  37  66  90 122 164 213 258 315 371
#     4  12  24  42  64  98 126 160 212 272 322 364
#     4  11  23  41  64  92 126 167 215 260 314 380
#     4  11  21  39  62  91 125 168 215 254 311 388
#     4  10  18  38  65  91 116 165 215 253 301 377
#     4  11  24  41  61  97 132 160 212 268 314 378
#     4  11  19  38  68  89 117 169 212 253 303 388
#     4  11  24  38  60  92 129 162 212 265 314 369
#
# _framework density 18.811980999999999
#
# number of rings (size 3 to 8) (size 9 to 14) (size 15 to 20)
#    0.000    1.067    6.000    3.600    2.800    1.600 
#    0.000    0.667    0.000    0.000    0.000    0.000 
#    0.000    0.000    0.000    0.000    0.000    0.000 
#
# Total GULP energy -371838.048199 kJ/mol
# GULP energy per Si atom -12394.601607 kJ/mol
# Density = 1.876916 g / cm^3
# Si number density = 18.811981 Si / 1000 Ang^3
#
#
#
# Elastic Constant Matrix: (Units=GPa)
#
#
# Indices 1 2 3 4 5 6 
#
# 1 116.8498 68.9431 65.0624 0.0000 1.0568 0.0000
# 2 68.9431 134.7341 63.8185 0.0000 8.5630 0.0000
# 3 65.0624 63.8185 104.8620 0.0000 -11.5038 0.0000
# 4 0.0000 0.0000 0.0000 64.8506 0.0000 8.9418
# 5 1.0568 8.5630 -11.5038 0.0000 35.3486 0.0000
# 6 0.0000 0.0000 0.0000 8.9418 0.0000 27.9237
#
#
#
# Elastic Compliance Matrix: (Units=1/GPa)
#
#
# Indices 1 2 3 4 5 6 
#
# 1 0.014897 -0.004296 -0.006806 0.000000 -0.001620 0.000000
# 2 -0.004296 0.012502 -0.005456 0.000000 -0.004676 0.000000
# 3 -0.006806 -0.005456 0.017886 0.000000 0.007346 0.000000
# 4 0.000000 0.000000 0.000000 0.016132 0.000000 -0.005166
# 5 -0.001620 -0.004676 0.007346 0.000000 0.031861 0.000000
# 6 0.000000 0.000000 0.000000 -0.005166 0.000000 0.037466
#
#
# Mechanical properties :
#
#
# Convention : Reuss Voigt Hill
#
# Bulk Modulus (GPa) = 82.18155 83.56602 82.87378
# Shear Modulus (GPa) = 29.77674 36.19938 32.98806
#
# Velocity S-wave (km/s) = 3.98283 4.39141 4.19210
# Velocity P-wave (km/s) = 8.05799 8.38038 8.22077
#
# Compressibility (1/GPa) = 0.01216818
#
# Stress axis : x y z
#
# Youngs Moduli (GPa) = 67.12743 79.98902 55.91108
#
# Poissons Ratio (x) = 0.34364 0.38054
# Poissons Ratio (y) = 0.28838 0.30505
# Poissons Ratio (z) = 0.45688 0.43641
#
# Static dielectric constant tensor:
#      x y z
#    x 3.663320 0.000000 -0.265140 
#    y 0.000000 3.472510 0.000000 
#    z -0.265140 0.000000 3.582850 
# 
# 
# High freq. dielectric constant tensor:
#      x y z
#    x 1.729450 0.000000 -0.016990 
#    y 0.000000 1.738840 0.000000 
#    z -0.016990 0.000000 1.721020 
# 
# From -- ./inp_files/197867.got.cif
#   From: 2010.06.25/outbox.cif.g09.slc.cpg/sg15_99_cif.got.tgz:197867.got - 2010.06.28 07:06:18.
