data_PCOD8132557
_publ_section_title
;
Structure prediction by ZEFSAII (Michael W. Deem and Ramdas Pophale) SiO2 
 PCOD8132557
Probable space group: C 2/C
;
_chemical_formula_sum "Si O2"
_cell_formula_units_Z 52
_cell_length_a 13.337423
_cell_length_b 11.952017
_cell_length_c 24.264349
_cell_angle_alpha 90.000000
_cell_angle_beta 45.317990
_cell_angle_gamma 90.000000
_cell_volume 2750.196771
_symmetry_space_group_name_H-M "C 2/C"
_symmetry_group_IT_number 15
_symmetry_cell_setting 'monoclinic'
loop_
_space_group_symop_operation_xyz
x,y,z
-x,y,1/2-z
-x,-y,-z
x,-y,1/2+z
1/2+x,1/2+y,z
1/2-x,1/2+y,1/2-z
1/2-x,1/2-y,-z
1/2+x,1/2-y,1/2+z
loop_
_atom_site_type_symbol
_atom_site_label
_atom_site_fract_x
_atom_site_fract_y
_atom_site_fract_z
Si Si1 0.437424 0.304388 0.090993
Si Si2 0.623266 0.770909 0.239139
Si Si3 0.382591 0.537458 0.906686
Si Si4 0.558195 0.148536 0.599154
Si Si5 0.055275 0.559140 0.032602
Si Si6 0.367212 0.345410 0.001786
Si Si7 0.000000 0.056765 0.250000
O O1 0.276602 0.320961 0.171639
O O2 0.534966 0.359988 0.098677
O O3 0.477187 0.175005 0.072599
O O4 0.453566 0.366103 0.025136
O O5 0.500000 0.830437 0.250000
O O6 0.576061 0.795214 0.319934
O O7 0.624723 0.637418 0.225214
O O8 0.403628 0.429650 0.937927
O O9 0.441251 0.517634 0.822599
O O10 0.222477 0.576413 0.963330
O O11 0.592864 0.219384 0.530922
O O12 0.700645 0.151331 0.581311
O O13 0.521031 0.021488 0.597481
O O14 0.000000 0.500000 0.000000
#
# Coordination Sequence:
#
# PCOD8132557 Si02
#       7
#     8   8   8   8   8   8   4
#     4  12  23  38  61  92 126 159 195 246 318 364
#     4  10  20  37  62  87 116 151 203 258 287 351
#     4  11  24  39  62  90 127 155 203 256 303 366
#     4  10  19  36  64  88 115 150 209 248 294 346
#     4  11  23  39  64  87 117 165 202 248 298 369
#     4  10  18  38  62  92 112 155 202 253 294 354
#     4  10  20  40  62  86 118 162 208 250 298 346
#
# _framework density 18.907737999999998
#
# number of rings (size 3 to 8) (size 9 to 14) (size 15 to 20)
#    0.462    0.923    4.615    1.846    2.154    2.462 
#    0.000    0.000    1.692    0.000    0.000    0.000 
#    0.000    0.000    0.000    0.000    0.000    0.000 
#
# Total GULP energy -322283.902894 kJ/mol
# GULP energy per Si atom -12395.534727 kJ/mol
# Density = 1.886470 g / cm^3
# Si number density = 18.907738 Si / 1000 Ang^3
#
#
#
# Elastic Constant Matrix: (Units=GPa)
#
#
# Indices 1 2 3 4 5 6 
#
# 1 112.3098 40.9202 60.0664 0.0000 -3.7447 0.0000
# 2 40.9202 85.0656 48.5163 0.0000 1.7095 0.0000
# 3 60.0664 48.5163 109.6151 0.0000 6.5779 0.0000
# 4 0.0000 0.0000 0.0000 19.8506 0.0000 1.0564
# 5 -3.7447 1.7095 6.5779 0.0000 28.7616 0.0000
# 6 0.0000 0.0000 0.0000 1.0564 0.0000 30.5726
#
#
#
# Elastic Compliance Matrix: (Units=1/GPa)
#
#
# Indices 1 2 3 4 5 6 
#
# 1 0.013442 -0.002966 -0.006254 0.000000 0.003357 0.000000
# 2 -0.002966 0.016393 -0.005625 0.000000 -0.000074 0.000000
# 3 -0.006254 -0.005625 0.015278 0.000000 -0.003974 0.000000
# 4 0.000000 0.000000 0.000000 0.050469 0.000000 -0.001744
# 5 0.003357 -0.000074 -0.003974 0.000000 0.036119 0.000000
# 6 0.000000 0.000000 0.000000 -0.001744 0.000000 0.032769
#
#
# Mechanical properties :
#
#
# Convention : Reuss Voigt Hill
#
# Bulk Modulus (GPa) = 64.84940 67.33289 66.09115
# Shear Modulus (GPa) = 25.08758 26.33614 25.71186
#
# Velocity S-wave (km/s) = 3.64654 3.73617 3.69163
# Velocity P-wave (km/s) = 7.21816 7.36889 7.29392
#
# Compressibility (1/GPa) = 0.01542034
#
# Stress axis : x y z
#
# Youngs Moduli (GPa) = 74.39605 61.00338 65.45250
#
# Poissons Ratio (x) = 0.18096 0.40935
# Poissons Ratio (y) = 0.22069 0.36820
# Poissons Ratio (z) = 0.46528 0.34317
#
# Static dielectric constant tensor:
#      x y z
#    x 3.488160 0.000000 0.032470 
#    y 0.000000 3.350220 0.000000 
#    z 0.032470 0.000000 3.344610 
# 
# 
# High freq. dielectric constant tensor:
#      x y z
#    x 1.732110 0.000000 0.003610 
#    y 0.000000 1.719790 0.000000 
#    z 0.003610 0.000000 1.734240 
# 
# From -- ./inp_files/204196.got.cif
#   From: 2010.06.25/outbox.cif.g09.slc.cpg/sg15_103_cif.got.tgz:204196.got - 2010.06.28 07:06:18.
