data_PCOD8132155
_publ_section_title
;
Structure prediction by ZEFSAII (Michael W. Deem and Ramdas Pophale) SiO2 
 PCOD8132155
Probable space group: C 2/C
;
_chemical_formula_sum "Si O2"
_cell_formula_units_Z 48
_cell_length_a 16.561085
_cell_length_b 8.657846
_cell_length_c 20.082206
_cell_angle_alpha 90.000000
_cell_angle_beta 60.673016
_cell_angle_gamma 90.000000
_cell_volume 2510.418933
_symmetry_space_group_name_H-M "C 2/C"
_symmetry_group_IT_number 15
_symmetry_cell_setting 'monoclinic'
loop_
_space_group_symop_operation_xyz
x,y,z
-x,y,1/2-z
-x,-y,-z
x,-y,1/2+z
1/2+x,1/2+y,z
1/2-x,1/2+y,1/2-z
1/2-x,1/2-y,-z
1/2+x,1/2-y,1/2+z
loop_
_atom_site_type_symbol
_atom_site_label
_atom_site_fract_x
_atom_site_fract_y
_atom_site_fract_z
Si Si1 0.601502 0.601327 0.688049
Si Si2 0.780215 0.877814 0.773888
Si Si3 0.534392 0.210750 0.806713
Si Si4 0.626082 0.378656 0.566139
Si Si5 0.743692 0.322807 0.403093
Si Si6 0.361983 0.941418 0.783088
O O1 0.500000 0.546328 0.750000
O O2 0.681215 0.526486 0.701983
O O3 0.609262 0.545819 0.607520
O O4 0.608728 0.784787 0.692914
O O5 0.867379 0.780760 0.712209
O O6 0.716201 0.765817 0.845955
O O7 0.721547 0.926235 0.734722
O O8 0.500000 0.281961 0.750000
O O9 0.460897 0.260194 0.892814
O O10 0.550445 0.024773 0.789837
O O11 0.653830 0.396860 0.476626
O O12 0.714031 0.308923 0.567742
O O13 0.824074 0.448366 0.357181
#
# Coordination Sequence:
#
# PCOD8132155 Si02
#       6
#     8   8   8   8   8   8
#     4  11  19  32  57  84 104 140 188 231 261 313
#     4  10  19  37  55  79 110 146 180 217 278 333
#     4  11  17  37  58  79 103 150 192 212 262 334
#     4  10  18  36  58  78 109 145 187 224 267 326
#     4   9  20  35  57  81 107 147 182 222 277 323
#     4  11  22  32  57  85 112 135 185 234 271 317
#
# _framework density 19.120315000000002
#
# number of rings (size 3 to 8) (size 9 to 14) (size 15 to 20)
#    0.000    1.667    6.667    2.500    0.000    0.667 
#    0.000    1.667    0.000    0.000    0.000    0.000 
#    0.000    0.000    0.000    0.000    0.000    0.000 
#
# Total GULP energy -297359.205210 kJ/mol
# GULP energy per Si atom -12389.966884 kJ/mol
# Density = 1.907680 g / cm^3
# Si number density = 19.120315 Si / 1000 Ang^3
#
#
#
# Elastic Constant Matrix: (Units=GPa)
#
#
# Indices 1 2 3 4 5 6 
#
# 1 51.3729 4.1816 9.4665 0.0000 -3.3856 0.0000
# 2 4.1816 115.3484 23.0872 0.0000 -7.6377 0.0001
# 3 9.4665 23.0872 94.8518 0.0000 -21.5444 0.0000
# 4 0.0000 0.0000 0.0000 12.2446 0.0000 -5.6700
# 5 -3.3856 -7.6377 -21.5444 0.0000 18.8397 0.0000
# 6 0.0000 0.0001 0.0000 -5.6700 0.0000 22.8747
#
#
#
# Elastic Compliance Matrix: (Units=1/GPa)
#
#
# Indices 1 2 3 4 5 6 
#
# 1 0.019883 -0.000303 -0.001522 0.000000 0.001709 0.000000
# 2 -0.000303 0.009152 -0.001847 0.000000 0.001544 0.000000
# 3 -0.001522 -0.001847 0.014741 0.000000 0.015835 0.000000
# 4 0.000000 0.000000 0.000000 0.092258 0.000000 0.022868
# 5 0.001709 0.001544 0.015835 0.000000 0.072121 0.000000
# 6 0.000000 0.000000 0.000000 0.022868 0.000000 0.049385
#
#
# Mechanical properties :
#
#
# Convention : Reuss Voigt Hill
#
# Bulk Modulus (GPa) = 27.44810 37.22708 32.33759
# Shear Modulus (GPa) = 18.04868 25.78098 21.91483
#
# Velocity S-wave (km/s) = 3.07572 3.67598 3.38916
# Velocity P-wave (km/s) = 5.19615 6.12611 5.68020
#
# Compressibility (1/GPa) = 0.03643239
#
# Stress axis : x y z
#
# Youngs Moduli (GPa) = 50.29334 109.26291 67.83834
#
# Poissons Ratio (x) = 0.03310 0.10328
# Poissons Ratio (y) = 0.01523 0.12528
# Poissons Ratio (z) = 0.07657 0.20178
#
# Static dielectric constant tensor:
#      x y z
#    x 3.319520 0.000000 -0.224310 
#    y 0.000000 3.605100 0.000000 
#    z -0.224310 0.000000 3.854360 
# 
# 
# High freq. dielectric constant tensor:
#      x y z
#    x 1.725370 0.000000 -0.014290 
#    y 0.000000 1.749810 0.000000 
#    z -0.014290 0.000000 1.720730 
# 
# From -- ./inp_files/208533.got.cif
#   From: 2010.06.25/outbox.cif.g09.slc.cpg/sg15_105_cif.got.tgz:208533.got - 2010.06.28 07:06:18.
