data_PCOD8132277
_publ_section_title
;
Structure prediction by ZEFSAII (Michael W. Deem and Ramdas Pophale) SiO2 
 PCOD8132277
Probable space group: C 2/C
;
_chemical_formula_sum "Si O2"
_cell_formula_units_Z 64
_cell_length_a 10.410018
_cell_length_b 13.462041
_cell_length_c 29.004755
_cell_angle_alpha 90.000000
_cell_angle_beta 44.748511
_cell_angle_gamma 90.000000
_cell_volume 2861.554012
_symmetry_space_group_name_H-M "C 2/C"
_symmetry_group_IT_number 15
_symmetry_cell_setting 'monoclinic'
loop_
_space_group_symop_operation_xyz
x,y,z
-x,y,1/2-z
-x,-y,-z
x,-y,1/2+z
1/2+x,1/2+y,z
1/2-x,1/2+y,1/2-z
1/2-x,1/2-y,-z
1/2+x,1/2-y,1/2+z
loop_
_atom_site_type_symbol
_atom_site_label
_atom_site_fract_x
_atom_site_fract_y
_atom_site_fract_z
Si Si1 0.118881 0.603855 0.277270
Si Si2 0.112536 0.358036 0.879587
Si Si3 0.996091 0.863767 0.394446
Si Si4 0.442604 0.731498 0.077626
Si Si5 0.257399 0.461800 0.648867
Si Si6 0.352467 0.981624 0.998100
Si Si7 0.743243 0.180676 0.443820
Si Si8 0.058529 0.816056 0.188342
O O1 0.948541 0.526365 0.317731
O O2 0.033241 0.708493 0.285102
O O3 0.206261 0.612411 0.306657
O O4 0.265509 0.572493 0.201069
O O5 0.251455 0.352510 0.887881
O O6 0.016105 0.251261 0.901821
O O7 0.962996 0.445231 0.925024
O O8 0.789464 0.893670 0.457146
O O9 0.026079 0.878104 0.332006
O O10 0.144149 0.932077 0.382641
O O11 0.364624 0.620359 0.091517
O O12 0.576690 0.742300 0.088158
O O13 0.277775 0.808738 0.127087
O O14 0.555873 0.759187 0.002282
O O15 0.247491 0.086689 0.022518
O O16 0.500000 0.000000 0.000000
O O17 0.000000 0.873437 0.250000
#
# Coordination Sequence:
#
# PCOD8132277 Si02
#       8
#     8   8   8   8   8   8   8   8
#     4   9  19  40  65  82 119 163 202 254 308 363
#     4  10  22  40  61  91 122 160 202 250 309 364
#     4  11  22  37  61  87 122 156 199 254 300 362
#     4  10  19  38  65  83 122 162 201 249 305 365
#     4  10  19  40  62  90 120 159 206 252 303 370
#     4  10  20  38  58  84 121 151 194 252 302 353
#     4  10  21  39  62  93 121 159 204 258 310 360
#     4  10  18  36  62  86 110 164 212 242 298 367
#
# _framework density 22.365470999999999
#
# number of rings (size 3 to 8) (size 9 to 14) (size 15 to 20)
#    0.000    2.000    3.750    1.875    0.000    2.000 
#   11.250    3.125    0.000    0.000    0.000    0.000 
#    0.000    0.000    0.000    0.000    0.000    0.000 
#
# Total GULP energy -396453.310786 kJ/mol
# GULP energy per Si atom -12389.165962 kJ/mol
# Density = 2.231457 g / cm^3
# Si number density = 22.365471 Si / 1000 Ang^3
#
#
#
# Elastic Constant Matrix: (Units=GPa)
#
#
# Indices 1 2 3 4 5 6 
#
# 1 62.5224 2.7125 1.0800 0.0000 12.6820 0.0000
# 2 2.7125 68.0776 2.7645 0.0001 1.1288 0.0000
# 3 1.0800 2.7645 38.6386 0.0004 14.7753 -0.0001
# 4 0.0000 0.0001 0.0004 21.6240 -0.0001 3.5600
# 5 12.6820 1.1288 14.7753 -0.0001 40.1429 0.0000
# 6 0.0000 0.0000 -0.0001 3.5600 0.0000 21.5605
#
#
#
# Elastic Compliance Matrix: (Units=1/GPa)
#
#
# Indices 1 2 3 4 5 6 
#
# 1 0.017233 -0.000663 0.001909 0.000000 -0.006128 0.000000
# 2 -0.000663 0.014757 -0.001116 0.000000 0.000205 0.000000
# 3 0.001909 -0.001116 0.030405 -0.000001 -0.011763 0.000000
# 4 0.000000 0.000000 -0.000001 0.047537 0.000000 -0.007849
# 5 -0.006128 0.000205 -0.011763 0.000000 0.031171 0.000000
# 6 0.000000 0.000000 0.000000 -0.007849 0.000000 0.047677
#
#
# Mechanical properties :
#
#
# Convention : Reuss Voigt Hill
#
# Bulk Modulus (GPa) = 15.95971 20.26141 18.11056
# Shear Modulus (GPa) = 23.87716 27.51093 25.69405
#
# Velocity S-wave (km/s) = 3.27094 3.51103 3.39311
# Velocity P-wave (km/s) = 4.62783 5.05127 4.84418
#
# Compressibility (1/GPa) = 0.06265779
#
# Stress axis : x y z
#
# Youngs Moduli (GPa) = 58.02780 67.76247 32.88883
#
# Poissons Ratio (x) = 0.04490 -0.06279
# Poissons Ratio (y) = 0.03845 0.03670
# Poissons Ratio (z) = -0.11079 0.07561
#
# Static dielectric constant tensor:
#      x y z
#    x 3.981030 0.000000 0.130450 
#    y 0.000000 4.182170 0.000000 
#    z 0.130450 0.000000 4.130550 
# 
# 
# High freq. dielectric constant tensor:
#      x y z
#    x 1.869690 0.000000 0.003050 
#    y 0.000000 1.865300 0.000000 
#    z 0.003050 0.000000 1.869090 
# 
# From -- ./inp_files/311169.got.cif
#   From: 2010.06.25/outbox.cif.g09.slc.cpg/sg15_156_cif.got.tgz:311169.got - 2010.06.28 07:06:18.
