data_PCOD8132305
_publ_section_title
;
Structure prediction by ZEFSAII (Michael W. Deem and Ramdas Pophale) SiO2 
 PCOD8132305
Probable space group: C 2/C
;
_chemical_formula_sum "Si O2"
_cell_formula_units_Z 48
_cell_length_a 11.788397
_cell_length_b 16.297886
_cell_length_c 21.719098
_cell_angle_alpha 90.000000
_cell_angle_beta 141.358582
_cell_angle_gamma 90.000000
_cell_volume 2605.682972
_symmetry_space_group_name_H-M "C 2/C"
_symmetry_group_IT_number 15
_symmetry_cell_setting 'monoclinic'
loop_
_space_group_symop_operation_xyz
x,y,z
-x,y,1/2-z
-x,-y,-z
x,-y,1/2+z
1/2+x,1/2+y,z
1/2-x,1/2+y,1/2-z
1/2-x,1/2-y,-z
1/2+x,1/2-y,1/2+z
loop_
_atom_site_type_symbol
_atom_site_label
_atom_site_fract_x
_atom_site_fract_y
_atom_site_fract_z
Si Si1 0.500000 0.065043 0.750000
Si Si2 0.500000 0.330542 0.750000
Si Si3 0.314887 0.483534 0.957624
Si Si4 0.119424 0.198657 0.987192
Si Si5 0.986818 0.265358 0.429679
Si Si6 0.688621 0.622087 0.448675
Si Si7 0.281280 0.800438 0.224267
O O1 0.599149 0.120163 0.740972
O O2 0.646154 0.007961 0.844252
O O3 0.432020 0.385790 0.664403
O O4 0.667527 0.273257 0.800382
O O5 0.500000 0.500000 0.000000
O O6 0.288524 0.388304 0.960551
O O7 0.309536 0.533258 0.019414
O O8 0.930008 0.181343 0.872604
O O9 0.250000 0.250000 0.000000
O O10 0.097386 0.251034 0.039600
O O11 0.109637 0.347294 0.482678
O O12 0.106900 0.186268 0.463027
O O13 0.822749 0.275990 0.311988
#
# Coordination Sequence:
#
# PCOD8132305 Si02
#       7
#     4   4   8   8   8   8   8
#     4  11  20  38  68  99 120 164 216 265 316 368
#     4   9  18  32  66  95 120 154 220 263 300 366
#     4  12  23  40  66  97 129 160 215 271 312 374
#     4  12  26  43  59  92 137 168 205 265 328 379
#     4  10  19  36  65  91 121 165 215 248 314 380
#     4  10  18  36  63  98 117 159 215 269 297 368
#     4  10  19  36  66  93 121 167 213 256 310 382
#
# _framework density 18.421272999999999
#
# number of rings (size 3 to 8) (size 9 to 14) (size 15 to 20)
#    0.000    1.333    6.667    0.000    0.000    2.000 
#    0.000    2.500    0.000    0.000    0.000    0.000 
#    0.000    0.000    0.000    0.000    0.000    0.000 
#
# Total GULP energy -297693.356822 kJ/mol
# GULP energy per Si atom -12403.889868 kJ/mol
# Density = 1.837935 g / cm^3
# Si number density = 18.421273 Si / 1000 Ang^3
#
#
#
# Elastic Constant Matrix: (Units=GPa)
#
#
# Indices 1 2 3 4 5 6 
#
# 1 123.4030 62.0555 55.5368 0.0000 -10.1781 0.0000
# 2 62.0555 107.3659 47.8165 0.0000 -3.8192 0.0000
# 3 55.5368 47.8165 123.2087 0.0001 1.0722 0.0000
# 4 0.0000 0.0000 0.0001 27.5543 0.0000 -1.8998
# 5 -10.1781 -3.8192 1.0722 0.0000 29.3189 0.0000
# 6 0.0000 0.0000 0.0000 -1.8998 0.0000 28.4554
#
#
#
# Elastic Compliance Matrix: (Units=1/GPa)
#
#
# Indices 1 2 3 4 5 6 
#
# 1 0.012940 -0.005716 -0.003648 0.000000 0.003881 0.000000
# 2 -0.005716 0.013864 -0.002803 0.000000 -0.000076 0.000000
# 3 -0.003648 -0.002803 0.010866 0.000000 -0.002029 0.000000
# 4 0.000000 0.000000 0.000000 0.036460 0.000000 0.002434
# 5 0.003881 -0.000076 -0.002029 0.000000 0.035519 0.000000
# 6 0.000000 0.000000 0.000000 0.002434 0.000000 0.035305
#
#
# Mechanical properties :
#
#
# Convention : Reuss Voigt Hill
#
# Bulk Modulus (GPa) = 74.99130 76.08835 75.53982
# Shear Modulus (GPa) = 28.77970 29.63699 29.20835
#
# Velocity S-wave (km/s) = 3.95689 4.01539 3.98625
# Velocity P-wave (km/s) = 7.85324 7.93046 7.89194
#
# Compressibility (1/GPa) = 0.01333488
#
# Stress axis : x y z
#
# Youngs Moduli (GPa) = 77.28010 72.13181 92.02877
#
# Poissons Ratio (x) = 0.41233 0.33572
# Poissons Ratio (y) = 0.44176 0.25796
# Poissons Ratio (z) = 0.28192 0.20219
#
# Static dielectric constant tensor:
#      x y z
#    x 3.240070 0.000000 -0.130340 
#    y 0.000000 3.485770 0.000000 
#    z -0.130340 0.000000 3.329820 
# 
# 
# High freq. dielectric constant tensor:
#      x y z
#    x 1.700390 0.000000 -0.006450 
#    y 0.000000 1.695800 0.000000 
#    z -0.006450 0.000000 1.731340 
# 
# From -- ./inp_files/143491.got.cif
#   From: 2010.06.25/outbox.cif.g09.slc.cpg/sg15_72_cif.got.tgz:143491.got - 2010.06.28 07:06:18.
