data_PCOD8132071
_publ_section_title
;
Structure prediction by ZEFSAII (Michael W. Deem and Ramdas Pophale) SiO2 
 PCOD8132071
Probable space group: C 2/C
;
_chemical_formula_sum "Si O2"
_cell_formula_units_Z 64
_cell_length_a 8.771375
_cell_length_b 19.818154
_cell_length_c 22.005372
_cell_angle_alpha 90.000000
_cell_angle_beta 119.293112
_cell_angle_gamma 90.000000
_cell_volume 3336.106231
_symmetry_space_group_name_H-M "C 2/C"
_symmetry_group_IT_number 15
_symmetry_cell_setting 'monoclinic'
loop_
_space_group_symop_operation_xyz
x,y,z
-x,y,1/2-z
-x,-y,-z
x,-y,1/2+z
1/2+x,1/2+y,z
1/2-x,1/2+y,1/2-z
1/2-x,1/2-y,-z
1/2+x,1/2-y,1/2+z
loop_
_atom_site_type_symbol
_atom_site_label
_atom_site_fract_x
_atom_site_fract_y
_atom_site_fract_z
Si Si1 0.609173 0.142317 0.649110
Si Si2 0.061446 0.475859 0.325852
Si Si3 0.428299 0.941679 0.908960
Si Si4 0.779653 0.572543 0.942593
Si Si5 0.640995 0.281477 0.226787
Si Si6 0.277868 0.218100 0.570089
Si Si7 0.815583 0.176692 0.180727
Si Si8 0.596127 0.384844 0.112636
O O1 0.586927 0.079557 0.689935
O O2 0.728910 0.124822 0.614894
O O3 0.682017 0.203412 0.702501
O O4 0.422634 0.161987 0.586698
O O5 0.253815 0.442153 0.361077
O O6 0.000000 0.508848 0.250000
O O7 0.046249 0.530975 0.376191
O O8 0.276041 0.892376 0.856844
O O9 0.324877 0.998516 0.926506
O O10 0.570379 0.905281 0.980200
O O11 0.586939 0.576403 0.934766
O O12 0.500000 0.265821 0.250000
O O13 0.675657 0.213763 0.196407
O O14 0.595210 0.346881 0.177353
O O15 0.250000 0.250000 0.500000
O O16 0.346383 0.275900 0.628678
O O17 0.116053 0.174714 0.565797
O O18 0.000000 0.161474 0.250000
#
# Coordination Sequence:
#
# PCOD8132071 Si02
#       8
#     8   8   8   8   8   8   8   8
#     4  10  18  35  63  85 115 149 195 250 295 343
#     4  10  20  35  59  86 115 150 200 253 290 344
#     4  10  24  41  58  82 126 163 193 247 303 359
#     4  10  21  42  62  86 116 159 208 248 295 355
#     4  11  20  36  61  94 119 147 195 254 305 348
#     4  10  21  38  60  89 120 158 199 243 302 358
#     4  11  23  41  60  86 126 162 195 239 308 380
#     4  10  21  35  65  92 111 151 209 256 289 348
#
# _framework density 19.184041000000001
#
# number of rings (size 3 to 8) (size 9 to 14) (size 15 to 20)
#    0.000    1.750    3.750    0.750    0.000    3.000 
#    2.250    3.125    0.000    0.000    0.000    0.000 
#    0.000    0.000    0.000    0.000    0.000    0.000 
#
# Total GULP energy -396591.620788 kJ/mol
# GULP energy per Si atom -12393.488150 kJ/mol
# Density = 1.914038 g / cm^3
# Si number density = 19.184041 Si / 1000 Ang^3
#
#
#
# Elastic Constant Matrix: (Units=GPa)
#
#
# Indices 1 2 3 4 5 6 
#
# 1 115.0541 34.2960 52.1618 0.0000 3.2477 0.0000
# 2 34.2960 68.1549 35.7526 0.0000 5.8164 0.0000
# 3 52.1618 35.7526 110.1986 0.0000 4.8269 0.0000
# 4 0.0000 0.0000 0.0000 27.3808 0.0000 4.3855
# 5 3.2477 5.8164 4.8269 0.0000 28.7731 0.0000
# 6 0.0000 0.0000 0.0000 4.3855 0.0000 15.7679
#
#
#
# Elastic Compliance Matrix: (Units=1/GPa)
#
#
# Indices 1 2 3 4 5 6 
#
# 1 0.011762 -0.003624 -0.004398 0.000000 0.000143 0.000000
# 2 -0.003624 0.018998 -0.004330 0.000000 -0.002705 0.000000
# 3 -0.004398 -0.004330 0.012593 0.000000 -0.000741 0.000000
# 4 0.000000 0.000000 0.000000 0.038225 0.000000 -0.010631
# 5 0.000143 -0.002705 -0.000741 0.000000 0.035410 0.000000
# 6 0.000000 0.000000 0.000000 -0.010631 0.000000 0.066377
#
#
# Mechanical properties :
#
#
# Convention : Reuss Voigt Hill
#
# Bulk Modulus (GPa) = 53.61873 59.75869 56.68871
# Shear Modulus (GPa) = 23.33349 25.79750 24.56550
#
# Velocity S-wave (km/s) = 3.49133 3.67104 3.58231
# Velocity P-wave (km/s) = 6.65303 7.01332 6.83555
#
# Compressibility (1/GPa) = 0.01865020
#
# Stress axis : x y z
#
# Youngs Moduli (GPa) = 85.02294 52.63660 79.40612
#
# Poissons Ratio (x) = 0.19074 0.34922
# Poissons Ratio (y) = 0.30809 0.34383
# Poissons Ratio (z) = 0.37392 0.22792
#
# Static dielectric constant tensor:
#      x y z
#    x 3.231010 0.000000 -0.364290 
#    y 0.000000 3.401170 0.000000 
#    z -0.364290 0.000000 3.325450 
# 
# 
# High freq. dielectric constant tensor:
#      x y z
#    x 1.750670 0.000000 -0.008420 
#    y 0.000000 1.728790 0.000000 
#    z -0.008420 0.000000 1.750380 
# 
# From -- ./inp_files/192147.got.cif
#   From: 2010.06.25/outbox.cif.g09.slc.cpg/sg15_97_cif.got.tgz:192147.got - 2010.06.28 07:06:18.
