data_PCOD8132268
_publ_section_title
;
Structure prediction by ZEFSAII (Michael W. Deem and Ramdas Pophale) SiO2 
 PCOD8132268
Probable space group: C 2/C
;
_chemical_formula_sum "Si O2"
_cell_formula_units_Z 52
_cell_length_a 10.714283
_cell_length_b 14.763746
_cell_length_c 17.577904
_cell_angle_alpha 90.000000
_cell_angle_beta 95.095234
_cell_angle_gamma 90.000000
_cell_volume 2769.537394
_symmetry_space_group_name_H-M "C 2/C"
_symmetry_group_IT_number 15
_symmetry_cell_setting 'monoclinic'
loop_
_space_group_symop_operation_xyz
x,y,z
-x,y,1/2-z
-x,-y,-z
x,-y,1/2+z
1/2+x,1/2+y,z
1/2-x,1/2+y,1/2-z
1/2-x,1/2-y,-z
1/2+x,1/2-y,1/2+z
loop_
_atom_site_type_symbol
_atom_site_label
_atom_site_fract_x
_atom_site_fract_y
_atom_site_fract_z
Si Si1 0.801345 0.872820 0.574478
Si Si2 0.234468 0.680594 0.909508
Si Si3 0.000000 0.454386 0.250000
Si Si4 0.450471 0.363967 0.830721
Si Si5 0.141644 0.469930 0.014184
Si Si6 0.769478 0.495326 0.649436
Si Si7 0.444750 0.169509 0.883958
O O1 0.748237 0.784505 0.619314
O O2 0.817373 0.836647 0.489018
O O3 0.936308 0.903768 0.612596
O O4 0.709834 0.958188 0.573681
O O5 0.269126 0.602723 0.849891
O O6 0.087518 0.667046 0.921971
O O7 0.104492 0.518882 0.294546
O O8 0.067830 0.391152 0.192026
O O9 0.500000 0.341646 0.750000
O O10 0.340709 0.437263 0.819860
O O11 0.398780 0.271086 0.864411
O O12 0.145315 0.372191 0.055600
O O13 0.209244 0.464282 0.936549
O O14 0.000000 0.500000 0.000000
#
# Coordination Sequence:
#
# PCOD8132268 Si02
#       7
#     8   8   4   8   8   8   8
#     4   9  18  33  57  81 109 146 183 228 275 333
#     4   8  16  34  57  83 103 144 190 226 270 336
#     4  10  18  36  62  80 112 154 186 240 274 336
#     4  11  24  37  54  84 117 153 189 227 293 352
#     4  11  19  35  61  90 110 143 198 239 275 330
#     4  10  22  36  59  87 114 146 197 234 284 338
#     4  10  19  36  59  84 111 149 193 235 279 338
#
# _framework density 18.775698999999999
#
# number of rings (size 3 to 8) (size 9 to 14) (size 15 to 20)
#    0.000    2.154    5.385    0.000    2.154    3.077 
#    0.000    0.000    3.385    0.000    2.000    0.000 
#    0.000    0.000    0.000    0.000    0.000    0.000 
#
# Total GULP energy -322238.417350 kJ/mol
# GULP energy per Si atom -12393.785283 kJ/mol
# Density = 1.873296 g / cm^3
# Si number density = 18.775699 Si / 1000 Ang^3
#
#
#
# Elastic Constant Matrix: (Units=GPa)
#
#
# Indices 1 2 3 4 5 6 
#
# 1 68.4941 60.1961 30.6648 0.0000 18.8016 0.0000
# 2 60.1961 131.5154 34.9306 0.0000 9.3092 0.0000
# 3 30.6648 34.9306 76.2450 0.0000 14.0797 0.0000
# 4 0.0000 0.0000 0.0000 22.2021 0.0000 -2.1195
# 5 18.8016 9.3092 14.0797 0.0000 31.2469 0.0000
# 6 0.0000 0.0000 0.0000 -2.1195 0.0000 33.4085
#
#
#
# Elastic Compliance Matrix: (Units=1/GPa)
#
#
# Indices 1 2 3 4 5 6 
#
# 1 0.030592 -0.011904 -0.004479 0.000000 -0.012843 0.000000
# 2 -0.011904 0.013310 -0.002073 0.000000 0.004131 0.000000
# 3 -0.004479 -0.002073 0.016640 0.000000 -0.004185 0.000000
# 4 0.000000 0.000000 0.000000 0.045315 0.000000 0.002875
# 5 -0.012843 0.004131 -0.004185 0.000000 0.040386 0.000000
# 6 0.000000 0.000000 0.000000 0.002875 0.000000 0.030115
#
#
# Mechanical properties :
#
#
# Convention : Reuss Voigt Hill
#
# Bulk Modulus (GPa) = 42.31791 58.64863 50.48327
# Shear Modulus (GPa) = 22.60956 27.40238 25.00597
#
# Velocity S-wave (km/s) = 3.47391 3.82443 3.65338
# Velocity P-wave (km/s) = 6.21919 7.12783 6.68896
#
# Compressibility (1/GPa) = 0.02363065
#
# Stress axis : x y z
#
# Youngs Moduli (GPa) = 32.68861 75.12950 60.09766
#
# Poissons Ratio (x) = 0.89431 0.26915
# Poissons Ratio (y) = 0.38911 0.12460
# Poissons Ratio (z) = 0.14640 0.15577
#
# Static dielectric constant tensor:
#      x y z
#    x 3.115250 0.000000 0.209120 
#    y 0.000000 3.792650 0.000000 
#    z 0.209120 0.000000 3.560370 
# 
# 
# High freq. dielectric constant tensor:
#      x y z
#    x 1.687820 0.000000 0.032450 
#    y 0.000000 1.732700 0.000000 
#    z 0.032450 0.000000 1.727280 
# 
# From -- ./inp_files/197334.got.cif
#   From: 2010.06.25/outbox.cif.g09.slc.cpg/sg15_99_cif.got.tgz:197334.got - 2010.06.28 07:06:18.
