data_PCOD8132215
_publ_section_title
;
Structure prediction by ZEFSAII (Michael W. Deem and Ramdas Pophale) SiO2 
 PCOD8132215
Probable space group: C 2/C
;
_chemical_formula_sum "Si O2"
_cell_formula_units_Z 60
_cell_length_a 17.109118
_cell_length_b 8.587330
_cell_length_c 24.671655
_cell_angle_alpha 90.000000
_cell_angle_beta 129.134659
_cell_angle_gamma 90.000000
_cell_volume 2811.629679
_symmetry_space_group_name_H-M "C 2/C"
_symmetry_group_IT_number 15
_symmetry_cell_setting 'monoclinic'
loop_
_space_group_symop_operation_xyz
x,y,z
-x,y,1/2-z
-x,-y,-z
x,-y,1/2+z
1/2+x,1/2+y,z
1/2-x,1/2+y,1/2-z
1/2-x,1/2-y,-z
1/2+x,1/2-y,1/2+z
loop_
_atom_site_type_symbol
_atom_site_label
_atom_site_fract_x
_atom_site_fract_y
_atom_site_fract_z
Si Si1 0.696583 0.690835 0.081013
Si Si2 0.101470 0.726921 0.824238
Si Si3 0.112675 0.560547 0.390489
Si Si4 0.320724 0.826251 0.814937
Si Si5 0.500000 0.260589 0.250000
Si Si6 0.520780 0.868248 0.964084
Si Si7 0.184490 0.026074 0.827987
Si Si8 0.728668 0.977825 0.298965
O O1 0.770323 0.610912 0.068583
O O2 0.694184 0.590054 0.135099
O O3 0.731716 0.867409 0.107899
O O4 0.580345 0.715493 0.012270
O O5 0.091222 0.625067 0.874027
O O6 0.154839 0.892409 0.859300
O O7 0.161329 0.608252 0.812560
O O8 0.000000 0.772955 0.750000
O O9 0.041315 0.658290 0.318203
O O10 0.087091 0.579063 0.441977
O O11 0.411570 0.815680 0.896455
O O12 0.227314 0.928079 0.796317
O O13 0.345911 0.912711 0.769433
O O14 0.286939 0.649351 0.788108
O O15 0.409944 0.369596 0.232768
O O16 0.500000 0.000000 0.000000
#
# Coordination Sequence:
#
# PCOD8132215 Si02
#       8
#     8   8   8   8   4   8   8   8
#     4  10  22  44  63  90 127 171 222 268 324 393
#     4  10  18  36  59  95 127 155 214 270 321 371
#     4  10  22  38  69  90 126 172 218 272 322 389
#     4  11  23  38  65  96 130 171 216 266 342 384
#     4  10  20  36  64  94 120 164 226 274 322 378
#     4  12  25  42  66  93 136 177 213 265 337 407
#     4  10  20  36  60  91 131 160 210 275 320 390
#     4  10  23  39  67  93 130 167 216 280 315 393
#
# _framework density 21.339936999999999
#
# number of rings (size 3 to 8) (size 9 to 14) (size 15 to 20)
#    0.000    1.600    2.667    2.000    5.600    0.533 
#    0.000    0.667    5.867    0.000    0.000    0.000 
#    0.000    0.000    0.000    0.000    0.000    0.000 
#
# Total GULP energy -371760.262979 kJ/mol
# GULP energy per Si atom -12392.008766 kJ/mol
# Density = 2.129137 g / cm^3
# Si number density = 21.339937 Si / 1000 Ang^3
#
#
#
# Elastic Constant Matrix: (Units=GPa)
#
#
# Indices 1 2 3 4 5 6 
#
# 1 44.7863 29.4581 21.0035 0.0000 5.2141 0.0000
# 2 29.4581 130.1082 36.4681 0.0000 -2.4624 0.0000
# 3 21.0035 36.4681 97.2969 0.0000 6.6803 0.0000
# 4 0.0000 0.0000 0.0000 21.3895 0.0000 -11.4828
# 5 5.2141 -2.4624 6.6803 0.0000 32.8110 0.0000
# 6 0.0000 0.0000 0.0000 -11.4828 0.0000 15.2096
#
#
#
# Elastic Compliance Matrix: (Units=1/GPa)
#
#
# Indices 1 2 3 4 5 6 
#
# 1 0.028117 -0.005387 -0.003768 0.000000 -0.004105 0.000000
# 2 -0.005387 0.009677 -0.002609 0.000000 0.002114 0.000000
# 3 -0.003768 -0.002609 0.012212 0.000000 -0.002083 0.000000
# 4 0.000000 0.000000 0.000000 0.078614 0.000000 0.059352
# 5 -0.004105 0.002114 -0.002083 0.000000 0.031713 0.000000
# 6 0.000000 0.000000 0.000000 0.059352 0.000000 0.110557
#
#
# Mechanical properties :
#
#
# Convention : Reuss Voigt Hill
#
# Bulk Modulus (GPa) = 37.76987 49.56119 43.66553
# Shear Modulus (GPa) = 16.48824 26.23280 21.36052
#
# Velocity S-wave (km/s) = 2.78267 3.50992 3.16723
# Velocity P-wave (km/s) = 5.29735 6.30088 5.82078
#
# Compressibility (1/GPa) = 0.02647613
#
# Stress axis : x y z
#
# Youngs Moduli (GPa) = 35.56556 103.33740 81.88446
#
# Poissons Ratio (x) = 0.55673 0.30858
# Poissons Ratio (y) = 0.19161 0.21365
# Poissons Ratio (z) = 0.13403 0.26963
#
# Static dielectric constant tensor:
#      x y z
#    x 3.966150 0.000000 0.170110 
#    y 0.000000 4.295110 0.000000 
#    z 0.170110 0.000000 3.762420 
# 
# 
# High freq. dielectric constant tensor:
#      x y z
#    x 1.835400 0.000000 0.008250 
#    y 0.000000 1.851130 0.000000 
#    z 0.008250 0.000000 1.815940 
# 
# From -- ./inp_files/298413.got.cif
#   From: 2010.06.25/outbox.cif.g09.slc.cpg/sg15_150_cif.got.tgz:298413.got - 2010.06.28 07:06:18.
