data_PCOD8132611
_publ_section_title
;
Structure prediction by ZEFSAII (Michael W. Deem and Ramdas Pophale) SiO2 
 PCOD8132611
Probable space group: C 2/C
;
_chemical_formula_sum "Si O2"
_cell_formula_units_Z 56
_cell_length_a 9.056592
_cell_length_b 16.811763
_cell_length_c 27.465715
_cell_angle_alpha 90.000000
_cell_angle_beta 39.560126
_cell_angle_gamma 90.000000
_cell_volume 2663.371645
_symmetry_space_group_name_H-M "C 2/C"
_symmetry_group_IT_number 15
_symmetry_cell_setting 'monoclinic'
loop_
_space_group_symop_operation_xyz
x,y,z
-x,y,1/2-z
-x,-y,-z
x,-y,1/2+z
1/2+x,1/2+y,z
1/2-x,1/2+y,1/2-z
1/2-x,1/2-y,-z
1/2+x,1/2-y,1/2+z
loop_
_atom_site_type_symbol
_atom_site_label
_atom_site_fract_x
_atom_site_fract_y
_atom_site_fract_z
Si Si1 0.598297 0.930364 0.891245
Si Si2 0.260162 0.767708 0.674337
Si Si3 0.272023 0.217171 0.277095
Si Si4 0.994728 0.061107 0.143792
Si Si5 0.691804 0.449208 0.235661
Si Si6 0.162801 0.040660 0.996936
Si Si7 0.100800 0.334576 0.127939
O O1 0.561176 0.837954 0.885901
O O2 0.745684 0.923037 0.903308
O O3 0.740815 0.973169 0.812625
O O4 0.362971 0.978451 0.961188
O O5 0.336024 0.739382 0.709077
O O6 0.254556 0.697464 0.634859
O O7 0.000000 0.802143 0.750000
O O8 0.500000 0.224944 0.250000
O O9 0.194615 0.126010 0.291253
O O10 0.049237 0.262455 0.357221
O O11 0.003002 0.059352 0.083583
O O12 0.913870 0.976516 0.185986
O O13 0.500000 0.403213 0.250000
O O14 0.915216 0.399021 0.193602
O O15 0.248247 0.124712 0.952766
O O16 0.000000 0.000000 0.000000
#
# Coordination Sequence:
#
# PCOD8132611 Si02
#       7
#     8   8   8   8   8   8   8
#     4  10  18  41  64  90 123 170 219 257 324 396
#     4  10  18  38  66  91 121 163 213 273 326 385
#     4  11  23  37  66 101 126 159 219 277 332 382
#     4  11  21  39  66  94 128 176 216 261 333 393
#     4   9  18  35  69  97 124 163 219 275 320 381
#     4  11  27  41  60  93 135 171 221 269 329 397
#     4  10  22  41  62  92 132 167 214 273 326 388
#
# _framework density 21.025981000000002
#
# number of rings (size 3 to 8) (size 9 to 14) (size 15 to 20)
#    0.000    1.714    4.286    1.286    2.000    4.000 
#    0.000    2.143    0.000    0.000    0.000    0.000 
#    0.000    0.000    0.000    0.000    0.000    0.000 
#
# Total GULP energy -346961.410290 kJ/mol
# GULP energy per Si atom -12391.478939 kJ/mol
# Density = 2.097812 g / cm^3
# Si number density = 21.025981 Si / 1000 Ang^3
#
#
#
# Elastic Constant Matrix: (Units=GPa)
#
#
# Indices 1 2 3 4 5 6 
#
# 1 139.4126 32.8182 27.0469 -0.0008 11.3580 0.0007
# 2 32.8182 80.4802 19.1944 -0.0096 10.1088 0.0002
# 3 27.0469 19.1944 67.4138 -0.0187 20.1412 -0.0020
# 4 -0.0008 -0.0096 -0.0187 24.3811 -0.0088 0.3672
# 5 11.3580 10.1088 20.1412 -0.0088 29.6775 -0.0012
# 6 0.0007 0.0002 -0.0020 0.3672 -0.0012 32.2022
#
#
#
# Elastic Compliance Matrix: (Units=1/GPa)
#
#
# Indices 1 2 3 4 5 6 
#
# 1 0.008333 -0.002752 -0.002367 -0.000003 -0.000645 0.000000
# 2 -0.002752 0.014385 -0.002311 0.000003 -0.002278 0.000000
# 3 -0.002367 -0.002311 0.019988 0.000010 -0.011873 0.000001
# 4 -0.000003 0.000003 0.000010 0.041022 0.000005 -0.000468
# 5 -0.000645 -0.002278 -0.011873 0.000005 0.042776 0.000001
# 6 0.000000 0.000000 0.000001 -0.000468 0.000001 0.031059
#
#
# Mechanical properties :
#
#
# Convention : Reuss Voigt Hill
#
# Bulk Modulus (GPa) = 35.91132 49.49172 42.70152
# Shear Modulus (GPa) = 27.51704 31.13530 29.32617
#
# Velocity S-wave (km/s) = 3.62154 3.85229 3.73870
# Velocity P-wave (km/s) = 5.88252 6.58607 6.24421
#
# Compressibility (1/GPa) = 0.02784637
#
# Stress axis : x y z
#
# Youngs Moduli (GPa) = 120.01075 69.51660 50.02894
#
# Poissons Ratio (x) = 0.19133 0.11840
# Poissons Ratio (y) = 0.33031 0.11561
# Poissons Ratio (z) = 0.28402 0.16064
#
# Static dielectric constant tensor:
#      x y z
#    x 3.930930 0.000010 0.060120 
#    y 0.000010 3.908510 -0.000010 
#    z 0.060120 -0.000010 3.699790 
# 
# 
# High freq. dielectric constant tensor:
#      x y z
#    x 1.827110 0.000000 0.006550 
#    y 0.000000 1.823390 0.000000 
#    z 0.006550 0.000000 1.793820 
# 
# From -- ./inp_files/289716.got.cif
#   From: 2010.06.25/outbox.cif.g09.slc.cpg/sg15_145_cif.got.tgz:289716.got - 2010.06.28 07:06:18.
