data_PCOD8132620
_publ_section_title
;
Structure prediction by ZEFSAII (Michael W. Deem and Ramdas Pophale) SiO2 
 PCOD8132620
Probable space group: C 2/C
;
_chemical_formula_sum "Si O2"
_cell_formula_units_Z 52
_cell_length_a 15.212909
_cell_length_b 18.223744
_cell_length_c 9.098144
_cell_angle_alpha 90.000000
_cell_angle_beta 68.531887
_cell_angle_gamma 90.000000
_cell_volume 2347.338446
_symmetry_space_group_name_H-M "C 2/C"
_symmetry_group_IT_number 15
_symmetry_cell_setting 'monoclinic'
loop_
_space_group_symop_operation_xyz
x,y,z
-x,y,1/2-z
-x,-y,-z
x,-y,1/2+z
1/2+x,1/2+y,z
1/2-x,1/2+y,1/2-z
1/2-x,1/2-y,-z
1/2+x,1/2-y,1/2+z
loop_
_atom_site_type_symbol
_atom_site_label
_atom_site_fract_x
_atom_site_fract_y
_atom_site_fract_z
Si Si1 0.252745 0.218382 0.658161
Si Si2 0.545382 0.931518 0.883962
Si Si3 0.165620 0.785218 0.641495
Si Si4 0.063165 0.734013 0.442515
Si Si5 0.500000 0.666843 0.750000
Si Si6 0.731072 0.432975 0.740794
Si Si7 0.183369 0.922835 0.106990
O O1 0.250000 0.250000 0.500000
O O2 0.344728 0.242175 0.696239
O O3 0.161806 0.254629 0.793997
O O4 0.261086 0.130592 0.633952
O O5 0.500000 0.930410 0.750000
O O6 0.531084 0.851591 0.969358
O O7 0.657387 0.942920 0.810254
O O8 0.500000 0.000000 0.000000
O O9 0.250000 0.750000 0.500000
O O10 0.072057 0.771003 0.600129
O O11 0.193984 0.868387 0.658560
O O12 0.985299 0.780986 0.401737
O O13 0.412489 0.614441 0.784745
O O14 0.687845 0.500273 0.681120
O O15 0.688234 0.427593 0.928875
#
# Coordination Sequence:
#
# PCOD8132620 Si02
#       7
#     8   8   8   8   4   8   8
#     4  10  18  38  67  98 127 176 241 279 337 414
#     4  12  25  44  69 101 144 187 227 294 356 416
#     4  10  20  38  72  98 137 182 240 285 335 419
#     4  10  21  42  71  94 140 182 233 292 351 408
#     4  10  24  48  72 102 138 186 240 290 364 410
#     4  12  25  46  68 108 140 183 241 284 362 423
#     4  11  26  42  72  99 142 186 225 299 354 424
#
# _framework density 22.152747999999999
#
# number of rings (size 3 to 8) (size 9 to 14) (size 15 to 20)
#    0.000    1.231    5.385    0.923    6.462    1.846 
#    0.000    1.538    0.000    0.000    0.000    0.000 
#    0.000    0.000    0.000    0.000    0.000    0.000 
#
# Total GULP energy -322120.673582 kJ/mol
# GULP energy per Si atom -12389.256676 kJ/mol
# Density = 2.210233 g / cm^3
# Si number density = 22.152748 Si / 1000 Ang^3
#
#
#
# Elastic Constant Matrix: (Units=GPa)
#
#
# Indices 1 2 3 4 5 6 
#
# 1 67.6586 55.3014 39.3627 0.0000 45.8974 0.0000
# 2 55.3014 224.9544 78.7723 0.0000 33.3933 0.0000
# 3 39.3627 78.7723 124.0684 0.0000 41.1009 0.0000
# 4 0.0000 0.0000 0.0000 47.8125 0.0000 10.6072
# 5 45.8974 33.3933 41.1009 0.0000 48.1220 0.0000
# 6 0.0000 0.0000 0.0000 10.6072 0.0000 38.2875
#
#
#
# Elastic Compliance Matrix: (Units=1/GPa)
#
#
# Indices 1 2 3 4 5 6 
#
# 1 0.048227 -0.006497 0.003582 0.000000 -0.044548 0.000000
# 2 -0.006497 0.006642 -0.003740 0.000000 0.004782 0.000000
# 3 0.003582 -0.003740 0.013347 0.000000 -0.012220 0.000000
# 4 0.000000 0.000000 0.000000 0.022285 0.000000 -0.006174
# 5 -0.044548 0.004782 -0.012220 0.000000 0.070389 0.000000
# 6 0.000000 0.000000 0.000000 -0.006174 0.000000 0.027829
#
#
# Mechanical properties :
#
#
# Convention : Reuss Voigt Hill
#
# Bulk Modulus (GPa) = 18.21314 84.83937 51.52625
# Shear Modulus (GPa) = 22.69329 43.06073 32.87701
#
# Velocity S-wave (km/s) = 3.20410 4.41365 3.85659
# Velocity P-wave (km/s) = 4.68271 8.02211 6.56819
#
# Compressibility (1/GPa) = 0.05490540
#
# Stress axis : x y z
#
# Youngs Moduli (GPa) = 20.73541 150.54789 74.92569
#
# Poissons Ratio (x) = 0.97814 -0.26840
# Poissons Ratio (y) = 0.13472 0.28023
# Poissons Ratio (z) = -0.07428 0.56307
#
# Static dielectric constant tensor:
#      x y z
#    x 3.708310 0.000000 -0.216930 
#    y 0.000000 4.006680 0.000000 
#    z -0.216930 0.000000 3.417610 
# 
# 
# High freq. dielectric constant tensor:
#      x y z
#    x 1.870630 0.000000 0.022350 
#    y 0.000000 1.885410 0.000000 
#    z 0.022350 0.000000 1.881070 
# 
# From -- ./inp_files/48535.got.cif
#   From: 2010.06.25/outbox.cif.g09.slc.cpg/sg15_25_cif.got.tgz:48535.got - 2010.06.28 07:06:18.
