data_PCOD8132858
_publ_section_title
;
Structure prediction by ZEFSAII (Michael W. Deem and Ramdas Pophale) SiO2 
 PCOD8132858
Probable space group: C 2/C
;
_chemical_formula_sum "Si O2"
_cell_formula_units_Z 60
_cell_length_a 27.623465
_cell_length_b 21.118094
_cell_length_c 13.606666
_cell_angle_alpha 90.000000
_cell_angle_beta 156.418793
_cell_angle_gamma 90.000000
_cell_volume 3175.390807
_symmetry_space_group_name_H-M "C 2/C"
_symmetry_group_IT_number 15
_symmetry_cell_setting 'monoclinic'
loop_
_space_group_symop_operation_xyz
x,y,z
-x,y,1/2-z
-x,-y,-z
x,-y,1/2+z
1/2+x,1/2+y,z
1/2-x,1/2+y,1/2-z
1/2-x,1/2-y,-z
1/2+x,1/2-y,1/2+z
loop_
_atom_site_type_symbol
_atom_site_label
_atom_site_fract_x
_atom_site_fract_y
_atom_site_fract_z
Si Si1 0.833469 0.030733 0.853683
Si Si2 0.683460 0.662791 0.741111
Si Si3 0.581584 0.628376 0.753535
Si Si4 0.186483 0.090073 0.281209
Si Si5 0.000000 0.218606 0.250000
Si Si6 0.712007 0.219780 0.033048
Si Si7 0.634217 0.739494 0.990933
Si Si8 0.105171 0.014842 0.313004
O O1 0.764398 0.092059 0.682489
O O2 0.764627 0.965000 0.701291
O O3 0.851640 0.039558 0.002067
O O4 0.961002 0.023474 0.031722
O O5 0.619494 0.666417 0.727140
O O6 0.584462 0.674064 0.472263
O O7 0.789977 0.713943 0.938462
O O8 0.436414 0.622513 0.488437
O O9 0.641556 0.558807 0.868683
O O10 0.629370 0.668968 0.935221
O O11 0.288442 0.143781 0.478915
O O12 0.171494 0.059761 0.360274
O O13 0.077947 0.261152 0.319297
O O14 0.808226 0.240165 0.294298
O O15 0.750000 0.250000 0.000000
O O16 0.500000 0.767895 0.750000
#
# Coordination Sequence:
#
# PCOD8132858 Si02
#       8
#     8   8   8   8   4   8   8   8
#     4  10  19  31  53  85 115 151 183 249 304 346
#     4  11  21  37  58  83 119 151 194 245 294 352
#     4  11  19  36  55  88 115 149 196 246 306 354
#     4  11  19  35  58  85 118 151 190 245 302 356
#     4  10  24  38  56  92 118 158 206 244 300 356
#     4  11  24  40  63  86 123 162 198 252 296 360
#     4  11  24  38  57  84 118 158 196 241 297 357
#     4  10  19  29  55  84 118 143 187 247 302 356
#
# _framework density 18.895312000000001
#
# number of rings (size 3 to 8) (size 9 to 14) (size 15 to 20)
#    0.000    1.333    4.000    3.600    5.600    0.000 
#    0.000    0.000    1.467    0.000    0.000    6.533 
#    0.000    0.000    0.000    0.000    0.000    0.000 
#
# Total GULP energy -372006.237901 kJ/mol
# GULP energy per Si atom -12400.207930 kJ/mol
# Density = 1.885231 g / cm^3
# Si number density = 18.895312 Si / 1000 Ang^3
#
#
#
# Elastic Constant Matrix: (Units=GPa)
#
#
# Indices 1 2 3 4 5 6 
#
# 1 90.8063 37.7474 26.0456 0.0000 -2.2326 0.0000
# 2 37.7474 126.0864 32.3892 0.0000 1.7661 0.0000
# 3 26.0456 32.3892 48.4432 0.0000 0.4418 0.0000
# 4 0.0000 0.0000 0.0000 28.0745 0.0000 -5.0817
# 5 -2.2326 1.7661 0.4418 0.0000 21.0302 0.0000
# 6 0.0000 0.0000 0.0000 -5.0817 0.0000 37.1179
#
#
#
# Elastic Compliance Matrix: (Units=1/GPa)
#
#
# Indices 1 2 3 4 5 6 
#
# 1 0.013797 -0.002712 -0.005621 0.000000 0.001810 0.000000
# 2 -0.002712 0.010118 -0.005298 0.000000 -0.001026 0.000000
# 3 -0.005621 -0.005298 0.027214 0.000000 -0.000724 0.000000
# 4 0.000000 0.000000 0.000000 0.036525 0.000000 0.005001
# 5 0.001810 -0.001026 -0.000724 0.000000 0.047844 0.000000
# 6 0.000000 0.000000 0.000000 0.005001 0.000000 0.027626
#
#
# Mechanical properties :
#
#
# Convention : Reuss Voigt Hill
#
# Bulk Modulus (GPa) = 41.89867 50.85558 46.37712
# Shear Modulus (GPa) = 25.20927 28.52145 26.86536
#
# Velocity S-wave (km/s) = 3.65657 3.88937 3.77477
# Velocity P-wave (km/s) = 6.32847 6.86604 6.60273
#
# Compressibility (1/GPa) = 0.02386711
#
# Stress axis : x y z
#
# Youngs Moduli (GPa) = 72.48213 98.83236 36.74634
#
# Poissons Ratio (x) = 0.26801 0.20656
# Poissons Ratio (y) = 0.19655 0.19467
# Poissons Ratio (z) = 0.40743 0.52358
#
# Static dielectric constant tensor:
#      x y z
#    x 3.575360 0.000000 -0.115200 
#    y 0.000000 3.734320 0.000000 
#    z -0.115200 0.000000 3.097460 
# 
# 
# High freq. dielectric constant tensor:
#      x y z
#    x 1.751090 0.000000 -0.026350 
#    y 0.000000 1.750420 0.000000 
#    z -0.026350 0.000000 1.676690 
# 
# From -- ./inp_files/145645.got.cif
#   From: 2010.06.25/outbox.cif.g09.slc.cpg/sg15_73_cif.got.tgz:145645.got - 2010.06.28 07:06:18.
