data_PCOD8132460
_publ_section_title
;
Structure prediction by ZEFSAII (Michael W. Deem and Ramdas Pophale) SiO2 
 PCOD8132460
Probable space group: C 2/C
;
_chemical_formula_sum "Si O2"
_cell_formula_units_Z 56
_cell_length_a 7.991232
_cell_length_b 26.067938
_cell_length_c 17.740423
_cell_angle_alpha 90.000000
_cell_angle_beta 45.465571
_cell_angle_gamma 90.000000
_cell_volume 2634.327935
_symmetry_space_group_name_H-M "C 2/C"
_symmetry_group_IT_number 15
_symmetry_cell_setting 'monoclinic'
loop_
_space_group_symop_operation_xyz
x,y,z
-x,y,1/2-z
-x,-y,-z
x,-y,1/2+z
1/2+x,1/2+y,z
1/2-x,1/2+y,1/2-z
1/2-x,1/2-y,-z
1/2+x,1/2-y,1/2+z
loop_
_atom_site_type_symbol
_atom_site_label
_atom_site_fract_x
_atom_site_fract_y
_atom_site_fract_z
Si Si1 0.140883 0.370092 0.838059
Si Si2 0.120185 0.451823 0.057807
Si Si3 0.420325 0.364884 0.891332
Si Si4 0.500000 0.715359 0.750000
Si Si5 0.452453 0.650494 0.626041
Si Si6 0.000000 0.408741 0.250000
Si Si7 0.775168 0.803618 0.591872
Si Si8 0.804740 0.557240 0.519111
O O1 0.236970 0.342814 0.885793
O O2 0.359196 0.390416 0.720702
O O3 0.972725 0.333763 0.840563
O O4 0.011639 0.421687 0.901399
O O5 0.001380 0.445910 0.177191
O O6 0.896841 0.454102 0.073461
O O7 0.296548 0.405428 0.984783
O O8 0.270931 0.504423 0.998893
O O9 0.537219 0.321204 0.905096
O O10 0.384386 0.678233 0.725084
O O11 0.702939 0.747219 0.642731
O O12 0.586035 0.692250 0.531141
O O13 0.602941 0.599071 0.589561
O O14 0.212481 0.630141 0.668800
#
# Coordination Sequence:
#
# PCOD8132460 Si02
#       8
#     8   8   8   4   8   4   8   8
#     4   9  19  35  64  94 127 165 212 275 334 378
#     4  10  21  39  66  95 130 175 221 256 337 397
#     4  10  18  37  64  95 133 163 213 281 321 395
#     4  12  24  44  71  94 124 181 226 270 348 402
#     4  11  25  44  64  94 137 173 218 283 330 392
#     4  12  24  42  61  98 140 171 216 272 330 400
#     4  11  21  43  67  94 127 170 220 276 332 397
#     4   9  21  42  65  91 127 177 217 270 325 407
#
# _framework density 21.257791999999998
#
# number of rings (size 3 to 8) (size 9 to 14) (size 15 to 20)
#    0.000    1.714    2.857    1.286    0.000    1.714 
#    7.714    5.000    0.000    0.000    0.000    0.000 
#    0.000    0.000    0.000    0.000    0.000    0.000 
#
# Total GULP energy -346929.337882 kJ/mol
# GULP energy per Si atom -12390.333496 kJ/mol
# Density = 2.120941 g / cm^3
# Si number density = 21.257792 Si / 1000 Ang^3
#
#
#
# Elastic Constant Matrix: (Units=GPa)
#
#
# Indices 1 2 3 4 5 6 
#
# 1 92.8457 28.3638 33.0373 0.0000 2.0050 0.0000
# 2 28.3638 79.1769 41.5961 0.0000 4.6569 0.0000
# 3 33.0373 41.5961 116.5116 0.0000 8.9491 0.0001
# 4 0.0000 0.0000 0.0000 29.0605 0.0000 7.8576
# 5 2.0050 4.6569 8.9491 0.0000 31.6579 -0.0001
# 6 0.0000 0.0000 0.0001 7.8576 -0.0001 16.0826
#
#
#
# Elastic Compliance Matrix: (Units=1/GPa)
#
#
# Indices 1 2 3 4 5 6 
#
# 1 0.012629 -0.003261 -0.002445 0.000000 0.000371 0.000000
# 2 -0.003261 0.016405 -0.004868 0.000000 -0.000830 0.000000
# 3 -0.002445 -0.004868 0.011190 0.000000 -0.002292 0.000000
# 4 0.000000 0.000000 0.000000 0.039649 0.000000 -0.019371
# 5 0.000371 -0.000830 -0.002292 0.000000 0.032334 0.000000
# 6 0.000000 0.000000 0.000000 -0.019371 0.000000 0.071643
#
#
# Mechanical properties :
#
#
# Convention : Reuss Voigt Hill
#
# Bulk Modulus (GPa) = 52.42587 54.94762 53.68674
# Shear Modulus (GPa) = 23.65660 27.72935 25.69298
#
# Velocity S-wave (km/s) = 3.33955 3.61561 3.48032
# Velocity P-wave (km/s) = 6.29171 6.58290 6.43895
#
# Compressibility (1/GPa) = 0.01907455
#
# Stress axis : x y z
#
# Youngs Moduli (GPa) = 79.18335 60.95848 89.36393
#
# Poissons Ratio (x) = 0.19881 0.21851
# Poissons Ratio (y) = 0.25825 0.43503
# Poissons Ratio (z) = 0.19361 0.29675
#
# Static dielectric constant tensor:
#      x y z
#    x 4.023450 0.000000 0.132780 
#    y 0.000000 3.594170 0.000000 
#    z 0.132780 0.000000 4.084980 
# 
# 
# High freq. dielectric constant tensor:
#      x y z
#    x 1.838910 0.000000 0.010690 
#    y 0.000000 1.808370 0.000000 
#    z 0.010690 0.000000 1.847990 
# 
# From -- ./inp_files/193248.got.cif
#   From: 2010.06.25/outbox.cif.g09.slc.cpg/sg15_97_cif.got.tgz:193248.got - 2010.06.28 07:06:18.
