data_PCOD8132093
_publ_section_title
;
Structure prediction by ZEFSAII (Michael W. Deem and Ramdas Pophale) SiO2 
 PCOD8132093
Probable space group: C 2/C
;
_chemical_formula_sum "Si O2"
_cell_formula_units_Z 52
_cell_length_a 11.134028
_cell_length_b 16.288975
_cell_length_c 19.838757
_cell_angle_alpha 90.000000
_cell_angle_beta 136.513141
_cell_angle_gamma 90.000000
_cell_volume 2476.097487
_symmetry_space_group_name_H-M "C 2/C"
_symmetry_group_IT_number 15
_symmetry_cell_setting 'monoclinic'
loop_
_space_group_symop_operation_xyz
x,y,z
-x,y,1/2-z
-x,-y,-z
x,-y,1/2+z
1/2+x,1/2+y,z
1/2-x,1/2+y,1/2-z
1/2-x,1/2-y,-z
1/2+x,1/2-y,1/2+z
loop_
_atom_site_type_symbol
_atom_site_label
_atom_site_fract_x
_atom_site_fract_y
_atom_site_fract_z
Si Si1 0.141473 0.228549 0.639056
Si Si2 0.665676 0.500778 0.482574
Si Si3 0.500000 0.834788 0.250000
Si Si4 0.960165 0.529553 0.844276
Si Si5 0.908181 0.079760 0.780092
Si Si6 0.376770 0.856540 0.757484
Si Si7 0.940511 0.131982 0.458552
O O1 0.334960 0.226197 0.686722
O O2 0.115644 0.155076 0.680457
O O3 0.099998 0.313357 0.660290
O O4 0.006337 0.214913 0.522439
O O5 0.532540 0.488064 0.366360
O O6 0.607084 0.580191 0.501375
O O7 0.671689 0.422564 0.534891
O O8 0.866402 0.513814 0.539429
O O9 0.495207 0.891807 0.182543
O O10 0.783746 0.543562 0.815923
O O11 0.920303 0.452151 0.780620
O O12 0.000000 0.110328 0.750000
O O13 0.500000 0.816937 0.750000
O O14 0.177923 0.842105 0.652693
#
# Coordination Sequence:
#
# PCOD8132093 Si02
#       7
#     8   8   4   8   8   8   8
#     4  10  23  38  61  89 126 163 200 253 322 369
#     4  10  18  35  65  92 112 159 223 259 294 369
#     4  10  18  40  66  84 116 166 212 242 292 386
#     4  11  19  36  67  90 113 162 218 253 293 369
#     4  10  22  39  58  87 126 164 200 261 321 367
#     4  12  22  37  60  96 125 154 208 266 305 366
#     4  10  19  37  62  89 121 158 209 260 306 369
#
# _framework density 21.000788
#
# number of rings (size 3 to 8) (size 9 to 14) (size 15 to 20)
#    0.000    1.538    5.385    0.462    0.000    1.231 
#    4.154    0.769    0.000    0.000    0.000    0.000 
#    0.000    0.000    0.000    0.000    0.000    0.000 
#
# Total GULP energy -322331.227456 kJ/mol
# GULP energy per Si atom -12397.354902 kJ/mol
# Density = 2.095299 g / cm^3
# Si number density = 21.000788 Si / 1000 Ang^3
#
#
#
# Elastic Constant Matrix: (Units=GPa)
#
#
# Indices 1 2 3 4 5 6 
#
# 1 94.2685 3.5072 21.1326 0.0000 25.3283 0.0000
# 2 3.5072 33.6160 -5.0897 0.0000 1.0476 0.0000
# 3 21.1326 -5.0897 74.1920 0.0000 27.6709 0.0000
# 4 0.0000 0.0000 0.0000 19.9087 0.0000 -0.3100
# 5 25.3283 1.0476 27.6709 0.0000 37.1728 0.0000
# 6 0.0000 0.0000 0.0000 -0.3100 0.0000 12.2971
#
#
#
# Elastic Compliance Matrix: (Units=1/GPa)
#
#
# Indices 1 2 3 4 5 6 
#
# 1 0.013049 -0.001205 -0.000687 0.000000 -0.008346 0.000000
# 2 -0.001205 0.030466 0.003388 0.000000 -0.002559 0.000000
# 3 -0.000687 0.003388 0.019059 0.000000 -0.013815 0.000000
# 4 0.000000 0.000000 0.000000 0.050249 0.000000 0.001267
# 5 -0.008346 -0.002559 -0.013815 0.000000 0.042944 0.000000
# 6 0.000000 0.000000 0.000000 0.001267 0.000000 0.081352
#
#
# Mechanical properties :
#
#
# Convention : Reuss Voigt Hill
#
# Bulk Modulus (GPa) = 15.25188 26.79742 21.02465
# Shear Modulus (GPa) = 19.53256 26.04415 22.78836
#
# Velocity S-wave (km/s) = 3.05304 3.52540 3.29769
# Velocity P-wave (km/s) = 4.43919 5.41841 4.95306
#
# Compressibility (1/GPa) = 0.06556570
#
# Stress axis : x y z
#
# Youngs Moduli (GPa) = 76.63262 32.82332 52.46882
#
# Poissons Ratio (x) = 0.03956 0.03604
# Poissons Ratio (y) = 0.09237 -0.17775
# Poissons Ratio (z) = 0.05263 -0.11120
#
# Static dielectric constant tensor:
#      x y z
#    x 3.802310 0.000000 0.270020 
#    y 0.000000 3.477060 0.000000 
#    z 0.270020 0.000000 3.853980 
# 
# 
# High freq. dielectric constant tensor:
#      x y z
#    x 1.811690 0.000000 0.026570 
#    y 0.000000 1.791700 0.000000 
#    z 0.026570 0.000000 1.821430 
# 
# From -- ./inp_files/146831.got.cif
#   From: 2010.06.25/outbox.cif.g09.slc.cpg/sg15_74_cif.got.tgz:146831.got - 2010.06.28 07:06:18.
