data_PCOD8132545
_publ_section_title
;
Structure prediction by ZEFSAII (Michael W. Deem and Ramdas Pophale) SiO2 
 PCOD8132545
Probable space group: C 2/C
;
_chemical_formula_sum "Si O2"
_cell_formula_units_Z 40
_cell_length_a 12.640189
_cell_length_b 24.572325
_cell_length_c 10.411588
_cell_angle_alpha 90.000000
_cell_angle_beta 39.698500
_cell_angle_gamma 90.000000
_cell_volume 2065.599523
_symmetry_space_group_name_H-M "C 2/C"
_symmetry_group_IT_number 15
_symmetry_cell_setting 'monoclinic'
loop_
_space_group_symop_operation_xyz
x,y,z
-x,y,1/2-z
-x,-y,-z
x,-y,1/2+z
1/2+x,1/2+y,z
1/2-x,1/2+y,1/2-z
1/2-x,1/2-y,-z
1/2+x,1/2-y,1/2+z
loop_
_atom_site_type_symbol
_atom_site_label
_atom_site_fract_x
_atom_site_fract_y
_atom_site_fract_z
Si Si1 0.587246 0.928052 0.302605
Si Si2 0.816517 0.858829 0.476039
Si Si3 0.189141 0.670515 0.841974
Si Si4 0.600406 0.769239 0.788380
Si Si5 0.875117 0.452308 0.747160
O O1 0.500000 0.917378 0.250000
O O2 0.705599 0.875299 0.215568
O O3 0.454701 0.931166 0.541098
O O4 0.687663 0.985118 0.207467
O O5 0.688433 0.861708 0.477347
O O6 0.766090 0.805016 0.605144
O O7 0.786782 0.914585 0.581612
O O8 0.000000 0.855133 0.250000
O O9 0.342200 0.712739 0.699607
O O10 0.012546 0.701217 0.999674
O O11 0.500000 0.757503 0.750000
O O12 0.000000 0.449064 0.750000
#
# Coordination Sequence:
#
# PCOD8132545 Si02
#       5
#     8   8   8   8   8
#     4  10  21  35  62  82 111 149 193 226 278 338
#     4  11  19  32  57  91 116 140 182 241 284 323
#     4  11  19  35  55  86 112 148 185 237 278 331
#     4  10  19  32  54  87 115 143 185 238 280 327
#     4  10  18  38  62  85 107 146 193 236 272 331
#
# _framework density 19.364839
#
# number of rings (size 3 to 8) (size 9 to 14) (size 15 to 20)
#    0.000    1.600    4.000    4.800    0.000    0.000 
#    0.000    2.000    0.000    0.000    0.000    0.000 
#    0.000    0.000    0.000    0.000    0.000    0.000 
#
# Total GULP energy -247811.424186 kJ/mol
# GULP energy per Si atom -12390.571209 kJ/mol
# Density = 1.932076 g / cm^3
# Si number density = 19.364839 Si / 1000 Ang^3
#
#
#
# Elastic Constant Matrix: (Units=GPa)
#
#
# Indices 1 2 3 4 5 6 
#
# 1 67.7824 53.8584 22.6699 0.0000 11.7718 0.0000
# 2 53.8584 184.3504 48.2752 0.0000 -9.8945 0.0000
# 3 22.6699 48.2752 74.4388 0.0000 -11.1422 0.0000
# 4 0.0000 0.0000 0.0000 27.6659 0.0000 3.6526
# 5 11.7718 -9.8945 -11.1422 0.0000 24.4418 0.0000
# 6 0.0000 0.0000 0.0000 3.6526 0.0000 38.0522
#
#
#
# Elastic Compliance Matrix: (Units=1/GPa)
#
#
# Indices 1 2 3 4 5 6 
#
# 1 0.025120 -0.006732 -0.005906 0.000000 -0.017516 0.000000
# 2 -0.006732 0.008352 -0.002549 0.000000 0.005462 0.000000
# 3 -0.005906 -0.002549 0.018413 0.000000 0.010206 0.000000
# 4 0.000000 0.000000 0.000000 0.036610 0.000000 -0.003514
# 5 -0.017516 0.005462 0.010206 0.000000 0.056213 0.000000
# 6 0.000000 0.000000 0.000000 -0.003514 0.000000 0.026617
#
#
# Mechanical properties :
#
#
# Convention : Reuss Voigt Hill
#
# Bulk Modulus (GPa) = 46.48765 64.01984 55.25374
# Shear Modulus (GPa) = 23.93856 31.48318 27.71087
#
# Velocity S-wave (km/s) = 3.51976 4.03648 3.78695
# Velocity P-wave (km/s) = 6.36998 7.40648 6.90769
#
# Compressibility (1/GPa) = 0.02151109
#
# Stress axis : x y z
#
# Youngs Moduli (GPa) = 39.80952 119.73410 54.30962
#
# Poissons Ratio (x) = 0.80609 0.32074
# Poissons Ratio (y) = 0.26801 0.13841
# Poissons Ratio (z) = 0.23511 0.30515
#
# Static dielectric constant tensor:
#      x y z
#    x 3.293120 0.000000 0.067620 
#    y 0.000000 4.054080 0.000000 
#    z 0.067620 0.000000 3.282580 
# 
# 
# High freq. dielectric constant tensor:
#      x y z
#    x 1.708780 0.000000 -0.002440 
#    y 0.000000 1.786140 0.000000 
#    z -0.002440 0.000000 1.722790 
# 
# From -- ./inp_files/31733.got.cif
#   From: 2010.06.25/outbox.cif.g09.slc.cpg/sg15_16_cif.got.tgz:31733.got - 2010.06.28 07:06:18.
