data_PCOD8132580
_publ_section_title
;
Structure prediction by ZEFSAII (Michael W. Deem and Ramdas Pophale) SiO2 
 PCOD8132580
Probable space group: C 2/C
;
_chemical_formula_sum "Si O2"
_cell_formula_units_Z 64
_cell_length_a 8.711019
_cell_length_b 29.474771
_cell_length_c 17.496904
_cell_angle_alpha 90.000000
_cell_angle_beta 135.428160
_cell_angle_gamma 90.000000
_cell_volume 3152.795785
_symmetry_space_group_name_H-M "C 2/C"
_symmetry_group_IT_number 15
_symmetry_cell_setting 'monoclinic'
loop_
_space_group_symop_operation_xyz
x,y,z
-x,y,1/2-z
-x,-y,-z
x,-y,1/2+z
1/2+x,1/2+y,z
1/2-x,1/2+y,1/2-z
1/2-x,1/2-y,-z
1/2+x,1/2-y,1/2+z
loop_
_atom_site_type_symbol
_atom_site_label
_atom_site_fract_x
_atom_site_fract_y
_atom_site_fract_z
Si Si1 0.815744 0.141335 0.135639
Si Si2 0.928600 0.409117 0.569097
Si Si3 0.623364 0.137955 0.721306
Si Si4 0.429097 0.056153 0.905954
Si Si5 0.508550 0.634338 0.538587
Si Si6 0.724074 0.198628 0.965607
Si Si7 0.345399 0.984852 0.758405
Si Si8 0.083594 0.935511 0.938161
O O1 0.630692 0.122759 0.124525
O O2 0.946241 0.100880 0.139726
O O3 0.000000 0.167611 0.250000
O O4 0.698433 0.174503 0.036899
O O5 0.855142 0.438711 0.468185
O O6 0.745056 0.374260 0.534609
O O7 0.006383 0.442396 0.663507
O O8 0.500000 0.115600 0.750000
O O9 0.602406 0.105913 0.640822
O O10 0.501210 0.186258 0.659751
O O11 0.874844 0.142359 0.837462
O O12 0.291255 0.018572 0.810324
O O13 0.682454 0.040111 0.991077
O O14 0.564913 0.678971 0.506632
O O15 0.590900 0.589323 0.523172
O O16 0.750000 0.250000 0.000000
O O17 0.500000 0.009573 0.750000
O O18 0.113227 0.971466 0.638447
#
# Coordination Sequence:
#
# PCOD8132580 Si02
#       8
#     8   8   8   8   8   8   8   8
#     4  10  19  37  65  83 120 162 198 256 322 382
#     4  11  22  40  58  93 124 163 214 263 333 373
#     4  10  18  38  64  86 121 166 209 250 318 388
#     4  11  23  39  59  87 126 168 217 272 318 383
#     4  10  21  38  64  90 124 166 205 265 317 385
#     4  10  21  40  67  96 120 157 213 255 307 400
#     4  12  24  35  62  89 126 169 225 275 320 384
#     4  10  20  39  58  83 118 169 215 262 316 382
#
# _framework density 20.299441999999999
#
# number of rings (size 3 to 8) (size 9 to 14) (size 15 to 20)
#    0.000    1.500    7.500    0.750    0.000    3.500 
#    0.000    3.125    0.000    1.500    0.000    0.000 
#    0.000    0.000    0.000    0.000    0.000    0.000 
#
# Total GULP energy -396495.895978 kJ/mol
# GULP energy per Si atom -12390.496749 kJ/mol
# Density = 2.025324 g / cm^3
# Si number density = 20.299442 Si / 1000 Ang^3
#
#
#
# Elastic Constant Matrix: (Units=GPa)
#
#
# Indices 1 2 3 4 5 6 
#
# 1 67.8643 19.0243 21.2432 0.0000 2.0109 0.0000
# 2 19.0243 86.6763 35.9214 0.0000 7.7380 0.0000
# 3 21.2432 35.9214 108.1631 0.0000 1.1675 0.0000
# 4 0.0000 0.0000 0.0000 25.2477 0.0000 -2.5567
# 5 2.0109 7.7380 1.1675 0.0000 25.6619 0.0000
# 6 0.0000 0.0000 0.0000 -2.5567 0.0000 20.6382
#
#
#
# Elastic Compliance Matrix: (Units=1/GPa)
#
#
# Indices 1 2 3 4 5 6 
#
# 1 0.016191 -0.002554 -0.002328 0.000000 -0.000393 0.000000
# 2 -0.002554 0.014169 -0.004162 0.000000 -0.003883 0.000000
# 3 -0.002328 -0.004162 0.011075 0.000000 0.000934 0.000000
# 4 0.000000 0.000000 0.000000 0.040111 0.000000 0.004969
# 5 -0.000393 -0.003883 0.000934 0.000000 0.040128 0.000000
# 6 0.000000 0.000000 0.000000 0.004969 0.000000 0.049069
#
#
# Mechanical properties :
#
#
# Convention : Reuss Voigt Hill
#
# Bulk Modulus (GPa) = 42.83056 46.12017 44.47537
# Shear Modulus (GPa) = 25.43061 26.74387 26.08724
#
# Velocity S-wave (km/s) = 3.54329 3.63363 3.58875
# Velocity P-wave (km/s) = 6.15509 6.35402 6.25535
#
# Compressibility (1/GPa) = 0.02334781
#
# Stress axis : x y z
#
# Youngs Moduli (GPa) = 61.76081 70.57478 90.29660
#
# Poissons Ratio (x) = 0.18026 0.21017
# Poissons Ratio (y) = 0.15775 0.37583
# Poissons Ratio (z) = 0.14375 0.29374
#
# Static dielectric constant tensor:
#      x y z
#    x 3.639410 0.000000 -0.144630 
#    y 0.000000 3.644910 0.000000 
#    z -0.144630 0.000000 3.925740 
# 
# 
# High freq. dielectric constant tensor:
#      x y z
#    x 1.783490 0.000000 -0.014890 
#    y 0.000000 1.749060 0.000000 
#    z -0.014890 0.000000 1.812340 
# 
# From -- ./inp_files/194274.got.cif
#   From: 2010.06.25/outbox.cif.g09.slc.cpg/sg15_98_cif.got.tgz:194274.got - 2010.06.28 07:06:18.
