data_PCOD8132355
_publ_section_title
;
Structure prediction by ZEFSAII (Michael W. Deem and Ramdas Pophale) SiO2 
 PCOD8132355
Probable space group: C 2/C
;
_chemical_formula_sum "Si O2"
_cell_formula_units_Z 56
_cell_length_a 22.766180
_cell_length_b 7.432925
_cell_length_c 23.217354
_cell_angle_alpha 90.000000
_cell_angle_beta 138.926677
_cell_angle_gamma 90.000000
_cell_volume 2581.333281
_symmetry_space_group_name_H-M "C 2/C"
_symmetry_group_IT_number 15
_symmetry_cell_setting 'monoclinic'
loop_
_space_group_symop_operation_xyz
x,y,z
-x,y,1/2-z
-x,-y,-z
x,-y,1/2+z
1/2+x,1/2+y,z
1/2-x,1/2+y,1/2-z
1/2-x,1/2-y,-z
1/2+x,1/2-y,1/2+z
loop_
_atom_site_type_symbol
_atom_site_label
_atom_site_fract_x
_atom_site_fract_y
_atom_site_fract_z
Si Si1 0.802407 0.511967 0.016019
Si Si2 0.997976 0.481642 0.180467
Si Si3 0.703102 0.533585 0.329491
Si Si4 0.789028 0.822096 0.843874
Si Si5 0.511287 0.601498 0.691257
Si Si6 0.663330 0.148974 0.732537
Si Si7 0.836916 0.912369 0.002074
O O1 0.735745 0.435765 0.918594
O O2 0.825617 0.718919 0.022998
O O3 0.899140 0.415850 0.087451
O O4 0.750507 0.479447 0.038757
O O5 0.020254 0.688448 0.182230
O O6 0.000000 0.443162 0.250000
O O7 0.070694 0.370077 0.198392
O O8 0.742902 0.351896 0.335052
O O9 0.597919 0.513336 0.240886
O O10 0.729838 0.715254 0.315752
O O11 0.854847 0.746714 0.842709
O O12 0.841713 0.914022 0.936111
O O13 0.716243 0.961075 0.764237
O O14 0.500000 0.580370 0.750000
O O15 0.430024 0.510284 0.595538
#
# Coordination Sequence:
#
# PCOD8132355 Si02
#       7
#     8   8   8   8   8   8   8
#     4   9  18  36  63  98 128 168 213 266 329 385
#     4  10  21  38  64  97 134 168 210 276 328 379
#     4  11  22  40  67  93 128 171 220 264 324 388
#     4  11  23  43  64  92 127 176 218 267 320 386
#     4  10  18  36  66  99 131 170 211 266 334 385
#     4  12  24  43  67  93 129 174 224 263 325 387
#     4   9  18  35  65  96 129 170 217 262 325 387
#
# _framework density 21.694215
#
# number of rings (size 3 to 8) (size 9 to 14) (size 15 to 20)
#    0.000    1.714    4.286    0.857    4.000    0.571 
#    2.571   10.000    0.000    0.000    0.000    0.000 
#    0.000    0.000    0.000    0.000    0.000    0.000 
#
# Total GULP energy -346947.951358 kJ/mol
# GULP energy per Si atom -12390.998263 kJ/mol
# Density = 2.164484 g / cm^3
# Si number density = 21.694215 Si / 1000 Ang^3
#
#
#
# Elastic Constant Matrix: (Units=GPa)
#
#
# Indices 1 2 3 4 5 6 
#
# 1 81.2447 47.4029 67.8979 0.0000 -13.0765 0.0004
# 2 47.4029 53.2304 24.5457 -0.0001 -4.9460 -0.0007
# 3 67.8979 24.5457 143.0063 0.0000 6.5846 0.0001
# 4 0.0000 -0.0001 0.0000 16.8178 0.0000 -5.8068
# 5 -13.0765 -4.9460 6.5846 0.0000 33.9238 0.0000
# 6 0.0004 -0.0007 0.0001 -5.8068 0.0000 31.9624
#
#
#
# Elastic Compliance Matrix: (Units=1/GPa)
#
#
# Indices 1 2 3 4 5 6 
#
# 1 0.053420 -0.036588 -0.019964 -0.000001 0.019132 -0.000001
# 2 -0.036588 0.045928 0.009918 0.000001 -0.009333 0.000002
# 3 -0.019964 0.009918 0.015193 0.000000 -0.009198 0.000000
# 4 -0.000001 0.000001 0.000000 0.063440 0.000000 0.011526
# 5 0.019132 -0.009333 -0.009198 0.000000 0.037278 0.000000
# 6 -0.000001 0.000002 0.000000 0.011526 0.000000 0.033381
#
#
# Mechanical properties :
#
#
# Convention : Reuss Voigt Hill
#
# Bulk Modulus (GPa) = 47.00873 61.90829 54.45851
# Shear Modulus (GPa) = 14.32668 25.71645 20.02157
#
# Velocity S-wave (km/s) = 2.57260 3.44671 3.04122
# Velocity P-wave (km/s) = 5.52632 6.66622 6.12285
#
# Compressibility (1/GPa) = 0.02127264
#
# Stress axis : x y z
#
# Youngs Moduli (GPa) = 18.71949 21.77308 65.82113
#
# Poissons Ratio (x) = 0.79664 1.31407
# Poissons Ratio (y) = 0.68491 -0.65283
# Poissons Ratio (z) = 0.37372 -0.21595
#
# Static dielectric constant tensor:
#      x y z
#    x 3.892780 0.000000 -0.117920 
#    y 0.000000 3.869590 0.000000 
#    z -0.117920 0.000000 3.966050 
# 
# 
# High freq. dielectric constant tensor:
#      x y z
#    x 1.840510 0.000000 -0.004460 
#    y 0.000000 1.850020 0.000000 
#    z -0.004460 0.000000 1.844920 
# 
# From -- ./inp_files/281525.got.cif
#   From: 2010.06.25/outbox.cif.g09.slc.cpg/sg15_141_cif.got.tgz:281525.got - 2010.06.28 07:06:18.
