data_PCOD8132327
_publ_section_title
;
Structure prediction by ZEFSAII (Michael W. Deem and Ramdas Pophale) SiO2 
 PCOD8132327
Probable space group: C 2/C
;
_chemical_formula_sum "Si O2"
_cell_formula_units_Z 60
_cell_length_a 13.393666
_cell_length_b 14.154375
_cell_length_c 16.414435
_cell_angle_alpha 90.000000
_cell_angle_beta 96.284668
_cell_angle_gamma 90.000000
_cell_volume 3093.130475
_symmetry_space_group_name_H-M "C 2/C"
_symmetry_group_IT_number 15
_symmetry_cell_setting 'monoclinic'
loop_
_space_group_symop_operation_xyz
x,y,z
-x,y,1/2-z
-x,-y,-z
x,-y,1/2+z
1/2+x,1/2+y,z
1/2-x,1/2+y,1/2-z
1/2-x,1/2-y,-z
1/2+x,1/2-y,1/2+z
loop_
_atom_site_type_symbol
_atom_site_label
_atom_site_fract_x
_atom_site_fract_y
_atom_site_fract_z
Si Si1 0.208571 0.472697 0.491021
Si Si2 0.965472 0.244571 0.922415
Si Si3 0.880665 0.293660 0.089731
Si Si4 0.687194 0.182006 0.437044
Si Si5 0.000000 0.755320 0.750000
Si Si6 0.169656 0.879366 0.689731
Si Si7 0.914961 0.963121 0.433526
Si Si8 0.282077 0.854035 0.861045
O O1 0.154072 0.400722 0.425209
O O2 0.170721 0.578979 0.474900
O O3 0.325239 0.456517 0.488420
O O4 0.189413 0.444733 0.582412
O O5 0.951220 0.135128 0.898711
O O6 0.887841 0.300427 0.857007
O O7 0.078314 0.274295 0.909636
O O8 0.944360 0.259895 0.017000
O O9 0.790570 0.219096 0.096975
O O10 0.944505 0.306606 0.177597
O O11 0.750000 0.250000 0.500000
O O12 0.752867 0.174344 0.361634
O O13 0.924146 0.816253 0.796290
O O14 0.233863 0.899368 0.776563
O O15 0.120864 0.972037 0.645180
O O16 0.000000 0.000000 0.500000
#
# Coordination Sequence:
#
# PCOD8132327 Si02
#       8
#     8   8   8   8   4   8   8   8
#     4  10  20  39  63  88 118 161 210 255 301 377
#     4  11  20  38  65  86 123 170 205 253 321 379
#     4  10  18  36  64  95 114 158 214 263 300 360
#     4  11  24  42  57  89 133 165 203 252 316 381
#     4  10  20  38  64  90 124 152 208 268 304 348
#     4  10  24  40  60  92 126 160 209 263 309 373
#     4  11  20  36  63  89 118 166 208 250 313 377
#     4  10  20  39  64  90 121 156 213 273 300 362
#
# _framework density 19.397822999999999
#
# number of rings (size 3 to 8) (size 9 to 14) (size 15 to 20)
#    0.000    1.600    2.667    4.000    1.867    2.667 
#    2.400    5.333    0.000    0.000    0.000    0.000 
#    0.000    0.000    0.000    0.000    0.000    0.000 
#
# Total GULP energy -371833.228736 kJ/mol
# GULP energy per Si atom -12394.440958 kJ/mol
# Density = 1.935367 g / cm^3
# Si number density = 19.397823 Si / 1000 Ang^3
#
#
#
# Elastic Constant Matrix: (Units=GPa)
#
#
# Indices 1 2 3 4 5 6 
#
# 1 136.1719 54.3806 45.0777 0.0000 9.4336 0.0000
# 2 54.3806 125.3434 55.1545 0.0000 14.1622 0.0000
# 3 45.0777 55.1545 100.8398 0.0000 19.9953 0.0000
# 4 0.0000 0.0000 0.0000 23.0740 0.0000 2.6980
# 5 9.4336 14.1622 19.9953 0.0000 38.4087 0.0000
# 6 0.0000 0.0000 0.0000 2.6980 0.0000 32.0610
#
#
#
# Elastic Compliance Matrix: (Units=1/GPa)
#
#
# Indices 1 2 3 4 5 6 
#
# 1 0.009369 -0.002931 -0.002613 0.000000 0.000140 0.000000
# 2 -0.002931 0.011457 -0.004752 0.000000 -0.001031 0.000000
# 3 -0.002613 -0.004752 0.014730 0.000000 -0.005274 0.000000
# 4 0.000000 0.000000 0.000000 0.043770 0.000000 -0.003683
# 5 0.000140 -0.001031 -0.005274 0.000000 0.029127 0.000000
# 6 0.000000 0.000000 0.000000 -0.003683 0.000000 0.031501
#
#
# Mechanical properties :
#
#
# Convention : Reuss Voigt Hill
#
# Bulk Modulus (GPa) = 66.82451 74.62007 70.72229
# Shear Modulus (GPa) = 30.20538 32.55821 31.38179
#
# Velocity S-wave (km/s) = 3.95036 4.10133 4.02655
# Velocity P-wave (km/s) = 7.43851 7.80895 7.62598
#
# Compressibility (1/GPa) = 0.01496457
#
# Stress axis : x y z
#
# Youngs Moduli (GPa) = 106.72984 87.28193 67.89034
#
# Poissons Ratio (x) = 0.25582 0.17740
# Poissons Ratio (y) = 0.31282 0.32261
# Poissons Ratio (z) = 0.27888 0.41475
#
# Static dielectric constant tensor:
#      x y z
#    x 3.683580 0.000000 0.097970 
#    y 0.000000 3.598030 0.000000 
#    z 0.097970 0.000000 3.510800 
# 
# 
# High freq. dielectric constant tensor:
#      x y z
#    x 1.770330 0.000000 0.011200 
#    y 0.000000 1.751640 0.000000 
#    z 0.011200 0.000000 1.749320 
# 
# From -- ./inp_files/197890.got.cif
#   From: 2010.06.25/outbox.cif.g09.slc.cpg/sg15_99_cif.got.tgz:197890.got - 2010.06.28 07:06:18.
