data_PCOD8132162
_publ_section_title
;
Structure prediction by ZEFSAII (Michael W. Deem and Ramdas Pophale) SiO2 
 PCOD8132162
Probable space group: C 2/C
;
_chemical_formula_sum "Si O2"
_cell_formula_units_Z 52
_cell_length_a 30.259634
_cell_length_b 16.605178
_cell_length_c 15.876211
_cell_angle_alpha 90.000000
_cell_angle_beta 160.214720
_cell_angle_gamma 90.000000
_cell_volume 2700.274075
_symmetry_space_group_name_H-M "C 2/C"
_symmetry_group_IT_number 15
_symmetry_cell_setting 'monoclinic'
loop_
_space_group_symop_operation_xyz
x,y,z
-x,y,1/2-z
-x,-y,-z
x,-y,1/2+z
1/2+x,1/2+y,z
1/2-x,1/2+y,1/2-z
1/2-x,1/2-y,-z
1/2+x,1/2-y,1/2+z
loop_
_atom_site_type_symbol
_atom_site_label
_atom_site_fract_x
_atom_site_fract_y
_atom_site_fract_z
Si Si1 0.798043 0.024295 0.138366
Si Si2 0.681721 0.289846 0.205065
Si Si3 0.196183 0.976597 0.039984
Si Si4 0.500000 0.355879 0.750000
Si Si5 0.529082 0.368619 0.066184
Si Si6 0.881608 0.156876 0.593442
Si Si7 0.346656 0.057901 0.979409
O O1 0.875277 0.108330 0.293884
O O2 0.896096 0.950121 0.322484
O O3 0.737083 0.025201 0.933693
O O4 0.691699 0.012614 0.022222
O O5 0.563889 0.300572 0.060305
O O6 0.747399 0.202933 0.331146
O O7 0.792961 0.357361 0.417685
O O8 0.610618 0.299042 0.987939
O O9 0.295379 0.955455 0.292520
O O10 0.139624 0.063274 0.961456
O O11 0.073213 0.914795 0.814606
O O12 0.577056 0.327389 0.237301
O O13 0.000000 0.190234 0.750000
O O14 0.500000 0.061961 0.250000
#
# Coordination Sequence:
#
# PCOD8132162 Si02
#       7
#     8   8   8   4   8   8   8
#     4   9  17  31  55  82 108 143 191 239 275 322
#     4  10  20  34  55  81 109 146 184 236 283 329
#     4  10  19  34  57  81 108 150 194 235 272 336
#     4  10  18  36  58  80 110 146 200 226 268 342
#     4   9  17  31  54  81 108 137 188 234 273 334
#     4  11  20  31  53  84 114 143 181 234 289 327
#     4  10  21  35  52  80 113 148 187 232 286 342
#
# _framework density 19.257304999999999
#
# number of rings (size 3 to 8) (size 9 to 14) (size 15 to 20)
#    0.000    2.154    2.308    1.846    4.308    0.615 
#    1.385    0.000    0.000    0.923    0.000    0.000 
#    0.000    0.000    0.000    0.000    0.000    0.000 
#
# Total GULP energy -322267.659531 kJ/mol
# GULP energy per Si atom -12394.909982 kJ/mol
# Density = 1.921347 g / cm^3
# Si number density = 19.257305 Si / 1000 Ang^3
#
#
#
# Elastic Constant Matrix: (Units=GPa)
#
#
# Indices 1 2 3 4 5 6 
#
# 1 66.8240 20.8277 49.2017 0.0000 -3.8813 0.0000
# 2 20.8277 58.7821 35.2080 0.0000 -5.6192 0.0000
# 3 49.2017 35.2080 96.9089 0.0000 1.1202 0.0000
# 4 0.0000 0.0000 0.0000 26.0782 0.0000 -5.9246
# 5 -3.8813 -5.6192 1.1202 0.0000 28.8814 0.0000
# 6 0.0000 0.0000 0.0000 -5.9246 0.0000 5.4418
#
#
#
# Elastic Compliance Matrix: (Units=1/GPa)
#
#
# Indices 1 2 3 4 5 6 
#
# 1 0.024351 -0.001101 -0.012004 0.000000 0.003524 0.000000
# 2 -0.001101 0.022405 -0.007633 0.000000 0.004507 0.000000
# 3 -0.012004 -0.007633 0.019231 0.000000 -0.003844 0.000000
# 4 0.000000 0.000000 0.000000 0.050948 0.000000 0.055469
# 5 0.003524 0.004507 -0.003844 0.000000 0.036124 0.000000
# 6 0.000000 0.000000 0.000000 0.055469 0.000000 0.244153
#
#
# Mechanical properties :
#
#
# Convention : Reuss Voigt Hill
#
# Bulk Modulus (GPa) = 40.79863 48.10998 44.45431
# Shear Modulus (GPa) = 11.18924 19.89878 15.54401
#
# Velocity S-wave (km/s) = 2.41309 3.21800 2.84416
# Velocity P-wave (km/s) = 5.38480 6.23252 5.82410
#
# Compressibility (1/GPa) = 0.02451062
#
# Stress axis : x y z
#
# Youngs Moduli (GPa) = 41.06631 44.63323 51.99956
#
# Poissons Ratio (x) = 0.04916 0.62419
# Poissons Ratio (y) = 0.04523 0.39690
# Poissons Ratio (z) = 0.49295 0.34068
#
# Static dielectric constant tensor:
#      x y z
#    x 3.685800 0.000000 -0.111690 
#    y 0.000000 3.245280 0.000000 
#    z -0.111690 0.000000 3.329630 
# 
# 
# High freq. dielectric constant tensor:
#      x y z
#    x 1.758030 0.000000 -0.016170 
#    y 0.000000 1.718180 0.000000 
#    z -0.016170 0.000000 1.731650 
# 
# From -- ./inp_files/182895.got.cif
#   From: 2010.06.25/outbox.cif.g09.slc.cpg/sg15_92_cif.got.tgz:182895.got - 2010.06.28 07:06:18.
