data_PCOD8132647
_publ_section_title
;
Structure prediction by ZEFSAII (Michael W. Deem and Ramdas Pophale) SiO2 
 PCOD8132647
Probable space group: C 2/C
;
_chemical_formula_sum "Si O2"
_cell_formula_units_Z 40
_cell_length_a 13.865276
_cell_length_b 10.483898
_cell_length_c 15.032081
_cell_angle_alpha 90.000000
_cell_angle_beta 104.615431
_cell_angle_gamma 90.000000
_cell_volume 2114.388490
_symmetry_space_group_name_H-M "C 2/C"
_symmetry_group_IT_number 15
_symmetry_cell_setting 'monoclinic'
loop_
_space_group_symop_operation_xyz
x,y,z
-x,y,1/2-z
-x,-y,-z
x,-y,1/2+z
1/2+x,1/2+y,z
1/2-x,1/2+y,1/2-z
1/2-x,1/2-y,-z
1/2+x,1/2-y,1/2+z
loop_
_atom_site_type_symbol
_atom_site_label
_atom_site_fract_x
_atom_site_fract_y
_atom_site_fract_z
Si Si1 0.213096 0.415737 0.130074
Si Si2 0.089788 0.758608 0.325046
Si Si3 0.472199 0.150756 0.002662
Si Si4 0.172164 0.360416 0.485839
Si Si5 0.383279 0.016100 0.712198
O O1 0.322747 0.359474 0.139649
O O2 0.188204 0.428654 0.228161
O O3 0.129792 0.317960 0.072880
O O4 0.205523 0.546877 0.073711
O O5 0.040983 0.700272 0.401757
O O6 0.129348 0.636076 0.280394
O O7 0.000000 0.826910 0.250000
O O8 0.569045 0.215969 0.982200
O O9 0.500000 0.000000 0.000000
O O10 0.250000 0.250000 0.500000
O O11 0.161600 0.438755 0.392051
O O12 0.500000 0.056800 0.750000
#
# Coordination Sequence:
#
# PCOD8132647 Si02
#       5
#     8   8   8   8   8
#     4  11  23  39  60  91 121 155 206 253 299 362
#     4  11  22  38  63  89 119 157 203 254 304 355
#     4  10  18  39  61  83 114 156 205 245 286 357
#     4  11  23  40  61  92 124 162 201 250 307 363
#     4  11  21  39  64  87 116 160 210 250 298 358
#
# _framework density 18.917998999999998
#
# number of rings (size 3 to 8) (size 9 to 14) (size 15 to 20)
#    0.000    1.200    6.000    4.200    5.600    0.000 
#    0.000    4.000    0.000    0.000    0.000    0.000 
#    0.000    0.000    0.000    0.000    0.000    0.000 
#
# Total GULP energy -247831.515102 kJ/mol
# GULP energy per Si atom -12391.575755 kJ/mol
# Density = 1.887494 g / cm^3
# Si number density = 18.917999 Si / 1000 Ang^3
#
#
#
# Elastic Constant Matrix: (Units=GPa)
#
#
# Indices 1 2 3 4 5 6 
#
# 1 145.3014 55.1240 62.5098 0.0000 14.0506 0.0000
# 2 55.1240 48.7608 24.4274 0.0000 8.1169 0.0000
# 3 62.5098 24.4274 106.3117 0.0000 -2.6574 0.0000
# 4 0.0000 0.0000 0.0000 19.0682 0.0000 6.4924
# 5 14.0506 8.1169 -2.6574 0.0000 44.5150 0.0000
# 6 0.0000 0.0000 0.0000 6.4924 0.0000 30.9502
#
#
#
# Elastic Compliance Matrix: (Units=1/GPa)
#
#
# Indices 1 2 3 4 5 6 
#
# 1 0.014542 -0.013229 -0.005573 0.000000 -0.002510 0.000000
# 2 -0.013229 0.036170 -0.000594 0.000000 -0.002455 0.000000
# 3 -0.005573 -0.000594 0.012886 0.000000 0.002637 0.000000
# 4 0.000000 0.000000 0.000000 0.056477 0.000000 -0.011847
# 5 -0.002510 -0.002455 0.002637 0.000000 0.023862 0.000000
# 6 0.000000 0.000000 0.000000 -0.011847 0.000000 0.034795
#
#
# Mechanical properties :
#
#
# Convention : Reuss Voigt Hill
#
# Bulk Modulus (GPa) = 40.31459 64.94404 52.62931
# Shear Modulus (GPa) = 22.14427 29.46085 25.80256
#
# Velocity S-wave (km/s) = 3.42503 3.95053 3.69713
# Velocity P-wave (km/s) = 6.08256 7.43053 6.79008
#
# Compressibility (1/GPa) = 0.02480492
#
# Stress axis : x y z
#
# Youngs Moduli (GPa) = 68.76836 27.64714 77.60609
#
# Poissons Ratio (x) = 0.36575 0.43252
# Poissons Ratio (y) = 0.90976 0.04606
# Poissons Ratio (z) = 0.38326 0.01641
#
# Static dielectric constant tensor:
#      x y z
#    x 4.144670 0.000000 0.076990 
#    y 0.000000 3.153210 0.000000 
#    z 0.076990 0.000000 3.779940 
# 
# 
# High freq. dielectric constant tensor:
#      x y z
#    x 1.749450 0.000000 -0.001480 
#    y 0.000000 1.687820 0.000000 
#    z -0.001480 0.000000 1.755110 
# 
# From -- ./inp_files/141897.got.cif
#   From: 2010.06.25/outbox.cif.g09.slc.cpg/sg15_71_cif.got.tgz:141897.got - 2010.06.28 07:06:18.
