data_PCOD8132127
_publ_section_title
;
Structure prediction by ZEFSAII (Michael W. Deem and Ramdas Pophale) SiO2 
 PCOD8132127
Probable space group: C 2/C
;
_chemical_formula_sum "Si O2"
_cell_formula_units_Z 52
_cell_length_a 11.474305
_cell_length_b 25.166323
_cell_length_c 13.387120
_cell_angle_alpha 90.000000
_cell_angle_beta 131.591859
_cell_angle_gamma 90.000000
_cell_volume 2891.162106
_symmetry_space_group_name_H-M "C 2/C"
_symmetry_group_IT_number 15
_symmetry_cell_setting 'monoclinic'
loop_
_space_group_symop_operation_xyz
x,y,z
-x,y,1/2-z
-x,-y,-z
x,-y,1/2+z
1/2+x,1/2+y,z
1/2-x,1/2+y,1/2-z
1/2-x,1/2-y,-z
1/2+x,1/2-y,1/2+z
loop_
_atom_site_type_symbol
_atom_site_label
_atom_site_fract_x
_atom_site_fract_y
_atom_site_fract_z
Si Si1 0.468657 0.945556 0.039467
Si Si2 0.122713 0.206207 0.902493
Si Si3 0.377484 0.576293 0.093603
Si Si4 0.536560 0.375169 0.054464
Si Si5 0.500000 0.997849 0.250000
Si Si6 0.751482 0.892213 0.139234
Si Si7 0.178355 0.037487 0.995740
O O1 0.547819 0.957317 0.190528
O O2 0.565084 0.897811 0.044158
O O3 0.291112 0.926336 0.949037
O O4 0.500000 0.000000 0.000000
O O5 0.220230 0.159706 0.908150
O O6 0.000000 0.228207 0.750000
O O7 0.036797 0.182218 0.953334
O O8 0.250000 0.250000 0.000000
O O9 0.500000 0.588013 0.250000
O O10 0.393057 0.623461 0.018557
O O11 0.405108 0.520037 0.053011
O O12 0.669601 0.390469 0.208291
O O13 0.406397 0.421185 0.980225
O O14 0.355293 0.034516 0.136211
O O15 0.822505 0.942072 0.119292
#
# Coordination Sequence:
#
# PCOD8132127 Si02
#       7
#     8   8   8   8   4   8   8
#     4  11  21  34  49  76 115 153 190 222 259 323
#     4   9  20  41  63  90 107 135 183 238 298 344
#     4  11  22  33  49  78 116 154 187 221 264 319
#     4  10  21  34  56  77 111 147 183 225 281 334
#     4  10  20  30  46  74 110 148 188 224 258 306
#     4  10  18  36  56  79 110 146 184 222 279 335
#     4  10  19  30  50  76 110 151 186 222 267 318
#
# _framework density 17.985848000000001
#
# number of rings (size 3 to 8) (size 9 to 14) (size 15 to 20)
#    0.000    1.846    3.077    4.615    2.154    0.000 
#    8.308    0.000    0.000    0.923    2.000    0.000 
#    0.000    0.000    0.000    0.000    0.000    0.000 
#
# Total GULP energy -322145.514849 kJ/mol
# GULP energy per Si atom -12390.212110 kJ/mol
# Density = 1.794491 g / cm^3
# Si number density = 17.985848 Si / 1000 Ang^3
#
#
#
# Elastic Constant Matrix: (Units=GPa)
#
#
# Indices 1 2 3 4 5 6 
#
# 1 110.0902 32.2131 52.3218 0.0000 6.3201 0.0000
# 2 32.2131 60.3204 46.1155 0.0000 7.8547 0.0000
# 3 52.3218 46.1155 114.1085 0.0000 -2.0860 0.0000
# 4 0.0000 0.0000 0.0000 25.6509 0.0000 11.3084
# 5 6.3201 7.8547 -2.0860 0.0000 30.4471 0.0000
# 6 0.0000 0.0000 0.0000 11.3084 0.0000 21.9173
#
#
#
# Elastic Compliance Matrix: (Units=1/GPa)
#
#
# Indices 1 2 3 4 5 6 
#
# 1 0.012151 -0.002786 -0.004484 0.000000 -0.002111 0.000000
# 2 -0.002786 0.026152 -0.009416 0.000000 -0.006813 0.000000
# 3 -0.004484 -0.009416 0.014705 0.000000 0.004367 0.000000
# 4 0.000000 0.000000 0.000000 0.050464 0.000000 -0.026037
# 5 -0.002111 -0.006813 0.004367 0.000000 0.035339 0.000000
# 6 0.000000 0.000000 0.000000 -0.026037 0.000000 0.059060
#
#
# Mechanical properties :
#
#
# Convention : Reuss Voigt Hill
#
# Bulk Modulus (GPa) = 50.92868 60.64666 55.78767
# Shear Modulus (GPa) = 21.02714 25.86098 23.44406
#
# Velocity S-wave (km/s) = 3.42291 3.79601 3.61428
# Velocity P-wave (km/s) = 6.63319 7.28047 6.96435
#
# Compressibility (1/GPa) = 0.01963530
#
# Stress axis : x y z
#
# Youngs Moduli (GPa) = 82.29770 38.23829 68.00434
#
# Poissons Ratio (x) = 0.10653 0.30495
# Poissons Ratio (y) = 0.22928 0.64033
# Poissons Ratio (z) = 0.36904 0.36005
#
# Static dielectric constant tensor:
#      x y z
#    x 3.578740 0.000000 -0.053910 
#    y 0.000000 3.070180 0.000000 
#    z -0.053910 0.000000 3.391270 
# 
# 
# High freq. dielectric constant tensor:
#      x y z
#    x 1.707220 0.000000 0.001190 
#    y 0.000000 1.647390 0.000000 
#    z 0.001190 0.000000 1.702780 
# 
# From -- ./inp_files/92421.got.cif
#   From: 2010.06.25/outbox.cif.g09.slc.cpg/sg15_47_cif.got.tgz:92421.got - 2010.06.28 07:06:18.
