data_PCOD8132015
_publ_section_title
;
Structure prediction by ZEFSAII (Michael W. Deem and Ramdas Pophale) SiO2 
 PCOD8132015
Probable space group: C 2/C
;
_chemical_formula_sum "Si O2"
_cell_formula_units_Z 64
_cell_length_a 14.424178
_cell_length_b 16.584287
_cell_length_c 22.281567
_cell_angle_alpha 90.000000
_cell_angle_beta 152.116744
_cell_angle_gamma 90.000000
_cell_volume 2492.725955
_symmetry_space_group_name_H-M "C 2/C"
_symmetry_group_IT_number 15
_symmetry_cell_setting 'monoclinic'
loop_
_space_group_symop_operation_xyz
x,y,z
-x,y,1/2-z
-x,-y,-z
x,-y,1/2+z
1/2+x,1/2+y,z
1/2-x,1/2+y,1/2-z
1/2-x,1/2-y,-z
1/2+x,1/2-y,1/2+z
loop_
_atom_site_type_symbol
_atom_site_label
_atom_site_fract_x
_atom_site_fract_y
_atom_site_fract_z
Si Si1 0.611991 0.464075 0.140574
Si Si2 0.335465 0.678566 0.255201
Si Si3 0.773432 0.327129 0.149500
Si Si4 0.240428 0.070727 0.386778
Si Si5 0.814884 0.094114 0.684385
Si Si6 0.241792 0.655579 0.986613
Si Si7 0.339871 0.267020 0.881829
Si Si8 0.781698 0.427223 0.645707
O O1 0.727296 0.394755 0.170877
O O2 0.622959 0.446211 0.217017
O O3 0.725436 0.545549 0.182476
O O4 0.378786 0.469240 0.990123
O O5 0.405416 0.757212 0.255788
O O6 0.190428 0.622236 0.132247
O O7 0.528567 0.625906 0.384589
O O8 0.233599 0.715432 0.256535
O O9 0.868630 0.363902 0.140805
O O10 0.573707 0.282444 0.012695
O O11 0.350428 0.107274 0.509111
O O12 0.000000 0.078342 0.250000
O O13 0.307170 0.977332 0.419092
O O14 0.686712 0.174239 0.615967
O O15 0.000000 0.118910 0.750000
O O16 0.250000 0.750000 0.000000
O O17 0.238880 0.329786 0.870633
O O18 0.000000 0.453886 0.750000
#
# Coordination Sequence:
#
# PCOD8132015 Si02
#       8
#     8   8   8   8   8   8   8   8
#     4  10  22  43  70  94 134 178 216 285 336 395
#     4  10  18  35  59  83 123 171 210 266 329 390
#     4  10  20  37  62  89 124 173 221 261 341 390
#     4   9  19  33  57  87 122 162 209 265 335 393
#     4  11  22  40  65  92 130 174 220 266 344 398
#     4  10  19  33  59  91 124 164 216 271 331 400
#     4  10  21  38  62  90 125 170 220 273 318 401
#     4  10  22  44  70 101 128 170 233 277 333 392
#
# _framework density 25.674704999999999
#
# number of rings (size 3 to 8) (size 9 to 14) (size 15 to 20)
#    0.000    2.000    2.500    1.125    0.000    6.000 
#    4.500    2.500    8.250    0.000    0.000    0.000 
#    0.000    0.000    0.000    0.000    0.000    0.000 
#
# Total GULP energy -396516.616635 kJ/mol
# GULP energy per Si atom -12391.144270 kJ/mol
# Density = 2.561627 g / cm^3
# Si number density = 25.674705 Si / 1000 Ang^3
#
#
#
# Elastic Constant Matrix: (Units=GPa)
#
#
# Indices 1 2 3 4 5 6 
#
# 1 116.5462 28.3345 39.5435 0.0061 -18.9192 0.0014
# 2 28.3345 141.9465 20.7329 0.0070 -15.3539 -0.0018
# 3 39.5435 20.7329 75.1139 -0.0064 -9.9828 -0.0063
# 4 0.0061 0.0070 -0.0064 29.0622 0.0007 0.3978
# 5 -18.9192 -15.3539 -9.9828 0.0007 45.4673 -0.0005
# 6 0.0014 -0.0018 -0.0063 0.3978 -0.0005 24.8000
#
#
#
# Elastic Compliance Matrix: (Units=1/GPa)
#
#
# Indices 1 2 3 4 5 6 
#
# 1 0.011096 -0.001131 -0.005116 -0.000003 0.003112 -0.000002
# 2 -0.001131 0.007655 -0.001274 -0.000002 0.001835 0.000000
# 3 -0.005116 -0.001274 0.016499 0.000005 0.001064 0.000004
# 4 -0.000003 -0.000002 0.000005 0.034417 -0.000001 -0.000552
# 5 0.003112 0.001835 0.001064 -0.000001 0.024142 0.000001
# 6 -0.000002 0.000000 0.000004 -0.000552 0.000001 0.040331
#
#
# Mechanical properties :
#
#
# Convention : Reuss Voigt Hill
#
# Bulk Modulus (GPa) = 49.48161 56.75871 53.12016
# Shear Modulus (GPa) = 32.06811 36.19894 34.13352
#
# Velocity S-wave (km/s) = 3.53798 3.75895 3.65013
# Velocity P-wave (km/s) = 6.00034 6.40269 6.20477
#
# Compressibility (1/GPa) = 0.02020953
#
# Stress axis : x y z
#
# Youngs Moduli (GPa) = 90.12082 130.63030 60.60889
#
# Poissons Ratio (x) = 0.14776 0.31006
# Poissons Ratio (y) = 0.10194 0.07719
# Poissons Ratio (z) = 0.46104 0.16638
#
# Static dielectric constant tensor:
#      x y z
#    x 4.800850 0.000000 -0.255790 
#    y 0.000000 4.765090 -0.000020 
#    z -0.255790 -0.000020 4.854380 
# 
# 
# High freq. dielectric constant tensor:
#      x y z
#    x 2.020830 0.000000 -0.018360 
#    y 0.000000 2.038210 0.000000 
#    z -0.018360 0.000000 2.010890 
# 
# From -- ./inp_files/274843.got.cif
#   From: 2010.06.25/outbox.cif.g09.slc.cpg/sg15_138_cif.got.tgz:274843.got - 2010.06.28 07:06:18.
