data_PCOD8132171
_publ_section_title
;
Structure prediction by ZEFSAII (Michael W. Deem and Ramdas Pophale) SiO2 
 PCOD8132171
Probable space group: C 2/C
;
_chemical_formula_sum "Si O2"
_cell_formula_units_Z 56
_cell_length_a 8.753077
_cell_length_b 13.482926
_cell_length_c 28.266265
_cell_angle_alpha 90.000000
_cell_angle_beta 52.386788
_cell_angle_gamma 90.000000
_cell_volume 2642.531448
_symmetry_space_group_name_H-M "C 2/C"
_symmetry_group_IT_number 15
_symmetry_cell_setting 'monoclinic'
loop_
_space_group_symop_operation_xyz
x,y,z
-x,y,1/2-z
-x,-y,-z
x,-y,1/2+z
1/2+x,1/2+y,z
1/2-x,1/2+y,1/2-z
1/2-x,1/2-y,-z
1/2+x,1/2-y,1/2+z
loop_
_atom_site_type_symbol
_atom_site_label
_atom_site_fract_x
_atom_site_fract_y
_atom_site_fract_z
Si Si1 0.551002 0.070005 0.138445
Si Si2 0.687442 0.119692 0.456977
Si Si3 0.897549 0.085839 0.144575
Si Si4 0.665735 0.201476 0.255654
Si Si5 0.084830 0.568040 0.912493
Si Si6 0.944081 0.263662 0.935786
Si Si7 0.000993 0.875190 0.342843
O O1 0.725393 0.056790 0.142009
O O2 0.361811 0.117126 0.199043
O O3 0.615735 0.146603 0.086638
O O4 0.493429 0.966823 0.123950
O O5 0.584217 0.127121 0.527817
O O6 0.618979 0.212207 0.438284
O O7 0.918162 0.121209 0.420658
O O8 0.640041 0.020720 0.437013
O O9 0.858771 0.176018 0.189485
O O10 0.933711 0.988642 0.169832
O O11 0.500000 0.184956 0.250000
O O12 0.647249 0.311653 0.281813
O O13 0.277393 0.634470 0.867115
O O14 0.007549 0.166267 0.895049
O O15 0.750000 0.250000 0.000000
#
# Coordination Sequence:
#
# PCOD8132171 Si02
#       7
#     8   8   8   8   8   8   8
#     4   9  20  36  58  83 119 157 195 251 305 351
#     4   9  18  33  56  86 122 154 193 246 293 360
#     4  10  21  39  59  89 124 153 197 257 313 359
#     4   9  20  40  59  80 118 159 197 250 299 361
#     4   9  17  33  57  87 114 153 202 235 293 372
#     4  10  18  36  58  82 120 163 202 241 293 363
#     4  10  20  36  63  88 109 161 210 243 303 364
#
# _framework density 21.191801000000002
#
# number of rings (size 3 to 8) (size 9 to 14) (size 15 to 20)
#    0.000    2.571    1.429    0.000    2.000    1.714 
#    0.000   20.000    0.000    3.429    0.000    0.000 
#    0.000    0.000    0.000    0.000    0.000    0.000 
#
# Total GULP energy -346973.780459 kJ/mol
# GULP energy per Si atom -12391.920731 kJ/mol
# Density = 2.114357 g / cm^3
# Si number density = 21.191801 Si / 1000 Ang^3
#
#
#
# Elastic Constant Matrix: (Units=GPa)
#
#
# Indices 1 2 3 4 5 6 
#
# 1 82.1476 19.0515 28.0285 0.0000 -6.1249 -0.0001
# 2 19.0515 61.4556 24.9757 0.0000 -3.4925 0.0000
# 3 28.0285 24.9757 74.5394 -0.0002 -2.8003 0.0001
# 4 0.0000 0.0000 -0.0002 31.7751 0.0000 4.1820
# 5 -6.1249 -3.4925 -2.8003 0.0000 30.7479 0.0000
# 6 -0.0001 0.0000 0.0001 4.1820 0.0000 30.3722
#
#
#
# Elastic Compliance Matrix: (Units=1/GPa)
#
#
# Indices 1 2 3 4 5 6 
#
# 1 0.014460 -0.002526 -0.004509 0.000000 0.002183 0.000000
# 2 -0.002526 0.019354 -0.005490 0.000000 0.001195 0.000000
# 3 -0.004509 -0.005490 0.016952 0.000000 0.000022 0.000000
# 4 0.000000 0.000000 0.000000 0.032052 0.000000 -0.004413
# 5 0.002183 0.001195 0.000022 0.000000 0.033095 0.000000
# 6 0.000000 0.000000 0.000000 -0.004413 0.000000 0.033533
#
#
# Mechanical properties :
#
#
# Convention : Reuss Voigt Hill
#
# Bulk Modulus (GPa) = 38.88715 40.25043 39.56879
# Shear Modulus (GPa) = 27.31223 28.31815 27.81519
#
# Velocity S-wave (km/s) = 3.59390 3.65948 3.62684
# Velocity P-wave (km/s) = 5.96753 6.07374 6.02087
#
# Compressibility (1/GPa) = 0.02571544
#
# Stress axis : x y z
#
# Youngs Moduli (GPa) = 69.15494 51.66843 58.99158
#
# Poissons Ratio (x) = 0.13053 0.26599
# Poissons Ratio (y) = 0.17470 0.32387
# Poissons Ratio (z) = 0.31181 0.28367
#
# Static dielectric constant tensor:
#      x y z
#    x 3.527610 0.000000 0.118750 
#    y 0.000000 3.760560 0.000000 
#    z 0.118750 0.000000 4.313690 
# 
# 
# High freq. dielectric constant tensor:
#      x y z
#    x 1.810730 0.000000 0.005120 
#    y 0.000000 1.815360 0.000000 
#    z 0.005120 0.000000 1.838910 
# 
# From -- ./inp_files/307949.got.cif
#   From: 2010.06.25/outbox.cif.g09.slc.cpg/sg15_154_cif.got.tgz:307949.got - 2010.06.28 07:06:18.
