data_PCOD8132092
_publ_section_title
;
Structure prediction by ZEFSAII (Michael W. Deem and Ramdas Pophale) SiO2 
 PCOD8132092
Probable space group: C 2/C
;
_chemical_formula_sum "Si O2"
_cell_formula_units_Z 60
_cell_length_a 20.574996
_cell_length_b 26.306409
_cell_length_c 11.562549
_cell_angle_alpha 90.000000
_cell_angle_beta 29.151131
_cell_angle_gamma 90.000000
_cell_volume 3048.501182
_symmetry_space_group_name_H-M "C 2/C"
_symmetry_group_IT_number 15
_symmetry_cell_setting 'monoclinic'
loop_
_space_group_symop_operation_xyz
x,y,z
-x,y,1/2-z
-x,-y,-z
x,-y,1/2+z
1/2+x,1/2+y,z
1/2-x,1/2+y,1/2-z
1/2-x,1/2-y,-z
1/2+x,1/2-y,1/2+z
loop_
_atom_site_type_symbol
_atom_site_label
_atom_site_fract_x
_atom_site_fract_y
_atom_site_fract_z
Si Si1 0.391359 0.403557 0.681884
Si Si2 0.288234 0.139239 0.240184
Si Si3 0.217445 0.510263 0.531763
Si Si4 0.276251 0.671709 0.521243
Si Si5 0.000000 0.453943 0.750000
Si Si6 0.055552 0.406475 0.420998
Si Si7 0.848357 0.727200 0.000633
Si Si8 0.611774 0.418683 0.166106
O O1 0.277029 0.386706 0.770519
O O2 0.347613 0.459755 0.787402
O O3 0.541327 0.406005 0.397946
O O4 0.391754 0.366120 0.792913
O O5 0.186863 0.132418 0.505500
O O6 0.429189 0.111832 0.042985
O O7 0.302216 0.199641 0.191837
O O8 0.130166 0.489595 0.560180
O O9 0.120772 0.543262 0.763881
O O10 0.275502 0.461760 0.508701
O O11 0.159994 0.639525 0.761245
O O12 0.230411 0.704443 0.483953
O O13 0.329577 0.711561 0.535012
O O14 0.014069 0.418239 0.616315
O O15 0.000000 0.712262 0.750000
O O16 0.500000 0.436906 0.250000
#
# Coordination Sequence:
#
# PCOD8132092 Si02
#       8
#     8   8   8   8   4   8   8   8
#     4   9  20  36  58  85 118 157 199 242 288 353
#     4  10  19  36  61  86 113 155 197 244 301 352
#     4  11  22  36  58  87 119 162 201 241 289 349
#     4   9  20  37  60  88 111 145 198 249 300 350
#     4  12  24  34  60  88 126 156 198 250 290 346
#     4  11  22  39  57  87 122 154 197 250 296 351
#     4  10  18  35  65  88 109 145 195 254 300 355
#     4  10  21  36  56  82 123 160 198 233 289 361
#
# _framework density 19.681802999999999
#
# number of rings (size 3 to 8) (size 9 to 14) (size 15 to 20)
#    0.000    1.867    2.667    1.600    3.733    0.000 
#    2.400    1.333   10.267    1.600    0.000    0.000 
#    0.000    0.000    0.000    0.000    0.000    0.000 
#
# Total GULP energy -371835.542173 kJ/mol
# GULP energy per Si atom -12394.518072 kJ/mol
# Density = 1.963701 g / cm^3
# Si number density = 19.681803 Si / 1000 Ang^3
#
#
#
# Elastic Constant Matrix: (Units=GPa)
#
#
# Indices 1 2 3 4 5 6 
#
# 1 52.1789 43.1165 33.0838 0.0104 0.4500 -0.0022
# 2 43.1165 129.3378 66.2212 0.0027 8.8099 0.0019
# 3 33.0838 66.2212 118.9950 0.0742 10.3607 -0.0076
# 4 0.0104 0.0027 0.0742 33.4695 -0.0319 -13.9731
# 5 0.4500 8.8099 10.3607 -0.0319 26.9933 0.0027
# 6 -0.0022 0.0019 -0.0076 -13.9731 0.0027 52.7327
#
#
#
# Elastic Compliance Matrix: (Units=1/GPa)
#
#
# Indices 1 2 3 4 5 6 
#
# 1 0.027796 -0.007539 -0.003834 0.000005 0.003469 0.000002
# 2 -0.007539 0.012899 -0.004890 0.000011 -0.002207 0.000001
# 3 -0.003834 -0.004890 0.012463 -0.000032 -0.003124 -0.000006
# 4 0.000005 0.000011 -0.000032 0.033595 0.000047 0.008902
# 5 0.003469 -0.002207 -0.003124 0.000047 0.038908 0.000010
# 6 0.000002 0.000001 -0.000006 0.008902 0.000010 0.021322
#
#
# Mechanical properties :
#
#
# Convention : Reuss Voigt Hill
#
# Bulk Modulus (GPa) = 48.47159 65.03941 56.75550
# Shear Modulus (GPa) = 26.82588 33.17845 30.00216
#
# Velocity S-wave (km/s) = 3.69586 4.11023 3.90854
# Velocity P-wave (km/s) = 6.54932 7.45939 7.01912
#
# Compressibility (1/GPa) = 0.02063064
#
# Stress axis : x y z
#
# Youngs Moduli (GPa) = 35.97652 77.52489 80.23641
#
# Poissons Ratio (x) = 0.58447 0.30766
# Poissons Ratio (y) = 0.27123 0.39237
# Poissons Ratio (z) = 0.13795 0.37911
#
# Static dielectric constant tensor:
#      x y z
#    x 3.601230 -0.000110 0.007950 
#    y -0.000110 3.857770 0.000030 
#    z 0.007950 0.000030 3.663130 
# 
# 
# High freq. dielectric constant tensor:
#      x y z
#    x 1.747600 0.000000 -0.010060 
#    y 0.000000 1.765070 0.000000 
#    z -0.010060 0.000000 1.769930 
# 
# From -- ./inp_files/114824.got.cif
#   From: 2010.06.25/outbox.cif.g09.slc.cpg/sg15_58_cif.got.tgz:114824.got - 2010.06.28 07:06:18.
