data_PCOD8132245
_publ_section_title
;
Structure prediction by ZEFSAII (Michael W. Deem and Ramdas Pophale) SiO2 
 PCOD8132245
Probable space group: C 2/C
;
_chemical_formula_sum "Si O2"
_cell_formula_units_Z 52
_cell_length_a 19.887177
_cell_length_b 13.912257
_cell_length_c 16.672923
_cell_angle_alpha 90.000000
_cell_angle_beta 33.695946
_cell_angle_gamma 90.000000
_cell_volume 2559.220020
_symmetry_space_group_name_H-M "C 2/C"
_symmetry_group_IT_number 15
_symmetry_cell_setting 'monoclinic'
loop_
_space_group_symop_operation_xyz
x,y,z
-x,y,1/2-z
-x,-y,-z
x,-y,1/2+z
1/2+x,1/2+y,z
1/2-x,1/2+y,1/2-z
1/2-x,1/2-y,-z
1/2+x,1/2-y,1/2+z
loop_
_atom_site_type_symbol
_atom_site_label
_atom_site_fract_x
_atom_site_fract_y
_atom_site_fract_z
Si Si1 0.871277 0.150100 0.346698
Si Si2 0.000000 0.171433 0.750000
Si Si3 0.293348 0.828403 0.340831
Si Si4 0.756864 0.311310 0.198377
Si Si5 0.906976 0.520392 0.278564
Si Si6 0.012628 0.705983 0.384800
Si Si7 0.780960 0.051928 0.905699
O O1 0.807037 0.182328 0.491841
O O2 0.881224 0.236872 0.271752
O O3 0.000000 0.114010 0.250000
O O4 0.800034 0.062106 0.375365
O O5 0.043784 0.241097 0.636279
O O6 0.902080 0.102691 0.810363
O O7 0.227016 0.827662 0.320863
O O8 0.361310 0.929865 0.273906
O O9 0.646207 0.242986 0.279089
O O10 0.761953 0.406298 0.137380
O O11 0.898978 0.275320 0.058174
O O12 0.967989 0.593895 0.155599
O O13 0.806781 0.574425 0.432147
O O14 0.000000 0.476296 0.250000
#
# Coordination Sequence:
#
# PCOD8132245 Si02
#       7
#     8   4   8   8   8   8   8
#     4  10  21  43  65  86 115 173 207 253 294 380
#     4  10  18  36  60  92 118 162 198 254 286 388
#     4  10  25  39  61  90 126 157 214 247 310 364
#     4  11  24  41  59  99 124 164 195 268 309 367
#     4  11  20  39  61  91 117 165 202 252 294 378
#     4  11  22  38  65  90 131 159 208 249 322 357
#     4  10  20  37  65  89 122 154 211 245 314 351
#
# _framework density 20.318691000000001
#
# number of rings (size 3 to 8) (size 9 to 14) (size 15 to 20)
#    0.000    1.538    3.077    1.385    2.154    4.308 
#    0.000    0.769    0.000    0.000    0.000    0.000 
#    0.000    0.000    0.000    0.000    0.000    0.000 
#
# Total GULP energy -322110.594097 kJ/mol
# GULP energy per Si atom -12388.869004 kJ/mol
# Density = 2.027244 g / cm^3
# Si number density = 20.318691 Si / 1000 Ang^3
#
#
#
# Elastic Constant Matrix: (Units=GPa)
#
#
# Indices 1 2 3 4 5 6 
#
# 1 108.3836 46.0723 27.0538 0.0000 10.6492 0.0000
# 2 46.0723 89.8716 29.8086 0.0000 10.0009 0.0000
# 3 27.0538 29.8086 72.2967 0.0000 -11.6822 0.0000
# 4 0.0000 0.0000 0.0000 11.9359 0.0000 2.4739
# 5 10.6492 10.0009 -11.6822 0.0000 30.3939 0.0000
# 6 0.0000 0.0000 0.0000 2.4739 0.0000 17.0533
#
#
#
# Elastic Compliance Matrix: (Units=1/GPa)
#
#
# Indices 1 2 3 4 5 6 
#
# 1 0.012527 -0.004860 -0.003342 0.000000 -0.004075 0.000000
# 2 -0.004860 0.016196 -0.005806 0.000000 -0.005858 0.000000
# 3 -0.003342 -0.005806 0.019164 0.000000 0.010447 0.000000
# 4 0.000000 0.000000 0.000000 0.086378 0.000000 -0.012531
# 5 -0.004075 -0.005858 0.010447 0.000000 0.040272 0.000000
# 6 0.000000 0.000000 0.000000 -0.012531 0.000000 0.060458
#
#
# Mechanical properties :
#
#
# Convention : Reuss Voigt Hill
#
# Bulk Modulus (GPa) = 50.32297 52.93571 51.62934
# Shear Modulus (GPa) = 18.54361 23.05109 20.79735
#
# Velocity S-wave (km/s) = 3.02427 3.37185 3.20278
# Velocity P-wave (km/s) = 6.08404 6.42405 6.25636
#
# Compressibility (1/GPa) = 0.01987164
#
# Stress axis : x y z
#
# Youngs Moduli (GPa) = 79.82766 61.74404 52.17984
#
# Poissons Ratio (x) = 0.30007 0.17440
# Poissons Ratio (y) = 0.38796 0.30294
# Poissons Ratio (z) = 0.26681 0.35847
#
# Static dielectric constant tensor:
#      x y z
#    x 3.810280 0.000000 -0.201270 
#    y 0.000000 3.701050 0.000000 
#    z -0.201270 0.000000 3.674430 
# 
# 
# High freq. dielectric constant tensor:
#      x y z
#    x 1.791710 0.000000 -0.012130 
#    y 0.000000 1.793390 0.000000 
#    z -0.012130 0.000000 1.793730 
# 
# From -- ./inp_files/112319.got.cif
#   From: 2010.06.25/outbox.cif.g09.slc.cpg/sg15_57_cif.got.tgz:112319.got - 2010.06.28 07:06:18.
