data_PCOD8132036
_publ_section_title
;
Structure prediction by ZEFSAII (Michael W. Deem and Ramdas Pophale) SiO2 
 PCOD8132036
Probable space group: C 2/C
;
_chemical_formula_sum "Si O2"
_cell_formula_units_Z 64
_cell_length_a 15.527579
_cell_length_b 9.185356
_cell_length_c 24.162119
_cell_angle_alpha 90.000000
_cell_angle_beta 130.806269
_cell_angle_gamma 90.000000
_cell_volume 2608.475616
_symmetry_space_group_name_H-M "C 2/C"
_symmetry_group_IT_number 15
_symmetry_cell_setting 'monoclinic'
loop_
_space_group_symop_operation_xyz
x,y,z
-x,y,1/2-z
-x,-y,-z
x,-y,1/2+z
1/2+x,1/2+y,z
1/2-x,1/2+y,1/2-z
1/2-x,1/2-y,-z
1/2+x,1/2-y,1/2+z
loop_
_atom_site_type_symbol
_atom_site_label
_atom_site_fract_x
_atom_site_fract_y
_atom_site_fract_z
Si Si1 0.106854 0.524158 0.211591
Si Si2 0.990300 0.808031 0.509984
Si Si3 0.881011 0.969851 0.553834
Si Si4 0.773623 0.799015 0.841324
Si Si5 0.068517 0.203467 0.196231
Si Si6 0.344481 0.940743 0.988179
Si Si7 0.267422 0.483901 0.673054
Si Si8 0.041698 0.721175 0.419353
O O1 0.181171 0.570541 0.296726
O O2 0.043425 0.372909 0.200793
O O3 0.180162 0.514152 0.186963
O O4 0.015139 0.650564 0.158575
O O5 0.926650 0.949364 0.509489
O O6 0.948097 0.675809 0.533607
O O7 0.127688 0.824730 0.571819
O O8 0.955457 0.785321 0.430872
O O9 0.752270 0.911055 0.506033
O O10 0.957840 0.880344 0.628984
O O11 0.883268 0.141856 0.569873
O O12 0.831668 0.791965 0.806161
O O13 0.701924 0.653191 0.824718
O O14 0.119611 0.112733 0.269480
O O15 0.292402 0.920246 0.905930
O O16 0.389348 0.102321 0.016716
#
# Coordination Sequence:
#
# PCOD8132036 Si02
#       8
#     8   8   8   8   8   8   8   8
#     4  10  20  37  66  91 122 162 214 272 316 367
#     4  11  22  41  64  94 127 161 218 260 312 379
#     4  11  25  40  59  93 133 171 204 265 321 374
#     4   9  18  35  60  93 121 155 208 269 311 368
#     4   9  20  37  58  90 127 165 213 260 317 380
#     4  12  23  40  64  92 132 171 207 258 325 382
#     4  10  18  35  60  91 119 164 214 261 317 375
#     4  12  22  40  66  98 124 167 218 266 314 376
#
# _framework density 24.535402999999999
#
# number of rings (size 3 to 8) (size 9 to 14) (size 15 to 20)
#    0.000    1.500    2.500    4.500    0.000    3.500 
#    2.250    0.000    0.000    1.500    0.000    0.000 
#    0.000    0.000    0.000    0.000    0.000    0.000 
#
# Total GULP energy -396566.186720 kJ/mol
# GULP energy per Si atom -12392.693335 kJ/mol
# Density = 2.447956 g / cm^3
# Si number density = 24.535403 Si / 1000 Ang^3
#
#
#
# Elastic Constant Matrix: (Units=GPa)
#
#
# Indices 1 2 3 4 5 6 
#
# 1 28.7525 -5.6380 11.5639 0.0000 8.4739 0.0000
# 2 -5.6380 144.5347 37.7657 0.0000 12.7525 0.0000
# 3 11.5639 37.7657 98.1286 0.0000 5.5146 0.0000
# 4 0.0000 0.0000 0.0000 41.6382 0.0000 -1.2338
# 5 8.4739 12.7525 5.5146 0.0000 17.6559 0.0000
# 6 0.0000 0.0000 0.0000 -1.2338 0.0000 9.7787
#
#
#
# Elastic Compliance Matrix: (Units=1/GPa)
#
#
# Indices 1 2 3 4 5 6 
#
# 1 0.045317 0.005462 -0.006106 0.000000 -0.023787 0.000000
# 2 0.005462 0.008756 -0.003574 0.000000 -0.007830 0.000000
# 3 -0.006106 -0.003574 0.012190 0.000000 0.001704 0.000000
# 4 0.000000 0.000000 0.000000 0.024107 0.000000 0.003042
# 5 -0.023787 -0.007830 0.001704 0.000000 0.073178 0.000000
# 6 0.000000 0.000000 0.000000 0.003042 0.000000 0.102647
#
#
# Mechanical properties :
#
#
# Convention : Reuss Voigt Hill
#
# Bulk Modulus (GPa) = 17.29260 39.86655 28.57957
# Shear Modulus (GPa) = 17.01232 28.99618 23.00425
#
# Velocity S-wave (km/s) = 2.63606 3.44148 3.06534
# Velocity P-wave (km/s) = 4.04085 5.66353 4.91955
#
# Compressibility (1/GPa) = 0.05782822
#
# Stress axis : x y z
#
# Youngs Moduli (GPa) = 22.06693 114.20230 82.03594
#
# Poissons Ratio (x) = -0.62375 0.50087
# Poissons Ratio (y) = -0.12053 0.29316
# Poissons Ratio (z) = 0.13473 0.40811
#
# Static dielectric constant tensor:
#      x y z
#    x 4.016240 0.000000 0.038550 
#    y 0.000000 4.834560 0.000000 
#    z 0.038550 0.000000 4.264850 
# 
# 
# High freq. dielectric constant tensor:
#      x y z
#    x 1.935300 0.000000 -0.003720 
#    y 0.000000 1.996450 0.000000 
#    z -0.003720 0.000000 1.964370 
# 
# From -- ./inp_files/315763.got.cif
#   From: 2010.06.25/outbox.cif.g09.slc.cpg/sg15_158_cif.got.tgz:315763.got - 2010.06.28 07:06:18.
