data_PCOD8132559
_publ_section_title
;
Structure prediction by ZEFSAII (Michael W. Deem and Ramdas Pophale) SiO2 
 PCOD8132559
Probable space group: C 2/C
;
_chemical_formula_sum "Si O2"
_cell_formula_units_Z 52
_cell_length_a 20.634629
_cell_length_b 8.274443
_cell_length_c 19.598947
_cell_angle_alpha 90.000000
_cell_angle_beta 136.283248
_cell_angle_gamma 90.000000
_cell_volume 2312.624617
_symmetry_space_group_name_H-M "C 2/C"
_symmetry_group_IT_number 15
_symmetry_cell_setting 'monoclinic'
loop_
_space_group_symop_operation_xyz
x,y,z
-x,y,1/2-z
-x,-y,-z
x,-y,1/2+z
1/2+x,1/2+y,z
1/2-x,1/2+y,1/2-z
1/2-x,1/2-y,-z
1/2+x,1/2-y,1/2+z
loop_
_atom_site_type_symbol
_atom_site_label
_atom_site_fract_x
_atom_site_fract_y
_atom_site_fract_z
Si Si1 0.596859 0.841072 0.851827
Si Si2 0.062807 0.526114 0.953057
Si Si3 0.106382 0.999773 0.604251
Si Si4 0.000000 0.969520 0.250000
Si Si5 0.915043 0.779482 0.789255
Si Si6 0.213327 0.500306 0.329769
Si Si7 0.887387 0.356456 0.871052
O O1 0.500000 0.922584 0.750000
O O2 0.578194 0.647869 0.845474
O O3 0.679712 0.872064 0.860775
O O4 0.623817 0.929197 0.943141
O O5 0.004792 0.669156 0.873368
O O6 0.995562 0.393523 0.936389
O O7 0.131131 0.599348 0.063250
O O8 0.130429 0.169393 0.658493
O O9 0.125014 0.854586 0.671055
O O10 0.173870 0.988640 0.588669
O O11 0.000000 0.000000 0.500000
O O12 0.947458 0.077009 0.265205
O O13 0.831002 0.677415 0.689223
O O14 0.179807 0.540240 0.227637
#
# Coordination Sequence:
#
# PCOD8132559 Si02
#       7
#     8   8   8   4   8   8   8
#     4  10  18  38  62  93 128 170 208 263 320 389
#     4  10  19  35  66  92 125 169 208 255 330 384
#     4  12  24  39  62  96 133 162 216 276 314 362
#     4  10  20  34  68  96 130 164 210 264 324 376
#     4  11  19  36  62  96 124 169 209 260 318 381
#     4  11  23  40  66  94 128 175 219 249 323 397
#     4  10  20  39  60  94 126 168 211 259 320 389
#
# _framework density 22.485275000000001
#
# number of rings (size 3 to 8) (size 9 to 14) (size 15 to 20)
#    0.462    0.923    4.615    3.692    0.000    0.000 
#    0.000    0.769    3.385    1.846    0.000    0.000 
#    0.000    0.000    0.000    0.000    0.000    0.000 
#
# Total GULP energy -322318.914656 kJ/mol
# GULP energy per Si atom -12396.881333 kJ/mol
# Density = 2.243410 g / cm^3
# Si number density = 22.485275 Si / 1000 Ang^3
#
#
#
# Elastic Constant Matrix: (Units=GPa)
#
#
# Indices 1 2 3 4 5 6 
#
# 1 155.9905 55.7556 35.5177 0.0000 -1.3958 0.0000
# 2 55.7556 126.1757 9.2046 0.0000 -11.0069 0.0000
# 3 35.5177 9.2046 48.8554 0.0000 -11.1730 0.0000
# 4 0.0000 0.0000 0.0000 16.6560 0.0000 -14.4597
# 5 -1.3958 -11.0069 -11.1730 0.0000 32.4071 0.0000
# 6 0.0000 0.0000 0.0000 -14.4597 0.0000 40.3703
#
#
#
# Elastic Compliance Matrix: (Units=1/GPa)
#
#
# Indices 1 2 3 4 5 6 
#
# 1 0.009325 -0.003910 -0.006790 0.000000 -0.003267 0.000000
# 2 -0.003910 0.009851 0.001860 0.000000 0.003819 0.000000
# 3 -0.006790 0.001860 0.027283 0.000000 0.009746 0.000000
# 4 0.000000 0.000000 0.000000 0.087132 0.000000 0.031209
# 5 -0.003267 0.003819 0.009746 0.000000 0.035374 0.000000
# 6 0.000000 0.000000 0.000000 0.031209 0.000000 0.035949
#
#
# Mechanical properties :
#
#
# Convention : Reuss Voigt Hill
#
# Bulk Modulus (GPa) = 34.74754 59.10860 46.92807
# Shear Modulus (GPa) = 21.53442 33.25625 27.39534
#
# Velocity S-wave (km/s) = 3.09805 3.84998 3.49430
# Velocity P-wave (km/s) = 5.31829 6.79028 6.09886
#
# Compressibility (1/GPa) = 0.02877901
#
# Stress axis : x y z
#
# Youngs Moduli (GPa) = 107.23789 101.51444 36.65278
#
# Poissons Ratio (x) = 0.39696 0.24886
# Poissons Ratio (y) = 0.41934 -0.06818
# Poissons Ratio (z) = 0.72812 -0.18884
#
# Static dielectric constant tensor:
#      x y z
#    x 4.031490 0.000000 -0.139420 
#    y 0.000000 4.240290 0.000000 
#    z -0.139420 0.000000 3.753380 
# 
# 
# High freq. dielectric constant tensor:
#      x y z
#    x 1.881190 0.000000 -0.014580 
#    y 0.000000 1.898000 0.000000 
#    z -0.014580 0.000000 1.846840 
# 
# From -- ./inp_files/214343.got.cif
#   From: 2010.06.25/outbox.cif.g09.slc.cpg/sg15_108_cif.got.tgz:214343.got - 2010.06.28 07:06:18.
