data_PCOD8132321
_publ_section_title
;
Structure prediction by ZEFSAII (Michael W. Deem and Ramdas Pophale) SiO2 
 PCOD8132321
Probable space group: C 2/C
;
_chemical_formula_sum "Si O2"
_cell_formula_units_Z 60
_cell_length_a 20.167271
_cell_length_b 13.759121
_cell_length_c 12.653332
_cell_angle_alpha 90.000000
_cell_angle_beta 57.707640
_cell_angle_gamma 90.000000
_cell_volume 2968.045748
_symmetry_space_group_name_H-M "C 2/C"
_symmetry_group_IT_number 15
_symmetry_cell_setting 'monoclinic'
loop_
_space_group_symop_operation_xyz
x,y,z
-x,y,1/2-z
-x,-y,-z
x,-y,1/2+z
1/2+x,1/2+y,z
1/2-x,1/2+y,1/2-z
1/2-x,1/2-y,-z
1/2+x,1/2-y,1/2+z
loop_
_atom_site_type_symbol
_atom_site_label
_atom_site_fract_x
_atom_site_fract_y
_atom_site_fract_z
Si Si1 0.592143 0.190131 0.799184
Si Si2 0.340180 0.160339 0.287777
Si Si3 0.660392 0.342505 0.888407
Si Si4 0.448112 0.526887 0.142053
Si Si5 0.593776 0.985809 0.162454
Si Si6 0.551609 0.091229 0.490958
Si Si7 0.000000 0.823528 0.750000
Si Si8 0.586145 0.342487 0.181168
O O1 0.645798 0.237097 0.845129
O O2 0.625242 0.086900 0.728574
O O3 0.577783 0.257944 0.707227
O O4 0.505171 0.177110 0.921969
O O5 0.251882 0.146058 0.327806
O O6 0.398249 0.134613 0.144961
O O7 0.352930 0.270700 0.313936
O O8 0.360193 0.087214 0.367042
O O9 0.632413 0.424281 0.829756
O O10 0.615026 0.359311 0.037160
O O11 0.507145 0.605117 0.144007
O O12 0.422656 0.441932 0.244501
O O13 0.500000 0.500000 0.000000
O O14 0.500000 0.000001 0.250000
O O15 0.611688 0.942074 0.031949
O O16 0.500000 0.000000 0.500000
O O17 0.500000 0.293115 0.250000
#
# Coordination Sequence:
#
# PCOD8132321 Si02
#       8
#     8   8   8   8   8   8   4   8
#     4  10  20  39  66  89 124 162 212 261 306 368
#     4  12  26  39  61  99 135 162 202 259 327 378
#     4  11  26  42  62  95 131 167 202 266 323 367
#     4  11  22  42  67  91 119 165 223 260 300 369
#     4  10  20  39  64  96 124 164 211 258 307 376
#     4  11  21  39  66  96 121 164 216 254 310 381
#     4  10  18  36  64  90 118 148 212 272 294 348
#     4  12  24  43  67  91 120 170 219 254 306 380
#
# _framework density 20.215322
#
# number of rings (size 3 to 8) (size 9 to 14) (size 15 to 20)
#    0.000    1.067    6.667    1.600    3.733    2.133 
#    0.000    0.667    0.000    0.000    0.000    0.000 
#    0.000    0.000    0.000    0.000    0.000    0.000 
#
# Total GULP energy -371778.300159 kJ/mol
# GULP energy per Si atom -12392.610005 kJ/mol
# Density = 2.016931 g / cm^3
# Si number density = 20.215322 Si / 1000 Ang^3
#
#
#
# Elastic Constant Matrix: (Units=GPa)
#
#
# Indices 1 2 3 4 5 6 
#
# 1 111.1620 46.2592 30.0770 0.0000 8.2037 0.0000
# 2 46.2592 110.2524 27.4354 0.0000 8.8628 0.0000
# 3 30.0770 27.4354 74.0621 0.0000 17.2532 0.0000
# 4 0.0000 0.0000 0.0000 23.8381 0.0000 12.8382
# 5 8.2037 8.8628 17.2532 0.0000 25.0217 0.0000
# 6 0.0000 0.0000 0.0000 12.8382 0.0000 38.0033
#
#
#
# Elastic Compliance Matrix: (Units=1/GPa)
#
#
# Indices 1 2 3 4 5 6 
#
# 1 0.011545 -0.004046 -0.003147 0.000000 -0.000182 0.000000
# 2 -0.004046 0.011438 -0.002334 0.000000 -0.001115 0.000000
# 3 -0.003147 -0.002334 0.018123 0.000000 -0.010638 0.000000
# 4 0.000000 0.000000 0.000000 0.051279 0.000000 -0.017323
# 5 -0.000182 -0.001115 -0.010638 0.000000 0.047755 0.000000
# 6 0.000000 0.000000 0.000000 -0.017323 0.000000 0.032166
#
#
# Mechanical properties :
#
#
# Convention : Reuss Voigt Hill
#
# Bulk Modulus (GPa) = 45.34919 55.89107 50.62013
# Shear Modulus (GPa) = 25.16221 30.15296 27.65758
#
# Velocity S-wave (km/s) = 3.53187 3.86630 3.70286
# Velocity P-wave (km/s) = 6.25411 6.90210 6.58608
#
# Compressibility (1/GPa) = 0.02205111
#
# Stress axis : x y z
#
# Youngs Moduli (GPa) = 86.62102 87.42612 55.17837
#
# Poissons Ratio (x) = 0.35373 0.17365
# Poissons Ratio (y) = 0.35047 0.12880
# Poissons Ratio (z) = 0.27261 0.20407
#
# Static dielectric constant tensor:
#      x y z
#    x 3.622570 0.000000 0.514560 
#    y 0.000000 4.097160 0.000000 
#    z 0.514560 0.000000 3.627150 
# 
# 
# High freq. dielectric constant tensor:
#      x y z
#    x 1.777350 0.000000 0.037260 
#    y 0.000000 1.803740 0.000000 
#    z 0.037260 0.000000 1.779940 
# 
# From -- ./inp_files/112714.got.cif
#   From: 2010.06.25/outbox.cif.g09.slc.cpg/sg15_57_cif.got.tgz:112714.got - 2010.06.28 07:06:18.
