data_PCOD8132923
_publ_section_title
;
Structure prediction by ZEFSAII (Michael W. Deem and Ramdas Pophale) SiO2 
 PCOD8132923
Probable space group: C 2/C
;
_chemical_formula_sum "Si O2"
_cell_formula_units_Z 56
_cell_length_a 10.375376
_cell_length_b 19.960718
_cell_length_c 18.422028
_cell_angle_alpha 90.000000
_cell_angle_beta 51.152960
_cell_angle_gamma 90.000000
_cell_volume 2971.367401
_symmetry_space_group_name_H-M "C 2/C"
_symmetry_group_IT_number 15
_symmetry_cell_setting 'monoclinic'
loop_
_space_group_symop_operation_xyz
x,y,z
-x,y,1/2-z
-x,-y,-z
x,-y,1/2+z
1/2+x,1/2+y,z
1/2-x,1/2+y,1/2-z
1/2-x,1/2-y,-z
1/2+x,1/2-y,1/2+z
loop_
_atom_site_type_symbol
_atom_site_label
_atom_site_fract_x
_atom_site_fract_y
_atom_site_fract_z
Si Si1 0.387236 0.512805 0.647574
Si Si2 0.927741 0.701981 0.196734
Si Si3 0.828816 0.360620 0.995738
Si Si4 0.175366 0.897182 0.717958
Si Si5 0.927294 0.429676 0.504566
Si Si6 0.248209 0.001323 0.455949
Si Si7 0.972097 0.850298 0.178717
O O1 0.342770 0.465866 0.730684
O O2 0.569369 0.494773 0.555946
O O3 0.256622 0.502033 0.629077
O O4 0.372479 0.591008 0.673920
O O5 0.764822 0.658294 0.236808
O O6 0.000000 0.682982 0.250000
O O7 0.073325 0.693418 0.086332
O O8 0.872869 0.780173 0.213550
O O9 0.831871 0.428766 0.947728
O O10 0.928257 0.373960 0.036813
O O11 0.646544 0.335701 0.077571
O O12 0.279432 0.911755 0.610284
O O13 0.000000 0.870086 0.750000
O O14 0.856332 0.438023 0.447787
O O15 0.000000 0.500000 0.500000
O O16 0.000000 0.876474 0.250000
#
# Coordination Sequence:
#
# PCOD8132923 Si02
#       7
#     8   8   8   8   8   8   8
#     4  10  19  30  55  82 110 141 182 228 278 324
#     4  10  21  37  57  83 110 147 194 236 279 338
#     4   9  18  33  57  78 110 144 185 231 277 332
#     4  11  20  34  59  82 109 148 189 231 283 335
#     4   9  18  31  51  79 113 139 177 229 278 333
#     4   9  17  31  49  85 110 138 174 231 276 327
#     4  10  21  35  57  79 110 147 189 228 283 338
#
# _framework density 18.846541999999999
#
# number of rings (size 3 to 8) (size 9 to 14) (size 15 to 20)
#    0.000    2.286    1.429    1.714    4.000    0.000 
#    0.000    0.000    6.286    1.714    0.000    0.000 
#    0.000    0.000    0.000    0.000    0.000    0.000 
#
# Total GULP energy -347044.557411 kJ/mol
# GULP energy per Si atom -12394.448479 kJ/mol
# Density = 1.880365 g / cm^3
# Si number density = 18.846542 Si / 1000 Ang^3
#
#
#
# Elastic Constant Matrix: (Units=GPa)
#
#
# Indices 1 2 3 4 5 6 
#
# 1 115.9450 50.2071 9.4026 0.0000 12.5054 0.0000
# 2 50.2071 87.5221 15.2928 0.0000 1.8492 0.0000
# 3 9.4026 15.2928 22.6254 0.0000 -0.1336 0.0000
# 4 0.0000 0.0000 0.0000 23.7148 0.0000 -0.7455
# 5 12.5054 1.8492 -0.1336 0.0000 27.0471 0.0000
# 6 0.0000 0.0000 0.0000 -0.7455 0.0000 8.8812
#
#
#
# Elastic Compliance Matrix: (Units=1/GPa)
#
#
# Indices 1 2 3 4 5 6 
#
# 1 0.012157 -0.006777 -0.000502 0.000000 -0.005160 0.000000
# 2 -0.006777 0.016757 -0.008499 0.000000 0.001946 0.000000
# 3 -0.000502 -0.008499 0.050157 0.000000 0.001061 0.000000
# 4 0.000000 0.000000 0.000000 0.042279 0.000000 0.003549
# 5 -0.005160 0.001946 0.001061 0.000000 0.039230 0.000000
# 6 0.000000 0.000000 0.000000 0.003549 0.000000 0.112895
#
#
# Mechanical properties :
#
#
# Convention : Reuss Voigt Hill
#
# Bulk Modulus (GPa) = 21.04545 41.76641 31.40593
# Shear Modulus (GPa) = 15.58268 22.00796 18.79532
#
# Velocity S-wave (km/s) = 2.87857 3.42094 3.16140
# Velocity P-wave (km/s) = 4.71584 6.14924 5.47961
#
# Compressibility (1/GPa) = 0.04751622
#
# Stress axis : x y z
#
# Youngs Moduli (GPa) = 82.26000 59.67610 19.93734
#
# Poissons Ratio (x) = 0.40442 0.01001
# Poissons Ratio (y) = 0.55747 0.16944
# Poissons Ratio (z) = 0.04128 0.50716
#
# Static dielectric constant tensor:
#      x y z
#    x 3.882800 0.000000 0.070730 
#    y 0.000000 3.315070 0.000000 
#    z 0.070730 0.000000 3.323020 
# 
# 
# High freq. dielectric constant tensor:
#      x y z
#    x 1.733680 0.000000 0.003270 
#    y 0.000000 1.716250 0.000000 
#    z 0.003270 0.000000 1.725260 
# 
# From -- ./inp_files/239517.got.cif
#   From: 2010.06.25/outbox.cif.g09.slc.cpg/sg15_120_cif.got.tgz:239517.got - 2010.06.28 07:06:18.
