data_PCOD8132519
_publ_section_title
;
Structure prediction by ZEFSAII (Michael W. Deem and Ramdas Pophale) SiO2 
 PCOD8132519
Probable space group: C 2/C
;
_chemical_formula_sum "Si O2"
_cell_formula_units_Z 52
_cell_length_a 12.247260
_cell_length_b 8.890188
_cell_length_c 27.356114
_cell_angle_alpha 90.000000
_cell_angle_beta 123.609553
_cell_angle_gamma 90.000000
_cell_volume 2480.619235
_symmetry_space_group_name_H-M "C 2/C"
_symmetry_group_IT_number 15
_symmetry_cell_setting 'monoclinic'
loop_
_space_group_symop_operation_xyz
x,y,z
-x,y,1/2-z
-x,-y,-z
x,-y,1/2+z
1/2+x,1/2+y,z
1/2-x,1/2+y,1/2-z
1/2-x,1/2-y,-z
1/2+x,1/2-y,1/2+z
loop_
_atom_site_type_symbol
_atom_site_label
_atom_site_fract_x
_atom_site_fract_y
_atom_site_fract_z
Si Si1 0.000000 0.926520 0.750000
Si Si2 0.188827 0.701634 0.670340
Si Si3 0.816451 0.708236 0.443918
Si Si4 0.353732 0.575346 0.630380
Si Si5 0.488651 0.782467 0.895148
Si Si6 0.587239 0.114993 0.929539
Si Si7 0.760134 0.616926 0.273840
O O1 0.871695 0.826195 0.730233
O O2 0.972341 0.028960 0.695439
O O3 0.260287 0.692772 0.635830
O O4 0.226413 0.560565 0.714097
O O5 0.240639 0.849324 0.711469
O O6 0.032823 0.707769 0.623892
O O7 0.735246 0.565559 0.405484
O O8 0.916024 0.764917 0.426932
O O9 0.718536 0.844367 0.432454
O O10 0.902506 0.663486 0.511772
O O11 0.409311 0.652676 0.595069
O O12 0.384823 0.796590 0.825661
O O13 0.566022 0.937315 0.921802
#
# Coordination Sequence:
#
# PCOD8132519 Si02
#       7
#     4   8   8   8   8   8   8
#     4  10  18  38  60  88 124 166 194 256 312 370
#     4  10  21  40  61  92 123 169 196 260 305 369
#     4  11  22  45  64  90 126 169 201 263 305 371
#     4  11  22  39  65  87 129 162 206 255 318 358
#     4  11  22  41  63  95 120 164 205 258 304 372
#     4  10  23  42  65  90 128 161 215 250 310 366
#     4  10  20  36  60  88 122 158 207 242 314 362
#
# _framework density 20.962508
#
# number of rings (size 3 to 8) (size 9 to 14) (size 15 to 20)
#    0.000    1.538    4.615    3.231    0.000    0.615 
#    8.308    1.538    0.000    0.000    0.000    0.000 
#    0.000    0.000    0.000    0.000    0.000    0.000 
#
# Total GULP energy -322406.846288 kJ/mol
# GULP energy per Si atom -12400.263319 kJ/mol
# Density = 2.091480 g / cm^3
# Si number density = 20.962508 Si / 1000 Ang^3
#
#
#
# Elastic Constant Matrix: (Units=GPa)
#
#
# Indices 1 2 3 4 5 6 
#
# 1 112.9052 42.2306 33.2590 0.0000 -26.5146 0.0000
# 2 42.2306 32.1823 27.3296 0.0000 -10.2064 0.0000
# 3 33.2590 27.3296 108.1761 0.0000 -7.1001 0.0000
# 4 0.0000 0.0000 0.0000 24.6901 0.0000 -5.7715
# 5 -26.5146 -10.2064 -7.1001 0.0000 34.4474 0.0000
# 6 0.0000 0.0000 0.0000 -5.7715 0.0000 32.2423
#
#
#
# Elastic Compliance Matrix: (Units=1/GPa)
#
#
# Indices 1 2 3 4 5 6 
#
# 1 0.019257 -0.023084 0.000441 0.000000 0.008074 0.000000
# 2 -0.023084 0.070784 -0.010720 0.000000 0.000995 0.000000
# 3 0.000441 -0.010720 0.011790 0.000000 -0.000407 0.000000
# 4 0.000000 0.000000 0.000000 0.042271 0.000000 0.007567
# 5 0.008074 0.000995 -0.000407 0.000000 0.035455 0.000000
# 6 0.000000 0.000000 0.000000 0.007567 0.000000 0.032370
#
#
# Mechanical properties :
#
#
# Convention : Reuss Voigt Hill
#
# Bulk Modulus (GPa) = 28.48592 50.98911 39.73752
# Shear Modulus (GPa) = 17.22024 28.30560 22.76292
#
# Velocity S-wave (km/s) = 2.86925 3.67862 3.29886
# Velocity P-wave (km/s) = 4.95937 6.51305 5.78857
#
# Compressibility (1/GPa) = 0.03510506
#
# Stress axis : x y z
#
# Youngs Moduli (GPa) = 51.92788 14.12746 84.81605
#
# Poissons Ratio (x) = 0.32612 -0.03742
# Poissons Ratio (y) = 1.19872 0.90925
# Poissons Ratio (z) = -0.02291 0.15145
#
# Static dielectric constant tensor:
#      x y z
#    x 3.921400 0.000000 0.068030 
#    y 0.000000 3.440270 0.000000 
#    z 0.068030 0.000000 3.963700 
# 
# 
# High freq. dielectric constant tensor:
#      x y z
#    x 1.829870 0.000000 0.008300 
#    y 0.000000 1.788590 0.000000 
#    z 0.008300 0.000000 1.833510 
# 
# From -- ./inp_files/291479.got.cif
#   From: 2010.06.25/outbox.cif.g09.slc.cpg/sg15_146_cif.got.tgz:291479.got - 2010.06.28 07:06:18.
