data_PCOD8132600
_publ_section_title
;
Structure prediction by ZEFSAII (Michael W. Deem and Ramdas Pophale) SiO2 
 PCOD8132600
Probable space group: C 2/C
;
_chemical_formula_sum "Si O2"
_cell_formula_units_Z 60
_cell_length_a 16.643401
_cell_length_b 13.210931
_cell_length_c 14.408034
_cell_angle_alpha 90.000000
_cell_angle_beta 86.615708
_cell_angle_gamma 90.000000
_cell_volume 3162.439142
_symmetry_space_group_name_H-M "C 2/C"
_symmetry_group_IT_number 15
_symmetry_cell_setting 'monoclinic'
loop_
_space_group_symop_operation_xyz
x,y,z
-x,y,1/2-z
-x,-y,-z
x,-y,1/2+z
1/2+x,1/2+y,z
1/2-x,1/2+y,1/2-z
1/2-x,1/2-y,-z
1/2+x,1/2-y,1/2+z
loop_
_atom_site_type_symbol
_atom_site_label
_atom_site_fract_x
_atom_site_fract_y
_atom_site_fract_z
Si Si1 0.823347 0.415918 0.107757
Si Si2 0.159049 0.194627 0.319115
Si Si3 0.323610 0.109926 0.236972
Si Si4 0.832341 0.848967 0.473620
Si Si5 0.543485 0.248759 0.344038
Si Si6 0.894114 0.358405 0.926458
Si Si7 0.500000 0.390033 0.750000
Si Si8 0.011523 0.947810 0.095094
O O1 0.832750 0.314279 0.167113
O O2 0.827348 0.507311 0.178903
O O3 0.739543 0.416881 0.058735
O O4 0.890301 0.427345 0.020285
O O5 0.233037 0.149337 0.255263
O O6 0.154237 0.134711 0.417342
O O7 0.076938 0.179152 0.267536
O O8 0.370880 0.194835 0.174490
O O9 0.367641 0.087236 0.332759
O O10 0.824972 0.728791 0.450221
O O11 0.907793 0.882910 0.407975
O O12 0.500000 0.259713 0.250000
O O13 0.485200 0.183670 0.415915
O O14 0.558412 0.363929 0.379929
O O15 0.478959 0.461861 0.835417
O O16 0.000000 0.000000 0.000000
#
# Coordination Sequence:
#
# PCOD8132600 Si02
#       8
#     8   8   8   8   8   8   4   8
#     4  11  21  37  64  89 116 165 203 247 309 364
#     4  11  22  40  60  88 125 159 198 258 302 365
#     4  11  21  37  61  91 119 156 207 249 304 348
#     4  10  18  38  66  85 115 156 210 248 297 362
#     4   9  20  36  60  90 118 154 206 255 286 356
#     4   9  18  37  60  86 117 151 208 253 285 363
#     4  12  24  38  60  94 126 156 198 254 316 366
#     4  11  21  37  63  96 120 158 200 250 313 360
#
# _framework density 18.972695999999999
#
# number of rings (size 3 to 8) (size 9 to 14) (size 15 to 20)
#    0.000    1.600    4.667    1.600    0.000    1.600 
#    3.600    1.333    0.000    2.400    0.000    0.000 
#    0.000    0.000    0.000    0.000    0.000    0.000 
#
# Total GULP energy -371896.854641 kJ/mol
# GULP energy per Si atom -12396.561821 kJ/mol
# Density = 1.892951 g / cm^3
# Si number density = 18.972696 Si / 1000 Ang^3
#
#
#
# Elastic Constant Matrix: (Units=GPa)
#
#
# Indices 1 2 3 4 5 6 
#
# 1 91.0096 39.2412 40.3095 0.0000 -4.8856 0.0000
# 2 39.2412 102.5454 59.5178 0.0000 1.2499 0.0000
# 3 40.3095 59.5178 118.3628 0.0000 -6.4243 0.0000
# 4 0.0000 0.0000 0.0000 44.3913 0.0000 -2.6281
# 5 -4.8856 1.2499 -6.4243 0.0000 32.7756 0.0000
# 6 0.0000 0.0000 0.0000 -2.6281 0.0000 18.9838
#
#
#
# Elastic Compliance Matrix: (Units=1/GPa)
#
#
# Indices 1 2 3 4 5 6 
#
# 1 0.013916 -0.003739 -0.002768 0.000000 0.001674 0.000000
# 2 -0.003739 0.014894 -0.006344 0.000000 -0.002369 0.000000
# 3 -0.002768 -0.006344 0.012708 0.000000 0.002320 0.000000
# 4 0.000000 0.000000 0.000000 0.022713 0.000000 0.003144
# 5 0.001674 -0.002369 0.002320 0.000000 0.031305 0.000000
# 6 0.000000 0.000000 0.000000 0.003144 0.000000 0.053112
#
#
# Mechanical properties :
#
#
# Convention : Reuss Voigt Hill
#
# Bulk Modulus (GPa) = 63.23511 65.56165 64.39838
# Shear Modulus (GPa) = 27.83622 30.75342 29.29482
#
# Velocity S-wave (km/s) = 3.83452 4.03045 3.93371
# Velocity P-wave (km/s) = 7.28057 7.50267 7.39246
#
# Compressibility (1/GPa) = 0.01581400
#
# Stress axis : x y z
#
# Youngs Moduli (GPa) = 71.85988 67.14195 78.69345
#
# Poissons Ratio (x) = 0.25104 0.21784
# Poissons Ratio (y) = 0.26868 0.49927
# Poissons Ratio (z) = 0.19892 0.42598
#
# Static dielectric constant tensor:
#      x y z
#    x 4.054610 0.000000 -0.895910 
#    y 0.000000 3.446210 0.000000 
#    z -0.895910 0.000000 4.206520 
# 
# 
# High freq. dielectric constant tensor:
#      x y z
#    x 1.732000 0.000000 -0.024010 
#    y 0.000000 1.722380 0.000000 
#    z -0.024010 0.000000 1.744610 
# 
# From -- ./inp_files/160930.got.cif
#   From: 2010.06.25/outbox.cif.g09.slc.cpg/sg15_81_cif.got.tgz:160930.got - 2010.06.28 07:06:18.
