data_PCOD8132797
_publ_section_title
;
Structure prediction by ZEFSAII (Michael W. Deem and Ramdas Pophale) SiO2 
 PCOD8132797
Probable space group: C 2/C
;
_chemical_formula_sum "Si O2"
_cell_formula_units_Z 52
_cell_length_a 25.668007
_cell_length_b 12.009648
_cell_length_c 12.369214
_cell_angle_alpha 90.000000
_cell_angle_beta 40.163580
_cell_angle_gamma 90.000000
_cell_volume 2459.265552
_symmetry_space_group_name_H-M "C 2/C"
_symmetry_group_IT_number 15
_symmetry_cell_setting 'monoclinic'
loop_
_space_group_symop_operation_xyz
x,y,z
-x,y,1/2-z
-x,-y,-z
x,-y,1/2+z
1/2+x,1/2+y,z
1/2-x,1/2+y,1/2-z
1/2-x,1/2-y,-z
1/2+x,1/2-y,1/2+z
loop_
_atom_site_type_symbol
_atom_site_label
_atom_site_fract_x
_atom_site_fract_y
_atom_site_fract_z
Si Si1 0.836214 0.537972 0.921980
Si Si2 0.370264 0.279928 0.781692
Si Si3 0.800272 0.669180 0.345920
Si Si4 0.500000 0.929135 0.250000
Si Si5 0.449730 0.241488 0.002969
Si Si6 0.714201 0.399040 0.779427
Si Si7 0.409353 0.436299 0.917026
O O1 0.831013 0.665820 0.888922
O O2 0.800827 0.457567 0.886525
O O3 0.929412 0.501205 0.801771
O O4 0.779042 0.520769 0.117399
O O5 0.460161 0.256213 0.596333
O O6 0.322916 0.319468 0.752239
O O7 0.371473 0.375041 0.872212
O O8 0.750000 0.750000 0.500000
O O9 0.893131 0.709355 0.193061
O O10 0.762391 0.677499 0.287002
O O11 0.448630 0.852454 0.412368
O O12 0.414461 0.353477 0.009026
O O13 0.647016 0.463640 0.955119
O O14 0.500000 0.481638 0.750000
#
# Coordination Sequence:
#
# PCOD8132797 Si02
#       7
#     8   8   8   4   8   8   8
#     4  11  23  42  68  94 128 174 224 273 332 406
#     4  10  22  41  69  94 121 178 234 265 326 410
#     4  12  27  43  61  96 140 168 211 288 349 384
#     4  10  18  42  70  94 120 172 234 266 324 394
#     4  10  19  43  66  93 133 167 222 286 320 395
#     4  12  24  40  63  96 133 171 219 273 334 400
#     4  10  20  39  66  92 131 173 220 275 330 397
#
# _framework density 21.144525000000002
#
# number of rings (size 3 to 8) (size 9 to 14) (size 15 to 20)
#    0.000    1.231    5.385    2.308    0.000    8.615 
#    2.769    0.000    0.000    0.000    0.000    0.000 
#    0.000    0.000    0.000    0.000    0.000    0.000 
#
# Total GULP energy -322365.762255 kJ/mol
# GULP energy per Si atom -12398.683164 kJ/mol
# Density = 2.109640 g / cm^3
# Si number density = 21.144525 Si / 1000 Ang^3
#
#
#
# Elastic Constant Matrix: (Units=GPa)
#
#
# Indices 1 2 3 4 5 6 
#
# 1 119.7576 44.9665 37.5426 0.0000 7.7139 0.0000
# 2 44.9665 70.8957 50.3332 0.0000 -6.5517 0.0000
# 3 37.5426 50.3332 162.1876 0.0000 -13.1820 0.0000
# 4 0.0000 0.0000 0.0000 30.9475 0.0000 -2.1960
# 5 7.7139 -6.5517 -13.1820 0.0000 26.8254 0.0000
# 6 0.0000 0.0000 0.0000 -2.1960 0.0000 13.6997
#
#
#
# Elastic Compliance Matrix: (Units=1/GPa)
#
#
# Indices 1 2 3 4 5 6 
#
# 1 0.011746 -0.007329 -0.000900 0.000000 -0.005610 0.000000
# 2 -0.007329 0.022742 -0.004936 0.000000 0.005237 0.000000
# 3 -0.000900 -0.004936 0.008155 0.000000 0.003061 0.000000
# 4 0.000000 0.000000 0.000000 0.032685 0.000000 0.005239
# 5 -0.005610 0.005237 0.003061 0.000000 0.041674 0.000000
# 6 0.000000 0.000000 0.000000 0.005239 0.000000 0.073834
#
#
# Mechanical properties :
#
#
# Convention : Reuss Voigt Hill
#
# Bulk Modulus (GPa) = 61.30414 68.72507 65.01461
# Shear Modulus (GPa) = 22.46157 28.96108 25.71132
#
# Velocity S-wave (km/s) = 3.26281 3.70492 3.49087
# Velocity P-wave (km/s) = 6.57651 7.13267 6.86023
#
# Compressibility (1/GPa) = 0.01631211
#
# Stress axis : x y z
#
# Youngs Moduli (GPa) = 85.13730 43.97184 122.63090
#
# Poissons Ratio (x) = 0.32228 0.11041
# Poissons Ratio (y) = 0.62398 0.60525
# Poissons Ratio (z) = 0.07665 0.21703
#
# Static dielectric constant tensor:
#      x y z
#    x 3.901360 0.000000 -0.211940 
#    y 0.000000 3.481650 0.000000 
#    z -0.211940 0.000000 3.986900 
# 
# 
# High freq. dielectric constant tensor:
#      x y z
#    x 1.837230 0.000000 -0.017520 
#    y 0.000000 1.800300 0.000000 
#    z -0.017520 0.000000 1.843040 
# 
# From -- ./inp_files/126393.got.cif
#   From: 2010.06.25/outbox.cif.g09.slc.cpg/sg15_64_cif.got.tgz:126393.got - 2010.06.28 07:06:18.
