data_PCOD8132955
_publ_section_title
;
Structure prediction by ZEFSAII (Michael W. Deem and Ramdas Pophale) SiO2 
 PCOD8132955
Probable space group: C 2/C
;
_chemical_formula_sum "Si O2"
_cell_formula_units_Z 64
_cell_length_a 17.925816
_cell_length_b 23.155832
_cell_length_c 11.685102
_cell_angle_alpha 90.000000
_cell_angle_beta 128.044949
_cell_angle_gamma 90.000000
_cell_volume 3819.773144
_symmetry_space_group_name_H-M "C 2/C"
_symmetry_group_IT_number 15
_symmetry_cell_setting 'monoclinic'
loop_
_space_group_symop_operation_xyz
x,y,z
-x,y,1/2-z
-x,-y,-z
x,-y,1/2+z
1/2+x,1/2+y,z
1/2-x,1/2+y,1/2-z
1/2-x,1/2-y,-z
1/2+x,1/2-y,1/2+z
loop_
_atom_site_type_symbol
_atom_site_label
_atom_site_fract_x
_atom_site_fract_y
_atom_site_fract_z
Si Si1 0.817427 0.235917 0.393782
Si Si2 0.036448 0.912743 0.970004
Si Si3 0.599572 0.759515 0.393114
Si Si4 0.595236 0.557013 0.765231
Si Si5 0.974540 0.213897 0.951377
Si Si6 0.138922 0.936000 0.849906
Si Si7 0.775234 0.176552 0.123248
Si Si8 0.676283 0.680454 0.859255
O O1 0.767529 0.202160 0.242947
O O2 0.765865 0.297168 0.368864
O O3 0.807902 0.194780 0.494108
O O4 0.927540 0.248358 0.472060
O O5 0.063438 0.952319 0.103576
O O6 0.003626 0.850299 0.983054
O O7 0.124617 0.911284 0.964835
O O8 0.953231 0.939628 0.817216
O O9 0.500000 0.782846 0.250000
O O10 0.590055 0.745638 0.517367
O O11 0.681402 0.807946 0.461027
O O12 0.631291 0.703301 0.350157
O O13 0.500000 0.565226 0.750000
O O14 0.662900 0.504436 0.873919
O O15 0.664465 0.612089 0.836762
O O16 0.918159 0.211926 0.778351
O O17 0.215980 0.893248 0.865300
#
# Coordination Sequence:
#
# PCOD8132955 Si02
#       8
#     8   8   8   8   8   8   8   8
#     4  11  20  34  53  71 107 133 177 215 256 297
#     4  10  19  31  48  73 107 134 171 200 247 312
#     4  11  20  33  51  76 106 132 171 214 269 311
#     4  11  22  32  50  73 107 145 171 201 258 315
#     4  11  18  33  53  73 103 141 166 210 256 313
#     4  11  20  32  50  75 104 138 173 203 249 310
#     4  11  22  32  54  80 102 140 171 217 263 316
#     4  10  23  35  47  78 104 142 172 213 252 315
#
# _framework density 16.754921
#
# number of rings (size 3 to 8) (size 9 to 14) (size 15 to 20)
#    0.000    1.250    6.250    2.250    0.000    0.000 
#    0.000    0.000    0.000    0.000    0.000    4.375 
#    0.000    0.000    0.000    0.000    0.000    0.000 
#
# Total GULP energy -396664.095937 kJ/mol
# GULP energy per Si atom -12395.752998 kJ/mol
# Density = 1.671679 g / cm^3
# Si number density = 16.754921 Si / 1000 Ang^3
#
#
#
# Elastic Constant Matrix: (Units=GPa)
#
#
# Indices 1 2 3 4 5 6 
#
# 1 81.9162 45.6848 36.3904 0.0000 -7.9120 0.0000
# 2 45.6848 104.0246 32.6936 0.0000 2.6408 0.0000
# 3 36.3904 32.6936 79.7702 0.0000 -3.4376 0.0000
# 4 0.0000 0.0000 0.0000 22.5230 0.0000 4.8020
# 5 -7.9120 2.6408 -3.4376 0.0000 30.1694 0.0000
# 6 0.0000 0.0000 0.0000 4.8020 0.0000 20.6410
#
#
#
# Elastic Compliance Matrix: (Units=1/GPa)
#
#
# Indices 1 2 3 4 5 6 
#
# 1 0.018914 -0.006641 -0.005696 0.000000 0.004892 0.000000
# 2 -0.006641 0.013433 -0.002615 0.000000 -0.003215 0.000000
# 3 -0.005696 -0.002615 0.016231 0.000000 0.000585 0.000000
# 4 0.000000 0.000000 0.000000 0.046716 0.000000 -0.010868
# 5 0.004892 -0.003215 0.000585 0.000000 0.034777 0.000000
# 6 0.000000 0.000000 0.000000 -0.010868 0.000000 0.050976
#
#
# Mechanical properties :
#
#
# Convention : Reuss Voigt Hill
#
# Bulk Modulus (GPa) = 53.54515 55.02765 54.28640
# Shear Modulus (GPa) = 23.02296 24.72950 23.87623
#
# Velocity S-wave (km/s) = 3.71091 3.84598 3.77905
# Velocity P-wave (km/s) = 7.09848 7.25507 7.17720
#
# Compressibility (1/GPa) = 0.01867583
#
# Stress axis : x y z
#
# Youngs Moduli (GPa) = 52.87111 74.44452 61.60973
#
# Poissons Ratio (x) = 0.49435 0.35092
# Poissons Ratio (y) = 0.35109 0.16109
# Poissons Ratio (z) = 0.30115 0.19464
#
# Static dielectric constant tensor:
#      x y z
#    x 3.160020 0.000000 -0.223170 
#    y 0.000000 3.072560 0.000000 
#    z -0.223170 0.000000 3.222810 
# 
# 
# High freq. dielectric constant tensor:
#      x y z
#    x 1.634540 0.000000 -0.028280 
#    y 0.000000 1.623740 0.000000 
#    z -0.028280 0.000000 1.647580 
# 
# From -- ./inp_files/107964.got.cif
#   From: 2010.06.25/outbox.cif.g09.slc.cpg/sg15_54_cif.got.tgz:107964.got - 2010.06.28 07:06:18.
