data_PCOD8132027
_publ_section_title
;
Structure prediction by ZEFSAII (Michael W. Deem and Ramdas Pophale) SiO2 
 PCOD8132027
Probable space group: C 2/C
;
_chemical_formula_sum "Si O2"
_cell_formula_units_Z 56
_cell_length_a 11.849365
_cell_length_b 10.535629
_cell_length_c 26.789512
_cell_angle_alpha 90.000000
_cell_angle_beta 50.711045
_cell_angle_gamma 90.000000
_cell_volume 2588.452214
_symmetry_space_group_name_H-M "C 2/C"
_symmetry_group_IT_number 15
_symmetry_cell_setting 'monoclinic'
loop_
_space_group_symop_operation_xyz
x,y,z
-x,y,1/2-z
-x,-y,-z
x,-y,1/2+z
1/2+x,1/2+y,z
1/2-x,1/2+y,1/2-z
1/2-x,1/2-y,-z
1/2+x,1/2-y,1/2+z
loop_
_atom_site_type_symbol
_atom_site_label
_atom_site_fract_x
_atom_site_fract_y
_atom_site_fract_z
Si Si1 0.515239 0.131024 0.045469
Si Si2 0.993459 0.861658 0.382533
Si Si3 0.938192 0.539941 0.878598
Si Si4 0.625129 0.524450 0.424179
Si Si5 0.593290 0.831558 0.773606
Si Si6 0.356337 0.758751 0.145134
Si Si7 0.780995 0.545386 0.593080
O O1 0.552502 0.264790 0.060525
O O2 0.579375 0.019235 0.061902
O O3 0.340859 0.098668 0.086518
O O4 0.593269 0.124686 0.970706
O O5 0.863074 0.951926 0.399989
O O6 0.060141 0.787928 0.317736
O O7 0.106348 0.955160 0.376430
O O8 0.779411 0.529872 0.899023
O O9 0.056538 0.461916 0.812453
O O10 0.997027 0.685223 0.869110
O O11 0.500000 0.500000 0.500000
O O12 0.618740 0.672329 0.411241
O O13 0.500000 0.822078 0.750000
O O14 0.763667 0.820940 0.711732
O O15 0.263005 0.880051 0.150768
#
# Coordination Sequence:
#
# PCOD8132027 Si02
#       7
#     8   8   8   8   8   8   8
#     4   9  19  35  58  87 115 157 211 263 320 382
#     4  11  22  35  59  89 122 164 210 264 326 389
#     4  10  23  41  65  91 127 173 218 274 336 398
#     4  12  25  40  62  98 139 178 219 271 342 409
#     4  11  21  42  67  88 123 164 226 276 337 403
#     4  11  23  40  65  92 121 176 217 272 334 399
#     4  10  18  35  60  84 116 157 211 265 316 381
#
# _framework density 21.634550000000001
#
# number of rings (size 3 to 8) (size 9 to 14) (size 15 to 20)
#    0.000    1.429    2.857    3.000    2.000    1.714 
#    0.000    0.000    0.000    0.857    0.000    0.000 
#    0.000    0.000    0.000    0.000    0.000    0.000 
#
# Total GULP energy -346944.377126 kJ/mol
# GULP energy per Si atom -12390.870612 kJ/mol
# Density = 2.158531 g / cm^3
# Si number density = 21.634550 Si / 1000 Ang^3
#
#
#
# Elastic Constant Matrix: (Units=GPa)
#
#
# Indices 1 2 3 4 5 6 
#
# 1 165.4216 53.4855 27.3830 0.0000 -8.9690 0.0000
# 2 53.4855 49.3698 16.8197 0.0000 -9.0939 0.0000
# 3 27.3830 16.8197 80.3626 0.0000 -5.7069 0.0000
# 4 0.0000 0.0000 0.0000 22.9211 0.0000 4.6170
# 5 -8.9690 -9.0939 -5.7069 0.0000 34.7391 0.0000
# 6 0.0000 0.0000 0.0000 4.6170 0.0000 37.4064
#
#
#
# Elastic Compliance Matrix: (Units=1/GPa)
#
#
# Indices 1 2 3 4 5 6 
#
# 1 0.009407 -0.009857 -0.001167 0.000000 -0.000343 0.000000
# 2 -0.009857 0.033039 -0.003160 0.000000 0.005585 0.000000
# 3 -0.001167 -0.003160 0.013581 0.000000 0.001103 0.000000
# 4 0.000000 0.000000 0.000000 0.044740 0.000000 -0.005522
# 5 -0.000343 0.005585 0.001103 0.000000 0.030341 0.000000
# 6 0.000000 0.000000 0.000000 -0.005522 0.000000 0.027415
#
#
# Mechanical properties :
#
#
# Convention : Reuss Voigt Hill
#
# Bulk Modulus (GPa) = 36.15307 54.50339 45.32823
# Shear Modulus (GPa) = 25.49619 32.17771 28.83695
#
# Velocity S-wave (km/s) = 3.43664 3.86078 3.65487
# Velocity P-wave (km/s) = 5.70039 6.71726 6.22961
#
# Compressibility (1/GPa) = 0.02766017
#
# Stress axis : x y z
#
# Youngs Moduli (GPa) = 106.30877 30.26750 73.63353
#
# Poissons Ratio (x) = 0.29833 0.08590
# Poissons Ratio (y) = 1.04783 0.23267
# Poissons Ratio (z) = 0.12403 0.09564
#
# Static dielectric constant tensor:
#      x y z
#    x 4.033690 0.000000 0.187560 
#    y 0.000000 4.197280 0.000000 
#    z 0.187560 0.000000 4.001940 
# 
# 
# High freq. dielectric constant tensor:
#      x y z
#    x 1.851680 0.000000 0.020890 
#    y 0.000000 1.839430 0.000000 
#    z 0.020890 0.000000 1.843550 
# 
# From -- ./inp_files/292216.got.cif
#   From: 2010.06.25/outbox.cif.g09.slc.cpg/sg15_147_cif.got.tgz:292216.got - 2010.06.28 07:06:18.
