data_PCOD8132566
_publ_section_title
;
Structure prediction by ZEFSAII (Michael W. Deem and Ramdas Pophale) SiO2 
 PCOD8132566
Probable space group: C 2/C
;
_chemical_formula_sum "Si O2"
_cell_formula_units_Z 64
_cell_length_a 9.109817
_cell_length_b 20.431814
_cell_length_c 22.878047
_cell_angle_alpha 90.000000
_cell_angle_beta 130.717000
_cell_angle_gamma 90.000000
_cell_volume 3227.533993
_symmetry_space_group_name_H-M "C 2/C"
_symmetry_group_IT_number 15
_symmetry_cell_setting 'monoclinic'
loop_
_space_group_symop_operation_xyz
x,y,z
-x,y,1/2-z
-x,-y,-z
x,-y,1/2+z
1/2+x,1/2+y,z
1/2-x,1/2+y,1/2-z
1/2-x,1/2-y,-z
1/2+x,1/2-y,1/2+z
loop_
_atom_site_type_symbol
_atom_site_label
_atom_site_fract_x
_atom_site_fract_y
_atom_site_fract_z
Si Si1 0.549192 0.906505 0.695431
Si Si2 0.141433 0.203920 0.233017
Si Si3 0.249743 0.694691 0.586069
Si Si4 0.844213 0.156956 0.788377
Si Si5 0.456343 0.054029 0.806498
Si Si6 0.803211 0.869084 0.409765
Si Si7 0.927005 0.731582 0.585058
Si Si8 0.730358 0.658429 0.039711
O O1 0.500000 0.897180 0.750000
O O2 0.722975 0.858549 0.725279
O O3 0.364560 0.893721 0.606764
O O4 0.614328 0.980800 0.698571
O O5 0.255638 0.271483 0.263288
O O6 0.000000 0.198800 0.250000
O O7 0.030194 0.204851 0.141196
O O8 0.429742 0.665720 0.671187
O O9 0.221778 0.656964 0.517248
O O10 0.281125 0.771058 0.579591
O O11 0.067309 0.687176 0.581338
O O12 0.715652 0.104474 0.718270
O O13 0.859731 0.129700 0.857474
O O14 0.500000 0.066173 0.750000
O O15 0.666420 0.068732 0.892251
O O16 0.659665 0.808212 0.383018
O O17 0.007318 0.862009 0.497118
O O18 0.750000 0.750000 0.500000
#
# Coordination Sequence:
#
# PCOD8132566 Si02
#       8
#     8   8   8   8   8   8   8   8
#     4  11  24  39  59  89 122 152 201 251 296 349
#     4  12  23  37  61  89 118 160 195 249 307 353
#     4  10  21  33  57  90 120 150 189 249 295 354
#     4  10  18  38  63  85 113 152 205 241 297 346
#     4   9  19  39  62  85 115 158 204 248 285 353
#     4  10  19  36  60  87 114 153 199 239 295 355
#     4  12  23  34  57  93 122 150 194 249 299 350
#     4  10  20  36  57  84 122 155 187 240 304 353
#
# _framework density 19.829381000000001
#
# number of rings (size 3 to 8) (size 9 to 14) (size 15 to 20)
#    0.000    1.500    5.000    1.125    1.750    0.500 
#    0.000    1.250    0.000    0.750    0.000    0.000 
#    0.000    0.000    0.000    0.000    0.000    0.000 
#
# Total GULP energy -396498.938859 kJ/mol
# GULP energy per Si atom -12390.591839 kJ/mol
# Density = 1.978425 g / cm^3
# Si number density = 19.829381 Si / 1000 Ang^3
#
#
#
# Elastic Constant Matrix: (Units=GPa)
#
#
# Indices 1 2 3 4 5 6 
#
# 1 105.1263 34.9935 46.5720 0.0001 28.7392 0.0001
# 2 34.9935 110.8809 45.6925 0.0000 25.3519 0.0000
# 3 46.5720 45.6925 126.4675 0.0001 34.6865 0.0001
# 4 0.0001 0.0000 0.0001 23.3697 0.0001 22.2929
# 5 28.7392 25.3519 34.6865 0.0001 32.4232 0.0000
# 6 0.0001 0.0000 0.0001 22.2929 0.0000 91.1332
#
#
#
# Elastic Compliance Matrix: (Units=1/GPa)
#
#
# Indices 1 2 3 4 5 6 
#
# 1 0.013180 -0.001396 -0.002044 0.000000 -0.008404 0.000000
# 2 -0.001396 0.011616 -0.002167 0.000000 -0.005527 0.000000
# 3 -0.002044 -0.002167 0.012003 0.000000 -0.009335 0.000000
# 4 0.000000 0.000000 0.000000 0.055815 0.000000 -0.013653
# 5 -0.008404 -0.005527 -0.009335 0.000000 0.052600 0.000000
# 6 0.000000 0.000000 0.000000 -0.013653 0.000000 0.014313
#
#
# Mechanical properties :
#
#
# Convention : Reuss Voigt Hill
#
# Bulk Modulus (GPa) = 39.08452 66.33232 52.70842
# Shear Modulus (GPa) = 27.89114 43.73300 35.81207
#
# Velocity S-wave (km/s) = 3.75448 4.70133 4.25433
# Velocity P-wave (km/s) = 6.20870 7.93689 7.12538
#
# Compressibility (1/GPa) = 0.02558558
#
# Stress axis : x y z
#
# Youngs Moduli (GPa) = 75.87177 86.08938 83.31179
#
# Poissons Ratio (x) = 0.12014 0.17032
# Poissons Ratio (y) = 0.10588 0.18052
# Poissons Ratio (z) = 0.15511 0.18654
#
# Static dielectric constant tensor:
#      x y z
#    x 3.681620 0.000000 0.232080 
#    y 0.000000 3.371840 0.000000 
#    z 0.232080 0.000000 3.903670 
# 
# 
# High freq. dielectric constant tensor:
#      x y z
#    x 1.772360 0.000000 0.013880 
#    y 0.000000 1.738920 0.000000 
#    z 0.013880 0.000000 1.786160 
# 
# From -- ./inp_files/266133.got.cif
#   From: 2010.06.25/outbox.cif.g09.slc.cpg/sg15_134_cif.got.tgz:266133.got - 2010.06.28 07:06:18.
