data_PCOD8132322
_publ_section_title
;
Structure prediction by ZEFSAII (Michael W. Deem and Ramdas Pophale) SiO2 
 PCOD8132322
Probable space group: C 2/C
;
_chemical_formula_sum "Si O2"
_cell_formula_units_Z 60
_cell_length_a 16.454509
_cell_length_b 21.874679
_cell_length_c 8.675042
_cell_angle_alpha 90.000000
_cell_angle_beta 115.226847
_cell_angle_gamma 90.000000
_cell_volume 2824.671593
_symmetry_space_group_name_H-M "C 2/C"
_symmetry_group_IT_number 15
_symmetry_cell_setting 'monoclinic'
loop_
_space_group_symop_operation_xyz
x,y,z
-x,y,1/2-z
-x,-y,-z
x,-y,1/2+z
1/2+x,1/2+y,z
1/2-x,1/2+y,1/2-z
1/2-x,1/2-y,-z
1/2+x,1/2-y,1/2+z
loop_
_atom_site_type_symbol
_atom_site_label
_atom_site_fract_x
_atom_site_fract_y
_atom_site_fract_z
Si Si1 0.088874 0.574098 0.735706
Si Si2 0.720479 0.864862 0.707318
Si Si3 0.150674 0.512218 0.063760
Si Si4 0.111046 0.918792 0.490655
Si Si5 0.820670 0.241697 0.695825
Si Si6 0.260232 0.355217 0.394243
Si Si7 0.155907 0.035775 0.699877
Si Si8 0.500000 0.328559 0.250000
O O1 0.075911 0.536277 0.566228
O O2 0.156126 0.630310 0.768527
O O3 0.000000 0.597601 0.750000
O O4 0.134852 0.518900 0.869782
O O5 0.647021 0.918635 0.628152
O O6 0.797361 0.884236 0.890755
O O7 0.662134 0.809241 0.725276
O O8 0.768021 0.844856 0.584146
O O9 0.249713 0.487865 0.164314
O O10 0.107460 0.936219 0.307427
O O11 0.028420 0.869969 0.424671
O O12 0.097042 0.979571 0.582428
O O13 0.750000 0.250000 0.500000
O O14 0.782117 0.202759 0.807484
O O15 0.915008 0.213760 0.719760
O O16 0.327257 0.411771 0.413177
#
# Coordination Sequence:
#
# PCOD8132322 Si02
#       8
#     8   8   8   8   8   8   8   4
#     4  10  19  33  53  87 127 157 202 260 316 380
#     4  10  20  40  66  90 122 173 216 262 325 385
#     4   9  18  32  56  85 117 162 204 249 317 386
#     4  11  21  39  66  98 134 169 216 267 324 401
#     4  12  24  47  68  89 128 172 217 278 325 380
#     4  10  21  40  66  92 123 171 217 262 337 396
#     4  10  18  36  64  91 126 170 206 261 333 393
#     4  12  26  44  66  98 128 170 234 264 334 404
#
# _framework density 21.241406000000001
#
# number of rings (size 3 to 8) (size 9 to 14) (size 15 to 20)
#    0.000    1.600    2.667    4.800    0.000    1.600 
#    6.000    0.667    0.000    0.000    0.000    0.000 
#    0.000    0.000    0.000    0.000    0.000    0.000 
#
# Total GULP energy -371675.138247 kJ/mol
# GULP energy per Si atom -12389.171275 kJ/mol
# Density = 2.119306 g / cm^3
# Si number density = 21.241406 Si / 1000 Ang^3
#
#
#
# Elastic Constant Matrix: (Units=GPa)
#
#
# Indices 1 2 3 4 5 6 
#
# 1 93.3057 34.8173 22.7492 0.0000 0.3150 0.0000
# 2 34.8173 98.6365 21.0820 0.0000 3.2114 0.0000
# 3 22.7492 21.0820 62.7846 0.0000 -3.8673 0.0000
# 4 0.0000 0.0000 0.0000 36.4193 0.0000 -2.4914
# 5 0.3150 3.2114 -3.8673 0.0000 24.9513 0.0000
# 6 0.0000 0.0000 0.0000 -2.4914 0.0000 24.4952
#
#
#
# Elastic Compliance Matrix: (Units=1/GPa)
#
#
# Indices 1 2 3 4 5 6 
#
# 1 0.012989 -0.003846 -0.003427 0.000000 -0.000200 0.000000
# 2 -0.003846 0.012160 -0.002810 0.000000 -0.001952 0.000000
# 3 -0.003427 -0.002810 0.018313 0.000000 0.003243 0.000000
# 4 0.000000 0.000000 0.000000 0.027650 0.000000 0.002812
# 5 -0.000200 -0.001952 0.003243 0.000000 0.040834 0.000000
# 6 0.000000 0.000000 0.000000 0.002812 0.000000 0.041110
#
#
# Mechanical properties :
#
#
# Convention : Reuss Voigt Hill
#
# Bulk Modulus (GPa) = 42.92699 45.78042 44.35371
# Shear Modulus (GPa) = 27.62621 28.91172 28.26896
#
# Velocity S-wave (km/s) = 3.61027 3.69331 3.65203
# Velocity P-wave (km/s) = 6.13447 6.30767 6.22167
#
# Compressibility (1/GPa) = 0.02329536
#
# Stress axis : x y z
#
# Youngs Moduli (GPa) = 76.98910 82.23771 54.60726
#
# Poissons Ratio (x) = 0.31627 0.18716
# Poissons Ratio (y) = 0.29609 0.15344
# Poissons Ratio (z) = 0.26387 0.23107
#
# Static dielectric constant tensor:
#      x y z
#    x 3.704230 0.000000 -0.081710 
#    y 0.000000 4.099860 0.000000 
#    z -0.081710 0.000000 3.986750 
# 
# 
# High freq. dielectric constant tensor:
#      x y z
#    x 1.816200 0.000000 -0.005240 
#    y 0.000000 1.834450 0.000000 
#    z -0.005240 0.000000 1.835640 
# 
# From -- ./inp_files/50670.got.cif
#   From: 2010.06.25/outbox.cif.g09.slc.cpg/sg15_26_cif.got.tgz:50670.got - 2010.06.28 07:06:18.
