data_PCOD8132531
_publ_section_title
;
Structure prediction by ZEFSAII (Michael W. Deem and Ramdas Pophale) SiO2 
 PCOD8132531
Probable space group: C 2/C
;
_chemical_formula_sum "Si O2"
_cell_formula_units_Z 60
_cell_length_a 12.481258
_cell_length_b 18.292985
_cell_length_c 20.458987
_cell_angle_alpha 90.000000
_cell_angle_beta 38.030353
_cell_angle_gamma 90.000000
_cell_volume 2877.818245
_symmetry_space_group_name_H-M "C 2/C"
_symmetry_group_IT_number 15
_symmetry_cell_setting 'monoclinic'
loop_
_space_group_symop_operation_xyz
x,y,z
-x,y,1/2-z
-x,-y,-z
x,-y,1/2+z
1/2+x,1/2+y,z
1/2-x,1/2+y,1/2-z
1/2-x,1/2-y,-z
1/2+x,1/2-y,1/2+z
loop_
_atom_site_type_symbol
_atom_site_label
_atom_site_fract_x
_atom_site_fract_y
_atom_site_fract_z
Si Si1 0.495281 0.650725 0.831596
Si Si2 0.614147 0.204769 0.338110
Si Si3 0.819179 0.298388 0.554450
Si Si4 0.914413 0.452891 0.486279
Si Si5 0.000000 0.519400 0.250000
Si Si6 0.658216 0.912348 0.556707
Si Si7 0.322804 0.094508 0.740986
Si Si8 0.975466 0.255497 0.172206
O O1 0.500000 0.635836 0.750000
O O2 0.543696 0.735515 0.820282
O O3 0.623570 0.597336 0.811104
O O4 0.309866 0.639359 0.956332
O O5 0.577532 0.228720 0.430878
O O6 0.525312 0.126156 0.371465
O O7 0.824202 0.195681 0.230436
O O8 0.793128 0.386768 0.568447
O O9 0.620679 0.269256 0.654631
O O10 0.922291 0.266862 0.444250
O O11 0.810036 0.508208 0.490319
O O12 0.000000 0.500000 0.500000
O O13 0.071787 0.412702 0.375760
O O14 0.136964 0.570263 0.144184
O O15 0.129871 0.470705 0.232244
O O16 0.379120 0.171751 0.745451
#
# Coordination Sequence:
#
# PCOD8132531 Si02
#       8
#     8   8   8   8   4   8   8   8
#     4  11  25  42  66  95 125 175 226 264 321 387
#     4  11  23  37  64  91 127 169 212 271 320 380
#     4  10  20  38  63  92 125 165 218 268 324 373
#     4  10  18  38  61  84 125 167 211 255 318 383
#     4  10  24  42  66  94 132 170 212 262 340 388
#     4  11  24  42  62  91 130 176 209 267 319 394
#     4   9  21  40  65  89 124 169 206 268 318 384
#     4   9  21  38  63  95 123 164 216 274 317 375
#
# _framework density 20.849128
#
# number of rings (size 3 to 8) (size 9 to 14) (size 15 to 20)
#    0.000    1.867    1.333    1.600    8.400    1.600 
#    4.800    0.000    0.000    0.000    0.000    0.000 
#    0.000    0.000    0.000    0.000    0.000    0.000 
#
# Total GULP energy -371643.239318 kJ/mol
# GULP energy per Si atom -12388.107977 kJ/mol
# Density = 2.080167 g / cm^3
# Si number density = 20.849128 Si / 1000 Ang^3
#
#
#
# Elastic Constant Matrix: (Units=GPa)
#
#
# Indices 1 2 3 4 5 6 
#
# 1 112.9945 39.7329 41.0520 0.0039 2.2708 -0.0029
# 2 39.7329 73.6875 32.8021 -0.0079 -5.6878 0.0008
# 3 41.0520 32.8021 84.2707 -0.0299 -2.0631 0.0052
# 4 0.0039 -0.0079 -0.0299 29.9352 0.0032 3.8314
# 5 2.2708 -5.6878 -2.0631 0.0032 33.8231 0.0028
# 6 -0.0029 0.0008 0.0052 3.8314 0.0028 34.2417
#
#
#
# Elastic Compliance Matrix: (Units=1/GPa)
#
#
# Indices 1 2 3 4 5 6 
#
# 1 0.012058 -0.004852 -0.004031 -0.000007 -0.001871 0.000003
# 2 -0.004852 0.018560 -0.004784 0.000000 0.003155 0.000000
# 3 -0.004031 -0.004784 0.015703 0.000015 0.000424 -0.000004
# 4 -0.000007 0.000000 0.000015 0.033891 -0.000001 -0.003792
# 5 -0.001871 0.003155 0.000424 -0.000001 0.030248 -0.000003
# 6 0.000003 0.000000 -0.000004 -0.003792 -0.000003 0.029628
#
#
# Mechanical properties :
#
#
# Convention : Reuss Voigt Hill
#
# Bulk Modulus (GPa) = 52.66660 55.34742 54.00701
# Shear Modulus (GPa) = 28.77684 30.09104 29.43394
#
# Velocity S-wave (km/s) = 3.71919 3.80317 3.76141
# Velocity P-wave (km/s) = 6.61505 6.77420 6.69509
#
# Compressibility (1/GPa) = 0.01898737
#
# Stress axis : x y z
#
# Youngs Moduli (GPa) = 82.93029 53.87950 63.68296
#
# Poissons Ratio (x) = 0.26141 0.25673
# Poissons Ratio (y) = 0.40236 0.30463
# Poissons Ratio (z) = 0.33433 0.25774
#
# Static dielectric constant tensor:
#      x y z
#    x 4.248730 0.000330 0.586830 
#    y 0.000330 3.656350 0.000410 
#    z 0.586830 0.000410 4.418940 
# 
# 
# High freq. dielectric constant tensor:
#      x y z
#    x 1.818510 0.000000 0.013120 
#    y 0.000000 1.810560 0.000000 
#    z 0.013120 0.000000 1.818370 
# 
# From -- ./inp_files/239937.got.cif
#   From: 2010.06.25/outbox.cif.g09.slc.cpg/sg15_120_cif.got.tgz:239937.got - 2010.06.28 07:06:18.
