data_PCOD8132799
_publ_section_title
;
Structure prediction by ZEFSAII (Michael W. Deem and Ramdas Pophale) SiO2 
 PCOD8132799
Probable space group: C 2/C
;
_chemical_formula_sum "Si O2"
_cell_formula_units_Z 44
_cell_length_a 19.925019
_cell_length_b 15.394532
_cell_length_c 7.896801
_cell_angle_alpha 90.000000
_cell_angle_beta 55.893931
_cell_angle_gamma 90.000000
_cell_volume 2005.613578
_symmetry_space_group_name_H-M "C 2/C"
_symmetry_group_IT_number 15
_symmetry_cell_setting 'monoclinic'
loop_
_space_group_symop_operation_xyz
x,y,z
-x,y,1/2-z
-x,-y,-z
x,-y,1/2+z
1/2+x,1/2+y,z
1/2-x,1/2+y,1/2-z
1/2-x,1/2-y,-z
1/2+x,1/2-y,1/2+z
loop_
_atom_site_type_symbol
_atom_site_label
_atom_site_fract_x
_atom_site_fract_y
_atom_site_fract_z
Si Si1 0.500000 0.790008 0.750000
Si Si2 0.654423 0.719814 0.390045
Si Si3 0.781655 0.578074 0.155828
Si Si4 0.413183 0.326855 0.875058
Si Si5 0.747087 0.891035 0.185909
Si Si6 0.448339 0.851553 0.482166
O O1 0.581235 0.729810 0.628845
O O2 0.498798 0.853182 0.586766
O O3 0.709639 0.634223 0.347302
O O4 0.612322 0.713352 0.267910
O O5 0.711796 0.804702 0.322663
O O6 0.768653 0.475388 0.180234
O O7 0.790008 0.605071 0.948965
O O8 0.866901 0.594027 0.126726
O O9 0.500000 0.377387 0.750000
O O10 0.424305 0.247669 0.986825
O O11 0.344539 0.390013 0.040911
O O12 0.500000 0.889057 0.250000
#
# Coordination Sequence:
#
# PCOD8132799 Si02
#       6
#     4   8   8   8   8   8
#     4  12  24  36  72 102 122 170 230 262 324 392
#     4  11  22  43  66  94 132 173 220 265 326 394
#     4  11  24  43  66  95 131 175 218 266 329 389
#     4  10  18  42  71  87 125 182 209 262 338 377
#     4  11  23  42  66  96 130 176 217 267 328 390
#     4  11  21  43  68  94 130 174 210 272 331 382
#
# _framework density 21.938424000000001
#
# number of rings (size 3 to 8) (size 9 to 14) (size 15 to 20)
#    0.000    1.091    7.273    1.091    2.545    2.182 
#    3.273    3.636    2.000    0.000    0.000    0.000 
#    0.000    0.000    0.000    0.000    0.000    0.000 
#
# Total GULP energy -272757.035052 kJ/mol
# GULP energy per Si atom -12398.047048 kJ/mol
# Density = 2.188849 g / cm^3
# Si number density = 21.938424 Si / 1000 Ang^3
#
#
#
# Elastic Constant Matrix: (Units=GPa)
#
#
# Indices 1 2 3 4 5 6 
#
# 1 107.8746 22.7649 34.4274 0.0000 -17.4243 0.0000
# 2 22.7649 75.2765 16.4676 0.0000 -7.9752 0.0000
# 3 34.4274 16.4676 98.8619 0.0000 -17.7270 0.0000
# 4 0.0000 0.0000 0.0000 23.2162 0.0000 -2.1011
# 5 -17.4243 -7.9752 -17.7270 0.0000 34.1401 0.0000
# 6 0.0000 0.0000 0.0000 -2.1011 0.0000 18.7956
#
#
#
# Elastic Compliance Matrix: (Units=1/GPa)
#
#
# Indices 1 2 3 4 5 6 
#
# 1 0.011290 -0.002394 -0.002867 0.000000 0.003714 0.000000
# 2 -0.002394 0.014451 -0.001309 0.000000 0.001474 0.000000
# 3 -0.002867 -0.001309 0.012145 0.000000 0.004537 0.000000
# 4 0.000000 0.000000 0.000000 0.043513 0.000000 0.004864
# 5 0.003714 0.001474 0.004537 0.000000 0.033887 0.000000
# 6 0.000000 0.000000 0.000000 0.004864 0.000000 0.053748
#
#
# Mechanical properties :
#
#
# Convention : Reuss Voigt Hill
#
# Bulk Modulus (GPa) = 40.40953 47.70365 44.05659
# Shear Modulus (GPa) = 26.25739 29.12059 27.68899
#
# Velocity S-wave (km/s) = 3.46333 3.64727 3.55649
# Velocity P-wave (km/s) = 5.86962 6.28716 6.08197
#
# Compressibility (1/GPa) = 0.02474664
#
# Stress axis : x y z
#
# Youngs Moduli (GPa) = 88.57345 69.20016 82.33747
#
# Poissons Ratio (x) = 0.16564 0.23605
# Poissons Ratio (y) = 0.21201 0.10780
# Poissons Ratio (z) = 0.25393 0.09060
#
# Static dielectric constant tensor:
#      x y z
#    x 4.359050 0.000000 -0.330210 
#    y 0.000000 3.606130 0.000000 
#    z -0.330210 0.000000 4.007750 
# 
# 
# High freq. dielectric constant tensor:
#      x y z
#    x 1.877910 0.000000 -0.014410 
#    y 0.000000 1.826530 0.000000 
#    z -0.014410 0.000000 1.862180 
# 
# From -- ./inp_files/55189.got.cif
#   From: 2010.06.25/outbox.cif.g09.slc.cpg/sg15_28_cif.got.tgz:55189.got - 2010.06.28 07:06:18.
