data_PCOD8132341
_publ_section_title
;
Structure prediction by ZEFSAII (Michael W. Deem and Ramdas Pophale) SiO2 
 PCOD8132341
Probable space group: C 2/C
;
_chemical_formula_sum "Si O2"
_cell_formula_units_Z 36
_cell_length_a 12.795325
_cell_length_b 13.454631
_cell_length_c 14.490771
_cell_angle_alpha 90.000000
_cell_angle_beta 138.004294
_cell_angle_gamma 90.000000
_cell_volume 1669.126877
_symmetry_space_group_name_H-M "C 2/C"
_symmetry_group_IT_number 15
_symmetry_cell_setting 'monoclinic'
loop_
_space_group_symop_operation_xyz
x,y,z
-x,y,1/2-z
-x,-y,-z
x,-y,1/2+z
1/2+x,1/2+y,z
1/2-x,1/2+y,1/2-z
1/2-x,1/2-y,-z
1/2+x,1/2-y,1/2+z
loop_
_atom_site_type_symbol
_atom_site_label
_atom_site_fract_x
_atom_site_fract_y
_atom_site_fract_z
Si Si1 0.505082 0.838905 0.477481
Si Si2 0.290730 0.951135 0.027907
Si Si3 0.119459 0.333821 0.904609
Si Si4 0.211039 0.290730 0.319464
Si Si5 0.000000 0.121942 0.250000
O O1 0.604906 0.927028 0.494582
O O2 0.466010 0.862512 0.556796
O O3 0.606518 0.736147 0.547466
O O4 0.339198 0.828331 0.314969
O O5 0.338582 0.870267 0.135986
O O6 0.313301 0.060440 0.085309
O O7 0.106233 0.946896 0.884871
O O8 0.000000 0.293020 0.750000
O O9 0.250000 0.250000 0.000000
O O10 0.114757 0.189802 0.266203
#
# Coordination Sequence:
#
# PCOD8132341 Si02
#       5
#     8   8   8   8   4
#     4  11  21  39  68  94 124 169 206 257 321 376
#     4  11  22  39  71  96 131 155 215 257 325 374
#     4  12  28  47  61  87 132 179 216 256 303 374
#     4  11  18  38  68 104 125 149 207 271 320 372
#     4  10  18  36  66 106 126 152 190 274 324 368
#
# _framework density 21.568162000000001
#
# number of rings (size 3 to 8) (size 9 to 14) (size 15 to 20)
#    0.000    0.889    4.444    4.667    1.556    0.000 
#    0.000    1.111    0.000    0.000    0.000    0.000 
#    0.000    0.000    0.000    0.000    0.000    0.000 
#
# Total GULP energy -223134.806601 kJ/mol
# GULP energy per Si atom -12396.378144 kJ/mol
# Density = 2.151907 g / cm^3
# Si number density = 21.568162 Si / 1000 Ang^3
#
#
#
# Elastic Constant Matrix: (Units=GPa)
#
#
# Indices 1 2 3 4 5 6 
#
# 1 70.3629 21.2123 36.1864 0.0000 -14.9265 0.0000
# 2 21.2123 114.6241 48.1718 0.0000 11.7167 0.0000
# 3 36.1864 48.1718 179.7487 -0.0001 -7.3437 0.0000
# 4 0.0000 0.0000 -0.0001 30.5363 0.0000 2.8228
# 5 -14.9265 11.7167 -7.3437 0.0000 30.4102 0.0000
# 6 0.0000 0.0000 0.0000 2.8228 0.0000 16.2730
#
#
#
# Elastic Compliance Matrix: (Units=1/GPa)
#
#
# Indices 1 2 3 4 5 6 
#
# 1 0.018581 -0.003430 -0.002419 0.000000 0.009858 0.000000
# 2 -0.003430 0.011105 -0.002554 0.000000 -0.006579 0.000000
# 3 -0.002419 -0.002554 0.006794 0.000000 0.001438 0.000000
# 4 0.000000 0.000000 0.000000 0.033282 0.000000 -0.005773
# 5 0.009858 -0.006579 0.001438 0.000000 0.040604 0.000000
# 6 0.000000 0.000000 0.000000 -0.005773 0.000000 0.062453
#
#
# Mechanical properties :
#
#
# Convention : Reuss Voigt Hill
#
# Bulk Modulus (GPa) = 50.82920 63.98631 57.40776
# Shear Modulus (GPa) = 25.48655 32.72158 29.10406
#
# Velocity S-wave (km/s) = 3.44128 3.89925 3.67740
# Velocity P-wave (km/s) = 6.27756 7.07133 6.68623
#
# Compressibility (1/GPa) = 0.01967373
#
# Stress axis : x y z
#
# Youngs Moduli (GPa) = 53.81802 90.05064 147.19833
#
# Poissons Ratio (x) = 0.30885 0.35604
# Poissons Ratio (y) = 0.18458 0.37600
# Poissons Ratio (z) = 0.13017 0.23002
#
# Static dielectric constant tensor:
#      x y z
#    x 3.610130 0.000000 0.089390 
#    y 0.000000 3.724270 0.000000 
#    z 0.089390 0.000000 4.449890 
# 
# 
# High freq. dielectric constant tensor:
#      x y z
#    x 1.816210 0.000000 -0.001940 
#    y 0.000000 1.832260 0.000000 
#    z -0.001940 0.000000 1.872690 
# 
# From -- ./inp_files/118150.got.cif
#   From: 2010.06.25/outbox.cif.g09.slc.cpg/sg15_60_cif.got.tgz:118150.got - 2010.06.28 07:06:18.
