data_PCOD8132403
_publ_section_title
;
Structure prediction by ZEFSAII (Michael W. Deem and Ramdas Pophale) SiO2 
 PCOD8132403
Probable space group: C 2/C
;
_chemical_formula_sum "Si O2"
_cell_formula_units_Z 48
_cell_length_a 9.032998
_cell_length_b 26.698895
_cell_length_c 14.529502
_cell_angle_alpha 90.000000
_cell_angle_beta 136.534349
_cell_angle_gamma 90.000000
_cell_volume 2410.535914
_symmetry_space_group_name_H-M "C 2/C"
_symmetry_group_IT_number 15
_symmetry_cell_setting 'monoclinic'
loop_
_space_group_symop_operation_xyz
x,y,z
-x,y,1/2-z
-x,-y,-z
x,-y,1/2+z
1/2+x,1/2+y,z
1/2-x,1/2+y,1/2-z
1/2-x,1/2-y,-z
1/2+x,1/2-y,1/2+z
loop_
_atom_site_type_symbol
_atom_site_label
_atom_site_fract_x
_atom_site_fract_y
_atom_site_fract_z
Si Si1 0.786362 0.487955 0.203732
Si Si2 0.682772 0.337840 0.635576
Si Si3 0.567746 0.856735 0.937472
Si Si4 0.560826 0.567485 0.439603
Si Si5 0.011540 0.554802 0.968914
Si Si6 0.754856 0.233917 0.606342
O O1 0.654108 0.535653 0.186108
O O2 0.000000 0.510032 0.250000
O O3 0.855605 0.446004 0.309787
O O4 0.639307 0.456791 0.069024
O O5 0.773881 0.355918 0.578221
O O6 0.480626 0.373362 0.563526
O O7 0.632845 0.277984 0.608668
O O8 0.835334 0.344379 0.792460
O O9 0.577495 0.910333 0.990456
O O10 0.629516 0.818797 0.049683
O O11 0.741153 0.567162 0.442573
O O12 0.000000 0.500000 0.000000
O O13 0.750000 0.250000 0.500000
O O14 0.000000 0.228053 0.750000
#
# Coordination Sequence:
#
# PCOD8132403 Si02
#       6
#     8   8   8   8   8   8
#     4   9  21  38  58  82 119 157 203 244 295 355
#     4  10  20  37  62  86 114 159 201 241 311 359
#     4  10  22  36  60  89 119 155 197 256 297 355
#     4  10  22  39  61  83 116 165 200 240 308 365
#     4  11  24  39  56  89 127 154 203 255 294 361
#     4  10  18  37  59  90 118 150 205 254 298 360
#
# _framework density 19.912585
#
# number of rings (size 3 to 8) (size 9 to 14) (size 15 to 20)
#    0.000    2.000    3.333    1.000    9.333    5.333 
#    0.000    0.833    0.000    0.000    0.000    0.000 
#    0.000    0.000    0.000    0.000    0.000    0.000 
#
# Total GULP energy -297378.110247 kJ/mol
# GULP energy per Si atom -12390.754594 kJ/mol
# Density = 1.986726 g / cm^3
# Si number density = 19.912585 Si / 1000 Ang^3
#
#
#
# Elastic Constant Matrix: (Units=GPa)
#
#
# Indices 1 2 3 4 5 6 
#
# 1 61.3718 44.4367 36.1869 0.0000 3.3803 0.0000
# 2 44.4367 157.1786 47.9520 0.0000 2.9133 0.0000
# 3 36.1869 47.9520 93.3854 0.0000 0.9261 0.0000
# 4 0.0000 0.0000 0.0000 30.5685 0.0000 -3.4927
# 5 3.3803 2.9133 0.9261 0.0000 27.5079 0.0000
# 6 0.0000 0.0000 0.0000 -3.4927 0.0000 36.8494
#
#
#
# Elastic Compliance Matrix: (Units=1/GPa)
#
#
# Indices 1 2 3 4 5 6 
#
# 1 0.023770 -0.004596 -0.006829 0.000000 -0.002204 0.000000
# 2 -0.004596 0.008445 -0.002553 0.000000 -0.000244 0.000000
# 3 -0.006829 -0.002553 0.014659 0.000000 0.000616 0.000000
# 4 0.000000 0.000000 0.000000 0.033072 0.000000 0.003135
# 5 -0.002204 -0.000244 0.000616 0.000000 0.036629 0.000000
# 6 0.000000 0.000000 0.000000 0.003135 0.000000 0.027435
#
#
# Mechanical properties :
#
#
# Convention : Reuss Voigt Hill
#
# Bulk Modulus (GPa) = 52.85886 63.23187 58.04537
# Shear Modulus (GPa) = 28.04714 31.20918 29.62816
#
# Velocity S-wave (km/s) = 3.75709 3.96322 3.86153
# Velocity P-wave (km/s) = 6.73973 7.26405 7.00680
#
# Compressibility (1/GPa) = 0.01891830
#
# Stress axis : x y z
#
# Youngs Moduli (GPa) = 42.07014 118.41490 68.21553
#
# Poissons Ratio (x) = 0.54421 0.46585
# Poissons Ratio (y) = 0.19335 0.17416
# Poissons Ratio (z) = 0.28730 0.30232
#
# Static dielectric constant tensor:
#      x y z
#    x 3.523340 0.000000 -0.159460 
#    y 0.000000 3.444310 0.000000 
#    z -0.159460 0.000000 3.622190 
# 
# 
# High freq. dielectric constant tensor:
#      x y z
#    x 1.742370 0.000000 -0.012110 
#    y 0.000000 1.780680 0.000000 
#    z -0.012110 0.000000 1.792120 
# 
# From -- ./inp_files/139000.got.cif
#   From: 2010.06.25/outbox.cif.g09.slc.cpg/sg15_70_cif.got.tgz:139000.got - 2010.06.28 07:06:18.
