data_PCOD8132061
_publ_section_title
;
Structure prediction by ZEFSAII (Michael W. Deem and Ramdas Pophale) SiO2 
 PCOD8132061
Probable space group: C 2/C
;
_chemical_formula_sum "Si O2"
_cell_formula_units_Z 56
_cell_length_a 12.781074
_cell_length_b 16.375102
_cell_length_c 14.589824
_cell_angle_alpha 90.000000
_cell_angle_beta 112.441577
_cell_angle_gamma 90.000000
_cell_volume 2822.278890
_symmetry_space_group_name_H-M "C 2/C"
_symmetry_group_IT_number 15
_symmetry_cell_setting 'monoclinic'
loop_
_space_group_symop_operation_xyz
x,y,z
-x,y,1/2-z
-x,-y,-z
x,-y,1/2+z
1/2+x,1/2+y,z
1/2-x,1/2+y,1/2-z
1/2-x,1/2-y,-z
1/2+x,1/2-y,1/2+z
loop_
_atom_site_type_symbol
_atom_site_label
_atom_site_fract_x
_atom_site_fract_y
_atom_site_fract_z
Si Si1 0.189391 0.502165 0.025444
Si Si2 0.373579 0.473254 0.729170
Si Si3 0.687956 0.440861 0.117014
Si Si4 0.511982 0.120182 0.496523
Si Si5 0.152929 0.789375 0.842144
Si Si6 0.102577 0.222831 0.530533
Si Si7 0.901488 0.635345 0.775634
O O1 0.280011 0.479147 0.135639
O O2 0.104568 0.428111 0.965469
O O3 0.263331 0.527924 0.962721
O O4 0.109944 0.575727 0.036297
O O5 0.500000 0.504218 0.750000
O O6 0.361173 0.487678 0.835015
O O7 0.358353 0.378688 0.702493
O O8 0.594173 0.369520 0.066829
O O9 0.783397 0.401963 0.210269
O O10 0.492627 0.214760 0.459730
O O11 0.576476 0.116920 0.613171
O O12 0.280610 0.764636 0.903645
O O13 0.098280 0.731548 0.747429
O O14 0.085911 0.779703 0.915505
O O15 0.000000 0.591274 0.750000
#
# Coordination Sequence:
#
# PCOD8132061 Si02
#       7
#     8   8   8   8   8   8   8
#     4  11  22  39  60  96 128 165 197 268 321 382
#     4  12  25  40  59  87 122 169 214 260 299 381
#     4  11  23  39  61  87 132 164 208 248 325 373
#     4  11  20  35  65  95 130 151 205 262 330 371
#     4  10  19  34  58  90 120 148 216 253 309 357
#     4  10  18  35  62  89 119 164 196 268 308 372
#     4  11  18  31  61  98 116 153 195 260 315 374
#
# _framework density 19.842120999999999
#
# number of rings (size 3 to 8) (size 9 to 14) (size 15 to 20)
#    0.000    1.143    7.143    1.286    0.000    0.571 
#    0.000    0.000    6.286    1.714    0.000    0.000 
#    0.000    0.000    0.000    0.000    0.000    0.000 
#
# Total GULP energy -346885.362604 kJ/mol
# GULP energy per Si atom -12388.762950 kJ/mol
# Density = 1.979696 g / cm^3
# Si number density = 19.842121 Si / 1000 Ang^3
#
#
#
# Elastic Constant Matrix: (Units=GPa)
#
#
# Indices 1 2 3 4 5 6 
#
# 1 72.8956 38.4965 28.9066 0.0000 -3.3528 0.0000
# 2 38.4965 101.1754 21.0185 0.0000 -9.0964 0.0000
# 3 28.9066 21.0185 70.9809 0.0000 7.0473 0.0000
# 4 0.0000 0.0000 0.0000 44.4079 0.0000 5.2493
# 5 -3.3528 -9.0964 7.0473 0.0000 20.6974 0.0000
# 6 0.0000 0.0000 0.0000 5.2493 0.0000 29.6710
#
#
#
# Elastic Compliance Matrix: (Units=1/GPa)
#
#
# Indices 1 2 3 4 5 6 
#
# 1 0.019495 -0.005815 -0.006497 0.000000 0.002814 0.000000
# 2 -0.005815 0.013009 -0.002027 0.000000 0.005465 0.000000
# 3 -0.006497 -0.002027 0.018140 0.000000 -0.008120 0.000000
# 4 0.000000 0.000000 0.000000 0.023000 0.000000 -0.004069
# 5 0.002814 0.005465 -0.008120 0.000000 0.053938 0.000000
# 6 0.000000 0.000000 0.000000 -0.004069 0.000000 0.034423
#
#
# Mechanical properties :
#
#
# Convention : Reuss Voigt Hill
#
# Bulk Modulus (GPa) = 45.52201 46.87722 46.19962
# Shear Modulus (GPa) = 25.25213 29.39730 27.32472
#
# Velocity S-wave (km/s) = 3.57130 3.85328 3.71496
# Velocity P-wave (km/s) = 6.32435 6.59344 6.46030
#
# Compressibility (1/GPa) = 0.02196740
#
# Stress axis : x y z
#
# Youngs Moduli (GPa) = 51.29565 76.87129 55.12586
#
# Poissons Ratio (x) = 0.44700 0.35814
# Poissons Ratio (y) = 0.29828 0.11172
# Poissons Ratio (z) = 0.33325 0.15579
#
# Static dielectric constant tensor:
#      x y z
#    x 3.562100 0.000000 0.285080 
#    y 0.000000 3.810690 0.000000 
#    z 0.285080 0.000000 3.861490 
# 
# 
# High freq. dielectric constant tensor:
#      x y z
#    x 1.751030 0.000000 0.030970 
#    y 0.000000 1.765810 0.000000 
#    z 0.030970 0.000000 1.778490 
# 
# From -- ./inp_files/145740.got.cif
#   From: 2010.06.25/outbox.cif.g09.slc.cpg/sg15_73_cif.got.tgz:145740.got - 2010.06.28 07:06:18.
