data_PCOD8132691
_publ_section_title
;
Structure prediction by ZEFSAII (Michael W. Deem and Ramdas Pophale) SiO2 
 PCOD8132691
Probable space group: C 2/C
;
_chemical_formula_sum "Si O2"
_cell_formula_units_Z 44
_cell_length_a 9.890418
_cell_length_b 26.887123
_cell_length_c 16.279394
_cell_angle_alpha 90.000000
_cell_angle_beta 148.721917
_cell_angle_gamma 90.000000
_cell_volume 2247.632967
_symmetry_space_group_name_H-M "C 2/C"
_symmetry_group_IT_number 15
_symmetry_cell_setting 'monoclinic'
loop_
_space_group_symop_operation_xyz
x,y,z
-x,y,1/2-z
-x,-y,-z
x,-y,1/2+z
1/2+x,1/2+y,z
1/2-x,1/2+y,1/2-z
1/2-x,1/2-y,-z
1/2+x,1/2-y,1/2+z
loop_
_atom_site_type_symbol
_atom_site_label
_atom_site_fract_x
_atom_site_fract_y
_atom_site_fract_z
Si Si1 0.000000 0.383789 0.750000
Si Si2 0.012586 0.058432 0.498295
Si Si3 0.152986 0.637861 0.748650
Si Si4 0.860553 0.885230 0.591679
Si Si5 0.028590 0.228877 0.945060
Si Si6 0.231363 0.808521 0.716148
O O1 0.244341 0.418698 0.891577
O O2 0.044396 0.348255 0.693471
O O3 0.230751 0.083724 0.668461
O O4 0.071766 0.069094 0.433273
O O5 0.000000 0.000000 0.500000
O O6 0.383086 0.676902 0.844106
O O7 0.000000 0.658315 0.750000
O O8 0.951225 0.626516 0.568301
O O9 0.000000 0.897418 0.750000
O O10 0.973622 0.835418 0.611284
O O11 0.816518 0.272976 0.834721
O O12 0.250000 0.250000 0.000000
O O13 0.158748 0.225247 0.100769
#
# Coordination Sequence:
#
# PCOD8132691 Si02
#       6
#     4   8   8   8   8   8
#     4  10  18  40  58  92 122 150 214 252 308 376
#     4  10  21  38  71  91 114 166 206 261 320 380
#     4  10  20  40  60  88 125 160 215 259 308 383
#     4  10  23  42  60  89 130 161 208 264 309 372
#     4  12  21  37  58  88 123 167 210 263 311 372
#     4  11  22  37  59  87 125 169 207 256 308 370
#
# _framework density 19.576149000000001
#
# number of rings (size 3 to 8) (size 9 to 14) (size 15 to 20)
#    0.000    1.455    7.273    0.000    6.364    1.455 
#    0.000    0.909    0.000    0.000    0.000    0.000 
#    0.000    0.000    0.000    0.000    0.000    0.000 
#
# Total GULP energy -272589.213621 kJ/mol
# GULP energy per Si atom -12390.418801 kJ/mol
# Density = 1.953159 g / cm^3
# Si number density = 19.576149 Si / 1000 Ang^3
#
#
#
# Elastic Constant Matrix: (Units=GPa)
#
#
# Indices 1 2 3 4 5 6 
#
# 1 64.6031 44.9290 53.7828 0.0000 3.8267 0.0000
# 2 44.9290 154.6645 54.1771 0.0000 4.2987 0.0000
# 3 53.7828 54.1771 133.1728 0.0001 2.6691 0.0002
# 4 0.0000 0.0000 0.0001 27.5213 0.0001 -4.7670
# 5 3.8267 4.2987 2.6691 0.0001 28.0539 0.0000
# 6 0.0000 0.0000 0.0002 -4.7670 0.0000 18.1324
#
#
#
# Elastic Compliance Matrix: (Units=1/GPa)
#
#
# Indices 1 2 3 4 5 6 
#
# 1 0.025836 -0.004441 -0.008587 0.000000 -0.002027 0.000000
# 2 -0.004441 0.008325 -0.001583 0.000000 -0.000519 0.000000
# 3 -0.008587 -0.001583 0.011615 0.000000 0.000309 0.000000
# 4 0.000000 0.000000 0.000000 0.038069 0.000000 0.010008
# 5 -0.002027 -0.000519 0.000309 0.000000 0.035972 0.000000
# 6 0.000000 0.000000 0.000000 0.010008 0.000000 0.057781
#
#
# Mechanical properties :
#
#
# Convention : Reuss Voigt Hill
#
# Bulk Modulus (GPa) = 60.40700 73.13535 66.77117
# Shear Modulus (GPa) = 23.54745 28.04497 25.79621
#
# Velocity S-wave (km/s) = 3.47200 3.78909 3.63400
# Velocity P-wave (km/s) = 6.85547 7.52220 7.19656
#
# Compressibility (1/GPa) = 0.01655437
#
# Stress axis : x y z
#
# Youngs Moduli (GPa) = 38.70495 120.12722 86.09889
#
# Poissons Ratio (x) = 0.53350 0.73932
# Poissons Ratio (y) = 0.17189 0.13626
# Poissons Ratio (z) = 0.33236 0.19011
#
# Static dielectric constant tensor:
#      x y z
#    x 3.946400 0.000000 -0.054490 
#    y 0.000000 3.626920 0.000000 
#    z -0.054490 0.000000 4.111730 
# 
# 
# High freq. dielectric constant tensor:
#      x y z
#    x 1.738630 0.000000 0.025410 
#    y 0.000000 1.754710 0.000000 
#    z 0.025410 0.000000 1.776980 
# 
# From -- ./inp_files/138804.got.cif
#   From: 2010.06.25/outbox.cif.g09.slc.cpg/sg15_70_cif.got.tgz:138804.got - 2010.06.28 07:06:18.
