data_PCOD8132950
_publ_section_title
;
Structure prediction by ZEFSAII (Michael W. Deem and Ramdas Pophale) SiO2 
 PCOD8132950
Probable space group: C 2/C
;
_chemical_formula_sum "Si O2"
_cell_formula_units_Z 56
_cell_length_a 26.347295
_cell_length_b 14.272189
_cell_length_c 25.113847
_cell_angle_alpha 90.000000
_cell_angle_beta 18.788581
_cell_angle_gamma 90.000000
_cell_volume 3041.582557
_symmetry_space_group_name_H-M "C 2/C"
_symmetry_group_IT_number 15
_symmetry_cell_setting 'monoclinic'
loop_
_space_group_symop_operation_xyz
x,y,z
-x,y,1/2-z
-x,-y,-z
x,-y,1/2+z
1/2+x,1/2+y,z
1/2-x,1/2+y,1/2-z
1/2-x,1/2-y,-z
1/2+x,1/2-y,1/2+z
loop_
_atom_site_type_symbol
_atom_site_label
_atom_site_fract_x
_atom_site_fract_y
_atom_site_fract_z
Si Si1 0.100365 0.208158 0.922131
Si Si2 0.858936 0.515936 0.588041
Si Si3 0.816375 0.636524 0.537727
Si Si4 0.595784 0.127499 0.856866
Si Si5 0.688970 0.844051 0.674117
Si Si6 0.186153 0.145502 0.559684
Si Si7 0.199765 0.869446 0.823785
O O1 0.217422 0.140578 0.840891
O O2 0.215354 0.270296 0.771434
O O3 0.995075 0.274695 0.064687
O O4 0.988441 0.144288 0.996415
O O5 0.760590 0.561563 0.637717
O O6 0.927815 0.599690 0.556666
O O7 0.749605 0.449288 0.732542
O O8 0.006560 0.457179 0.415029
O O9 0.731477 0.734525 0.632565
O O10 0.766634 0.592581 0.529859
O O11 0.002352 0.648768 0.357932
O O12 0.761477 0.895375 0.549672
O O13 0.760932 0.896750 0.654353
O O14 0.250000 0.250000 0.500000
O O15 0.000000 0.142119 0.750000
#
# Coordination Sequence:
#
# PCOD8132950 Si02
#       7
#     8   8   8   8   8   8   8
#     4   9  17  30  47  64  92 131 169 195 231 288
#     4  10  20  31  44  67 101 130 160 202 250 291
#     4  11  20  33  50  69  97 131 165 207 245 282
#     4   9  17  30  43  63  88 126 163 195 237 286
#     4  11  19  31  51  69  91 129 172 201 235 288
#     4  10  20  33  49  69  91 121 169 208 234 276
#     4  10  19  31  48  71  97 134 167 201 242 292
#
# _framework density 18.411467999999999
#
# number of rings (size 3 to 8) (size 9 to 14) (size 15 to 20)
#    0.000    2.000    0.000    9.000    0.000    1.714 
#    0.000    2.857    0.000    0.000    0.000    0.000 
#    0.000    0.000    0.000  330.429    0.000    0.000 
#
# Total GULP energy -346914.890303 kJ/mol
# GULP energy per Si atom -12389.817511 kJ/mol
# Density = 1.836956 g / cm^3
# Si number density = 18.411468 Si / 1000 Ang^3
#
#
#
# Elastic Constant Matrix: (Units=GPa)
#
#
# Indices 1 2 3 4 5 6 
#
# 1 113.1938 41.2297 31.8737 0.0306 2.4727 -0.0031
# 2 41.2297 60.6430 30.0877 0.0331 -4.0353 -0.0063
# 3 31.8737 30.0877 97.2760 0.0579 -15.9515 -0.0134
# 4 0.0306 0.0331 0.0579 19.7704 -0.0143 -3.5503
# 5 2.4727 -4.0353 -15.9515 -0.0143 29.4351 0.0012
# 6 -0.0031 -0.0063 -0.0134 -3.5503 0.0012 25.9460
#
#
#
# Elastic Compliance Matrix: (Units=1/GPa)
#
#
# Indices 1 2 3 4 5 6 
#
# 1 0.012244 -0.007425 -0.002251 -0.000003 -0.003266 -0.000002
# 2 -0.007425 0.023993 -0.004771 -0.000014 0.001328 0.000001
# 3 -0.002251 -0.004771 0.013628 -0.000023 0.006920 0.000002
# 4 -0.000003 -0.000014 -0.000023 0.051855 0.000011 0.007096
# 5 -0.003266 0.001328 0.006920 0.000011 0.038180 0.000003
# 6 -0.000002 0.000001 0.000002 0.007096 0.000003 0.039513
#
#
# Mechanical properties :
#
#
# Convention : Reuss Voigt Hill
#
# Bulk Modulus (GPa) = 47.68200 53.05499 50.36849
# Shear Modulus (GPa) = 23.22380 26.22507 24.72444
#
# Velocity S-wave (km/s) = 3.55544 3.77820 3.66851
# Velocity P-wave (km/s) = 6.54286 6.92184 6.73502
#
# Compressibility (1/GPa) = 0.02097227
#
# Stress axis : x y z
#
# Youngs Moduli (GPa) = 81.67214 41.67835 73.37861
#
# Poissons Ratio (x) = 0.30946 0.16517
# Poissons Ratio (y) = 0.60641 0.35006
# Poissons Ratio (z) = 0.18384 0.19883
#
# Static dielectric constant tensor:
#      x y z
#    x 3.777720 -0.000030 -0.199460 
#    y -0.000030 3.326180 0.000100 
#    z -0.199460 0.000100 3.547930 
# 
# 
# High freq. dielectric constant tensor:
#      x y z
#    x 1.682350 0.000000 -0.025460 
#    y 0.000000 1.681000 0.000000 
#    z -0.025460 0.000000 1.728230 
# 
# From -- ./inp_files/282090.got.cif
#   From: 2010.06.25/outbox.cif.g09.slc.cpg/sg15_142_cif.got.tgz:282090.got - 2010.06.28 07:06:18.
