data_PCOD8132876
_publ_section_title
;
Structure prediction by ZEFSAII (Michael W. Deem and Ramdas Pophale) SiO2 
 PCOD8132876
Probable space group: C 2/C
;
_chemical_formula_sum "Si O2"
_cell_formula_units_Z 48
_cell_length_a 4.942395
_cell_length_b 24.087971
_cell_length_c 22.457993
_cell_angle_alpha 90.000000
_cell_angle_beta 81.732493
_cell_angle_gamma 90.000000
_cell_volume 2645.888810
_symmetry_space_group_name_H-M "C 2/C"
_symmetry_group_IT_number 15
_symmetry_cell_setting 'monoclinic'
loop_
_space_group_symop_operation_xyz
x,y,z
-x,y,1/2-z
-x,-y,-z
x,-y,1/2+z
1/2+x,1/2+y,z
1/2-x,1/2+y,1/2-z
1/2-x,1/2-y,-z
1/2+x,1/2-y,1/2+z
loop_
_atom_site_type_symbol
_atom_site_label
_atom_site_fract_x
_atom_site_fract_y
_atom_site_fract_z
Si Si1 0.477753 0.292647 0.066328
Si Si2 0.420785 0.075754 0.817345
Si Si3 0.776168 0.498409 0.923274
Si Si4 0.984356 0.321069 0.504645
Si Si5 0.233886 0.935206 0.535439
Si Si6 0.573551 0.650326 0.682032
O O1 0.703985 0.332447 0.026537
O O2 0.511012 0.301438 0.136124
O O3 0.177892 0.305963 0.050716
O O4 0.518196 0.227583 0.052072
O O5 0.500000 0.053269 0.750000
O O6 0.417436 0.022481 0.859873
O O7 0.618545 0.126411 0.831189
O O8 0.113438 0.097752 0.826851
O O9 0.530053 0.454563 0.917528
O O10 0.004180 0.467372 0.951981
O O11 0.669881 0.549627 0.968077
O O12 0.818099 0.371000 0.540631
O O13 0.500000 0.674333 0.750000
#
# Coordination Sequence:
#
# PCOD8132876 Si02
#       6
#     8   8   8   8   8   8
#     4  10  19  32  50  72  99 129 159 199 248 293
#     4  10  20  33  50  73  99 128 161 200 246 295
#     4  10  19  30  47  69  95 127 157 196 240 282
#     4  10  20  32  49  72  99 130 162 199 244 294
#     4  10  19  30  46  70  97 125 159 195 238 285
#     4  10  19  31  50  74  98 125 159 201 248 295
#
# _framework density 18.141352999999999
#
# number of rings (size 3 to 8) (size 9 to 14) (size 15 to 20)
#    0.000    2.000    0.000    5.000    0.000    2.667 
#    0.000    0.000    0.000    1.000    0.000    7.000 
#    0.000    0.000    0.000    0.000    0.000    0.000 
#
# Total GULP energy -297432.613633 kJ/mol
# GULP energy per Si atom -12393.025568 kJ/mol
# Density = 1.810006 g / cm^3
# Si number density = 18.141353 Si / 1000 Ang^3
#
#
#
# Elastic Constant Matrix: (Units=GPa)
#
#
# Indices 1 2 3 4 5 6 
#
# 1 89.0795 18.5528 33.8698 0.0000 -0.0746 0.0000
# 2 18.5528 86.2589 45.5310 0.0000 -4.9435 0.0000
# 3 33.8698 45.5310 137.3231 0.0000 16.1148 0.0000
# 4 0.0000 0.0000 0.0000 36.9706 0.0000 3.2754
# 5 -0.0746 -4.9435 16.1148 0.0000 26.6216 0.0000
# 6 0.0000 0.0000 0.0000 3.2754 0.0000 26.3046
#
#
#
# Elastic Compliance Matrix: (Units=1/GPa)
#
#
# Indices 1 2 3 4 5 6 
#
# 1 0.012565 -0.001059 -0.002938 0.000000 0.001617 0.000000
# 2 -0.001059 0.015041 -0.005439 0.000000 0.006083 0.000000
# 3 -0.002938 -0.005439 0.010689 0.000000 -0.007489 0.000000
# 4 0.000000 0.000000 0.000000 0.027350 0.000000 -0.003406
# 5 0.001617 0.006083 -0.007489 0.000000 0.043231 0.000000
# 6 0.000000 0.000000 0.000000 -0.003406 0.000000 0.038440
#
#
# Mechanical properties :
#
#
# Convention : Reuss Voigt Hill
#
# Bulk Modulus (GPa) = 51.48836 56.50763 53.99800
# Shear Modulus (GPa) = 28.95837 32.29322 30.62579
#
# Velocity S-wave (km/s) = 3.99966 4.22369 4.11320
# Velocity P-wave (km/s) = 7.05500 7.41635 7.23793
#
# Compressibility (1/GPa) = 0.01942187
#
# Stress axis : x y z
#
# Youngs Moduli (GPa) = 79.58743 66.48688 93.55507
#
# Poissons Ratio (x) = 0.07043 0.27482
# Poissons Ratio (y) = 0.08431 0.50888
# Poissons Ratio (z) = 0.23379 0.36165
#
# Static dielectric constant tensor:
#      x y z
#    x 3.600980 0.000000 0.043650 
#    y 0.000000 2.895750 0.000000 
#    z 0.043650 0.000000 3.337470 
# 
# 
# High freq. dielectric constant tensor:
#      x y z
#    x 1.731450 0.000000 0.003330 
#    y 0.000000 1.673710 0.000000 
#    z 0.003330 0.000000 1.678800 
# 
# From -- ./inp_files/227716.got.cif
#   From: 2010.06.25/outbox.cif.g09.slc.cpg/sg15_114_cif.got.tgz:227716.got - 2010.06.28 07:06:18.
