data_PCOD8132185
_publ_section_title
;
Structure prediction by ZEFSAII (Michael W. Deem and Ramdas Pophale) SiO2 
 PCOD8132185
Probable space group: C 2/C
;
_chemical_formula_sum "Si O2"
_cell_formula_units_Z 64
_cell_length_a 29.208583
_cell_length_b 20.616194
_cell_length_c 16.104694
_cell_angle_alpha 90.000000
_cell_angle_beta 19.683081
_cell_angle_gamma 90.000000
_cell_volume 3266.372903
_symmetry_space_group_name_H-M "C 2/C"
_symmetry_group_IT_number 15
_symmetry_cell_setting 'monoclinic'
loop_
_space_group_symop_operation_xyz
x,y,z
-x,y,1/2-z
-x,-y,-z
x,-y,1/2+z
1/2+x,1/2+y,z
1/2-x,1/2+y,1/2-z
1/2-x,1/2-y,-z
1/2+x,1/2-y,1/2+z
loop_
_atom_site_type_symbol
_atom_site_label
_atom_site_fract_x
_atom_site_fract_y
_atom_site_fract_z
Si Si1 0.165754 0.402179 0.625086
Si Si2 0.508589 0.212545 0.329905
Si Si3 0.775314 0.871834 0.754343
Si Si4 0.103647 0.530989 0.640336
Si Si5 0.498813 0.277972 0.890259
Si Si6 0.553882 0.665183 0.845550
Si Si7 0.208675 0.230015 0.897290
Si Si8 0.575932 0.131623 0.455709
O O1 0.158031 0.475438 0.607329
O O2 0.322351 0.384016 0.367443
O O3 0.087055 0.396895 0.845418
O O4 0.091653 0.354252 0.687094
O O5 0.500000 0.236859 0.250000
O O6 0.594699 0.265852 0.234636
O O7 0.361470 0.203987 0.624926
O O8 0.703104 0.807867 0.914808
O O9 0.724925 0.873600 0.744590
O O10 0.936965 0.865673 0.487083
O O11 0.732130 0.936956 0.875404
O O12 0.000000 0.500644 0.750000
O O13 0.030742 0.588066 0.813821
O O14 0.495853 0.325003 0.974756
O O15 0.376632 0.295179 0.035980
O O16 0.482439 0.204225 0.948829
O O17 0.640970 0.292911 0.599658
#
# Coordination Sequence:
#
# PCOD8132185 Si02
#       8
#     8   8   8   8   8   8   8   8
#     4  12  24  36  56  85 118 156 183 237 290 344
#     4  11  23  36  54  87 125 154 187 227 292 349
#     4   9  20  37  59  83 106 151 191 240 278 333
#     4  10  21  41  61  80 107 145 197 242 285 337
#     4  10  18  36  58  87 115 145 195 236 286 333
#     4  11  24  35  57  87 120 154 185 235 289 348
#     4   9  19  34  60  83 115 154 186 239 279 337
#     4  10  20  37  60  82 113 144 200 240 277 339
#
# _framework density 19.593598
#
# number of rings (size 3 to 8) (size 9 to 14) (size 15 to 20)
#    0.000    1.750    2.500    1.875    5.250    3.500 
#    0.000    0.000    0.000    1.500    0.000    0.000 
#    0.000    0.000    0.000    0.000    0.000    0.000 
#
# Total GULP energy -396783.839854 kJ/mol
# GULP energy per Si atom -12399.494995 kJ/mol
# Density = 1.954900 g / cm^3
# Si number density = 19.593598 Si / 1000 Ang^3
#
#
#
# Elastic Constant Matrix: (Units=GPa)
#
#
# Indices 1 2 3 4 5 6 
#
# 1 67.5939 8.7926 16.6107 -0.0021 -1.2470 -0.0001
# 2 8.7926 45.3176 8.8085 -0.0021 -13.6126 0.0007
# 3 16.6107 8.8085 65.4817 -0.0039 -9.9560 0.0009
# 4 -0.0021 -0.0021 -0.0039 13.5635 0.0018 -1.6333
# 5 -1.2470 -13.6126 -9.9560 0.0018 36.1330 -0.0001
# 6 -0.0001 0.0007 0.0009 -1.6333 -0.0001 26.8559
#
#
#
# Elastic Compliance Matrix: (Units=1/GPa)
#
#
# Indices 1 2 3 4 5 6 
#
# 1 0.016104 -0.002838 -0.003947 0.000001 -0.001601 0.000000
# 2 -0.002838 0.025638 -0.001331 0.000002 0.009194 0.000000
# 3 -0.003947 -0.001331 0.017070 0.000003 0.004066 0.000000
# 4 0.000001 0.000002 0.000003 0.074271 -0.000002 0.004517
# 5 -0.001601 0.009194 0.004066 -0.000002 0.032204 0.000000
# 6 0.000000 0.000000 0.000000 0.004517 0.000000 0.037511
#
#
# Mechanical properties :
#
#
# Convention : Reuss Voigt Hill
#
# Bulk Modulus (GPa) = 23.48546 27.42409 25.45477
# Shear Modulus (GPa) = 21.43879 24.92255 23.18067
#
# Velocity S-wave (km/s) = 3.31142 3.57034 3.44332
# Velocity P-wave (km/s) = 5.16071 5.56986 5.36918
#
# Compressibility (1/GPa) = 0.04257954
#
# Stress axis : x y z
#
# Youngs Moduli (GPa) = 62.09724 39.00524 58.58298
#
# Poissons Ratio (x) = 0.11071 0.23121
# Poissons Ratio (y) = 0.17625 0.07797
# Poissons Ratio (z) = 0.24508 0.05191
#
# Static dielectric constant tensor:
#      x y z
#    x 3.789140 0.000000 -0.028720 
#    y 0.000000 3.226070 0.000000 
#    z -0.028720 0.000000 3.483470 
# 
# 
# High freq. dielectric constant tensor:
#      x y z
#    x 1.778010 0.000000 0.002210 
#    y 0.000000 1.728290 0.000000 
#    z 0.002210 0.000000 1.761230 
# 
# From -- ./inp_files/183126.got.cif
#   From: 2010.06.25/outbox.cif.g09.slc.cpg/sg15_92_cif.got.tgz:183126.got - 2010.06.28 07:06:18.
