data_PCOD8132098
_publ_section_title
;
Structure prediction by ZEFSAII (Michael W. Deem and Ramdas Pophale) SiO2 
 PCOD8132098
Probable space group: C 2/C
;
_chemical_formula_sum "Si O2"
_cell_formula_units_Z 44
_cell_length_a 14.306317
_cell_length_b 11.221611
_cell_length_c 16.354653
_cell_angle_alpha 90.000000
_cell_angle_beta 58.054009
_cell_angle_gamma 90.000000
_cell_volume 2227.924209
_symmetry_space_group_name_H-M "C 2/C"
_symmetry_group_IT_number 15
_symmetry_cell_setting 'monoclinic'
loop_
_space_group_symop_operation_xyz
x,y,z
-x,y,1/2-z
-x,-y,-z
x,-y,1/2+z
1/2+x,1/2+y,z
1/2-x,1/2+y,1/2-z
1/2-x,1/2-y,-z
1/2+x,1/2-y,1/2+z
loop_
_atom_site_type_symbol
_atom_site_label
_atom_site_fract_x
_atom_site_fract_y
_atom_site_fract_z
Si Si1 0.080062 0.321020 0.600873
Si Si2 0.085020 0.107079 0.381193
Si Si3 0.500000 0.976827 0.250000
Si Si4 0.089244 0.839384 0.412559
Si Si5 0.322065 0.802866 0.260589
Si Si6 0.734090 0.219855 0.889188
O O1 0.038529 0.445011 0.655850
O O2 0.138984 0.241325 0.644306
O O3 0.169583 0.352396 0.489484
O O4 0.975745 0.251668 0.614483
O O5 0.110683 0.178296 0.284317
O O6 0.175795 0.149274 0.406623
O O7 0.965110 0.145429 0.472558
O O8 0.092416 0.966626 0.364551
O O9 0.398965 0.898240 0.267026
O O10 0.212835 0.787499 0.366809
O O11 0.277964 0.849448 0.191631
#
# Coordination Sequence:
#
# PCOD8132098 Si02
#       6
#     8   8   4   8   8   8
#     4  10  19  34  63  91 110 152 200 243 303 351
#     4   8  19  38  57  86 122 151 193 240 305 347
#     4  12  24  36  56  82 126 162 198 246 292 352
#     4  10  18  35  66  86 117 153 194 254 294 354
#     4  10  22  38  57  85 122 160 195 243 300 354
#     4   8  18  38  58  87 118 141 199 247 294 361
#
# _framework density 19.749324999999999
#
# number of rings (size 3 to 8) (size 9 to 14) (size 15 to 20)
#    1.091    1.455    0.000    2.182    2.545    2.182 
#    0.000    3.636    0.000    0.000    0.000    0.000 
#    0.000    0.000    0.000    0.000    0.000    0.000 
#
# Total GULP energy -272594.579656 kJ/mol
# GULP energy per Si atom -12390.662712 kJ/mol
# Density = 1.970437 g / cm^3
# Si number density = 19.749325 Si / 1000 Ang^3
#
#
#
# Elastic Constant Matrix: (Units=GPa)
#
#
# Indices 1 2 3 4 5 6 
#
# 1 110.1038 30.9132 28.2217 0.0000 -22.2918 0.0000
# 2 30.9132 90.1092 32.6621 0.0000 -19.0212 0.0000
# 3 28.2217 32.6621 67.3180 0.0000 -27.4310 0.0000
# 4 0.0000 0.0000 0.0000 31.0547 0.0000 6.2933
# 5 -22.2918 -19.0212 -27.4310 0.0000 34.2647 0.0000
# 6 0.0000 0.0000 0.0000 6.2933 0.0000 25.1852
#
#
#
# Elastic Compliance Matrix: (Units=1/GPa)
#
#
# Indices 1 2 3 4 5 6 
#
# 1 0.011072 -0.002211 -0.001683 0.000000 0.004628 0.000000
# 2 -0.002211 0.014169 -0.004940 0.000000 0.002472 0.000000
# 3 -0.001683 -0.004940 0.024331 0.000000 0.015641 0.000000
# 4 0.000000 0.000000 0.000000 0.033919 0.000000 -0.008476
# 5 0.004628 0.002472 0.015641 0.000000 0.046089 0.000000
# 6 0.000000 0.000000 0.000000 -0.008476 0.000000 0.041824
#
#
# Mechanical properties :
#
#
# Convention : Reuss Voigt Hill
#
# Bulk Modulus (GPa) = 31.34550 50.12498 40.73524
# Shear Modulus (GPa) = 25.03684 29.81653 27.42668
#
# Velocity S-wave (km/s) = 3.56438 3.88976 3.73062
# Velocity P-wave (km/s) = 5.73114 6.75347 6.26320
#
# Compressibility (1/GPa) = 0.03190251
#
# Stress axis : x y z
#
# Youngs Moduli (GPa) = 90.32165 70.57784 41.10026
#
# Poissons Ratio (x) = 0.15607 0.06916
# Poissons Ratio (y) = 0.19973 0.20305
# Poissons Ratio (z) = 0.15198 0.34867
#
# Static dielectric constant tensor:
#      x y z
#    x 3.466570 0.000000 -0.230350 
#    y 0.000000 3.255490 0.000000 
#    z -0.230350 0.000000 3.656800 
# 
# 
# High freq. dielectric constant tensor:
#      x y z
#    x 1.759440 0.000000 -0.024100 
#    y 0.000000 1.740100 0.000000 
#    z -0.024100 0.000000 1.773150 
# 
# From -- ./inp_files/203445.got.cif
#   From: 2010.06.25/outbox.cif.g09.slc.cpg/sg15_102_cif.got.tgz:203445.got - 2010.06.28 07:06:18.
