data_PCOD8132490
_publ_section_title
;
Structure prediction by ZEFSAII (Michael W. Deem and Ramdas Pophale) SiO2 
 PCOD8132490
Probable space group: C 2/C
;
_chemical_formula_sum "Si O2"
_cell_formula_units_Z 64
_cell_length_a 16.922466
_cell_length_b 22.907163
_cell_length_c 17.048647
_cell_angle_alpha 90.000000
_cell_angle_beta 147.808894
_cell_angle_gamma 90.000000
_cell_volume 3520.822966
_symmetry_space_group_name_H-M "C 2/C"
_symmetry_group_IT_number 15
_symmetry_cell_setting 'monoclinic'
loop_
_space_group_symop_operation_xyz
x,y,z
-x,y,1/2-z
-x,-y,-z
x,-y,1/2+z
1/2+x,1/2+y,z
1/2-x,1/2+y,1/2-z
1/2-x,1/2-y,-z
1/2+x,1/2-y,1/2+z
loop_
_atom_site_type_symbol
_atom_site_label
_atom_site_fract_x
_atom_site_fract_y
_atom_site_fract_z
Si Si1 0.987035 0.603896 0.101248
Si Si2 0.155575 0.553090 0.668056
Si Si3 0.877990 0.041174 0.208629
Si Si4 0.053839 0.478253 0.377817
Si Si5 0.969987 0.935390 0.396587
Si Si6 0.331945 0.218406 0.997220
Si Si7 0.960095 0.814648 0.308191
Si Si8 0.266779 0.571297 0.266676
O O1 0.992672 0.546484 0.159692
O O2 0.921285 0.658754 0.094750
O O3 0.156031 0.618609 0.212640
O O4 0.883386 0.591467 0.939852
O O5 0.325238 0.571497 0.831080
O O6 0.158973 0.483425 0.651018
O O7 0.037676 0.562288 0.638107
O O8 0.843454 0.089765 0.248120
O O9 0.000000 0.065157 0.250000
O O10 0.941453 0.983760 0.305774
O O11 0.730117 0.027100 0.035492
O O12 0.000000 0.453128 0.250000
O O13 0.005811 0.875601 0.383116
O O14 0.109846 0.951240 0.568427
O O15 0.451904 0.265382 0.068410
O O16 0.250000 0.250000 0.000000
O O17 0.214194 0.201388 0.830977
O O18 0.000000 0.815377 0.250000
#
# Coordination Sequence:
#
# PCOD8132490 Si02
#       8
#     8   8   8   8   8   8   8   8
#     4  11  19  39  57  69 108 155 192 237 281 328
#     4  10  18  38  53  71 107 146 193 238 274 338
#     4  11  21  33  48  76 114 140 176 232 278 332
#     4  11  22  32  52  81 107 145 193 227 282 347
#     4  11  21  34  55  74 106 149 188 225 284 329
#     4  10  22  37  54  75 105 144 188 241 274 320
#     4  10  21  37  51  74 108 140 186 232 275 321
#     4  10  21  34  54  78 102 145 194 230 276 350
#
# _framework density 18.177567
#
# number of rings (size 3 to 8) (size 9 to 14) (size 15 to 20)
#    0.000    1.500    5.000    2.625    7.000    2.500 
#    0.000    0.000    0.000    0.000    0.000    0.000 
#    0.000    6.000    0.000    0.000    0.000    0.000 
#
# Total GULP energy -396458.774386 kJ/mol
# GULP energy per Si atom -12389.336700 kJ/mol
# Density = 1.813619 g / cm^3
# Si number density = 18.177567 Si / 1000 Ang^3
#
#
#
# Elastic Constant Matrix: (Units=GPa)
#
#
# Indices 1 2 3 4 5 6 
#
# 1 95.0991 14.5270 40.6623 0.0000 11.6570 0.0000
# 2 14.5270 44.5937 8.1033 0.0000 4.8356 0.0000
# 3 40.6623 8.1033 98.7656 -0.0001 8.4023 0.0000
# 4 0.0000 0.0000 -0.0001 20.6461 0.0000 9.9106
# 5 11.6570 4.8356 8.4023 0.0000 32.6261 0.0000
# 6 0.0000 0.0000 0.0000 9.9106 0.0000 22.3608
#
#
#
# Elastic Compliance Matrix: (Units=1/GPa)
#
#
# Indices 1 2 3 4 5 6 
#
# 1 0.013534 -0.003158 -0.005052 0.000000 -0.003066 0.000000
# 2 -0.003158 0.023784 -0.000457 0.000000 -0.002279 0.000000
# 3 -0.005052 -0.000457 0.012354 0.000000 -0.001309 0.000000
# 4 0.000000 0.000000 0.000000 0.061525 0.000000 -0.027269
# 5 -0.003066 -0.002279 -0.001309 0.000000 0.032421 0.000000
# 6 0.000000 0.000000 0.000000 -0.027269 0.000000 0.056807
#
#
# Mechanical properties :
#
#
# Convention : Reuss Voigt Hill
#
# Bulk Modulus (GPa) = 30.92492 40.56042 35.74267
# Shear Modulus (GPa) = 21.87823 26.80431 24.34127
#
# Velocity S-wave (km/s) = 3.47303 3.84419 3.66332
# Velocity P-wave (km/s) = 5.75606 6.48580 6.13180
#
# Compressibility (1/GPa) = 0.03233638
#
# Stress axis : x y z
#
# Youngs Moduli (GPa) = 73.88932 42.04549 80.94714
#
# Poissons Ratio (x) = 0.13279 0.40894
# Poissons Ratio (y) = 0.23336 0.03701
# Poissons Ratio (z) = 0.37328 0.01922
#
# Static dielectric constant tensor:
#      x y z
#    x 3.551860 0.000000 0.327940 
#    y 0.000000 3.087770 0.000000 
#    z 0.327940 0.000000 3.753940 
# 
# 
# High freq. dielectric constant tensor:
#      x y z
#    x 1.691080 0.000000 0.021880 
#    y 0.000000 1.647750 0.000000 
#    z 0.021880 0.000000 1.729720 
# 
# From -- ./inp_files/212163.got.cif
#   From: 2010.06.25/outbox.cif.g09.slc.cpg/sg15_107_cif.got.tgz:212163.got - 2010.06.28 07:06:18.
