data_PCOD8132626
_publ_section_title
;
Structure prediction by ZEFSAII (Michael W. Deem and Ramdas Pophale) SiO2 
 PCOD8132626
Probable space group: C 2/C
;
_chemical_formula_sum "Si O2"
_cell_formula_units_Z 52
_cell_length_a 19.644945
_cell_length_b 26.678351
_cell_length_c 5.660918
_cell_angle_alpha 90.000000
_cell_angle_beta 127.841483
_cell_angle_gamma 90.000000
_cell_volume 2342.960027
_symmetry_space_group_name_H-M "C 2/C"
_symmetry_group_IT_number 15
_symmetry_cell_setting 'monoclinic'
loop_
_space_group_symop_operation_xyz
x,y,z
-x,y,1/2-z
-x,-y,-z
x,-y,1/2+z
1/2+x,1/2+y,z
1/2-x,1/2+y,1/2-z
1/2-x,1/2-y,-z
1/2+x,1/2-y,1/2+z
loop_
_atom_site_type_symbol
_atom_site_label
_atom_site_fract_x
_atom_site_fract_y
_atom_site_fract_z
Si Si1 0.000000 0.030227 0.250000
Si Si2 0.827822 0.187079 0.283129
Si Si3 0.086383 0.385216 0.297178
Si Si4 0.838317 0.090514 0.040739
Si Si5 0.223588 0.353560 0.944283
Si Si6 0.689634 0.028603 0.863871
Si Si7 0.143880 0.295656 0.154888
O O1 0.083469 0.065454 0.432220
O O2 0.000000 0.000000 0.500000
O O3 0.806059 0.175295 0.509053
O O4 0.886545 0.237477 0.394050
O O5 0.874165 0.139059 0.261793
O O6 0.737364 0.197280 0.966355
O O7 0.169940 0.384547 0.641537
O O8 0.112919 0.429796 0.176979
O O9 0.074781 0.331822 0.136551
O O10 0.000000 0.398500 0.250000
O O11 0.761440 0.106190 0.703279
O O12 0.787682 0.050729 0.096676
O O13 0.156779 0.313181 0.912633
O O14 0.677695 0.999467 0.590001
#
# Coordination Sequence:
#
# PCOD8132626 Si02
#       7
#     4   8   8   8   8   8   8
#     4  12  30  48  74 106 142 186 232 296 358 414
#     4   9  18  34  68  95 131 167 226 273 342 416
#     4  11  24  41  63  94 141 177 230 288 337 412
#     4  11  23  44  69 100 133 176 225 291 342 427
#     4  10  18  38  68  95 132 180 223 278 344 407
#     4  12  25  43  69  96 128 176 230 280 339 403
#     4   9  18  36  60 100 126 175 222 275 342 407
#
# _framework density 22.194148999999999
#
# number of rings (size 3 to 8) (size 9 to 14) (size 15 to 20)
#    0.000    1.538    4.615    2.308    2.154    2.462 
#    1.385    0.000    3.385    0.000    0.000    0.000 
#    0.000    0.000    0.000    0.000    0.000    0.000 
#
# Total GULP energy -322145.477575 kJ/mol
# GULP energy per Si atom -12390.210676 kJ/mol
# Density = 2.214363 g / cm^3
# Si number density = 22.194149 Si / 1000 Ang^3
#
#
#
# Elastic Constant Matrix: (Units=GPa)
#
#
# Indices 1 2 3 4 5 6 
#
# 1 151.4989 74.0828 23.5523 0.0000 -9.3280 0.0000
# 2 74.0828 130.8389 24.3375 0.0000 -5.5156 0.0000
# 3 23.5523 24.3375 47.2667 0.0000 -24.1995 0.0000
# 4 0.0000 0.0000 0.0000 8.4077 0.0000 -10.0568
# 5 -9.3280 -5.5156 -24.1995 0.0000 35.0618 0.0000
# 6 0.0000 0.0000 0.0000 -10.0568 0.0000 41.3585
#
#
#
# Elastic Compliance Matrix: (Units=1/GPa)
#
#
# Indices 1 2 3 4 5 6 
#
# 1 0.009321 -0.004904 -0.001925 0.000000 0.000380 0.000000
# 2 -0.004904 0.011187 -0.004769 0.000000 -0.002836 0.000000
# 3 -0.001925 -0.004769 0.036999 0.000000 0.024274 0.000000
# 4 0.000000 0.000000 0.000000 0.167721 0.000000 0.040783
# 5 0.000380 -0.002836 0.024274 0.000000 0.044930 0.000000
# 6 0.000000 0.000000 0.000000 0.040783 0.000000 0.034096
#
#
# Mechanical properties :
#
#
# Convention : Reuss Voigt Hill
#
# Bulk Modulus (GPa) = 29.14444 63.72775 46.43610
# Shear Modulus (GPa) = 14.75416 30.80773 22.78094
#
# Velocity S-wave (km/s) = 2.58112 3.72977 3.20728
# Velocity P-wave (km/s) = 4.69500 6.87927 5.88928
#
# Compressibility (1/GPa) = 0.03431186
#
# Stress axis : x y z
#
# Youngs Moduli (GPa) = 107.28101 89.38937 27.02746
#
# Poissons Ratio (x) = 0.43834 0.05204
# Poissons Ratio (y) = 0.52607 0.12889
# Poissons Ratio (z) = 0.20656 0.42628
#
# Static dielectric constant tensor:
#      x y z
#    x 4.210160 0.000000 -0.538730 
#    y 0.000000 4.531700 0.000000 
#    z -0.538730 0.000000 3.793890 
# 
# 
# High freq. dielectric constant tensor:
#      x y z
#    x 1.870610 0.000000 -0.032690 
#    y 0.000000 1.889140 0.000000 
#    z -0.032690 0.000000 1.839000 
# 
# From -- ./inp_files/14416.got.cif
#   From: 2010.06.25/outbox.cif.g09.slc.cpg/sg15_8_cif.got.tgz:14416.got - 2010.06.28 07:06:18.
