data_PCOD8132216
_publ_section_title
;
Structure prediction by ZEFSAII (Michael W. Deem and Ramdas Pophale) SiO2 
 PCOD8132216
Probable space group: C 2/C
;
_chemical_formula_sum "Si O2"
_cell_formula_units_Z 64
_cell_length_a 24.319264
_cell_length_b 19.180341
_cell_length_c 14.549520
_cell_angle_alpha 90.000000
_cell_angle_beta 153.051620
_cell_angle_gamma 90.000000
_cell_volume 3075.625194
_symmetry_space_group_name_H-M "C 2/C"
_symmetry_group_IT_number 15
_symmetry_cell_setting 'monoclinic'
loop_
_space_group_symop_operation_xyz
x,y,z
-x,y,1/2-z
-x,-y,-z
x,-y,1/2+z
1/2+x,1/2+y,z
1/2-x,1/2+y,1/2-z
1/2-x,1/2-y,-z
1/2+x,1/2-y,1/2+z
loop_
_atom_site_type_symbol
_atom_site_label
_atom_site_fract_x
_atom_site_fract_y
_atom_site_fract_z
Si Si1 0.137520 0.049765 0.451355
Si Si2 0.738800 0.824933 0.027374
Si Si3 0.283718 0.649155 0.076076
Si Si4 0.505388 0.855059 0.600792
Si Si5 0.777918 0.587697 0.160804
Si Si6 0.740947 0.340535 0.237355
Si Si7 0.813382 0.686143 0.378409
Si Si8 0.560105 0.777199 0.165544
O O1 0.172103 0.075625 0.399922
O O2 0.148795 0.112353 0.542113
O O3 0.000000 0.022662 0.250000
O O4 0.226975 0.987273 0.612082
O O5 0.591619 0.836200 0.815896
O O6 0.792292 0.881579 0.034179
O O7 0.750000 0.750000 0.000000
O O8 0.803034 0.833782 0.221898
O O9 0.218920 0.642854 0.078058
O O10 0.403704 0.697583 0.259364
O O11 0.182874 0.677164 0.854532
O O12 0.576621 0.914761 0.646375
O O13 0.372184 0.878795 0.432967
O O14 0.493554 0.786844 0.516635
O O15 0.756116 0.641609 0.211020
O O16 0.749523 0.262318 0.209482
O O17 0.958241 0.698139 0.586915
#
# Coordination Sequence:
#
# PCOD8132216 Si02
#       8
#     8   8   8   8   8   8   8   8
#     4  12  27  46  64  94 136 181 216 267 338 407
#     4  10  20  40  66  97 129 166 218 271 319 383
#     4  11  21  36  65  92 130 173 219 258 329 394
#     4   9  19  38  65  94 125 166 215 274 327 373
#     4   9  24  44  60  93 137 166 224 269 328 385
#     4  12  20  40  70 100 126 172 225 272 330 389
#     4  11  21  39  64  99 131 166 220 277 328 377
#     4  10  18  36  59  99 130 164 210 279 319 385
#
# _framework density 20.808778
#
# number of rings (size 3 to 8) (size 9 to 14) (size 15 to 20)
#    0.750    0.750    3.750    2.250    0.000    1.500 
#    2.250    1.250    2.750    0.000    0.000    0.000 
#    0.000    0.000    0.000    0.000    0.000    0.000 
#
# Total GULP energy -396478.261441 kJ/mol
# GULP energy per Si atom -12389.945670 kJ/mol
# Density = 2.076142 g / cm^3
# Si number density = 20.808778 Si / 1000 Ang^3
#
#
#
# Elastic Constant Matrix: (Units=GPa)
#
#
# Indices 1 2 3 4 5 6 
#
# 1 91.3889 29.4605 16.4519 0.0000 -3.5101 0.0000
# 2 29.4605 101.1910 23.7096 0.0000 4.4712 0.0000
# 3 16.4519 23.7096 61.9143 0.0000 5.4377 0.0000
# 4 0.0000 0.0000 0.0000 30.5869 0.0000 -3.4356
# 5 -3.5101 4.4712 5.4377 0.0000 40.4615 0.0000
# 6 0.0000 0.0000 0.0000 -3.4356 0.0000 22.6914
#
#
#
# Elastic Compliance Matrix: (Units=1/GPa)
#
#
# Indices 1 2 3 4 5 6 
#
# 1 0.012435 -0.003171 -0.002242 0.000000 0.001730 0.000000
# 2 -0.003171 0.011682 -0.003535 0.000000 -0.001091 0.000000
# 3 -0.002242 -0.003535 0.018299 0.000000 -0.002263 0.000000
# 4 0.000000 0.000000 0.000000 0.033259 0.000000 0.005036
# 5 0.001730 -0.001091 -0.002263 0.000000 0.025290 0.000000
# 6 0.000000 0.000000 0.000000 0.005036 0.000000 0.044832
#
#
# Mechanical properties :
#
#
# Convention : Reuss Voigt Hill
#
# Bulk Modulus (GPa) = 40.78303 43.74870 42.26587
# Shear Modulus (GPa) = 29.09232 31.07277 30.08254
#
# Velocity S-wave (km/s) = 3.74315 3.86846 3.80632
# Velocity P-wave (km/s) = 6.19056 6.40492 6.29865
#
# Compressibility (1/GPa) = 0.02452000
#
# Stress axis : x y z
#
# Youngs Moduli (GPa) = 80.42070 85.60102 54.64632
#
# Poissons Ratio (x) = 0.27148 0.12250
# Poissons Ratio (y) = 0.25505 0.19318
# Poissons Ratio (z) = 0.18027 0.30260
#
# Static dielectric constant tensor:
#      x y z
#    x 3.776230 0.000000 -0.040920 
#    y 0.000000 3.322350 0.000000 
#    z -0.040920 0.000000 3.817240 
# 
# 
# High freq. dielectric constant tensor:
#      x y z
#    x 1.823280 0.000000 -0.002100 
#    y 0.000000 1.772900 0.000000 
#    z -0.002100 0.000000 1.812570 
# 
# From -- ./inp_files/174267.got.cif
#   From: 2010.06.25/outbox.cif.g09.slc.cpg/sg15_88_cif.got.tgz:174267.got - 2010.06.28 07:06:18.
