data_PCOD8132153
_publ_section_title
;
Structure prediction by ZEFSAII (Michael W. Deem and Ramdas Pophale) SiO2 
 PCOD8132153
Probable space group: C 2/C
;
_chemical_formula_sum "Si O2"
_cell_formula_units_Z 44
_cell_length_a 14.863125
_cell_length_b 12.433793
_cell_length_c 13.283097
_cell_angle_alpha 90.000000
_cell_angle_beta 106.355353
_cell_angle_gamma 90.000000
_cell_volume 2355.447002
_symmetry_space_group_name_H-M "C 2/C"
_symmetry_group_IT_number 15
_symmetry_cell_setting 'monoclinic'
loop_
_space_group_symop_operation_xyz
x,y,z
-x,y,1/2-z
-x,-y,-z
x,-y,1/2+z
1/2+x,1/2+y,z
1/2-x,1/2+y,1/2-z
1/2-x,1/2-y,-z
1/2+x,1/2-y,1/2+z
loop_
_atom_site_type_symbol
_atom_site_label
_atom_site_fract_x
_atom_site_fract_y
_atom_site_fract_z
Si Si1 0.000000 0.866397 0.750000
Si Si2 0.055082 0.810067 0.369738
Si Si3 0.865077 0.585598 0.463949
Si Si4 0.036484 0.568099 0.368732
Si Si5 0.570962 0.314444 0.976537
Si Si6 0.337711 0.484620 0.614815
O O1 0.092653 0.942657 0.774717
O O2 0.994873 0.796357 0.644700
O O3 0.085931 0.685447 0.383282
O O4 0.000000 0.832286 0.250000
O O5 0.990726 0.837908 0.445091
O O6 0.146060 0.888036 0.399462
O O7 0.886300 0.516825 0.570764
O O8 0.861406 0.711650 0.488987
O O9 0.768218 0.542092 0.386565
O O10 0.945728 0.566484 0.409482
O O11 0.000000 0.530952 0.250000
O O12 0.637365 0.418214 0.979791
#
# Coordination Sequence:
#
# PCOD8132153 Si02
#       6
#     4   8   8   8   8   8
#     4   8  20  32  54  82 114 140 178 220 292 316
#     4  10  18  36  58  76 113 149 180 222 279 332
#     4  10  20  37  56  80 112 140 191 228 272 331
#     4   9  21  38  56  75 107 157 179 224 277 333
#     4   9  19  35  56  79 112 144 176 227 280 330
#     4  10  19  34  57  86 110 139 185 234 277 330
#
# _framework density 18.680105999999999
#
# number of rings (size 3 to 8) (size 9 to 14) (size 15 to 20)
#    1.091    1.455    0.909    1.091    1.273    0.727 
#    6.545    0.000   16.000    0.000    0.000    0.000 
#    0.000    0.000    0.000    0.000    0.000    0.000 
#
# Total GULP energy -272589.045369 kJ/mol
# GULP energy per Si atom -12390.411153 kJ/mol
# Density = 1.863759 g / cm^3
# Si number density = 18.680106 Si / 1000 Ang^3
#
#
#
# Elastic Constant Matrix: (Units=GPa)
#
#
# Indices 1 2 3 4 5 6 
#
# 1 68.4672 38.2676 24.5095 0.0000 25.3126 0.0000
# 2 38.2676 99.0574 25.2664 0.0000 11.2135 0.0000
# 3 24.5095 25.2664 98.2697 0.0000 -1.6726 0.0000
# 4 0.0000 0.0000 0.0000 18.2556 0.0000 -4.0250
# 5 25.3126 11.2135 -1.6726 0.0000 25.0955 0.0000
# 6 0.0000 0.0000 0.0000 -4.0250 0.0000 16.5449
#
#
#
# Elastic Compliance Matrix: (Units=1/GPa)
#
#
# Indices 1 2 3 4 5 6 
#
# 1 0.031900 -0.007326 -0.006572 0.000000 -0.029341 0.000000
# 2 -0.007326 0.013156 -0.001532 0.000000 0.001408 0.000000
# 3 -0.006572 -0.001532 0.012347 0.000000 0.008136 0.000000
# 4 0.000000 0.000000 0.000000 0.057882 0.000000 0.014081
# 5 -0.029341 0.001408 0.008136 0.000000 0.069355 0.000000
# 6 0.000000 0.000000 0.000000 0.014081 0.000000 0.063867
#
#
# Mechanical properties :
#
#
# Convention : Reuss Voigt Hill
#
# Bulk Modulus (GPa) = 37.67169 49.09791 43.38480
# Shear Modulus (GPa) = 17.34809 23.82926 20.58868
#
# Velocity S-wave (km/s) = 3.05075 3.57550 3.32350
# Velocity P-wave (km/s) = 5.71139 6.58682 6.16466
#
# Compressibility (1/GPa) = 0.02654513
#
# Stress axis : x y z
#
# Youngs Moduli (GPa) = 31.34794 76.00823 80.98821
#
# Poissons Ratio (x) = 0.55682 0.53226
# Poissons Ratio (y) = 0.22965 0.12404
# Poissons Ratio (z) = 0.20602 0.11641
#
# Static dielectric constant tensor:
#      x y z
#    x 3.048940 0.000000 0.007040 
#    y 0.000000 3.631660 0.000000 
#    z 0.007040 0.000000 3.418400 
# 
# 
# High freq. dielectric constant tensor:
#      x y z
#    x 1.694990 0.000000 -0.002300 
#    y 0.000000 1.734450 0.000000 
#    z -0.002300 0.000000 1.719560 
# 
# From -- ./inp_files/151437.got.cif
#   From: 2010.06.25/outbox.cif.g09.slc.cpg/sg15_76_cif.got.tgz:151437.got - 2010.06.28 07:06:18.
