data_PCOD8132169
_publ_section_title
;
Structure prediction by ZEFSAII (Michael W. Deem and Ramdas Pophale) SiO2 
 PCOD8132169
Probable space group: C 2/C
;
_chemical_formula_sum "Si O2"
_cell_formula_units_Z 48
_cell_length_a 28.416186
_cell_length_b 9.110434
_cell_length_c 19.431297
_cell_angle_alpha 90.000000
_cell_angle_beta 31.069082
_cell_angle_gamma 90.000000
_cell_volume 2596.069180
_symmetry_space_group_name_H-M "C 2/C"
_symmetry_group_IT_number 15
_symmetry_cell_setting 'monoclinic'
loop_
_space_group_symop_operation_xyz
x,y,z
-x,y,1/2-z
-x,-y,-z
x,-y,1/2+z
1/2+x,1/2+y,z
1/2-x,1/2+y,1/2-z
1/2-x,1/2-y,-z
1/2+x,1/2-y,1/2+z
loop_
_atom_site_type_symbol
_atom_site_label
_atom_site_fract_x
_atom_site_fract_y
_atom_site_fract_z
Si Si1 0.996943 0.647730 0.547572
Si Si2 0.564420 0.084867 0.725147
Si Si3 0.189441 0.183409 0.016748
Si Si4 0.270295 0.110079 0.430052
Si Si5 0.306519 0.192888 0.735916
Si Si6 0.807956 0.647837 0.228676
O O1 0.989235 0.619917 0.638252
O O2 0.908784 0.741473 0.632262
O O3 0.000000 0.500000 0.500000
O O4 0.095305 0.725325 0.413077
O O5 0.500000 0.003057 0.750000
O O6 0.593079 0.235907 0.648679
O O7 0.646630 0.977736 0.640455
O O8 0.234693 0.222239 0.886814
O O9 0.185537 0.005232 0.030135
O O10 0.250000 0.250000 0.000000
O O11 0.250000 0.250000 0.500000
O O12 0.295080 0.174903 0.325162
O O13 0.276344 0.283753 0.707243
O O14 0.309349 0.023992 0.710118
#
# Coordination Sequence:
#
# PCOD8132169 Si02
#       6
#     8   8   8   8   8   8
#     4  10  18  36  58  81 116 142 191 243 272 338
#     4  11  20  35  63  86 108 153 200 236 287 343
#     4   9  17  35  56  80 110 145 190 232 275 335
#     4  10  21  38  56  83 121 147 186 239 291 352
#     4  10  19  35  59  81 114 148 186 234 286 337
#     4  10  21  37  58  84 112 150 189 236 287 337
#
# _framework density 18.489491999999998
#
# number of rings (size 3 to 8) (size 9 to 14) (size 15 to 20)
#    0.000    2.000    6.667    1.000    0.000    5.333 
#    0.000    1.667    3.667    0.000    0.000    0.000 
#    0.000    0.000    0.000    0.000    0.000    0.000 
#
# Total GULP energy -297363.723900 kJ/mol
# GULP energy per Si atom -12390.155162 kJ/mol
# Density = 1.844741 g / cm^3
# Si number density = 18.489492 Si / 1000 Ang^3
#
#
#
# Elastic Constant Matrix: (Units=GPa)
#
#
# Indices 1 2 3 4 5 6 
#
# 1 141.9051 32.4936 53.3918 -0.0004 12.5732 0.0005
# 2 32.4936 59.8798 44.5336 0.0083 20.2031 -0.0028
# 3 53.3918 44.5336 113.6778 0.0029 21.4287 -0.0011
# 4 -0.0004 0.0083 0.0029 21.3308 -0.0009 2.5661
# 5 12.5732 20.2031 21.4287 -0.0009 14.4640 0.0000
# 6 0.0005 -0.0028 -0.0011 2.5661 0.0000 31.7952
#
#
#
# Elastic Compliance Matrix: (Units=1/GPa)
#
#
# Indices 1 2 3 4 5 6 
#
# 1 0.008803 -0.002646 -0.003264 0.000002 0.000879 -0.000001
# 2 -0.002646 0.035210 -0.005152 -0.000015 -0.039246 0.000004
# 3 -0.003264 -0.005152 0.014509 -0.000001 -0.011461 0.000000
# 4 0.000002 -0.000015 -0.000001 0.047340 0.000023 -0.003821
# 5 0.000879 -0.039246 -0.011461 0.000023 0.140171 -0.000006
# 6 -0.000001 0.000004 0.000000 -0.003821 -0.000006 0.031760
#
#
# Mechanical properties :
#
#
# Convention : Reuss Voigt Hill
#
# Bulk Modulus (GPa) = 27.47531 64.03340 45.75435
# Shear Modulus (GPa) = 16.02312 25.85424 20.93868
#
# Velocity S-wave (km/s) = 2.94701 3.74347 3.36886
# Velocity P-wave (km/s) = 5.14510 7.30700 6.31919
#
# Compressibility (1/GPa) = 0.03639631
#
# Stress axis : x y z
#
# Youngs Moduli (GPa) = 113.59846 28.40137 68.92511
#
# Poissons Ratio (x) = 0.07516 0.22494
# Poissons Ratio (y) = 0.30063 0.35513
# Poissons Ratio (z) = 0.37073 0.14634
#
# Static dielectric constant tensor:
#      x y z
#    x 3.717400 0.000000 -0.297290 
#    y 0.000000 3.230660 0.000040 
#    z -0.297290 0.000040 3.873330 
# 
# 
# High freq. dielectric constant tensor:
#      x y z
#    x 1.732760 0.000000 0.008610 
#    y 0.000000 1.679660 0.000000 
#    z 0.008610 0.000000 1.722320 
# 
# From -- ./inp_files/224542.got.cif
#   From: 2010.06.25/outbox.cif.g09.slc.cpg/sg15_113_cif.got.tgz:224542.got - 2010.06.28 07:06:18.
