data_PCOD8132985
_publ_section_title
;
Structure prediction by ZEFSAII (Michael W. Deem and Ramdas Pophale) SiO2 
 PCOD8132985
Probable space group: C 2/C
;
_chemical_formula_sum "Si O2"
_cell_formula_units_Z 40
_cell_length_a 10.781332
_cell_length_b 36.145464
_cell_length_c 5.090699
_cell_angle_alpha 90.000000
_cell_angle_beta 81.274578
_cell_angle_gamma 90.000000
_cell_volume 1960.866833
_symmetry_space_group_name_H-M "C 2/C"
_symmetry_group_IT_number 15
_symmetry_cell_setting 'monoclinic'
loop_
_space_group_symop_operation_xyz
x,y,z
-x,y,1/2-z
-x,-y,-z
x,-y,1/2+z
1/2+x,1/2+y,z
1/2-x,1/2+y,1/2-z
1/2-x,1/2-y,-z
1/2+x,1/2-y,1/2+z
loop_
_atom_site_type_symbol
_atom_site_label
_atom_site_fract_x
_atom_site_fract_y
_atom_site_fract_z
Si Si1 0.000000 0.079278 0.250000
Si Si2 0.500000 0.250509 0.250000
Si Si3 0.500000 0.626696 0.750000
Si Si4 0.500000 0.025389 0.250000
Si Si5 0.694940 0.312192 0.041457
Si Si6 0.181474 0.288526 0.008795
Si Si7 0.772978 0.973986 0.701420
O O1 0.954460 0.102966 0.514895
O O2 0.881716 0.056092 0.184475
O O3 0.610332 0.275364 0.095424
O O4 0.459277 0.222541 0.029194
O O5 0.384396 0.651204 0.885031
O O6 0.365246 0.046891 0.272472
O O7 0.500000 0.000000 0.500000
O O8 0.807408 0.310147 0.219552
O O9 0.752625 0.314197 0.733918
O O10 0.250000 0.250000 0.000000
O O11 0.788956 0.998303 0.437472
#
# Coordination Sequence:
#
# PCOD8132985 Si02
#       7
#     4   4   4   4   8   8   8
#     4  12  22  35  58  83 108 146 194 231 258 317
#     4   9  18  30  52  78  98 122 164 220 280 318
#     4  11  24  39  54  72 104 153 188 212 262 326
#     4   8  16  30  52  79 112 145 166 199 276 347
#     4  10  21  35  50  72 105 136 170 217 265 327
#     4  10  19  31  51  77 100 125 161 212 273 327
#     4  10  19  34  56  87 118 141 174 232 287 317
#
# _framework density 20.399141
#
# number of rings (size 3 to 8) (size 9 to 14) (size 15 to 20)
#    0.000    2.000    0.000    5.400    0.000   10.400 
#    0.000    0.000    0.000    7.200    0.000    0.000 
#    0.000    0.000    0.000    0.000    0.000    0.000 
#
# Total GULP energy -247771.032372 kJ/mol
# GULP energy per Si atom -12388.551619 kJ/mol
# Density = 2.035271 g / cm^3
# Si number density = 20.399141 Si / 1000 Ang^3
#
#
#
# Elastic Constant Matrix: (Units=GPa)
#
#
# Indices 1 2 3 4 5 6 
#
# 1 131.0979 44.7493 18.5068 0.0000 18.9866 0.0000
# 2 44.7493 70.5086 29.6092 0.0000 4.9391 0.0000
# 3 18.5068 29.6092 126.6812 0.0000 17.3293 0.0000
# 4 0.0000 0.0000 0.0000 25.9860 0.0000 0.8612
# 5 18.9866 4.9391 17.3293 0.0000 32.7317 0.0000
# 6 0.0000 0.0000 0.0000 0.8612 0.0000 7.5389
#
#
#
# Elastic Compliance Matrix: (Units=1/GPa)
#
#
# Indices 1 2 3 4 5 6 
#
# 1 0.010596 -0.006658 0.000767 0.000000 -0.005548 0.000000
# 2 -0.006658 0.019917 -0.004096 0.000000 0.003026 0.000000
# 3 0.000767 -0.004096 0.009396 0.000000 -0.004801 0.000000
# 4 0.000000 0.000000 0.000000 0.038628 0.000000 -0.004412
# 5 -0.005548 0.003026 -0.004801 0.000000 0.035855 0.000000
# 6 0.000000 0.000000 0.000000 -0.004412 0.000000 0.133149
#
#
# Mechanical properties :
#
#
# Convention : Reuss Voigt Hill
#
# Bulk Modulus (GPa) = 50.16638 57.11313 53.63976
# Shear Modulus (GPa) = 18.23747 28.94615 23.59181
#
# Velocity S-wave (km/s) = 2.99328 3.77103 3.40444
# Velocity P-wave (km/s) = 6.04914 6.85708 6.46574
#
# Compressibility (1/GPa) = 0.01993367
#
# Stress axis : x y z
#
# Youngs Moduli (GPa) = 94.37660 50.20896 106.42829
#
# Poissons Ratio (x) = 0.33431 -0.08166
# Poissons Ratio (y) = 0.62840 0.43596
# Poissons Ratio (z) = -0.07241 0.20567
#
# Static dielectric constant tensor:
#      x y z
#    x 4.004870 0.000000 0.135210 
#    y 0.000000 3.369930 0.000000 
#    z 0.135210 0.000000 3.937070 
# 
# 
# High freq. dielectric constant tensor:
#      x y z
#    x 1.811590 0.000000 0.016730 
#    y 0.000000 1.741360 0.000000 
#    z 0.016730 0.000000 1.822380 
# 
# From -- ./inp_files/4991.got.cif
#   From: 2010.06.25/outbox.cif.g09.slc.cpg/sg15_3_cif.got.tgz:4991.got - 2010.06.28 07:06:18.
