data_PCOD8132203
_publ_section_title
;
Structure prediction by ZEFSAII (Michael W. Deem and Ramdas Pophale) SiO2 
 PCOD8132203
Probable space group: C 2/C
;
_chemical_formula_sum "Si O2"
_cell_formula_units_Z 44
_cell_length_a 16.333210
_cell_length_b 12.573933
_cell_length_c 15.336894
_cell_angle_alpha 90.000000
_cell_angle_beta 131.286075
_cell_angle_gamma 90.000000
_cell_volume 2366.821274
_symmetry_space_group_name_H-M "C 2/C"
_symmetry_group_IT_number 15
_symmetry_cell_setting 'monoclinic'
loop_
_space_group_symop_operation_xyz
x,y,z
-x,y,1/2-z
-x,-y,-z
x,-y,1/2+z
1/2+x,1/2+y,z
1/2-x,1/2+y,1/2-z
1/2-x,1/2-y,-z
1/2+x,1/2-y,1/2+z
loop_
_atom_site_type_symbol
_atom_site_label
_atom_site_fract_x
_atom_site_fract_y
_atom_site_fract_z
Si Si1 0.354997 0.250775 0.765424
Si Si2 0.370067 0.564408 0.153208
Si Si3 0.374824 0.327679 0.149700
Si Si4 0.267702 0.064310 0.610556
Si Si5 0.210261 0.170947 0.100326
Si Si6 0.000000 0.369476 0.250000
O O1 0.317734 0.354912 0.685384
O O2 0.266256 0.157064 0.683322
O O3 0.361756 0.283380 0.870909
O O4 0.473098 0.207738 0.814238
O O5 0.500000 0.572079 0.250000
O O6 0.332673 0.444207 0.149225
O O7 0.323747 0.593158 0.025048
O O8 0.500000 0.312936 0.250000
O O9 0.319815 0.239566 0.171522
O O10 0.356124 0.310280 0.034108
O O11 0.390828 0.060624 0.653922
O O12 0.240792 0.952136 0.637027
#
# Coordination Sequence:
#
# PCOD8132203 Si02
#       6
#     8   8   8   8   8   4
#     4  10  20  35  59  88 116 148 196 239 290 352
#     4  10  18  36  59  82 115 149 187 238 296 345
#     4   9  21  39  57  79 114 156 184 240 299 341
#     4   9  20  37  58  83 117 156 187 241 292 346
#     4  10  21  38  58  83 117 149 200 237 285 357
#     4   8  20  36  56  84 124 148 190 232 302 330
#
# _framework density 18.590336000000001
#
# number of rings (size 3 to 8) (size 9 to 14) (size 15 to 20)
#    1.091    1.455    0.909    0.545    3.818    0.000 
#    6.545    2.727    0.000    5.455    0.000    0.000 
#    0.000    0.000    0.000    0.000    0.000    0.000 
#
# Total GULP energy -272558.777348 kJ/mol
# GULP energy per Si atom -12389.035334 kJ/mol
# Density = 1.854802 g / cm^3
# Si number density = 18.590336 Si / 1000 Ang^3
#
#
#
# Elastic Constant Matrix: (Units=GPa)
#
#
# Indices 1 2 3 4 5 6 
#
# 1 84.4990 37.2475 38.1034 0.0000 -14.8449 0.0000
# 2 37.2475 102.6581 35.5614 0.0000 -15.8373 0.0000
# 3 38.1034 35.5614 69.9172 0.0000 5.6667 0.0000
# 4 0.0000 0.0000 0.0000 23.9981 0.0000 -1.4060
# 5 -14.8449 -15.8373 5.6667 0.0000 28.2683 0.0000
# 6 0.0000 0.0000 0.0000 -1.4060 0.0000 23.5121
#
#
#
# Elastic Compliance Matrix: (Units=1/GPa)
#
#
# Indices 1 2 3 4 5 6 
#
# 1 0.019342 -0.001558 -0.010674 0.000000 0.011424 0.000000
# 2 -0.001558 0.014020 -0.006966 0.000000 0.008433 0.000000
# 3 -0.010674 -0.006966 0.024837 0.000000 -0.014487 0.000000
# 4 0.000000 0.000000 0.000000 0.041816 0.000000 0.002501
# 5 0.011424 0.008433 -0.014487 0.000000 0.049003 0.000000
# 6 0.000000 0.000000 0.000000 0.002501 0.000000 0.042681
#
#
# Mechanical properties :
#
#
# Convention : Reuss Voigt Hill
#
# Bulk Modulus (GPa) = 50.49627 53.21099 51.85363
# Shear Modulus (GPa) = 21.12418 24.89984 23.01201
#
# Velocity S-wave (km/s) = 3.37456 3.66375 3.52212
# Velocity P-wave (km/s) = 6.51192 6.82513 6.67037
#
# Compressibility (1/GPa) = 0.01980344
#
# Stress axis : x y z
#
# Youngs Moduli (GPa) = 51.70227 71.32597 40.26255
#
# Poissons Ratio (x) = 0.11109 0.42978
# Poissons Ratio (y) = 0.08053 0.28045
# Poissons Ratio (z) = 0.55189 0.49683
#
# Static dielectric constant tensor:
#      x y z
#    x 3.107330 0.000000 0.048860 
#    y 0.000000 3.749850 0.000000 
#    z 0.048860 0.000000 3.241660 
# 
# 
# High freq. dielectric constant tensor:
#      x y z
#    x 1.691250 0.000000 0.004650 
#    y 0.000000 1.740690 0.000000 
#    z 0.004650 0.000000 1.709570 
# 
# From -- ./inp_files/161130.got.cif
#   From: 2010.06.25/outbox.cif.g09.slc.cpg/sg15_81_cif.got.tgz:161130.got - 2010.06.28 07:06:18.
