data_PCOD8132702
_publ_section_title
;
Structure prediction by ZEFSAII (Michael W. Deem and Ramdas Pophale) SiO2 
 PCOD8132702
Probable space group: C 2/C
;
_chemical_formula_sum "Si O2"
_cell_formula_units_Z 48
_cell_length_a 20.627394
_cell_length_b 16.385220
_cell_length_c 9.415374
_cell_angle_alpha 90.000000
_cell_angle_beta 130.078353
_cell_angle_gamma 90.000000
_cell_volume 2434.944939
_symmetry_space_group_name_H-M "C 2/C"
_symmetry_group_IT_number 15
_symmetry_cell_setting 'monoclinic'
loop_
_space_group_symop_operation_xyz
x,y,z
-x,y,1/2-z
-x,-y,-z
x,-y,1/2+z
1/2+x,1/2+y,z
1/2-x,1/2+y,1/2-z
1/2-x,1/2-y,-z
1/2+x,1/2-y,1/2+z
loop_
_atom_site_type_symbol
_atom_site_label
_atom_site_fract_x
_atom_site_fract_y
_atom_site_fract_z
Si Si1 0.581806 0.336365 0.284101
Si Si2 0.681139 0.811230 0.970494
Si Si3 0.584907 0.680108 0.454072
Si Si4 0.756021 0.404400 0.169509
Si Si5 0.755100 0.909980 0.859072
Si Si6 0.199178 0.315309 0.519313
O O1 0.500000 0.370554 0.250000
O O2 0.596580 0.243100 0.361061
O O3 0.657852 0.398684 0.429900
O O4 0.567842 0.334074 0.096018
O O5 0.676636 0.887073 0.853908
O O6 0.750000 0.750000 0.000000
O O7 0.708053 0.843932 0.160876
O O8 0.500000 0.658927 0.250000
O O9 0.657976 0.618750 0.503287
O O10 0.613511 0.773976 0.460053
O O11 0.759547 0.498795 0.217787
O O12 0.814193 0.390174 0.110479
O O13 0.756568 0.848264 0.728861
O O14 0.250000 0.250000 0.500000
#
# Coordination Sequence:
#
# PCOD8132702 Si02
#       6
#     8   8   8   8   8   8
#     4  11  23  38  61  85 117 163 196 234 290 350
#     4  10  18  40  62  80 116 156 204 238 274 347
#     4  11  23  39  58  87 122 153 197 243 286 349
#     4  11  22  37  63  93 116 151 191 248 301 342
#     4  11  21  39  62  88 120 151 196 245 295 347
#     4  10  21  37  61  87 113 156 203 241 281 344
#
# _framework density 19.712972000000001
#
# number of rings (size 3 to 8) (size 9 to 14) (size 15 to 20)
#    0.000    1.333    5.000    4.000    7.000    0.667 
#    0.000    1.667    0.000    6.000    0.000    0.000 
#    0.000    0.000    0.000    0.000    0.000    0.000 
#
# Total GULP energy -297407.030096 kJ/mol
# GULP energy per Si atom -12391.959587 kJ/mol
# Density = 1.966810 g / cm^3
# Si number density = 19.712972 Si / 1000 Ang^3
#
#
#
# Elastic Constant Matrix: (Units=GPa)
#
#
# Indices 1 2 3 4 5 6 
#
# 1 50.8435 1.4075 3.9916 0.0000 -25.9190 0.0000
# 2 1.4075 81.4452 17.1504 0.0000 -4.2902 0.0000
# 3 3.9916 17.1504 99.3598 0.0000 -30.1494 0.0000
# 4 0.0000 0.0000 0.0000 24.5642 0.0000 -7.8540
# 5 -25.9190 -4.2902 -30.1494 0.0000 28.9608 0.0000
# 6 0.0000 0.0000 0.0000 -7.8540 0.0000 22.0944
#
#
#
# Elastic Compliance Matrix: (Units=1/GPa)
#
#
# Indices 1 2 3 4 5 6 
#
# 1 0.050438 -0.001195 0.017283 0.000000 0.062956 0.000000
# 2 -0.001195 0.012776 -0.002788 0.000000 -0.002079 0.000000
# 3 0.017283 -0.002788 0.021078 0.000000 0.036998 0.000000
# 4 0.000000 0.000000 0.000000 0.045930 0.000000 0.016327
# 5 0.062956 -0.002079 0.036998 0.000000 0.129081 0.000000
# 6 0.000000 0.000000 0.000000 0.016327 0.000000 0.051064
#
#
# Mechanical properties :
#
#
# Convention : Reuss Voigt Hill
#
# Bulk Modulus (GPa) = 9.01773 30.74973 19.88373
# Shear Modulus (GPa) = 15.58935 29.06382 22.32658
#
# Velocity S-wave (km/s) = 2.81520 3.84389 3.36904
# Velocity P-wave (km/s) = 3.89250 5.94418 5.02418
#
# Compressibility (1/GPa) = 0.11089268
#
# Stress axis : x y z
#
# Youngs Moduli (GPa) = 19.82626 78.26896 47.44311
#
# Poissons Ratio (x) = 0.09351 -0.81997
# Poissons Ratio (y) = 0.02369 0.13228
# Poissons Ratio (z) = -0.34266 0.21823
#
# Static dielectric constant tensor:
#      x y z
#    x 3.825620 0.000000 -0.284810 
#    y 0.000000 3.944360 0.000000 
#    z -0.284810 0.000000 3.582610 
# 
# 
# High freq. dielectric constant tensor:
#      x y z
#    x 1.751870 0.000000 -0.036890 
#    y 0.000000 1.762350 0.000000 
#    z -0.036890 0.000000 1.764410 
# 
# From -- ./inp_files/56795.got.cif
#   From: 2010.06.25/outbox.cif.g09.slc.cpg/sg15_29_cif.got.tgz:56795.got - 2010.06.28 07:06:18.
