data_PCOD8132032
_publ_section_title
;
Structure prediction by ZEFSAII (Michael W. Deem and Ramdas Pophale) SiO2 
 PCOD8132032
Probable space group: C 2/C
;
_chemical_formula_sum "Si O2"
_cell_formula_units_Z 56
_cell_length_a 15.987418
_cell_length_b 13.948412
_cell_length_c 18.411365
_cell_angle_alpha 90.000000
_cell_angle_beta 43.768296
_cell_angle_gamma 90.000000
_cell_volume 2840.104309
_symmetry_space_group_name_H-M "C 2/C"
_symmetry_group_IT_number 15
_symmetry_cell_setting 'monoclinic'
loop_
_space_group_symop_operation_xyz
x,y,z
-x,y,1/2-z
-x,-y,-z
x,-y,1/2+z
1/2+x,1/2+y,z
1/2-x,1/2+y,1/2-z
1/2-x,1/2-y,-z
1/2+x,1/2-y,1/2+z
loop_
_atom_site_type_symbol
_atom_site_label
_atom_site_fract_x
_atom_site_fract_y
_atom_site_fract_z
Si Si1 0.208339 0.540907 0.533775
Si Si2 0.535417 0.830527 0.082271
Si Si3 0.626802 0.684790 0.138139
Si Si4 0.819152 0.572247 0.785158
Si Si5 0.827942 0.243592 0.622411
Si Si6 0.166847 0.665093 0.079737
Si Si7 0.889151 0.359332 0.721588
O O1 0.104504 0.566444 0.539051
O O2 0.330683 0.597041 0.439081
O O3 0.149089 0.563109 0.650043
O O4 0.240986 0.429354 0.510538
O O5 0.613564 0.775683 0.094366
O O6 0.399038 0.847709 0.192457
O O7 0.547395 0.773089 0.998391
O O8 0.500000 0.651485 0.250000
O O9 0.718295 0.711005 0.145015
O O10 0.687987 0.626689 0.860784
O O11 0.838760 0.467710 0.737017
O O12 0.828983 0.290187 0.700716
O O13 0.157324 0.676281 0.171856
O O14 0.034180 0.653190 0.126966
O O15 0.250000 0.750000 0.000000
#
# Coordination Sequence:
#
# PCOD8132032 Si02
#       7
#     8   8   8   8   8   8   8
#     4  10  18  35  60  89 110 157 204 244 292 359
#     4  11  18  33  61  92 121 153 192 247 304 354
#     4  11  19  34  58  93 129 153 187 244 317 361
#     4  11  19  37  65  85 123 162 201 246 297 361
#     4  11  22  35  56  95 128 146 198 258 299 355
#     4  10  22  45  67  80 115 162 214 247 289 360
#     4  10  24  42  63  90 114 163 210 246 301 357
#
# _framework density 19.717587000000002
#
# number of rings (size 3 to 8) (size 9 to 14) (size 15 to 20)
#    0.000    1.429    5.714    1.286    0.000    1.714 
#    7.714    0.000    0.000    4.286    0.000    0.000 
#    0.000    0.000    0.000    0.000    0.000    0.000 
#
# Total GULP energy -346903.083914 kJ/mol
# GULP energy per Si atom -12389.395854 kJ/mol
# Density = 1.967271 g / cm^3
# Si number density = 19.717587 Si / 1000 Ang^3
#
#
#
# Elastic Constant Matrix: (Units=GPa)
#
#
# Indices 1 2 3 4 5 6 
#
# 1 52.6264 33.4004 21.9537 0.0000 14.9683 0.0000
# 2 33.4004 137.9759 55.9843 0.0000 1.1420 0.0000
# 3 21.9537 55.9843 95.1197 0.0000 -7.8719 0.0000
# 4 0.0000 0.0000 0.0000 38.2268 0.0000 -2.8035
# 5 14.9683 1.1420 -7.8719 0.0000 22.9320 0.0000
# 6 0.0000 0.0000 0.0000 -2.8035 0.0000 19.8088
#
#
#
# Elastic Compliance Matrix: (Units=1/GPa)
#
#
# Indices 1 2 3 4 5 6 
#
# 1 0.030862 -0.004808 -0.006114 0.000000 -0.022004 0.000000
# 2 -0.004808 0.010408 -0.004940 0.000000 0.000924 0.000000
# 3 -0.006114 -0.004940 0.015626 0.000000 0.009601 0.000000
# 4 0.000000 0.000000 0.000000 0.026434 0.000000 0.003741
# 5 -0.022004 0.000924 0.009601 0.000000 0.061219 0.000000
# 6 0.000000 0.000000 0.000000 0.003741 0.000000 0.051012
#
#
# Mechanical properties :
#
#
# Convention : Reuss Voigt Hill
#
# Bulk Modulus (GPa) = 39.72533 56.48876 48.10704
# Shear Modulus (GPa) = 21.21545 27.81911 24.51728
#
# Velocity S-wave (km/s) = 3.28375 3.76024 3.53004
# Velocity P-wave (km/s) = 5.87948 6.89664 6.40827
#
# Compressibility (1/GPa) = 0.02517286
#
# Stress axis : x y z
#
# Youngs Moduli (GPa) = 32.40178 96.07813 63.99525
#
# Poissons Ratio (x) = 0.46194 0.39128
# Poissons Ratio (y) = 0.15579 0.31612
# Poissons Ratio (z) = 0.19811 0.47460
#
# Static dielectric constant tensor:
#      x y z
#    x 3.185800 0.000000 -0.046880 
#    y 0.000000 3.672500 0.000000 
#    z -0.046880 0.000000 3.869030 
# 
# 
# High freq. dielectric constant tensor:
#      x y z
#    x 1.725680 0.000000 0.001410 
#    y 0.000000 1.765150 0.000000 
#    z 0.001410 0.000000 1.780730 
# 
# From -- ./inp_files/210545.got.cif
#   From: 2010.06.25/outbox.cif.g09.slc.cpg/sg15_106_cif.got.tgz:210545.got - 2010.06.28 07:06:18.
