data_PCOD8132267
_publ_section_title
;
Structure prediction by ZEFSAII (Michael W. Deem and Ramdas Pophale) SiO2 
 PCOD8132267
Probable space group: C 2/C
;
_chemical_formula_sum "Si O2"
_cell_formula_units_Z 60
_cell_length_a 19.586965
_cell_length_b 8.850072
_cell_length_c 26.914704
_cell_angle_alpha 90.000000
_cell_angle_beta 43.388876
_cell_angle_gamma 90.000000
_cell_volume 3204.988178
_symmetry_space_group_name_H-M "C 2/C"
_symmetry_group_IT_number 15
_symmetry_cell_setting 'monoclinic'
loop_
_space_group_symop_operation_xyz
x,y,z
-x,y,1/2-z
-x,-y,-z
x,-y,1/2+z
1/2+x,1/2+y,z
1/2-x,1/2+y,1/2-z
1/2-x,1/2-y,-z
1/2+x,1/2-y,1/2+z
loop_
_atom_site_type_symbol
_atom_site_label
_atom_site_fract_x
_atom_site_fract_y
_atom_site_fract_z
Si Si1 0.255466 0.983060 0.231186
Si Si2 0.555074 0.366525 0.824563
Si Si3 0.832286 0.144801 0.859423
Si Si4 0.343469 0.192995 0.253608
Si Si5 0.956820 0.188966 0.886516
Si Si6 0.894351 0.367757 0.010939
Si Si7 0.000000 0.907101 0.750000
Si Si8 0.951647 0.616352 0.587542
O O1 0.171687 0.098349 0.255958
O O2 0.291424 0.032330 0.267883
O O3 0.213980 0.813952 0.251042
O O4 0.355165 0.991779 0.145103
O O5 0.496531 0.518588 0.869962
O O6 0.511027 0.307975 0.794505
O O7 0.538465 0.242375 0.875306
O O8 0.832819 0.277421 0.817736
O O9 0.870172 0.206718 0.891757
O O10 0.720717 0.086370 0.924633
O O11 0.902316 0.011978 0.802278
O O12 0.457845 0.194919 0.176179
O O13 0.911249 0.232070 0.963524
O O14 0.938550 0.308899 0.040077
O O15 0.949042 0.518147 0.963171
#
# Coordination Sequence:
#
# PCOD8132267 Si02
#       8
#     8   8   8   8   8   8   4   8
#     4  11  18  33  58  81 110 141 185 233 271 324
#     4  10  20  36  58  84 110 148 186 234 271 333
#     4  11  18  37  59  84 107 151 191 227 275 340
#     4  11  19  34  58  84 110 140 191 235 273 326
#     4  10  21  35  58  83 110 145 189 229 275 329
#     4  11  22  36  57  80 114 152 183 230 285 333
#     4  10  18  36  62  80 110 148 192 222 280 334
#     4  11  22  36  53  84 116 146 187 228 285 337
#
# _framework density 18.720818999999999
#
# number of rings (size 3 to 8) (size 9 to 14) (size 15 to 20)
#    0.000    1.333    8.000    0.400    0.000    0.533 
#    0.000    4.000    0.000    0.000    0.000    0.000 
#    0.000    0.000    0.000    0.000    0.000    0.000 
#
# Total GULP energy -371810.779402 kJ/mol
# GULP energy per Si atom -12393.692647 kJ/mol
# Density = 1.867821 g / cm^3
# Si number density = 18.720819 Si / 1000 Ang^3
#
#
#
# Elastic Constant Matrix: (Units=GPa)
#
#
# Indices 1 2 3 4 5 6 
#
# 1 139.5293 54.7100 63.4195 0.0001 20.9701 -0.0020
# 2 54.7100 50.5347 36.0009 0.0004 16.0502 -0.0036
# 3 63.4195 36.0009 117.2245 0.0000 2.0945 -0.0003
# 4 0.0001 0.0004 0.0000 19.1049 0.0001 4.4919
# 5 20.9701 16.0502 2.0945 0.0001 47.6383 0.0002
# 6 -0.0020 -0.0036 -0.0003 4.4919 0.0002 26.0674
#
#
#
# Elastic Compliance Matrix: (Units=1/GPa)
#
#
# Indices 1 2 3 4 5 6 
#
# 1 0.013721 -0.011461 -0.003867 0.000000 -0.002008 -0.000001
# 2 -0.011461 0.038567 -0.005506 -0.000002 -0.007707 0.000005
# 3 -0.003867 -0.005506 0.012260 0.000000 0.003018 -0.000001
# 4 0.000000 -0.000002 0.000000 0.054553 0.000000 -0.009400
# 5 -0.002008 -0.007707 0.003018 0.000000 0.024339 -0.000001
# 6 -0.000001 0.000005 -0.000001 -0.009400 -0.000001 0.039982
#
#
# Mechanical properties :
#
#
# Convention : Reuss Voigt Hill
#
# Bulk Modulus (GPa) = 43.70956 68.39436 56.05196
# Shear Modulus (GPa) = 21.48544 28.77267 25.12905
#
# Velocity S-wave (km/s) = 3.39141 3.92463 3.66772
# Velocity P-wave (km/s) = 6.22369 7.55977 6.92403
#
# Compressibility (1/GPa) = 0.02287829
#
# Stress axis : x y z
#
# Youngs Moduli (GPa) = 72.88355 25.92906 81.56760
#
# Poissons Ratio (x) = 0.29718 0.31543
# Poissons Ratio (y) = 0.83535 0.44910
# Poissons Ratio (z) = 0.28185 0.14276
#
# Static dielectric constant tensor:
#      x y z
#    x 3.800730 0.000000 -0.034950 
#    y 0.000000 3.115480 0.000000 
#    z -0.034950 0.000000 3.536760 
# 
# 
# High freq. dielectric constant tensor:
#      x y z
#    x 1.749700 0.000000 -0.004320 
#    y 0.000000 1.684560 0.000000 
#    z -0.004320 0.000000 1.728980 
# 
# From -- ./inp_files/300514.got.cif
#   From: 2010.06.25/outbox.cif.g09.slc.cpg/sg15_151_cif.got.tgz:300514.got - 2010.06.28 07:06:18.
