data_PCOD8132953
_publ_section_title
;
Structure prediction by ZEFSAII (Michael W. Deem and Ramdas Pophale) SiO2 
 PCOD8132953
Probable space group: C 2/C
;
_chemical_formula_sum "Si O2"
_cell_formula_units_Z 64
_cell_length_a 23.176859
_cell_length_b 27.351811
_cell_length_c 5.400340
_cell_angle_alpha 90.000000
_cell_angle_beta 96.301623
_cell_angle_gamma 90.000000
_cell_volume 3402.747593
_symmetry_space_group_name_H-M "C 2/C"
_symmetry_group_IT_number 15
_symmetry_cell_setting 'monoclinic'
loop_
_space_group_symop_operation_xyz
x,y,z
-x,y,1/2-z
-x,-y,-z
x,-y,1/2+z
1/2+x,1/2+y,z
1/2-x,1/2+y,1/2-z
1/2-x,1/2-y,-z
1/2+x,1/2-y,1/2+z
loop_
_atom_site_type_symbol
_atom_site_label
_atom_site_fract_x
_atom_site_fract_y
_atom_site_fract_z
Si Si1 0.174989 0.296769 0.307084
Si Si2 0.934469 0.178521 0.705903
Si Si3 0.840100 0.125548 0.929202
Si Si4 0.234370 0.377646 0.074425
Si Si5 0.845867 0.022164 0.088531
Si Si6 0.724314 0.697027 0.276189
Si Si7 0.065249 0.760989 0.797182
Si Si8 0.215735 0.483152 0.970122
O O1 0.179846 0.347272 0.156829
O O2 0.210841 0.301553 0.579166
O O3 0.204410 0.250703 0.176250
O O4 0.107213 0.286148 0.312316
O O5 0.888310 0.135212 0.738458
O O6 0.921834 0.202412 0.429777
O O7 0.000000 0.157369 0.750000
O O8 0.926487 0.215479 0.930302
O O9 0.779077 0.103529 0.801994
O O10 0.859268 0.080444 0.113365
O O11 0.825441 0.176788 0.060001
O O12 0.214798 0.424924 0.911999
O O13 0.274874 0.340011 0.947597
O O14 0.874659 0.000955 0.849518
O O15 0.777976 0.007558 0.058109
O O16 0.000000 0.740719 0.750000
O O17 0.182946 0.492356 0.219015
#
# Coordination Sequence:
#
# PCOD8132953 Si02
#       8
#     8   8   8   8   8   8   8   8
#     4  10  21  32  48  79 111 140 173 210 262 317
#     4  10  22  37  55  76  97 133 185 227 259 304
#     4  11  20  31  54  73 100 141 177 223 263 315
#     4  11  21  30  52  76 107 145 171 213 265 318
#     4  10  19  31  48  72  96 130 177 214 262 313
#     4  10  20  32  47  75 113 140 172 206 268 318
#     4  10  21  39  57  73 104 144 180 218 255 302
#     4  10  19  34  49  70 103 134 178 211 250 312
#
# _framework density 18.808329000000001
#
# number of rings (size 3 to 8) (size 9 to 14) (size 15 to 20)
#    0.000    1.750    3.750    2.625    3.500    0.000 
#    0.000    0.000    0.000    0.750    0.000    0.000 
#    0.000    1.000    0.000    0.125    0.000    0.000 
#
# Total GULP energy -396441.258972 kJ/mol
# GULP energy per Si atom -12388.789343 kJ/mol
# Density = 1.876552 g / cm^3
# Si number density = 18.808329 Si / 1000 Ang^3
#
#
#
# Elastic Constant Matrix: (Units=GPa)
#
#
# Indices 1 2 3 4 5 6 
#
# 1 71.5505 28.5488 8.7503 0.0000 -13.3463 0.0000
# 2 28.5488 86.5890 9.4398 0.0000 -4.3433 0.0000
# 3 8.7503 9.4398 87.1253 0.0000 0.5918 0.0000
# 4 0.0000 0.0000 0.0000 20.5455 0.0000 -5.0923
# 5 -13.3463 -4.3433 0.5918 0.0000 14.4126 0.0000
# 6 0.0000 0.0000 0.0000 -5.0923 0.0000 11.0106
#
#
#
# Elastic Compliance Matrix: (Units=1/GPa)
#
#
# Indices 1 2 3 4 5 6 
#
# 1 0.019364 -0.005403 -0.001471 0.000000 0.016364 0.000000
# 2 -0.005403 0.013382 -0.000901 0.000000 -0.000934 0.000000
# 3 -0.001471 -0.000901 0.011737 0.000000 -0.002115 0.000000
# 4 0.000000 0.000000 0.000000 0.054974 0.000000 0.025425
# 5 0.016364 -0.000934 -0.002115 0.000000 0.084342 0.000000
# 6 0.000000 0.000000 0.000000 0.025425 0.000000 0.102580
#
#
# Mechanical properties :
#
#
# Convention : Reuss Voigt Hill
#
# Bulk Modulus (GPa) = 34.56160 37.63807 36.09983
# Shear Modulus (GPa) = 16.04756 22.42882 19.23819
#
# Velocity S-wave (km/s) = 2.92415 3.45700 3.20168
# Velocity P-wave (km/s) = 5.46045 5.99911 5.73610
#
# Compressibility (1/GPa) = 0.02893384
#
# Stress axis : x y z
#
# Youngs Moduli (GPa) = 51.64157 74.72905 85.19785
#
# Poissons Ratio (x) = 0.40379 0.12529
# Poissons Ratio (y) = 0.27904 0.07675
# Poissons Ratio (z) = 0.07594 0.06732
#
# Static dielectric constant tensor:
#      x y z
#    x 3.196800 0.000000 -0.104570 
#    y 0.000000 3.361330 0.000000 
#    z -0.104570 0.000000 4.004950 
# 
# 
# High freq. dielectric constant tensor:
#      x y z
#    x 1.669690 0.000000 -0.004770 
#    y 0.000000 1.719360 0.000000 
#    z -0.004770 0.000000 1.748600 
# 
# From -- ./inp_files/16160.got.cif
#   From: 2010.06.25/outbox.cif.g09.slc.cpg/sg15_9_cif.got.tgz:16160.got - 2010.06.28 07:06:18.
