data_PCOD8132400
_publ_section_title
;
Structure prediction by ZEFSAII (Michael W. Deem and Ramdas Pophale) SiO2 
 PCOD8132400
Probable space group: C 2/C
;
_chemical_formula_sum "Si O2"
_cell_formula_units_Z 60
_cell_length_a 27.200139
_cell_length_b 15.617634
_cell_length_c 23.397592
_cell_angle_alpha 90.000000
_cell_angle_beta 17.709104
_cell_angle_gamma 90.000000
_cell_volume 3023.392340
_symmetry_space_group_name_H-M "C 2/C"
_symmetry_group_IT_number 15
_symmetry_cell_setting 'monoclinic'
loop_
_space_group_symop_operation_xyz
x,y,z
-x,y,1/2-z
-x,-y,-z
x,-y,1/2+z
1/2+x,1/2+y,z
1/2-x,1/2+y,1/2-z
1/2-x,1/2-y,-z
1/2+x,1/2-y,1/2+z
loop_
_atom_site_type_symbol
_atom_site_label
_atom_site_fract_x
_atom_site_fract_y
_atom_site_fract_z
Si Si1 0.639766 0.337989 0.999422
Si Si2 0.202868 0.138438 0.299551
Si Si3 0.630986 0.033060 0.897900
Si Si4 0.233788 0.810032 0.072347
Si Si5 0.760236 0.633065 0.825271
Si Si6 0.500000 0.945543 0.750000
Si Si7 0.873137 0.523243 0.274419
Si Si8 0.984476 0.768017 0.958450
O O1 0.449379 0.343121 0.222103
O O2 0.668815 0.371189 0.903769
O O3 0.712146 0.243538 0.931141
O O4 0.740216 0.402299 0.929136
O O5 0.346418 0.205250 0.133619
O O6 0.043236 0.171675 0.444960
O O7 0.244792 0.044676 0.227242
O O8 0.709631 0.112496 0.776368
O O9 0.532829 0.058270 0.063869
O O10 0.500000 0.000000 0.000000
O O11 0.250000 0.750000 0.000000
O O12 0.353997 0.889256 0.936046
O O13 0.782208 0.554409 0.843461
O O14 0.578693 0.671762 0.023942
O O15 0.873532 0.708816 0.722907
O O16 0.566896 0.003436 0.728437
#
# Coordination Sequence:
#
# PCOD8132400 Si02
#       8
#     8   8   8   8   8   4   8   8
#     4  12  21  36  63  85 128 169 209 252 304 357
#     4  11  20  36  58  96 124 165 201 250 314 388
#     4  10  18  37  59  84 130 161 194 258 318 366
#     4  12  23  40  58  87 126 172 216 253 286 357
#     4  10  20  40  60  86 123 157 197 257 320 382
#     4  12  26  42  64  86 120 178 218 252 306 364
#     4  11  22  40  61  86 122 169 208 264 312 360
#     4  10  21  34  60  87 122 156 202 244 312 385
#
# _framework density 19.845257
#
# number of rings (size 3 to 8) (size 9 to 14) (size 15 to 20)
#    0.000    1.067    8.000    0.800    0.000    4.800 
#    2.400    0.000    0.000    0.800    0.000    0.000 
#    0.000    0.000    0.000    0.000    0.000    0.000 
#
# Total GULP energy -371806.997542 kJ/mol
# GULP energy per Si atom -12393.566585 kJ/mol
# Density = 1.980009 g / cm^3
# Si number density = 19.845257 Si / 1000 Ang^3
#
#
#
# Elastic Constant Matrix: (Units=GPa)
#
#
# Indices 1 2 3 4 5 6 
#
# 1 98.1326 31.9916 35.0737 -0.0053 -14.8083 0.0046
# 2 31.9916 76.9849 27.8169 0.0306 -11.6905 0.0033
# 3 35.0737 27.8169 93.9935 0.0199 -15.4162 0.0232
# 4 -0.0053 0.0306 0.0199 26.2912 0.0121 -5.8207
# 5 -14.8083 -11.6905 -15.4162 0.0121 26.5272 -0.0228
# 6 0.0046 0.0033 0.0232 -5.8207 -0.0228 34.0961
#
#
#
# Elastic Compliance Matrix: (Units=1/GPa)
#
#
# Indices 1 2 3 4 5 6 
#
# 1 0.013114 -0.003724 -0.003161 0.000009 0.003842 0.000005
# 2 -0.003724 0.016064 -0.002813 -0.000019 0.003366 0.000000
# 3 -0.003161 -0.002813 0.013439 -0.000011 0.004806 -0.000007
# 4 0.000009 -0.000019 -0.000011 0.039530 -0.000022 0.006748
# 5 0.003842 0.003366 0.004806 -0.000022 0.044119 0.000022
# 6 0.000005 0.000000 -0.000007 0.006748 0.000022 0.030481
#
#
# Mechanical properties :
#
#
# Convention : Reuss Voigt Hill
#
# Bulk Modulus (GPa) = 43.06168 50.98613 47.02390
# Shear Modulus (GPa) = 27.19121 28.99816 28.09468
#
# Velocity S-wave (km/s) = 3.70559 3.82673 3.76664
# Velocity P-wave (km/s) = 6.32885 6.72850 6.53173
#
# Compressibility (1/GPa) = 0.02322250
#
# Stress axis : x y z
#
# Youngs Moduli (GPa) = 76.25462 62.24910 74.40892
#
# Poissons Ratio (x) = 0.23181 0.23522
# Poissons Ratio (y) = 0.28396 0.20928
# Poissons Ratio (z) = 0.24106 0.17508
#
# Static dielectric constant tensor:
#      x y z
#    x 4.114540 0.000460 -0.163890 
#    y 0.000460 2.166050 -0.000500 
#    z -0.163890 -0.000500 4.808770 
# 
# 
# High freq. dielectric constant tensor:
#      x y z
#    x 1.762360 0.000000 -0.029280 
#    y 0.000000 1.764610 0.000010 
#    z -0.029280 0.000010 1.767830 
# 
# From -- ./inp_files/283650.got.cif
#   From: 2010.06.25/outbox.cif.g09.slc.cpg/sg15_142_cif.got.tgz:283650.got - 2010.06.28 07:06:18.
