data_PCOD8132517
_publ_section_title
;
Structure prediction by ZEFSAII (Michael W. Deem and Ramdas Pophale) SiO2 
 PCOD8132517
Probable space group: C 2/C
;
_chemical_formula_sum "Si O2"
_cell_formula_units_Z 44
_cell_length_a 13.552055
_cell_length_b 11.554216
_cell_length_c 25.860363
_cell_angle_alpha 90.000000
_cell_angle_beta 146.399236
_cell_angle_gamma 90.000000
_cell_volume 2240.894927
_symmetry_space_group_name_H-M "C 2/C"
_symmetry_group_IT_number 15
_symmetry_cell_setting 'monoclinic'
loop_
_space_group_symop_operation_xyz
x,y,z
-x,y,1/2-z
-x,-y,-z
x,-y,1/2+z
1/2+x,1/2+y,z
1/2-x,1/2+y,1/2-z
1/2-x,1/2-y,-z
1/2+x,1/2-y,1/2+z
loop_
_atom_site_type_symbol
_atom_site_label
_atom_site_fract_x
_atom_site_fract_y
_atom_site_fract_z
Si Si1 0.811101 0.407764 0.071387
Si Si2 0.959465 0.720027 0.540091
Si Si3 0.329368 0.868871 0.516502
Si Si4 0.500000 0.187512 0.750000
Si Si5 0.196100 0.117535 0.846005
Si Si6 0.206400 0.632470 0.134281
O O1 0.928914 0.337923 0.081825
O O2 0.790340 0.539929 0.045158
O O3 0.913262 0.397773 0.170266
O O4 0.612965 0.351713 0.990431
O O5 0.851385 0.645788 0.450602
O O6 0.168310 0.714725 0.616944
O O7 0.250000 0.750000 0.500000
O O8 0.230333 0.907533 0.421151
O O9 0.540264 0.853218 0.600193
O O10 0.646514 0.271361 0.787083
O O11 0.000000 0.167598 0.750000
O O12 0.216550 0.996354 0.824407
#
# Coordination Sequence:
#
# PCOD8132517 Si02
#       6
#     8   8   8   4   8   8
#     4  10  19  37  63  87 121 158 201 239 303 358
#     4   9  18  34  62  86 114 156 198 246 295 351
#     4  11  23  41  60  86 127 162 193 251 310 352
#     4  10  22  34  62  94 118 158 198 256 294 364
#     4  11  20  36  63  92 116 151 209 250 288 354
#     4  10  18  38  60  88 117 152 205 245 293 354
#
# _framework density 19.635012
#
# number of rings (size 3 to 8) (size 9 to 14) (size 15 to 20)
#    0.000    1.818    4.545    1.091    0.000    1.455 
#    1.636    8.182    0.000    0.000    0.000    0.000 
#    0.000    0.000    0.000    0.000    0.000    0.000 
#
# Total GULP energy -272822.059189 kJ/mol
# GULP energy per Si atom -12401.002690 kJ/mol
# Density = 1.959032 g / cm^3
# Si number density = 19.635012 Si / 1000 Ang^3
#
#
#
# Elastic Constant Matrix: (Units=GPa)
#
#
# Indices 1 2 3 4 5 6 
#
# 1 98.4463 69.9031 51.8359 0.0000 17.1139 0.0000
# 2 69.9031 135.2020 60.1367 0.0000 6.1455 0.0000
# 3 51.8359 60.1367 100.4089 0.0000 25.0549 0.0000
# 4 0.0000 0.0000 0.0000 17.6297 0.0000 1.2553
# 5 17.1139 6.1455 25.0549 0.0000 35.7691 0.0000
# 6 0.0000 0.0000 0.0000 1.2553 0.0000 36.8119
#
#
#
# Elastic Compliance Matrix: (Units=1/GPa)
#
#
# Indices 1 2 3 4 5 6 
#
# 1 0.018374 -0.007635 -0.003691 0.000000 -0.004894 0.000000
# 2 -0.007635 0.013533 -0.005447 0.000000 0.005143 0.000000
# 3 -0.003691 -0.005447 0.017514 0.000000 -0.009566 0.000000
# 4 0.000000 0.000000 0.000000 0.056860 0.000000 -0.001939
# 5 -0.004894 0.005143 -0.009566 0.000000 0.036115 0.000000
# 6 0.000000 0.000000 0.000000 -0.001939 0.000000 0.027231
#
#
# Mechanical properties :
#
#
# Convention : Reuss Voigt Hill
#
# Bulk Modulus (GPa) = 62.99722 77.53429 70.26576
# Shear Modulus (GPa) = 23.98470 28.18758 26.08614
#
# Velocity S-wave (km/s) = 3.49883 3.79301 3.64889
# Velocity P-wave (km/s) = 6.96248 7.66525 7.32230
#
# Compressibility (1/GPa) = 0.01587372
#
# Stress axis : x y z
#
# Youngs Moduli (GPa) = 54.42530 73.89366 57.09682
#
# Poissons Ratio (x) = 0.56421 0.21077
# Poissons Ratio (y) = 0.41556 0.31099
# Poissons Ratio (z) = 0.20090 0.40248
#
# Static dielectric constant tensor:
#      x y z
#    x 3.752830 0.000000 0.141020 
#    y 0.000000 3.468350 0.000000 
#    z 0.141020 0.000000 3.549700 
# 
# 
# High freq. dielectric constant tensor:
#      x y z
#    x 1.762820 0.000000 0.006170 
#    y 0.000000 1.748990 0.000000 
#    z 0.006170 0.000000 1.757340 
# 
# From -- ./inp_files/142274.got.cif
#   From: 2010.06.25/outbox.cif.g09.slc.cpg/sg15_72_cif.got.tgz:142274.got - 2010.06.28 07:06:18.
