data_PCOD8132045
_publ_section_title
;
Structure prediction by ZEFSAII (Michael W. Deem and Ramdas Pophale) SiO2 
 PCOD8132045
Probable space group: C 2/C
;
_chemical_formula_sum "Si O2"
_cell_formula_units_Z 56
_cell_length_a 31.451177
_cell_length_b 7.939184
_cell_length_c 22.482432
_cell_angle_alpha 90.000000
_cell_angle_beta 153.813480
_cell_angle_gamma 90.000000
_cell_volume 2477.335418
_symmetry_space_group_name_H-M "C 2/C"
_symmetry_group_IT_number 15
_symmetry_cell_setting 'monoclinic'
loop_
_space_group_symop_operation_xyz
x,y,z
-x,y,1/2-z
-x,-y,-z
x,-y,1/2+z
1/2+x,1/2+y,z
1/2-x,1/2+y,1/2-z
1/2-x,1/2-y,-z
1/2+x,1/2-y,1/2+z
loop_
_atom_site_type_symbol
_atom_site_label
_atom_site_fract_x
_atom_site_fract_y
_atom_site_fract_z
Si Si1 0.939654 0.141368 0.350201
Si Si2 0.138141 0.782318 0.868289
Si Si3 0.776405 0.180198 0.344646
Si Si4 0.659222 0.385899 0.446638
Si Si5 0.875952 0.586624 0.175798
Si Si6 0.636997 0.549265 0.638952
Si Si7 0.908363 0.499620 0.343727
O O1 0.910196 0.108912 0.245647
O O2 0.881890 0.309186 0.294842
O O3 0.055337 0.162712 0.503907
O O4 0.902086 0.990720 0.344331
O O5 0.093397 0.592490 0.818067
O O6 0.117416 0.919741 0.895241
O O7 0.250000 0.750000 0.000000
O O8 0.835686 0.187001 0.480366
O O9 0.739759 0.361404 0.276747
O O10 0.846095 0.113726 0.380432
O O11 0.681597 0.068451 0.233243
O O12 0.762030 0.407019 0.544233
O O13 0.596044 0.247368 0.330290
O O14 0.927936 0.599327 0.305872
O O15 0.000000 0.500000 0.500000
#
# Coordination Sequence:
#
# PCOD8132045 Si02
#       7
#     8   8   8   8   8   8   8
#     4  10  22  39  63  91 121 162 210 258 314 377
#     4   9  18  32  58  93 119 152 202 251 303 371
#     4  11  23  39  60  89 124 165 204 261 322 370
#     4   9  18  33  55  85 118 157 200 248 300 365
#     4   8  17  29  52  88 118 151 200 241 299 361
#     4  11  24  40  60  88 124 164 210 258 315 380
#     4  10  18  35  61  92 124 156 201 257 314 376
#
# _framework density 22.604934
#
# number of rings (size 3 to 8) (size 9 to 14) (size 15 to 20)
#    0.000    2.286    1.429    1.714    8.000    0.000 
#    0.000    0.714    0.000    0.000    0.000    0.000 
#    0.000    0.000    0.000    0.000    0.000    0.000 
#
# Total GULP energy -346892.256735 kJ/mol
# GULP energy per Si atom -12389.009169 kJ/mol
# Density = 2.255348 g / cm^3
# Si number density = 22.604934 Si / 1000 Ang^3
#
#
#
# Elastic Constant Matrix: (Units=GPa)
#
#
# Indices 1 2 3 4 5 6 
#
# 1 50.1555 24.4763 27.6128 0.0000 -17.4653 0.0000
# 2 24.4763 108.1395 29.2565 0.0001 -21.9373 0.0000
# 3 27.6128 29.2565 107.2617 0.0000 -39.2883 0.0000
# 4 0.0000 0.0001 0.0000 35.5136 0.0000 -7.9501
# 5 -17.4653 -21.9373 -39.2883 0.0000 27.5309 0.0000
# 6 0.0000 0.0000 0.0000 -7.9501 0.0000 26.7577
#
#
#
# Elastic Compliance Matrix: (Units=1/GPa)
#
#
# Indices 1 2 3 4 5 6 
#
# 1 0.026541 -0.003126 -0.001519 0.000000 0.012179 0.000000
# 2 -0.003126 0.011408 0.000621 0.000000 0.007994 0.000000
# 3 -0.001519 0.000621 0.019638 0.000000 0.027555 0.000000
# 4 0.000000 0.000000 0.000000 0.030165 0.000000 0.008962
# 5 0.012179 0.007994 0.027555 0.000000 0.089741 0.000000
# 6 0.000000 0.000000 0.000000 0.008962 0.000000 0.040035
#
#
# Mechanical properties :
#
#
# Convention : Reuss Voigt Hill
#
# Bulk Modulus (GPa) = 20.18610 47.58310 33.88460
# Shear Modulus (GPa) = 20.65359 30.24119 25.44739
#
# Velocity S-wave (km/s) = 3.02599 3.66158 3.35885
# Velocity P-wave (km/s) = 4.59980 6.24274 5.48315
#
# Compressibility (1/GPa) = 0.04953904
#
# Stress axis : x y z
#
# Youngs Moduli (GPa) = 37.67821 87.65478 50.92210
#
# Poissons Ratio (x) = 0.27398 0.07735
# Poissons Ratio (y) = 0.11777 -0.03161
# Poissons Ratio (z) = 0.05724 -0.05442
#
# Static dielectric constant tensor:
#      x y z
#    x 3.531690 0.000000 -0.313050 
#    y 0.000000 4.474690 0.000000 
#    z -0.313050 0.000000 4.275180 
# 
# 
# High freq. dielectric constant tensor:
#      x y z
#    x 1.851380 0.000000 -0.027520 
#    y 0.000000 1.898490 0.000000 
#    z -0.027520 0.000000 1.891060 
# 
# From -- ./inp_files/259020.got.cif
#   From: 2010.06.25/outbox.cif.g09.slc.cpg/sg15_130_cif.got.tgz:259020.got - 2010.06.28 07:06:18.
