data_PCOD8132968
_publ_section_title
;
Structure prediction by ZEFSAII (Michael W. Deem and Ramdas Pophale) SiO2 
 PCOD8132968
Probable space group: C 2/C
;
_chemical_formula_sum "Si O2"
_cell_formula_units_Z 56
_cell_length_a 17.427046
_cell_length_b 14.481479
_cell_length_c 29.283985
_cell_angle_alpha 90.000000
_cell_angle_beta 156.232136
_cell_angle_gamma 90.000000
_cell_volume 2978.560714
_symmetry_space_group_name_H-M "C 2/C"
_symmetry_group_IT_number 15
_symmetry_cell_setting 'monoclinic'
loop_
_space_group_symop_operation_xyz
x,y,z
-x,y,1/2-z
-x,-y,-z
x,-y,1/2+z
1/2+x,1/2+y,z
1/2-x,1/2+y,1/2-z
1/2-x,1/2-y,-z
1/2+x,1/2-y,1/2+z
loop_
_atom_site_type_symbol
_atom_site_label
_atom_site_fract_x
_atom_site_fract_y
_atom_site_fract_z
Si Si1 0.611316 0.959459 0.892389
Si Si2 0.063547 0.099572 0.982899
Si Si3 0.500000 0.924249 0.250000
Si Si4 0.500000 0.638551 0.250000
Si Si5 0.317005 0.576187 0.351908
Si Si6 0.749327 0.893543 0.533452
Si Si7 0.003044 0.772050 0.895737
Si Si8 0.273130 0.780775 0.183027
O O1 0.401888 0.918151 0.783842
O O2 0.627818 0.021339 0.855769
O O3 0.781544 0.885853 0.973955
O O4 0.653669 0.013737 0.962563
O O5 0.949266 0.195988 0.929247
O O6 0.177427 0.073599 0.090682
O O7 0.921286 0.016049 0.889828
O O8 0.353729 0.870568 0.202144
O O9 0.602116 0.578823 0.345244
O O10 0.328350 0.697014 0.179579
O O11 0.404568 0.671766 0.382281
O O12 0.598811 0.818388 0.470854
O O13 0.845422 0.842050 0.543257
O O14 0.859365 0.735733 0.779482
#
# Coordination Sequence:
#
# PCOD8132968 Si02
#       8
#     8   8   4   4   8   8   8   8
#     4  12  20  32  52  81 109 136 170 213 269 317
#     4  11  19  31  49  76 108 142 163 209 271 312
#     4  11  16  30  48  78 108 131 160 211 260 310
#     4   9  20  32  52  78 102 137 180 217 258 300
#     4  11  20  30  49  78 111 135 169 213 262 318
#     4  10  19  32  51  76 104 137 175 216 259 306
#     4  10  19  31  49  76 105 136 171 212 262 307
#     4  10  19  31  50  74 108 136 168 211 259 313
#
# _framework density 18.801027000000001
#
# number of rings (size 3 to 8) (size 9 to 14) (size 15 to 20)
#    0.000    1.429    5.714    1.714    2.000    0.000 
#    0.000    0.714    0.000    3.429    3.714    0.000 
#    0.000    0.000    0.000    0.000    0.000    0.000 
#
# Total GULP energy -346928.227834 kJ/mol
# GULP energy per Si atom -12390.293851 kJ/mol
# Density = 1.875823 g / cm^3
# Si number density = 18.801027 Si / 1000 Ang^3
#
#
#
# Elastic Constant Matrix: (Units=GPa)
#
#
# Indices 1 2 3 4 5 6 
#
# 1 68.2144 30.0816 37.4854 0.0005 5.9490 0.0011
# 2 30.0816 36.9274 29.6401 0.0020 4.0826 0.0026
# 3 37.4854 29.6401 101.8018 0.0074 9.3024 0.0123
# 4 0.0005 0.0020 0.0074 22.3153 -0.0027 -17.2245
# 5 5.9490 4.0826 9.3024 -0.0027 37.4360 0.0027
# 6 0.0011 0.0026 0.0123 -17.2245 0.0027 -81.7335
#
#
#
# Elastic Compliance Matrix: (Units=1/GPa)
#
#
# Indices 1 2 3 4 5 6 
#
# 1 0.024179 -0.016326 -0.004053 0.000001 -0.001055 -0.000001
# 2 -0.016326 0.046427 -0.007449 -0.000001 -0.000618 0.000000
# 3 -0.004053 -0.007449 0.013662 -0.000002 -0.001938 0.000002
# 4 0.000001 -0.000001 -0.000002 0.038543 0.000004 -0.008123
# 5 -0.001055 -0.000618 -0.001938 0.000004 0.027429 0.000000
# 6 -0.000001 0.000000 0.000002 -0.008123 0.000000 -0.010523
#
#
# Mechanical properties :
#
#
# Convention : Reuss Voigt Hill
#
# Bulk Modulus (GPa) = 34.95322 44.59530 39.77426
# Shear Modulus (GPa) = 24.40088 2.91933 13.66010
#
# Velocity S-wave (km/s) = 3.60647 1.24744 2.69840
# Velocity P-wave (km/s) = 5.99781 5.08389 5.55966
#
# Compressibility (1/GPa) = 0.02860967
#
# Stress axis : x y z
#
# Youngs Moduli (GPa) = 41.35887 21.53896 73.19824
#
# Poissons Ratio (x) = 0.35165 0.29669
# Poissons Ratio (y) = 0.67524 0.54529
# Poissons Ratio (z) = 0.16763 0.16045
#
# Static dielectric constant tensor:
#      x y z
#    x 3.297230 0.000000 0.071990 
#    y 0.000000 3.061040 -0.000010 
#    z 0.071990 -0.000010 3.615650 
# 
# 
# High freq. dielectric constant tensor:
#      x y z
#    x 1.716210 0.000000 0.000800 
#    y 0.000000 1.676710 0.000000 
#    z 0.000800 0.000000 1.739720 
# 
# From -- ./inp_files/316611.got.cif
#   From: 2010.06.25/outbox.cif.g09.slc.cpg/sg15_159_cif.got.tgz:316611.got - 2010.06.28 07:06:18.
