data_PCOD8132125
_publ_section_title
;
Structure prediction by ZEFSAII (Michael W. Deem and Ramdas Pophale) SiO2 
 PCOD8132125
Probable space group: C 2/C
;
_chemical_formula_sum "Si O2"
_cell_formula_units_Z 56
_cell_length_a 28.745068
_cell_length_b 9.635356
_cell_length_c 17.446468
_cell_angle_alpha 90.000000
_cell_angle_beta 38.512315
_cell_angle_gamma 90.000000
_cell_volume 3008.884500
_symmetry_space_group_name_H-M "C 2/C"
_symmetry_group_IT_number 15
_symmetry_cell_setting 'monoclinic'
loop_
_space_group_symop_operation_xyz
x,y,z
-x,y,1/2-z
-x,-y,-z
x,-y,1/2+z
1/2+x,1/2+y,z
1/2-x,1/2+y,1/2-z
1/2-x,1/2-y,-z
1/2+x,1/2-y,1/2+z
loop_
_atom_site_type_symbol
_atom_site_label
_atom_site_fract_x
_atom_site_fract_y
_atom_site_fract_z
Si Si1 0.843014 0.088976 0.627688
Si Si2 0.373857 0.714239 0.062374
Si Si3 0.251938 0.320392 0.383807
Si Si4 0.082682 0.367222 0.943568
Si Si5 0.507324 0.895723 0.878778
Si Si6 0.833450 0.582217 0.369232
Si Si7 0.693474 0.077507 0.739362
O O1 0.802780 0.088594 0.762163
O O2 0.900857 0.215539 0.543283
O O3 0.780807 0.098994 0.641610
O O4 0.888649 0.946718 0.560807
O O5 0.306886 0.729031 0.088104
O O6 0.354272 0.792179 0.167726
O O7 0.449329 0.776646 0.928151
O O8 0.208590 0.428483 0.495350
O O9 0.305242 0.219709 0.362529
O O10 0.036227 0.355770 0.925692
O O11 0.162653 0.440844 0.823819
O O12 0.034865 0.455555 0.066346
O O13 0.577428 0.902981 0.730454
O O14 0.818640 0.445087 0.336296
#
# Coordination Sequence:
#
# PCOD8132125 Si02
#       7
#     8   8   8   8   8   8   8
#     4  11  17  31  51  85 106 133 180 231 271 315
#     4  10  20  30  53  84 111 131 182 231 278 311
#     4  10  20  33  54  81 104 142 178 230 265 327
#     4   9  17  31  51  75 109 140 181 215 270 319
#     4   9  18  33  51  78 104 145 174 220 266 328
#     4  10  18  36  56  74 106 144 188 216 267 326
#     4   9  16  32  52  76 104 141 179 226 262 319
#
# _framework density 18.611547999999999
#
# number of rings (size 3 to 8) (size 9 to 14) (size 15 to 20)
#    0.000    2.286    4.286    1.714    0.000    1.143 
#    0.000    0.714    0.000    0.000    0.000    6.000 
#    0.000    0.000    0.000    0.000    0.000    0.000 
#
# Total GULP energy -347131.080495 kJ/mol
# GULP energy per Si atom -12397.538589 kJ/mol
# Density = 1.856919 g / cm^3
# Si number density = 18.611548 Si / 1000 Ang^3
#
#
#
# Elastic Constant Matrix: (Units=GPa)
#
#
# Indices 1 2 3 4 5 6 
#
# 1 39.5517 31.8278 32.2321 -0.0001 -7.9753 0.0001
# 2 31.8278 121.0853 36.1454 -0.0027 -9.8248 0.0017
# 3 32.2321 36.1454 98.1878 -0.0012 -11.7190 0.0006
# 4 -0.0001 -0.0027 -0.0012 20.4008 -0.0001 -5.4180
# 5 -7.9753 -9.8248 -11.7190 -0.0001 23.2109 0.0001
# 6 0.0001 0.0017 0.0006 -5.4180 0.0001 24.2698
#
#
#
# Elastic Compliance Matrix: (Units=1/GPa)
#
#
# Indices 1 2 3 4 5 6 
#
# 1 0.040282 -0.007164 -0.009892 -0.000001 0.005814 0.000000
# 2 -0.007164 0.010674 -0.001418 0.000001 0.001341 0.000000
# 3 -0.009892 -0.001418 0.014341 0.000001 0.003241 0.000000
# 4 -0.000001 0.000001 0.000001 0.052107 0.000001 0.011632
# 5 0.005814 0.001341 0.003241 0.000001 0.047285 0.000000
# 6 0.000000 0.000000 0.000000 0.011632 0.000000 0.043800
#
#
# Mechanical properties :
#
#
# Convention : Reuss Voigt Hill
#
# Bulk Modulus (GPa) = 35.27438 51.02614 43.15026
# Shear Modulus (GPa) = 19.61667 24.15092 21.88380
#
# Velocity S-wave (km/s) = 3.25007 3.60617 3.43274
# Velocity P-wave (km/s) = 5.75135 6.69442 6.24072
#
# Compressibility (1/GPa) = 0.02834919
#
# Stress axis : x y z
#
# Youngs Moduli (GPa) = 24.82505 93.68934 69.73189
#
# Poissons Ratio (x) = 0.67115 0.68981
# Poissons Ratio (y) = 0.17784 0.09885
# Poissons Ratio (z) = 0.24558 0.13281
#
# Static dielectric constant tensor:
#      x y z
#    x 3.433770 0.000000 -0.144950 
#    y 0.000000 3.307360 0.000010 
#    z -0.144950 0.000010 3.472780 
# 
# 
# High freq. dielectric constant tensor:
#      x y z
#    x 1.713040 0.000000 -0.021810 
#    y 0.000000 1.701810 0.000000 
#    z -0.021810 0.000000 1.705520 
# 
# From -- ./inp_files/224394.got.cif
#   From: 2010.06.25/outbox.cif.g09.slc.cpg/sg15_113_cif.got.tgz:224394.got - 2010.06.28 07:06:18.
