data_PCOD8132263
_publ_section_title
;
Structure prediction by ZEFSAII (Michael W. Deem and Ramdas Pophale) SiO2 
 PCOD8132263
Probable space group: C 2/C
;
_chemical_formula_sum "Si O2"
_cell_formula_units_Z 60
_cell_length_a 11.507934
_cell_length_b 11.798944
_cell_length_c 20.883303
_cell_angle_alpha 90.000000
_cell_angle_beta 91.724965
_cell_angle_gamma 90.000000
_cell_volume 2834.280588
_symmetry_space_group_name_H-M "C 2/C"
_symmetry_group_IT_number 15
_symmetry_cell_setting 'monoclinic'
loop_
_space_group_symop_operation_xyz
x,y,z
-x,y,1/2-z
-x,-y,-z
x,-y,1/2+z
1/2+x,1/2+y,z
1/2-x,1/2+y,1/2-z
1/2-x,1/2-y,-z
1/2+x,1/2-y,1/2+z
loop_
_atom_site_type_symbol
_atom_site_label
_atom_site_fract_x
_atom_site_fract_y
_atom_site_fract_z
Si Si1 0.500000 0.979359 0.250000
Si Si2 0.737912 0.226611 0.575234
Si Si3 0.398575 0.330574 0.484109
Si Si4 0.436834 0.460484 0.810146
Si Si5 0.685002 0.056649 0.348550
Si Si6 0.668558 0.841198 0.418189
Si Si7 0.902776 0.962722 0.072694
Si Si8 0.534333 0.216066 0.661071
O O1 0.589629 0.059694 0.290032
O O2 0.431990 0.895859 0.298015
O O3 0.750000 0.250000 0.500000
O O4 0.801510 0.320955 0.619769
O O5 0.792091 0.105351 0.596562
O O6 0.603714 0.219686 0.594446
O O7 0.392806 0.208632 0.518866
O O8 0.307647 0.320622 0.423348
O O9 0.527721 0.363883 0.464933
O O10 0.355438 0.434518 0.528588
O O11 0.500000 0.519242 0.750000
O O12 0.303640 0.496667 0.819890
O O13 0.513097 0.486351 0.873230
O O14 0.433567 0.325724 0.797239
O O15 0.645105 0.974909 0.406470
O O16 0.604484 0.780289 0.357099
#
# Coordination Sequence:
#
# PCOD8132263 Si02
#       8
#     4   8   8   8   8   8   8   8
#     4  10  22  44  66  84 128 168 220 258 310 380
#     4  11  24  41  64  95 134 167 203 262 334 385
#     4  10  20  35  64  93 125 155 202 260 304 374
#     4  11  22  40  64  89 117 163 216 254 299 371
#     4  10  23  43  64  90 127 171 204 268 318 376
#     4  10  18  36  61  91 120 161 201 249 314 370
#     4  11  22  39  61  93 125 161 205 256 310 364
#     4  10  21  40  64  90 120 168 210 255 314 377
#
# _framework density 21.169392999999999
#
# number of rings (size 3 to 8) (size 9 to 14) (size 15 to 20)
#    0.000    1.600    3.333    1.600    5.600    0.000 
#    1.200   16.000    0.000    0.000    0.000    0.000 
#    0.000    0.000    0.000    0.000    0.000    0.000 
#
# Total GULP energy -371671.827316 kJ/mol
# GULP energy per Si atom -12389.060911 kJ/mol
# Density = 2.112121 g / cm^3
# Si number density = 21.169393 Si / 1000 Ang^3
#
#
#
# Elastic Constant Matrix: (Units=GPa)
#
#
# Indices 1 2 3 4 5 6 
#
# 1 92.8724 38.7121 46.9607 0.0000 16.1713 0.0000
# 2 38.7121 76.6320 29.6030 0.0000 2.5325 0.0000
# 3 46.9607 29.6030 107.6900 0.0000 4.1743 0.0000
# 4 0.0000 0.0000 0.0000 29.4977 0.0000 -1.2010
# 5 16.1713 2.5325 4.1743 0.0000 41.3566 0.0000
# 6 0.0000 0.0000 0.0000 -1.2010 0.0000 28.3697
#
#
#
# Elastic Compliance Matrix: (Units=1/GPa)
#
#
# Indices 1 2 3 4 5 6 
#
# 1 0.017233 -0.006375 -0.005538 0.000000 -0.005789 0.000000
# 2 -0.006375 0.016968 -0.001948 0.000000 0.001650 0.000000
# 3 -0.005538 -0.001948 0.012196 0.000000 0.001054 0.000000
# 4 0.000000 0.000000 0.000000 0.033959 0.000000 0.001438
# 5 -0.005789 0.001650 0.001054 0.000000 0.026236 0.000000
# 6 0.000000 0.000000 0.000000 0.001438 0.000000 0.035310
#
#
# Mechanical properties :
#
#
# Convention : Reuss Voigt Hill
#
# Bulk Modulus (GPa) = 53.55064 56.41623 54.98343
# Shear Modulus (GPa) = 28.43344 30.63938 29.53641
#
# Velocity S-wave (km/s) = 3.66886 3.80852 3.73935
# Velocity P-wave (km/s) = 6.58016 6.78584 6.68379
#
# Compressibility (1/GPa) = 0.01867391
#
# Stress axis : x y z
#
# Youngs Moduli (GPa) = 58.02796 58.93478 81.99638
#
# Poissons Ratio (x) = 0.37571 0.45410
# Poissons Ratio (y) = 0.36992 0.15976
# Poissons Ratio (z) = 0.32136 0.11483
#
# Static dielectric constant tensor:
#      x y z
#    x 3.924710 0.000000 -0.002230 
#    y 0.000000 3.793310 0.000000 
#    z -0.002230 0.000000 3.814990 
# 
# 
# High freq. dielectric constant tensor:
#      x y z
#    x 1.827110 0.000000 0.017550 
#    y 0.000000 1.818710 0.000000 
#    z 0.017550 0.000000 1.821650 
# 
# From -- ./inp_files/237600.got.cif
#   From: 2010.06.25/outbox.cif.g09.slc.cpg/sg15_119_cif.got.tgz:237600.got - 2010.06.28 07:06:18.
