data_PCOD8132681
_publ_section_title
;
Structure prediction by ZEFSAII (Michael W. Deem and Ramdas Pophale) SiO2 
 PCOD8132681
Probable space group: C 2/C
;
_chemical_formula_sum "Si O2"
_cell_formula_units_Z 64
_cell_length_a 14.120912
_cell_length_b 12.646038
_cell_length_c 17.543834
_cell_angle_alpha 90.000000
_cell_angle_beta 74.510532
_cell_angle_gamma 90.000000
_cell_volume 3019.078365
_symmetry_space_group_name_H-M "C 2/C"
_symmetry_group_IT_number 15
_symmetry_cell_setting 'monoclinic'
loop_
_space_group_symop_operation_xyz
x,y,z
-x,y,1/2-z
-x,-y,-z
x,-y,1/2+z
1/2+x,1/2+y,z
1/2-x,1/2+y,1/2-z
1/2-x,1/2-y,-z
1/2+x,1/2-y,1/2+z
loop_
_atom_site_type_symbol
_atom_site_label
_atom_site_fract_x
_atom_site_fract_y
_atom_site_fract_z
Si Si1 0.572796 0.221329 0.445501
Si Si2 0.558932 0.781147 0.394467
Si Si3 0.435624 0.358988 0.190705
Si Si4 0.370290 0.188408 0.843478
Si Si5 0.209116 0.098612 0.975961
Si Si6 0.277629 0.103595 0.722217
Si Si7 0.256306 0.399439 0.863296
Si Si8 0.925487 0.964515 0.581755
O O1 0.486726 0.173144 0.517069
O O2 0.526484 0.278259 0.381828
O O3 0.629930 0.307319 0.484960
O O4 0.642863 0.129860 0.399815
O O5 0.485475 0.800521 0.338302
O O6 0.662625 0.838956 0.358489
O O7 0.578208 0.658002 0.401401
O O8 0.500000 0.340293 0.250000
O O9 0.321450 0.333629 0.234095
O O10 0.450669 0.477904 0.156027
O O11 0.315401 0.147051 0.931775
O O12 0.349712 0.103489 0.780482
O O13 0.324174 0.300082 0.824376
O O14 0.181998 0.003768 0.923896
O O15 0.204465 0.057077 0.063678
O O16 0.241838 0.987753 0.702782
O O17 0.000000 0.000000 0.500000
#
# Coordination Sequence:
#
# PCOD8132681 Si02
#       8
#     8   8   8   8   8   8   8   8
#     4  10  19  43  70  92 129 179 234 267 326 412
#     4  12  24  41  72 103 130 172 235 281 319 399
#     4  11  25  42  62  96 142 177 215 282 356 389
#     4  11  21  45  68  97 133 182 220 277 334 403
#     4  10  18  39  72  98 127 173 225 270 339 401
#     4  12  28  39  62 106 142 163 225 289 332 397
#     4  11  21  40  70  92 134 182 220 269 344 397
#     4  11  21  39  71 104 127 164 232 289 321 394
#
# _framework density 21.198521
#
# number of rings (size 3 to 8) (size 9 to 14) (size 15 to 20)
#    0.000    1.000    8.750    1.125    5.250    0.500 
#    0.000    3.750    0.000    0.000    0.000    0.000 
#    0.000    0.000    0.000    0.000    0.000    0.000 
#
# Total GULP energy -396737.734750 kJ/mol
# GULP energy per Si atom -12398.054211 kJ/mol
# Density = 2.115027 g / cm^3
# Si number density = 21.198521 Si / 1000 Ang^3
#
#
#
# Elastic Constant Matrix: (Units=GPa)
#
#
# Indices 1 2 3 4 5 6 
#
# 1 75.3175 26.0832 26.2159 0.0000 1.0551 0.0000
# 2 26.0832 55.8475 24.4561 0.0000 12.1306 0.0000
# 3 26.2159 24.4561 97.2847 0.0000 10.3268 0.0000
# 4 0.0000 0.0000 0.0000 41.2794 0.0000 2.9579
# 5 1.0551 12.1306 10.3268 0.0000 47.5043 0.0000
# 6 0.0000 0.0000 0.0000 2.9579 0.0000 21.7948
#
#
#
# Elastic Compliance Matrix: (Units=1/GPa)
#
#
# Indices 1 2 3 4 5 6 
#
# 1 0.016684 -0.006936 -0.002969 0.000000 0.002046 0.000000
# 2 -0.006936 0.023830 -0.003574 0.000000 -0.005154 0.000000
# 3 -0.002969 -0.003574 0.012154 0.000000 -0.001664 0.000000
# 4 0.000000 0.000000 0.000000 0.024463 0.000000 -0.003320
# 5 0.002046 -0.005154 -0.001664 0.000000 0.022683 0.000000
# 6 0.000000 0.000000 0.000000 -0.003320 0.000000 0.046333
#
#
# Mechanical properties :
#
#
# Convention : Reuss Voigt Hill
#
# Bulk Modulus (GPa) = 38.89751 42.43999 40.66875
# Shear Modulus (GPa) = 27.52124 32.22866 29.87495
#
# Velocity S-wave (km/s) = 3.60705 3.90337 3.75813
# Velocity P-wave (km/s) = 5.97802 6.35443 6.16910
#
# Compressibility (1/GPa) = 0.02570859
#
# Stress axis : x y z
#
# Youngs Moduli (GPa) = 59.93701 41.96354 82.27447
#
# Poissons Ratio (x) = 0.29107 0.24431
# Poissons Ratio (y) = 0.41574 0.29407
# Poissons Ratio (z) = 0.17798 0.14999
#
# Static dielectric constant tensor:
#      x y z
#    x 3.887800 0.000000 -0.124350 
#    y 0.000000 3.734930 0.000000 
#    z -0.124350 0.000000 4.060790 
# 
# 
# High freq. dielectric constant tensor:
#      x y z
#    x 1.816330 0.000000 -0.007450 
#    y 0.000000 1.797570 0.000000 
#    z -0.007450 0.000000 1.849840 
# 
# From -- ./inp_files/205074.got.cif
#   From: 2010.06.25/outbox.cif.g09.slc.cpg/sg15_103_cif.got.tgz:205074.got - 2010.06.28 07:06:18.
