data_PCOD8132896
_publ_section_title
;
Structure prediction by ZEFSAII (Michael W. Deem and Ramdas Pophale) SiO2 
 PCOD8132896
Probable space group: C 2/C
;
_chemical_formula_sum "Si O2"
_cell_formula_units_Z 60
_cell_length_a 6.244734
_cell_length_b 24.871322
_cell_length_c 25.737425
_cell_angle_alpha 90.000000
_cell_angle_beta 60.415472
_cell_angle_gamma 90.000000
_cell_volume 3476.254491
_symmetry_space_group_name_H-M "C 2/C"
_symmetry_group_IT_number 15
_symmetry_cell_setting 'monoclinic'
loop_
_space_group_symop_operation_xyz
x,y,z
-x,y,1/2-z
-x,-y,-z
x,-y,1/2+z
1/2+x,1/2+y,z
1/2-x,1/2+y,1/2-z
1/2-x,1/2-y,-z
1/2+x,1/2-y,1/2+z
loop_
_atom_site_type_symbol
_atom_site_label
_atom_site_fract_x
_atom_site_fract_y
_atom_site_fract_z
Si Si1 0.542065 0.525958 0.579913
Si Si2 0.495440 0.826015 0.148578
Si Si3 0.738160 0.095084 0.692320
Si Si4 0.218873 0.665409 0.014641
Si Si5 0.498306 0.576565 0.472407
Si Si6 0.343901 0.747330 0.547112
Si Si7 0.549992 0.098980 0.942457
Si Si8 0.500000 0.349673 0.250000
O O1 0.329809 0.550199 0.641300
O O2 0.531085 0.546928 0.522797
O O3 0.481992 0.462260 0.580536
O O4 0.811444 0.540290 0.573174
O O5 0.674996 0.849259 0.170813
O O6 0.615233 0.772224 0.110009
O O7 0.451420 0.874458 0.113565
O O8 0.231831 0.811911 0.206553
O O9 0.500000 0.070974 0.750000
O O10 0.945613 0.110304 0.708827
O O11 0.297031 0.624978 0.052740
O O12 0.958409 0.696418 0.055462
O O13 0.439899 0.705175 0.977804
O O14 0.214387 0.634847 0.960660
O O15 0.222780 0.598913 0.502173
O O16 0.250000 0.750000 0.500000
#
# Coordination Sequence:
#
# PCOD8132896 Si02
#       8
#     8   8   8   8   8   8   8   4
#     4  10  19  30  49  71 104 143 172 210 263 320
#     4  11  19  32  51  71 109 140 173 213 264 324
#     4  10  20  34  49  74 106 140 175 211 257 317
#     4  10  20  30  47  74 104 136 173 208 267 323
#     4  10  19  31  46  74 106 140 174 212 266 317
#     4  11  20  32  51  75 104 140 171 216 270 325
#     4  11  17  31  48  71 107 138 168 211 263 323
#     4  10  22  32  50  70 102 150 172 212 262 314
#
# _framework density 17.259955999999999
#
# number of rings (size 3 to 8) (size 9 to 14) (size 15 to 20)
#    0.000    1.600    5.333    1.200    0.000    0.000 
#    0.000    0.000    0.000    0.000    0.000    0.000 
#   38.000    0.000    0.000    0.000    0.000    0.000 
#
# Total GULP energy -371683.286507 kJ/mol
# GULP energy per Si atom -12389.442884 kJ/mol
# Density = 1.722067 g / cm^3
# Si number density = 17.259956 Si / 1000 Ang^3
#
#
#
# Elastic Constant Matrix: (Units=GPa)
#
#
# Indices 1 2 3 4 5 6 
#
# 1 100.6790 40.0156 27.2912 0.0000 -5.3960 0.0000
# 2 40.0156 79.7079 31.0418 0.0000 -8.7179 0.0000
# 3 27.2912 31.0418 78.1591 0.0000 -17.2183 0.0000
# 4 0.0000 0.0000 0.0000 25.2190 0.0000 6.0722
# 5 -5.3960 -8.7179 -17.2183 0.0000 27.4396 0.0000
# 6 0.0000 0.0000 0.0000 6.0722 0.0000 21.4901
#
#
#
# Elastic Compliance Matrix: (Units=1/GPa)
#
#
# Indices 1 2 3 4 5 6 
#
# 1 0.012750 -0.005543 -0.002421 0.000000 -0.000773 0.000000
# 2 -0.005543 0.017284 -0.004595 0.000000 0.001518 0.000000
# 3 -0.002421 -0.004595 0.017450 0.000000 0.009014 0.000000
# 4 0.000000 0.000000 0.000000 0.042547 0.000000 -0.012022
# 5 -0.000773 0.001518 0.009014 0.000000 0.042431 0.000000
# 6 0.000000 0.000000 0.000000 -0.012022 0.000000 0.049930
#
#
# Mechanical properties :
#
#
# Convention : Reuss Voigt Hill
#
# Bulk Modulus (GPa) = 44.70695 50.58256 47.64476
# Shear Modulus (GPa) = 23.25956 25.50955 24.38456
#
# Velocity S-wave (km/s) = 3.67495 3.84860 3.76278
# Velocity P-wave (km/s) = 6.63064 7.00849 6.82218
#
# Compressibility (1/GPa) = 0.02236789
#
# Stress axis : x y z
#
# Youngs Moduli (GPa) = 78.42881 57.85757 57.30529
#
# Poissons Ratio (x) = 0.32069 0.13874
# Poissons Ratio (y) = 0.43471 0.26330
# Poissons Ratio (z) = 0.18988 0.26583
#
# Static dielectric constant tensor:
#      x y z
#    x 3.784000 0.000000 0.020960 
#    y 0.000000 3.507100 0.000000 
#    z 0.020960 0.000000 3.072890 
# 
# 
# High freq. dielectric constant tensor:
#      x y z
#    x 1.697090 0.000000 0.000070 
#    y 0.000000 1.637550 0.000000 
#    z 0.000070 0.000000 1.632050 
# 
# From -- ./inp_files/261924.got.cif
#   From: 2010.06.25/outbox.cif.g09.slc.cpg/sg15_131_cif.got.tgz:261924.got - 2010.06.28 07:06:18.
