data_PCOD8132178
_publ_section_title
;
Structure prediction by ZEFSAII (Michael W. Deem and Ramdas Pophale) SiO2 
 PCOD8132178
Probable space group: C 2/C
;
_chemical_formula_sum "Si O2"
_cell_formula_units_Z 60
_cell_length_a 22.763143
_cell_length_b 9.096843
_cell_length_c 17.659154
_cell_angle_alpha 90.000000
_cell_angle_beta 120.144371
_cell_angle_gamma 90.000000
_cell_volume 3162.203461
_symmetry_space_group_name_H-M "C 2/C"
_symmetry_group_IT_number 15
_symmetry_cell_setting 'monoclinic'
loop_
_space_group_symop_operation_xyz
x,y,z
-x,y,1/2-z
-x,-y,-z
x,-y,1/2+z
1/2+x,1/2+y,z
1/2-x,1/2+y,1/2-z
1/2-x,1/2-y,-z
1/2+x,1/2-y,1/2+z
loop_
_atom_site_type_symbol
_atom_site_label
_atom_site_fract_x
_atom_site_fract_y
_atom_site_fract_z
Si Si1 0.946256 0.149590 0.873264
Si Si2 0.078249 0.876415 0.544627
Si Si3 0.000000 0.928245 0.250000
Si Si4 0.186122 0.334940 0.674752
Si Si5 0.250683 0.601624 0.544499
Si Si6 0.384850 0.447159 0.580732
Si Si7 0.698212 0.834577 0.168797
Si Si8 0.813675 0.323434 0.002428
O O1 0.967996 0.166137 0.798663
O O2 0.880715 0.251857 0.838980
O O3 0.931421 0.979268 0.887290
O O4 0.007943 0.198640 0.969578
O O5 0.106777 0.977906 0.495546
O O6 0.128988 0.745861 0.599132
O O7 0.054275 0.034370 0.322646
O O8 0.257157 0.268549 0.749142
O O9 0.180427 0.507279 0.695095
O O10 0.192898 0.313386 0.590941
O O11 0.250000 0.750000 0.500000
O O12 0.319624 0.515084 0.577874
O O13 0.246676 0.637347 0.629460
O O14 0.186985 0.497385 0.476297
O O15 0.379682 0.269600 0.569063
O O16 0.750000 0.250000 0.000000
#
# Coordination Sequence:
#
# PCOD8132178 Si02
#       8
#     8   8   4   8   8   8   8   8
#     4  10  21  39  60  84 117 156 197 244 294 357
#     4  10  20  36  61  84 114 159 199 238 298 352
#     4  10  22  36  62  86 112 154 202 244 290 358
#     4  11  22  37  59  88 121 152 195 244 296 349
#     4  10  19  34  58  88 115 154 191 239 294 344
#     4  10  18  36  58  84 119 153 196 240 289 348
#     4  11  23  36  59  91 117 154 196 247 292 353
#     4   9  20  34  56  84 115 153 186 236 284 346
#
# _framework density 18.974111000000001
#
# number of rings (size 3 to 8) (size 9 to 14) (size 15 to 20)
#    0.000    1.867    2.667    1.600    0.000    2.667 
#    0.000    0.000    0.000    1.600    0.000    0.000 
#    0.000    0.000    0.000    0.000    0.000    0.000 
#
# Total GULP energy -371695.419394 kJ/mol
# GULP energy per Si atom -12389.847313 kJ/mol
# Density = 1.893093 g / cm^3
# Si number density = 18.974111 Si / 1000 Ang^3
#
#
#
# Elastic Constant Matrix: (Units=GPa)
#
#
# Indices 1 2 3 4 5 6 
#
# 1 87.3606 40.2567 44.6175 0.0000 2.2340 0.0000
# 2 40.2567 136.1502 67.5239 0.0000 16.8312 0.0000
# 3 44.6175 67.5239 90.4283 0.0000 14.0772 0.0000
# 4 0.0000 0.0000 0.0000 21.1058 0.0000 2.6086
# 5 2.2340 16.8312 14.0772 0.0000 39.5872 0.0000
# 6 0.0000 0.0000 0.0000 2.6086 0.0000 32.4912
#
#
#
# Elastic Compliance Matrix: (Units=1/GPa)
#
#
# Indices 1 2 3 4 5 6 
#
# 1 0.015614 -0.001427 -0.006982 0.000000 0.002208 0.000000
# 2 -0.001427 0.011942 -0.007871 0.000000 -0.002198 0.000000
# 3 -0.006982 -0.007871 0.020959 0.000000 -0.003712 0.000000
# 4 0.000000 0.000000 0.000000 0.047855 0.000000 -0.003842
# 5 0.002208 -0.002198 -0.003712 0.000000 0.027391 0.000000
# 6 0.000000 0.000000 0.000000 -0.003842 0.000000 0.031086
#
#
# Mechanical properties :
#
#
# Convention : Reuss Voigt Hill
#
# Bulk Modulus (GPa) = 62.67858 68.74838 65.71348
# Shear Modulus (GPa) = 25.94361 29.40623 27.67492
#
# Velocity S-wave (km/s) = 3.70174 3.94103 3.82326
# Velocity P-wave (km/s) = 7.16770 7.55118 7.36194
#
# Compressibility (1/GPa) = 0.01595441
#
# Stress axis : x y z
#
# Youngs Moduli (GPa) = 64.04566 83.73699 47.71223
#
# Poissons Ratio (x) = 0.11948 0.33314
# Poissons Ratio (y) = 0.09138 0.37555
# Poissons Ratio (z) = 0.44718 0.65911
#
# Static dielectric constant tensor:
#      x y z
#    x 3.822620 0.000000 -0.054140 
#    y 0.000000 3.831450 0.000000 
#    z -0.054140 0.000000 3.472150 
# 
# 
# High freq. dielectric constant tensor:
#      x y z
#    x 1.750000 0.000000 -0.008410 
#    y 0.000000 1.732180 0.000000 
#    z -0.008410 0.000000 1.730360 
# 
# From -- ./inp_files/218626.got.cif
#   From: 2010.06.25/outbox.cif.g09.slc.cpg/sg15_110_cif.got.tgz:218626.got - 2010.06.28 07:06:18.
