data_PCOD8132368
_publ_section_title
;
Structure prediction by ZEFSAII (Michael W. Deem and Ramdas Pophale) SiO2 
 PCOD8132368
Probable space group: C 2/C
;
_chemical_formula_sum "Si O2"
_cell_formula_units_Z 56
_cell_length_a 7.636799
_cell_length_b 25.596911
_cell_length_c 13.923602
_cell_angle_alpha 90.000000
_cell_angle_beta 114.238715
_cell_angle_gamma 90.000000
_cell_volume 2481.821544
_symmetry_space_group_name_H-M "C 2/C"
_symmetry_group_IT_number 15
_symmetry_cell_setting 'monoclinic'
loop_
_space_group_symop_operation_xyz
x,y,z
-x,y,1/2-z
-x,-y,-z
x,-y,1/2+z
1/2+x,1/2+y,z
1/2-x,1/2+y,1/2-z
1/2-x,1/2-y,-z
1/2+x,1/2-y,1/2+z
loop_
_atom_site_type_symbol
_atom_site_label
_atom_site_fract_x
_atom_site_fract_y
_atom_site_fract_z
Si Si1 0.500000 0.433658 0.750000
Si Si2 0.271747 0.369872 0.936656
Si Si3 0.000000 0.690379 0.250000
Si Si4 0.674093 0.091268 0.854523
Si Si5 0.779116 0.243067 0.177560
Si Si6 0.026265 0.162614 0.646930
Si Si7 0.674855 0.482168 0.603541
Si Si8 0.322873 0.641492 0.072791
O O1 0.602611 0.469890 0.694537
O O2 0.668527 0.397067 0.833259
O O3 0.077379 0.343990 0.855427
O O4 0.231567 0.431833 0.926958
O O5 0.458464 0.357499 0.914898
O O6 0.316282 0.344793 0.051518
O O7 0.821947 0.724276 0.247145
O O8 0.500000 0.111746 0.750000
O O9 0.868071 0.106991 0.841184
O O10 0.668372 0.028451 0.860732
O O11 0.674944 0.118360 0.960321
O O12 0.661111 0.295170 0.120144
O O13 0.759240 0.199550 0.089876
O O14 0.000000 0.256561 0.250000
O O15 0.000000 0.179667 0.750000
O O16 0.500000 0.500000 0.500000
#
# Coordination Sequence:
#
# PCOD8132368 Si02
#       8
#     4   8   4   8   8   8   8   8
#     4  10  18  36  69  96 121 178 240 282 342 416
#     4  10  23  42  68 100 137 179 235 290 343 419
#     4  12  24  44  69 106 135 176 240 296 334 418
#     4  11  25  43  63 101 144 182 230 285 354 432
#     4  12  23  44  73 103 136 181 238 290 348 417
#     4  11  25  45  67 100 140 182 226 288 363 421
#     4  11  20  41  68  98 135 186 232 285 356 419
#     4  10  20  43  67  95 133 182 235 285 346 406
#
# _framework density 22.564073
#
# number of rings (size 3 to 8) (size 9 to 14) (size 15 to 20)
#    0.000    1.143    7.143    1.286    2.000    4.000 
#    2.571    0.714    0.000    0.000    0.000    0.000 
#    0.000    0.000    0.000    0.000    0.000    0.000 
#
# Total GULP energy -347125.659094 kJ/mol
# GULP energy per Si atom -12397.344968 kJ/mol
# Density = 2.251272 g / cm^3
# Si number density = 22.564073 Si / 1000 Ang^3
#
#
#
# Elastic Constant Matrix: (Units=GPa)
#
#
# Indices 1 2 3 4 5 6 
#
# 1 47.4755 24.7553 28.3043 0.0000 6.1821 0.0000
# 2 24.7553 132.8854 47.2310 0.0000 1.9361 0.0000
# 3 28.3043 47.2310 176.7243 0.0000 15.9587 0.0000
# 4 0.0000 0.0000 0.0000 29.4777 0.0000 -4.1566
# 5 6.1821 1.9361 15.9587 0.0000 39.6875 0.0000
# 6 0.0000 0.0000 0.0000 -4.1566 0.0000 26.0923
#
#
#
# Elastic Compliance Matrix: (Units=1/GPa)
#
#
# Indices 1 2 3 4 5 6 
#
# 1 0.024953 -0.003617 -0.002796 0.000000 -0.002586 0.000000
# 2 -0.003617 0.008849 -0.001865 0.000000 0.000882 0.000000
# 3 -0.002796 -0.001865 0.006804 0.000000 -0.002210 0.000000
# 4 0.000000 0.000000 0.000000 0.034703 0.000000 0.005528
# 5 -0.002586 0.000882 -0.002210 0.000000 0.026445 0.000000
# 6 0.000000 0.000000 0.000000 0.005528 0.000000 0.039206
#
#
# Mechanical properties :
#
#
# Convention : Reuss Voigt Hill
#
# Bulk Modulus (GPa) = 41.58062 61.96295 51.77178
# Shear Modulus (GPa) = 30.20493 36.17115 33.18804
#
# Velocity S-wave (km/s) = 3.66270 4.00814 3.83931
# Velocity P-wave (km/s) = 6.02951 6.99577 6.53053
#
# Compressibility (1/GPa) = 0.02404967
#
# Stress axis : x y z
#
# Youngs Moduli (GPa) = 40.07467 113.00399 146.96247
#
# Poissons Ratio (x) = 0.40874 0.41096
# Poissons Ratio (y) = 0.14495 0.27414
# Poissons Ratio (z) = 0.11206 0.21079
#
# Static dielectric constant tensor:
#      x y z
#    x 3.722230 0.000000 0.011250 
#    y 0.000000 4.611140 0.000000 
#    z 0.011250 0.000000 4.393850 
# 
# 
# High freq. dielectric constant tensor:
#      x y z
#    x 1.855820 0.000000 0.001330 
#    y 0.000000 1.903020 0.000000 
#    z 0.001330 0.000000 1.898980 
# 
# From -- ./inp_files/138722.got.cif
#   From: 2010.06.25/outbox.cif.g09.slc.cpg/sg15_70_cif.got.tgz:138722.got - 2010.06.28 07:06:18.
