data_PCOD8132102
_publ_section_title
;
Structure prediction by ZEFSAII (Michael W. Deem and Ramdas Pophale) SiO2 
 PCOD8132102
Probable space group: C 2/C
;
_chemical_formula_sum "Si O2"
_cell_formula_units_Z 48
_cell_length_a 22.766771
_cell_length_b 13.886120
_cell_length_c 15.098523
_cell_angle_alpha 90.000000
_cell_angle_beta 27.516411
_cell_angle_gamma 90.000000
_cell_volume 2205.267573
_symmetry_space_group_name_H-M "C 2/C"
_symmetry_group_IT_number 15
_symmetry_cell_setting 'monoclinic'
loop_
_space_group_symop_operation_xyz
x,y,z
-x,y,1/2-z
-x,-y,-z
x,-y,1/2+z
1/2+x,1/2+y,z
1/2-x,1/2+y,1/2-z
1/2-x,1/2-y,-z
1/2+x,1/2-y,1/2+z
loop_
_atom_site_type_symbol
_atom_site_label
_atom_site_fract_x
_atom_site_fract_y
_atom_site_fract_z
Si Si1 0.017492 0.818587 0.884859
Si Si2 0.757346 0.848964 0.653895
Si Si3 0.500000 0.700891 0.750000
Si Si4 0.746759 0.571329 0.143806
Si Si5 0.744914 0.370477 0.216542
Si Si6 0.996005 0.682792 0.077671
Si Si7 0.000000 0.674559 0.750000
O O1 0.135415 0.892056 0.727603
O O2 0.037291 0.740626 0.782491
O O3 0.882165 0.874049 0.051805
O O4 0.015659 0.768392 0.982258
O O5 0.881529 0.871397 0.428659
O O6 0.773663 0.892522 0.728852
O O7 0.751079 0.732658 0.661454
O O8 0.625209 0.884410 0.786172
O O9 0.529510 0.770110 0.793124
O O10 0.739850 0.455628 0.151124
O O11 0.881699 0.606412 0.928248
O O12 0.876109 0.382912 0.096766
#
# Coordination Sequence:
#
# PCOD8132102 Si02
#       7
#     8   8   4   8   8   8   4
#     4  11  21  45  69  94 137 186 226 285 341 412
#     4  10  21  40  63  93 130 177 215 286 341 401
#     4  10  18  35  67  88 124 172 218 257 349 400
#     4  12  23  41  69 100 133 178 232 281 341 406
#     4  10  22  39  69  95 132 175 225 287 338 393
#     4  10  19  39  66  91 129 171 221 276 343 403
#     4  12  24  43  73  98 138 194 226 271 361 404
#
# _framework density 21.766065999999999
#
# number of rings (size 3 to 8) (size 9 to 14) (size 15 to 20)
#    0.000    1.333    6.667    1.500    0.000    3.333 
#    0.000    0.833    7.333    0.000    0.000    0.000 
#    0.000    0.000    0.000    0.000    0.000    0.000 
#
# Total GULP energy -297468.624683 kJ/mol
# GULP energy per Si atom -12394.526028 kJ/mol
# Density = 2.171653 g / cm^3
# Si number density = 21.766066 Si / 1000 Ang^3
#
#
#
# Elastic Constant Matrix: (Units=GPa)
#
#
# Indices 1 2 3 4 5 6 
#
# 1 71.4996 5.5344 38.2530 0.0000 -6.6658 0.0000
# 2 5.5344 76.5742 26.2156 0.0000 2.1727 0.0000
# 3 38.2530 26.2156 154.7377 0.0000 -29.7760 0.0000
# 4 0.0000 0.0000 0.0000 43.7469 0.0000 20.4296
# 5 -6.6658 2.1727 -29.7760 0.0000 54.7238 0.0000
# 6 0.0000 0.0000 0.0000 20.4296 0.0000 27.7981
#
#
#
# Elastic Compliance Matrix: (Units=1/GPa)
#
#
# Indices 1 2 3 4 5 6 
#
# 1 0.016124 0.000238 -0.004077 0.000000 -0.000264 0.000000
# 2 0.000238 0.014074 -0.002843 0.000000 -0.002077 0.000000
# 3 -0.004077 -0.002843 0.008800 0.000000 0.004404 0.000000
# 4 0.000000 0.000000 0.000000 0.034804 0.000000 -0.025578
# 5 -0.000264 -0.002077 0.004404 0.000000 0.020720 0.000000
# 6 0.000000 0.000000 0.000000 -0.025578 0.000000 0.054772
#
#
# Mechanical properties :
#
#
# Convention : Reuss Voigt Hill
#
# Bulk Modulus (GPa) = 39.01076 49.20196 44.10636
# Shear Modulus (GPa) = 29.20513 40.77433 34.98973
#
# Velocity S-wave (km/s) = 3.66700 4.33286 4.01376
# Velocity P-wave (km/s) = 5.99089 6.90547 6.46438
#
# Compressibility (1/GPa) = 0.02563396
#
# Stress axis : x y z
#
# Youngs Moduli (GPa) = 62.01771 71.05178 113.64104
#
# Poissons Ratio (x) = -0.01691 0.46334
# Poissons Ratio (y) = -0.01476 0.32307
# Poissons Ratio (z) = 0.25286 0.20199
#
# Static dielectric constant tensor:
#      x y z
#    x 3.844430 0.000000 -1.431690 
#    y 0.000000 3.615170 0.000000 
#    z -1.431690 0.000000 3.151860 
# 
# 
# High freq. dielectric constant tensor:
#      x y z
#    x 1.853710 0.000000 -0.027560 
#    y 0.000000 1.820670 0.000000 
#    z -0.027560 0.000000 1.876300 
# 
# From -- ./inp_files/154142.got.cif
#   From: 2010.06.25/outbox.cif.g09.slc.cpg/sg15_78_cif.got.tgz:154142.got - 2010.06.28 07:06:18.
