data_PCOD8132385
_publ_section_title
;
Structure prediction by ZEFSAII (Michael W. Deem and Ramdas Pophale) SiO2 
 PCOD8132385
Probable space group: C 2/C
;
_chemical_formula_sum "Si O2"
_cell_formula_units_Z 48
_cell_length_a 9.870178
_cell_length_b 15.271624
_cell_length_c 33.466573
_cell_angle_alpha 90.000000
_cell_angle_beta 149.641830
_cell_angle_gamma 90.000000
_cell_volume 2549.529652
_symmetry_space_group_name_H-M "C 2/C"
_symmetry_group_IT_number 15
_symmetry_cell_setting 'monoclinic'
loop_
_space_group_symop_operation_xyz
x,y,z
-x,y,1/2-z
-x,-y,-z
x,-y,1/2+z
1/2+x,1/2+y,z
1/2-x,1/2+y,1/2-z
1/2-x,1/2-y,-z
1/2+x,1/2-y,1/2+z
loop_
_atom_site_type_symbol
_atom_site_label
_atom_site_fract_x
_atom_site_fract_y
_atom_site_fract_z
Si Si1 0.520852 0.494074 0.829860
Si Si2 0.013405 0.523772 0.842452
Si Si3 0.517586 0.908640 0.918246
Si Si4 0.614926 0.668139 0.738337
Si Si5 0.031208 0.932079 0.100204
Si Si6 0.799646 0.751412 0.320088
O O1 0.224323 0.465479 0.738612
O O2 0.739584 0.425329 0.870598
O O3 0.585815 0.590511 0.827812
O O4 0.524937 0.498173 0.878947
O O5 0.081511 0.484976 0.902995
O O6 0.909499 0.624376 0.820219
O O7 0.279755 0.520799 0.883784
O O8 0.504845 0.815267 0.892943
O O9 0.752633 0.903465 0.010056
O O10 0.500000 0.709239 0.750000
O O11 0.632712 0.744393 0.709943
O O12 0.180378 0.847917 0.156096
O O13 0.500000 0.716044 0.250000
#
# Coordination Sequence:
#
# PCOD8132385 Si02
#       6
#     8   8   8   8   8   8
#     4   9  18  35  58  81 106 150 193 223 268 348
#     4  10  18  37  58  81 105 155 193 226 271 349
#     4  12  22  34  56  91 117 138 189 253 284 313
#     4   9  17  35  61  77 100 149 202 222 269 346
#     4  11  21  36  57  85 118 150 183 235 294 337
#     4  11  21  37  58  80 112 155 190 231 282 349
#
# _framework density 18.827000999999999
#
# number of rings (size 3 to 8) (size 9 to 14) (size 15 to 20)
#    1.000    0.667    3.333    3.500    0.000    0.000 
#    0.000    3.333    0.000    1.000    0.000    0.000 
#    0.000    0.000    0.000    0.000    0.000    0.000 
#
# Total GULP energy -297552.899070 kJ/mol
# GULP energy per Si atom -12398.037461 kJ/mol
# Density = 1.878415 g / cm^3
# Si number density = 18.827001 Si / 1000 Ang^3
#
#
#
# Elastic Constant Matrix: (Units=GPa)
#
#
# Indices 1 2 3 4 5 6 
#
# 1 122.5866 21.2232 19.8252 -0.0013 -1.5248 0.0004
# 2 21.2232 33.6365 0.9683 -0.0001 0.9258 -0.0008
# 3 19.8252 0.9683 76.5302 -0.0012 -0.1935 -0.0009
# 4 -0.0013 -0.0001 -0.0012 21.1901 -0.0015 -2.4732
# 5 -1.5248 0.9258 -0.1935 -0.0015 29.7216 0.0007
# 6 0.0004 -0.0008 -0.0009 -2.4732 0.0007 17.8640
#
#
#
# Elastic Compliance Matrix: (Units=1/GPa)
#
#
# Indices 1 2 3 4 5 6 
#
# 1 0.009594 -0.006003 -0.002408 0.000000 0.000664 -0.000001
# 2 -0.006003 0.033522 0.001127 0.000000 -0.001345 0.000002
# 3 -0.002408 0.001127 0.013676 0.000001 -0.000070 0.000001
# 4 0.000000 0.000000 0.000001 0.047967 0.000002 0.006641
# 5 0.000664 -0.001345 -0.000070 0.000002 0.033721 -0.000001
# 6 -0.000001 0.000002 0.000001 0.006641 -0.000001 0.056898
#
#
# Mechanical properties :
#
#
# Convention : Reuss Voigt Hill
#
# Bulk Modulus (GPa) = 23.68208 35.19853 29.44030
# Shear Modulus (GPa) = 22.31952 26.47091 24.39521
#
# Velocity S-wave (km/s) = 3.44685 3.75374 3.60357
# Velocity P-wave (km/s) = 5.33359 6.12567 5.74330
#
# Compressibility (1/GPa) = 0.04222603
#
# Stress axis : x y z
#
# Youngs Moduli (GPa) = 104.22781 29.83157 73.12065
#
# Poissons Ratio (x) = 0.17907 0.17606
# Poissons Ratio (y) = 0.62564 -0.08244
# Poissons Ratio (z) = 0.25096 -0.03363
#
# Static dielectric constant tensor:
#      x y z
#    x 3.463220 0.000000 -0.133910 
#    y 0.000000 3.001580 0.000000 
#    z -0.133910 0.000000 3.286140 
# 
# 
# High freq. dielectric constant tensor:
#      x y z
#    x 1.741540 0.000000 -0.008890 
#    y 0.000000 1.696090 0.000000 
#    z -0.008890 0.000000 1.720060 
# 
# From -- ./inp_files/308848.got.cif
#   From: 2010.06.25/outbox.cif.g09.slc.cpg/sg15_155_cif.got.tgz:308848.got - 2010.06.28 07:06:18.
