data_PCOD8132886
_publ_section_title
;
Structure prediction by ZEFSAII (Michael W. Deem and Ramdas Pophale) SiO2 
 PCOD8132886
Probable space group: C 2/C
;
_chemical_formula_sum "Si O2"
_cell_formula_units_Z 64
_cell_length_a 14.653418
_cell_length_b 23.677593
_cell_length_c 14.862604
_cell_angle_alpha 90.000000
_cell_angle_beta 138.903892
_cell_angle_gamma 90.000000
_cell_volume 3389.619290
_symmetry_space_group_name_H-M "C 2/C"
_symmetry_group_IT_number 15
_symmetry_cell_setting 'monoclinic'
loop_
_space_group_symop_operation_xyz
x,y,z
-x,y,1/2-z
-x,-y,-z
x,-y,1/2+z
1/2+x,1/2+y,z
1/2-x,1/2+y,1/2-z
1/2-x,1/2-y,-z
1/2+x,1/2-y,1/2+z
loop_
_atom_site_type_symbol
_atom_site_label
_atom_site_fract_x
_atom_site_fract_y
_atom_site_fract_z
Si Si1 0.135191 0.405121 0.908333
Si Si2 0.409323 0.392343 0.417301
Si Si3 0.641826 0.535151 0.023056
Si Si4 0.112939 0.072467 0.404976
Si Si5 0.177104 0.713458 0.522092
Si Si6 0.631808 0.025396 0.999142
Si Si7 0.554605 0.292906 0.188097
Si Si8 0.323327 0.967836 0.289919
O O1 0.278161 0.410817 0.958559
O O2 0.111099 0.463469 0.941752
O O3 0.000000 0.390254 0.750000
O O4 0.161328 0.352920 0.993464
O O5 0.521520 0.443275 0.499012
O O6 0.384514 0.384628 0.506647
O O7 0.470391 0.341027 0.405406
O O8 0.269350 0.412049 0.261649
O O9 0.762131 0.497349 0.156516
O O10 0.573138 0.492755 0.898882
O O11 0.267465 0.069321 0.476337
O O12 0.000000 0.095742 0.250000
O O13 0.250000 0.750000 0.500000
O O14 0.279871 0.720282 0.684402
O O15 0.022955 0.739557 0.415116
O O16 0.479909 0.053574 0.889737
O O17 0.689479 0.014570 0.141733
O O18 0.500000 0.308355 0.250000
#
# Coordination Sequence:
#
# PCOD8132886 Si02
#       8
#     8   8   8   8   8   8   8   8
#     4  11  19  31  49  75 104 146 181 216 281 337
#     4  11  21  32  53  77 111 148 188 225 272 335
#     4  10  19  30  48  72 109 148 183 223 260 327
#     4  10  20  33  51  75 111 151 191 223 269 322
#     4  10  20  34  54  76 107 137 177 228 284 343
#     4  10  20  32  51  72 114 151 179 230 266 326
#     4  10  21  38  56  82 111 143 180 235 289 343
#     4  10  19  33  47  76 111 147 190 224 270 327
#
# _framework density 18.881176
#
# number of rings (size 3 to 8) (size 9 to 14) (size 15 to 20)
#    0.000    1.750    1.250    6.375    0.000    2.500 
#    0.000    0.000    2.750    0.000    0.000    0.875 
#    0.000    0.000    0.000    0.000    0.000    0.000 
#
# Total GULP energy -396485.252025 kJ/mol
# GULP energy per Si atom -12390.164126 kJ/mol
# Density = 1.883820 g / cm^3
# Si number density = 18.881176 Si / 1000 Ang^3
#
#
#
# Elastic Constant Matrix: (Units=GPa)
#
#
# Indices 1 2 3 4 5 6 
#
# 1 83.9791 10.6993 25.1084 0.0000 -0.8275 0.0000
# 2 10.6993 49.4201 18.8349 0.0000 -1.3671 0.0000
# 3 25.1084 18.8349 109.6197 0.0000 6.2820 0.0000
# 4 0.0000 0.0000 0.0000 21.9614 0.0000 1.3119
# 5 -0.8275 -1.3671 6.2820 0.0000 22.7069 0.0000
# 6 0.0000 0.0000 0.0000 1.3119 0.0000 17.2315
#
#
#
# Elastic Compliance Matrix: (Units=1/GPa)
#
#
# Indices 1 2 3 4 5 6 
#
# 1 0.012957 -0.001732 -0.002735 0.000000 0.001125 0.000000
# 2 -0.001732 0.022010 -0.003513 0.000000 0.002234 0.000000
# 3 -0.002735 -0.003513 0.010537 0.000000 -0.003226 0.000000
# 4 0.000000 0.000000 0.000000 0.045742 0.000000 -0.003483
# 5 0.001125 0.002234 -0.003226 0.000000 0.045107 0.000000
# 6 0.000000 0.000000 0.000000 -0.003483 0.000000 0.058298
#
#
# Mechanical properties :
#
#
# Convention : Reuss Voigt Hill
#
# Bulk Modulus (GPa) = 33.84621 39.14489 36.49555
# Shear Modulus (GPa) = 22.67975 24.93839 23.80907
#
# Velocity S-wave (km/s) = 3.46957 3.63823 3.55490
# Velocity P-wave (km/s) = 5.83227 6.19889 6.01837
#
# Compressibility (1/GPa) = 0.02954541
#
# Stress axis : x y z
#
# Youngs Moduli (GPa) = 77.17788 45.43315 94.90042
#
# Poissons Ratio (x) = 0.07868 0.25952
# Poissons Ratio (y) = 0.13366 0.33340
# Poissons Ratio (z) = 0.21106 0.15962
#
# Static dielectric constant tensor:
#      x y z
#    x 3.529150 0.000000 0.231340 
#    y 0.000000 3.169740 0.000000 
#    z 0.231340 0.000000 3.898320 
# 
# 
# High freq. dielectric constant tensor:
#      x y z
#    x 1.721140 0.000000 0.015040 
#    y 0.000000 1.685930 0.000000 
#    z 0.015040 0.000000 1.753430 
# 
# From -- ./inp_files/156801.got.cif
#   From: 2010.06.25/outbox.cif.g09.slc.cpg/sg15_79_cif.got.tgz:156801.got - 2010.06.28 07:06:18.
