data_PCOD8132484
_publ_section_title
;
Structure prediction by ZEFSAII (Michael W. Deem and Ramdas Pophale) SiO2 
 PCOD8132484
Probable space group: C 2/C
;
_chemical_formula_sum "Si O2"
_cell_formula_units_Z 60
_cell_length_a 21.312295
_cell_length_b 9.947491
_cell_length_c 17.662274
_cell_angle_alpha 90.000000
_cell_angle_beta 126.066068
_cell_angle_gamma 90.000000
_cell_volume 3026.800186
_symmetry_space_group_name_H-M "C 2/C"
_symmetry_group_IT_number 15
_symmetry_cell_setting 'monoclinic'
loop_
_space_group_symop_operation_xyz
x,y,z
-x,y,1/2-z
-x,-y,-z
x,-y,1/2+z
1/2+x,1/2+y,z
1/2-x,1/2+y,1/2-z
1/2-x,1/2-y,-z
1/2+x,1/2-y,1/2+z
loop_
_atom_site_type_symbol
_atom_site_label
_atom_site_fract_x
_atom_site_fract_y
_atom_site_fract_z
Si Si1 0.238517 0.432673 0.657095
Si Si2 0.841708 0.072307 0.083803
Si Si3 0.500000 0.599145 0.250000
Si Si4 0.704268 0.775628 0.184546
Si Si5 0.415340 0.038204 0.201208
Si Si6 0.386355 0.154765 0.542305
Si Si7 0.747642 0.852649 0.931092
Si Si8 0.444864 0.197217 0.830996
O O1 0.305548 0.430964 0.641772
O O2 0.246097 0.308466 0.719821
O O3 0.238652 0.573395 0.703093
O O4 0.156658 0.413361 0.558039
O O5 0.932253 0.017723 0.156396
O O6 0.840384 0.220062 0.045950
O O7 0.789530 0.987978 0.988432
O O8 0.553183 0.692695 0.234279
O O9 0.703506 0.705151 0.103092
O O10 0.614998 0.768545 0.145964
O O11 0.500000 0.110998 0.250000
O O12 0.342193 0.136392 0.160071
O O13 0.396374 0.954508 0.113681
O O14 0.420203 0.944984 0.278246
O O15 0.470516 0.196027 0.570438
O O16 0.750000 0.750000 0.000000
#
# Coordination Sequence:
#
# PCOD8132484 Si02
#       8
#     8   8   4   8   8   8   8   8
#     4  12  24  41  64  96 131 167 215 270 329 383
#     4  11  21  39  70  91 126 170 217 259 320 400
#     4  10  18  40  66 100 124 162 218 270 322 394
#     4  12  26  41  63  95 134 169 209 276 323 390
#     4  10  18  37  68  96 122 160 222 273 317 380
#     4  10  20  37  68  97 119 168 222 260 318 397
#     4  12  25  43  59  93 135 177 217 261 327 392
#     4  10  19  38  64  97 125 164 217 275 319 378
#
# _framework density 19.822913
#
# number of rings (size 3 to 8) (size 9 to 14) (size 15 to 20)
#    0.000    1.067    7.333    1.200    3.733    0.533 
#    1.200    5.333    0.000    0.000    0.000    0.000 
#    0.000    0.000    0.000    0.000    0.000    0.000 
#
# Total GULP energy -371849.742161 kJ/mol
# GULP energy per Si atom -12394.991405 kJ/mol
# Density = 1.977779 g / cm^3
# Si number density = 19.822913 Si / 1000 Ang^3
#
#
#
# Elastic Constant Matrix: (Units=GPa)
#
#
# Indices 1 2 3 4 5 6 
#
# 1 150.2997 44.8748 50.4026 0.0000 0.3987 0.0000
# 2 44.8748 86.3141 42.1565 0.0000 -1.9740 0.0000
# 3 50.4026 42.1565 96.6000 0.0000 8.9236 0.0000
# 4 0.0000 0.0000 0.0000 -39.8418 0.0000 -2.0260
# 5 0.3987 -1.9740 8.9236 0.0000 41.2245 0.0000
# 6 0.0000 0.0000 0.0000 -2.0260 0.0000 15.0243
#
#
#
# Elastic Compliance Matrix: (Units=1/GPa)
#
#
# Indices 1 2 3 4 5 6 
#
# 1 0.008609 -0.002857 -0.003290 0.000000 0.000492 0.000000
# 2 -0.002857 0.015859 -0.005615 0.000000 0.002003 0.000000
# 3 -0.003290 -0.005615 0.014838 0.000000 -0.003449 0.000000
# 4 0.000000 0.000000 0.000000 -0.024928 0.000000 -0.003362
# 5 0.000492 0.002003 -0.003449 0.000000 0.025095 0.000000
# 6 0.000000 0.000000 0.000000 -0.003362 0.000000 0.066106
#
#
# Mechanical properties :
#
#
# Convention : Reuss Voigt Hill
#
# Bulk Modulus (GPa) = 63.37032 67.56463 65.46747
# Shear Modulus (GPa) = 37.21244 16.33339 26.77292
#
# Velocity S-wave (km/s) = 4.33742 2.87359 3.67904
# Velocity P-wave (km/s) = 7.55790 6.72073 7.15157
#
# Compressibility (1/GPa) = 0.01578026
#
# Stress axis : x y z
#
# Youngs Moduli (GPa) = 116.16382 63.05382 67.39577
#
# Poissons Ratio (x) = 0.18017 0.22174
# Poissons Ratio (y) = 0.33193 0.37844
# Poissons Ratio (z) = 0.38219 0.35406
#
# Static dielectric constant tensor:
#      x y z
#    x 3.891360 0.000000 0.269840 
#    y 0.000000 3.524470 0.000000 
#    z 0.269840 0.000000 3.562800 
# 
# 
# High freq. dielectric constant tensor:
#      x y z
#    x 1.783220 0.000000 0.012930 
#    y 0.000000 1.751310 0.000000 
#    z 0.012930 0.000000 1.776090 
# 
# From -- ./inp_files/214308.got.cif
#   From: 2010.06.25/outbox.cif.g09.slc.cpg/sg15_108_cif.got.tgz:214308.got - 2010.06.28 07:06:18.
