data_PCOD8132270
_publ_section_title
;
Structure prediction by ZEFSAII (Michael W. Deem and Ramdas Pophale) SiO2 
 PCOD8132270
Probable space group: C 2/C
;
_chemical_formula_sum "Si O2"
_cell_formula_units_Z 48
_cell_length_a 11.789184
_cell_length_b 10.685433
_cell_length_c 19.573950
_cell_angle_alpha 90.000000
_cell_angle_beta 63.366967
_cell_angle_gamma 90.000000
_cell_volume 2204.150834
_symmetry_space_group_name_H-M "C 2/C"
_symmetry_group_IT_number 15
_symmetry_cell_setting 'monoclinic'
loop_
_space_group_symop_operation_xyz
x,y,z
-x,y,1/2-z
-x,-y,-z
x,-y,1/2+z
1/2+x,1/2+y,z
1/2-x,1/2+y,1/2-z
1/2-x,1/2-y,-z
1/2+x,1/2-y,1/2+z
loop_
_atom_site_type_symbol
_atom_site_label
_atom_site_fract_x
_atom_site_fract_y
_atom_site_fract_z
Si Si1 0.065104 0.225045 0.061693
Si Si2 0.957357 0.260480 0.836485
Si Si3 0.251626 0.855101 0.399868
Si Si4 0.707924 0.634027 0.369846
Si Si5 0.594809 0.523349 0.166392
Si Si6 0.287098 0.153799 0.191863
O O1 0.116428 0.346996 0.090904
O O2 0.915742 0.220520 0.084382
O O3 0.093405 0.102009 0.098218
O O4 0.142272 0.218097 0.970672
O O5 0.817028 0.310382 0.889150
O O6 0.952710 0.111588 0.844459
O O7 0.000000 0.300588 0.750000
O O8 0.060818 0.326756 0.857617
O O9 0.277245 0.778751 0.322940
O O10 0.197628 0.991079 0.396679
O O11 0.743488 0.641425 0.281176
O O12 0.500000 0.577532 0.250000
O O13 0.736095 0.532731 0.162681
#
# Coordination Sequence:
#
# PCOD8132270 Si02
#       6
#     8   8   8   8   8   8
#     4  10  21  40  61  88 117 159 201 246 310 354
#     4   9  21  35  52  88 123 149 195 256 301 345
#     4  10  23  39  60  89 124 150 201 261 291 363
#     4  11  21  37  61  89 115 162 203 241 309 365
#     4  10  18  36  62  82 114 157 203 246 294 367
#     4  10  21  37  58  88 118 154 200 250 298 351
#
# _framework density 21.777094000000002
#
# number of rings (size 3 to 8) (size 9 to 14) (size 15 to 20)
#    0.000    2.000    1.667    1.500    4.667    1.333 
#    6.000    3.333    0.000    6.000    0.000    0.000 
#    0.000    0.000    0.000    0.000    0.000    0.000 
#
# Total GULP energy -297320.445562 kJ/mol
# GULP energy per Si atom -12388.351898 kJ/mol
# Density = 2.172753 g / cm^3
# Si number density = 21.777094 Si / 1000 Ang^3
#
#
#
# Elastic Constant Matrix: (Units=GPa)
#
#
# Indices 1 2 3 4 5 6 
#
# 1 164.9263 34.4263 17.6788 0.0000 -27.6424 0.0000
# 2 34.4263 41.3504 20.2744 0.0000 -4.5424 0.0000
# 3 17.6788 20.2744 50.6368 0.0000 0.7539 0.0000
# 4 0.0000 0.0000 0.0000 13.5588 0.0000 -7.5875
# 5 -27.6424 -4.5424 0.7539 0.0000 26.7190 0.0000
# 6 0.0000 0.0000 0.0000 -7.5875 0.0000 28.4201
#
#
#
# Elastic Compliance Matrix: (Units=1/GPa)
#
#
# Indices 1 2 3 4 5 6 
#
# 1 0.008753 -0.006029 -0.000762 0.000000 0.008052 0.000000
# 2 -0.006029 0.035061 -0.011934 0.000000 0.000060 0.000000
# 3 -0.000762 -0.011934 0.024845 0.000000 -0.003518 0.000000
# 4 0.000000 0.000000 0.000000 0.086707 0.000000 0.023149
# 5 0.008052 0.000060 -0.003518 0.000000 0.045866 0.000000
# 6 0.000000 0.000000 0.000000 0.023149 0.000000 0.041367
#
#
# Mechanical properties :
#
#
# Convention : Reuss Voigt Hill
#
# Bulk Modulus (GPa) = 32.04190 44.63028 38.33609
# Shear Modulus (GPa) = 17.21453 26.04186 21.62820
#
# Velocity S-wave (km/s) = 2.81461 3.46184 3.15487
# Velocity P-wave (km/s) = 5.03073 6.04299 5.55995
#
# Compressibility (1/GPa) = 0.03120914
#
# Stress axis : x y z
#
# Youngs Moduli (GPa) = 114.24538 28.52153 40.24946
#
# Poissons Ratio (x) = 0.17197 0.03066
# Poissons Ratio (y) = 0.68883 0.48034
# Poissons Ratio (z) = 0.08702 0.34038
#
# Static dielectric constant tensor:
#      x y z
#    x 4.718000 0.000000 -0.109400 
#    y 0.000000 3.689060 0.000000 
#    z -0.109400 0.000000 3.739270 
# 
# 
# High freq. dielectric constant tensor:
#      x y z
#    x 1.876670 0.000000 0.005410 
#    y 0.000000 1.827580 0.000000 
#    z 0.005410 0.000000 1.836480 
# 
# From -- ./inp_files/236654.got.cif
#   From: 2010.06.25/outbox.cif.g09.slc.cpg/sg15_119_cif.got.tgz:236654.got - 2010.06.28 07:06:18.
