data_PCOD8132874
_publ_section_title
;
Structure prediction by ZEFSAII (Michael W. Deem and Ramdas Pophale) SiO2 
 PCOD8132874
Probable space group: C 2/C
;
_chemical_formula_sum "Si O2"
_cell_formula_units_Z 48
_cell_length_a 5.036789
_cell_length_b 25.088480
_cell_length_c 24.831644
_cell_angle_alpha 90.000000
_cell_angle_beta 120.469121
_cell_angle_gamma 90.000000
_cell_volume 2704.529707
_symmetry_space_group_name_H-M "C 2/C"
_symmetry_group_IT_number 15
_symmetry_cell_setting 'monoclinic'
loop_
_space_group_symop_operation_xyz
x,y,z
-x,y,1/2-z
-x,-y,-z
x,-y,1/2+z
1/2+x,1/2+y,z
1/2-x,1/2+y,1/2-z
1/2-x,1/2-y,-z
1/2+x,1/2-y,1/2+z
loop_
_atom_site_type_symbol
_atom_site_label
_atom_site_fract_x
_atom_site_fract_y
_atom_site_fract_z
Si Si1 0.145852 0.687174 0.209036
Si Si2 0.076775 0.531683 0.425968
Si Si3 0.803077 0.218317 0.425967
Si Si4 0.966273 0.680472 0.491529
Si Si5 0.350622 0.062827 0.290963
Si Si6 0.241369 0.930472 0.991529
O O1 0.500000 0.703992 0.250000
O O2 0.102396 0.625001 0.190904
O O3 0.000000 0.702731 0.250000
O O4 0.964879 0.721097 0.145816
O O5 0.131456 0.471615 0.451470
O O6 0.373919 0.570435 0.462139
O O7 0.985843 0.528905 0.354186
O O8 0.804733 0.554311 0.435542
O O9 0.686775 0.179566 0.462138
O O10 0.875908 0.278385 0.451470
O O11 0.122982 0.195688 0.435541
O O12 0.923032 0.625000 0.519213
O O13 0.500000 0.046040 0.250000
O O14 0.000000 0.047236 0.250000
#
# Coordination Sequence:
#
# PCOD8132874 Si02
#       6
#     8   8   8   8   8   8
#     4  10  19  30  46  68  96 128 157 192 237 285
#     4  10  20  32  49  74  99 126 162 200 244 295
#     4  10  20  32  49  74  99 126 162 200 244 295
#     4  10  19  32  51  73  98 127 158 201 249 291
#     4  10  19  30  46  68  96 128 157 192 237 285
#     4  10  19  32  51  73  98 127 158 201 249 291
#
# _framework density 17.748003000000001
#
# number of rings (size 3 to 8) (size 9 to 14) (size 15 to 20)
#    0.000    2.000    0.000    5.000    0.000    2.667 
#    0.000    0.000    0.000    1.000    0.000    2.333 
#    0.000    0.000    0.000    0.000    0.000    0.000 
#
# Total GULP energy -297500.778472 kJ/mol
# GULP energy per Si atom -12395.865770 kJ/mol
# Density = 1.770761 g / cm^3
# Si number density = 17.748003 Si / 1000 Ang^3
#
#
#
# Elastic Constant Matrix: (Units=GPa)
#
#
# Indices 1 2 3 4 5 6 
#
# 1 115.0020 32.2169 45.2836 0.0000 0.6093 0.0000
# 2 32.2169 85.8871 46.7706 0.0000 -0.1264 0.0000
# 3 45.2836 46.7706 124.8164 0.0000 -0.5378 0.0000
# 4 0.0000 0.0000 0.0000 18.7054 0.0000 0.0786
# 5 0.6093 -0.1264 -0.5378 0.0000 9.0251 0.0000
# 6 0.0000 0.0000 0.0000 0.0786 0.0000 26.8811
#
#
#
# Elastic Compliance Matrix: (Units=1/GPa)
#
#
# Indices 1 2 3 4 5 6 
#
# 1 0.010515 -0.002344 -0.002940 0.000000 -0.000918 0.000000
# 2 -0.002344 0.015151 -0.004826 0.000000 0.000083 0.000000
# 3 -0.002940 -0.004826 0.010890 0.000000 0.000780 0.000000
# 4 0.000000 0.000000 0.000000 0.053461 0.000000 -0.000156
# 5 -0.000918 0.000083 0.000780 0.000000 0.110911 0.000000
# 6 0.000000 0.000000 0.000000 -0.000156 0.000000 0.037201
#
#
# Mechanical properties :
#
#
# Convention : Reuss Voigt Hill
#
# Bulk Modulus (GPa) = 61.22165 63.80531 62.51348
# Shear Modulus (GPa) = 18.95398 24.35130 21.65264
#
# Velocity S-wave (km/s) = 3.27150 3.70815 3.49665
# Velocity P-wave (km/s) = 6.98857 7.37310 7.18341
#
# Compressibility (1/GPa) = 0.01633409
#
# Stress axis : x y z
#
# Youngs Moduli (GPa) = 95.10307 66.00236 91.82408
#
# Poissons Ratio (x) = 0.15474 0.26999
# Poissons Ratio (y) = 0.22296 0.44318
# Poissons Ratio (z) = 0.27963 0.31855
#
# Static dielectric constant tensor:
#      x y z
#    x 3.647390 0.000000 0.006030 
#    y 0.000000 3.174550 0.000000 
#    z 0.006030 0.000000 3.041660 
# 
# 
# High freq. dielectric constant tensor:
#      x y z
#    x 1.715890 0.000000 0.000440 
#    y 0.000000 1.657660 0.000000 
#    z 0.000440 0.000000 1.670680 
# 
# From -- ./inp_files/254129.got.cif
#   From: 2010.06.25/outbox.cif.g09.slc.cpg/sg15_128_cif.got.tgz:254129.got - 2010.06.28 07:06:18.
