data_PCOD8132276
_publ_section_title
;
Structure prediction by ZEFSAII (Michael W. Deem and Ramdas Pophale) SiO2 
 PCOD8132276
Probable space group: C 2/C
;
_chemical_formula_sum "Si O2"
_cell_formula_units_Z 36
_cell_length_a 21.530094
_cell_length_b 16.920577
_cell_length_c 12.645839
_cell_angle_alpha 90.000000
_cell_angle_beta 22.975315
_cell_angle_gamma 90.000000
_cell_volume 1798.231864
_symmetry_space_group_name_H-M "C 2/C"
_symmetry_group_IT_number 15
_symmetry_cell_setting 'monoclinic'
loop_
_space_group_symop_operation_xyz
x,y,z
-x,y,1/2-z
-x,-y,-z
x,-y,1/2+z
1/2+x,1/2+y,z
1/2-x,1/2+y,1/2-z
1/2-x,1/2-y,-z
1/2+x,1/2-y,1/2+z
loop_
_atom_site_type_symbol
_atom_site_label
_atom_site_fract_x
_atom_site_fract_y
_atom_site_fract_z
Si Si1 0.000000 0.664623 0.750000
Si Si2 0.255841 0.461396 0.613132
Si Si3 0.688084 0.729065 0.213718
Si Si4 0.076958 0.390327 0.354150
Si Si5 0.537225 0.571218 0.519851
O O1 0.929878 0.614155 0.763088
O O2 0.150333 0.716149 0.470556
O O3 0.231440 0.555508 0.636052
O O4 0.305312 0.447129 0.657421
O O5 0.385998 0.421654 0.333599
O O6 0.087771 0.424105 0.844690
O O7 0.595449 0.808539 0.391045
O O8 0.569256 0.653709 0.407963
O O9 0.750000 0.750000 0.000000
O O10 0.500000 0.500000 0.500000
#
# Coordination Sequence:
#
# PCOD8132276 Si02
#       5
#     4   8   8   8   8
#     4  10  18  36  62  84 126 156 200 258 300 366
#     4  10  23  39  63  92 129 162 206 259 317 371
#     4  10  21  35  61  89 118 164 206 254 304 368
#     4  10  21  39  61  94 123 165 209 253 314 377
#     4  11  22  41  63  93 127 165 207 262 312 377
#
# _framework density 20.019666000000001
#
# number of rings (size 3 to 8) (size 9 to 14) (size 15 to 20)
#    0.000    1.778    2.222    2.667    0.000    6.222 
#    0.000    0.000    0.000    0.000    0.000    0.000 
#    0.000    0.000    0.000    0.000    0.000    0.000 
#
# Total GULP energy -223026.379659 kJ/mol
# GULP energy per Si atom -12390.354426 kJ/mol
# Density = 1.997410 g / cm^3
# Si number density = 20.019666 Si / 1000 Ang^3
#
#
#
# Elastic Constant Matrix: (Units=GPa)
#
#
# Indices 1 2 3 4 5 6 
#
# 1 67.8329 43.7321 19.0342 0.0009 3.4674 -0.0002
# 2 43.7321 176.1067 58.7608 0.0012 -2.0710 -0.0007
# 3 19.0342 58.7608 97.4637 0.0005 -9.2354 -0.0007
# 4 0.0009 0.0012 0.0005 36.2109 -0.0010 1.6594
# 5 3.4674 -2.0710 -9.2354 -0.0010 24.2161 0.0004
# 6 -0.0002 -0.0007 -0.0007 1.6594 0.0004 30.3950
#
#
#
# Elastic Compliance Matrix: (Units=1/GPa)
#
#
# Indices 1 2 3 4 5 6 
#
# 1 0.017902 -0.004019 -0.001399 0.000000 -0.003441 0.000000
# 2 -0.004019 0.008037 -0.004089 0.000000 -0.000297 0.000000
# 3 -0.001399 -0.004089 0.013471 0.000000 0.004988 0.000000
# 4 0.000000 0.000000 0.000000 0.027685 0.000001 -0.001511
# 5 -0.003441 -0.000297 0.004988 0.000001 0.043664 0.000000
# 6 0.000000 0.000000 0.000000 -0.001511 0.000000 0.032983
#
#
# Mechanical properties :
#
#
# Convention : Reuss Voigt Hill
#
# Bulk Modulus (GPa) = 49.02852 64.93971 56.98412
# Shear Modulus (GPa) = 29.48890 32.82281 31.15585
#
# Velocity S-wave (km/s) = 3.84213 4.05350 3.94923
# Velocity P-wave (km/s) = 6.65026 7.37673 7.02290
#
# Compressibility (1/GPa) = 0.02039629
#
# Stress axis : x y z
#
# Youngs Moduli (GPa) = 55.86058 124.42048 74.23209
#
# Poissons Ratio (x) = 0.50007 0.10385
# Poissons Ratio (y) = 0.22451 0.30352
# Poissons Ratio (z) = 0.07815 0.50873
#
# Static dielectric constant tensor:
#      x y z
#    x 3.686480 0.000030 -0.480840 
#    y 0.000030 4.240330 -0.000050 
#    z -0.480840 -0.000050 4.249130 
# 
# 
# High freq. dielectric constant tensor:
#      x y z
#    x 1.761290 0.000000 -0.016290 
#    y 0.000000 1.782360 0.000000 
#    z -0.016290 0.000000 1.793000 
# 
# From -- ./inp_files/126952.got.cif
#   From: 2010.06.25/outbox.cif.g09.slc.cpg/sg15_64_cif.got.tgz:126952.got - 2010.06.28 07:06:18.
