data_PCOD8132200
_publ_section_title
;
Structure prediction by ZEFSAII (Michael W. Deem and Ramdas Pophale) SiO2 
 PCOD8132200
Probable space group: C 2/C
;
_chemical_formula_sum "Si O2"
_cell_formula_units_Z 48
_cell_length_a 25.662786
_cell_length_b 8.736062
_cell_length_c 15.594447
_cell_angle_alpha 90.000000
_cell_angle_beta 43.211430
_cell_angle_gamma 90.000000
_cell_volume 2393.784601
_symmetry_space_group_name_H-M "C 2/C"
_symmetry_group_IT_number 15
_symmetry_cell_setting 'monoclinic'
loop_
_space_group_symop_operation_xyz
x,y,z
-x,y,1/2-z
-x,-y,-z
x,-y,1/2+z
1/2+x,1/2+y,z
1/2-x,1/2+y,1/2-z
1/2-x,1/2-y,-z
1/2+x,1/2-y,1/2+z
loop_
_atom_site_type_symbol
_atom_site_label
_atom_site_fract_x
_atom_site_fract_y
_atom_site_fract_z
Si Si1 0.069211 0.867116 0.613207
Si Si2 0.831766 0.056552 0.892057
Si Si3 0.412698 0.927434 0.505516
Si Si4 0.165340 0.390789 0.550148
Si Si5 0.522125 0.588838 0.888059
Si Si6 0.934597 0.574844 0.165102
O O1 0.102678 0.746477 0.505469
O O2 0.000000 0.789366 0.750000
O O3 0.142166 0.912530 0.582504
O O4 0.034338 0.023664 0.616306
O O5 0.830848 0.207083 0.954071
O O6 0.889205 0.066745 0.742870
O O7 0.748157 0.030871 0.954028
O O8 0.384166 0.945665 0.638446
O O9 0.374244 0.051129 0.489162
O O10 0.504113 0.941106 0.398006
O O11 0.119938 0.441151 0.688816
O O12 0.513407 0.771318 0.904367
O O13 0.500000 0.500000 0.000000
#
# Coordination Sequence:
#
# PCOD8132200 Si02
#       6
#     8   8   8   8   8   8
#     4  10  19  33  57  85 109 144 190 237 282 330
#     4   9  21  37  58  79 112 152 191 223 291 345
#     4  11  21  35  58  85 113 147 190 239 281 330
#     4  10  20  40  57  79 118 155 184 230 284 350
#     4  10  18  36  59  82 109 143 187 241 277 337
#     4  10  21  36  58  86 112 150 191 230 287 338
#
# _framework density 20.051929999999999
#
# number of rings (size 3 to 8) (size 9 to 14) (size 15 to 20)
#    0.000    2.000    1.667    2.500    0.000    3.333 
#    3.000    0.000    0.000    0.000    0.000    0.000 
#    0.000    0.000    0.000    0.000    0.000    0.000 
#
# Total GULP energy -297494.535429 kJ/mol
# GULP energy per Si atom -12395.605643 kJ/mol
# Density = 2.000629 g / cm^3
# Si number density = 20.051930 Si / 1000 Ang^3
#
#
#
# Elastic Constant Matrix: (Units=GPa)
#
#
# Indices 1 2 3 4 5 6 
#
# 1 116.7152 28.4399 29.7609 -0.0036 10.3801 0.0001
# 2 28.4399 61.8167 13.6635 -0.0151 4.2908 0.0078
# 3 29.7609 13.6635 33.5929 -0.0180 0.5625 0.0096
# 4 -0.0036 -0.0151 -0.0180 24.8067 0.0067 7.3653
# 5 10.3801 4.2908 0.5625 0.0067 32.6935 -0.0022
# 6 0.0001 0.0078 0.0096 7.3653 -0.0022 32.8801
#
#
#
# Elastic Compliance Matrix: (Units=1/GPa)
#
#
# Indices 1 2 3 4 5 6 
#
# 1 0.012009 -0.003254 -0.009262 -0.000008 -0.003227 0.000005
# 2 -0.003254 0.018817 -0.004748 0.000009 -0.001355 -0.000005
# 3 -0.009262 -0.004748 0.039857 0.000029 0.002878 -0.000017
# 4 -0.000008 0.000009 0.000029 0.043184 -0.000009 -0.009673
# 5 -0.003227 -0.001355 0.002878 -0.000009 0.031740 0.000004
# 6 0.000005 -0.000005 -0.000017 -0.009673 0.000004 0.032580
#
#
# Mechanical properties :
#
#
# Convention : Reuss Voigt Hill
#
# Bulk Modulus (GPa) = 27.65855 39.53929 33.59892
# Shear Modulus (GPa) = 22.24518 27.42677 24.83597
#
# Velocity S-wave (km/s) = 3.33435 3.70237 3.52317
# Velocity P-wave (km/s) = 5.35231 6.16750 5.77431
#
# Compressibility (1/GPa) = 0.03615518
#
# Stress axis : x y z
#
# Youngs Moduli (GPa) = 83.26829 53.14208 25.08987
#
# Poissons Ratio (x) = 0.17292 0.23238
# Poissons Ratio (y) = 0.27095 0.11913
# Poissons Ratio (z) = 0.77122 0.25233
#
# Static dielectric constant tensor:
#      x y z
#    x 3.695620 -0.000040 0.177320 
#    y -0.000040 3.629510 0.000020 
#    z 0.177320 0.000020 3.591270 
# 
# 
# High freq. dielectric constant tensor:
#      x y z
#    x 1.780980 0.000000 0.014620 
#    y 0.000000 1.780920 0.000000 
#    z 0.014620 0.000000 1.767420 
# 
# From -- ./inp_files/176913.got.cif
#   From: 2010.06.25/outbox.cif.g09.slc.cpg/sg15_89_cif.got.tgz:176913.got - 2010.06.28 07:06:18.
