data_PCOD8132090
_publ_section_title
;
Structure prediction by ZEFSAII (Michael W. Deem and Ramdas Pophale) SiO2 
 PCOD8132090
Probable space group: C 2/C
;
_chemical_formula_sum "Si O2"
_cell_formula_units_Z 40
_cell_length_a 8.471329
_cell_length_b 23.294287
_cell_length_c 13.927448
_cell_angle_alpha 90.000000
_cell_angle_beta 32.793110
_cell_angle_gamma 90.000000
_cell_volume 1488.527580
_symmetry_space_group_name_H-M "C 2/C"
_symmetry_group_IT_number 15
_symmetry_cell_setting 'monoclinic'
loop_
_space_group_symop_operation_xyz
x,y,z
-x,y,1/2-z
-x,-y,-z
x,-y,1/2+z
1/2+x,1/2+y,z
1/2-x,1/2+y,1/2-z
1/2-x,1/2-y,-z
1/2+x,1/2-y,1/2+z
loop_
_atom_site_type_symbol
_atom_site_label
_atom_site_fract_x
_atom_site_fract_y
_atom_site_fract_z
Si Si1 0.755483 0.885114 0.947710
Si Si2 0.145687 0.073429 0.578039
Si Si3 0.898290 0.509491 0.694860
Si Si4 0.497115 0.671093 0.988055
Si Si5 0.957684 0.722542 0.608714
O O1 0.571674 0.833222 0.990863
O O2 0.000000 0.907770 0.750000
O O3 0.520727 0.932615 0.089174
O O4 0.890062 0.866006 0.980524
O O5 0.950953 0.019058 0.636169
O O6 0.181442 0.127221 0.487777
O O7 0.000000 0.096465 0.750000
O O8 0.468665 0.045860 0.431000
O O9 0.000000 0.497766 0.750000
O O10 0.307703 0.726945 0.120698
O O11 0.759674 0.699801 0.795365
O O12 0.250000 0.750000 0.500000
#
# Coordination Sequence:
#
# PCOD8132090 Si02
#       5
#     8   8   8   8   8
#     4  11  20  36  68 106 142 185 247 306 361 430
#     4  12  27  48  73 110 155 196 247 304 380 447
#     4  12  24  48  76 106 149 195 248 311 368 447
#     4  11  22  41  66 107 148 190 245 312 363 437
#     4  10  18  35  64  99 139 184 242 298 359 425
#
# _framework density 26.872192999999999
#
# number of rings (size 3 to 8) (size 9 to 14) (size 15 to 20)
#    0.000    0.800    4.000    6.600    0.000    0.000 
#    0.000    1.000    0.000    0.000    0.000    0.000 
#    0.000    0.000    0.000    0.000    0.000    0.000 
#
# Total GULP energy -247819.913486 kJ/mol
# GULP energy per Si atom -12390.995674 kJ/mol
# Density = 2.681103 g / cm^3
# Si number density = 26.872193 Si / 1000 Ang^3
#
#
#
# Elastic Constant Matrix: (Units=GPa)
#
#
# Indices 1 2 3 4 5 6 
#
# 1 52.7351 2.1575 -6.1433 0.0000 5.6506 0.0000
# 2 2.1575 123.6547 -2.7958 0.0000 0.6797 0.0000
# 3 -6.1433 -2.7958 66.5089 -0.0001 2.5452 -0.0001
# 4 0.0000 0.0000 -0.0001 29.7959 0.0000 19.2451
# 5 5.6506 0.6797 2.5452 0.0000 33.1898 0.0000
# 6 0.0000 0.0000 -0.0001 19.2451 0.0000 19.0468
#
#
#
# Elastic Compliance Matrix: (Units=1/GPa)
#
#
# Indices 1 2 3 4 5 6 
#
# 1 0.019571 -0.000279 0.001929 0.000000 -0.003474 0.000000
# 2 -0.000279 0.008100 0.000320 0.000000 -0.000143 0.000000
# 3 0.001929 0.000320 0.015285 0.000000 -0.001507 0.000000
# 4 0.000000 0.000000 0.000000 0.096614 0.000000 -0.097620
# 5 -0.003474 -0.000143 -0.001507 0.000000 0.030840 0.000000
# 6 0.000000 0.000000 0.000000 -0.097620 0.000000 0.151139
#
#
# Mechanical properties :
#
#
# Convention : Reuss Voigt Hill
#
# Bulk Modulus (GPa) = 21.32344 25.48173 23.40258
# Shear Modulus (GPa) = 15.00420 33.05186 24.02803
#
# Velocity S-wave (km/s) = 2.36552 3.51089 2.99349
# Velocity P-wave (km/s) = 3.92597 5.09296 4.54706
#
# Compressibility (1/GPa) = 0.04689675
#
# Stress axis : x y z
#
# Youngs Moduli (GPa) = 51.09580 123.45796 65.42409
#
# Poissons Ratio (x) = 0.03442 -0.12620
# Poissons Ratio (y) = 0.01424 -0.02095
# Poissons Ratio (z) = -0.09856 -0.03953
#
# Static dielectric constant tensor:
#      x y z
#    x 4.819700 0.000000 0.295240 
#    y 0.000000 5.931820 0.000000 
#    z 0.295240 0.000000 5.293820 
# 
# 
# High freq. dielectric constant tensor:
#      x y z
#    x 2.053830 0.000000 0.013790 
#    y 0.000000 2.101380 0.000000 
#    z 0.013790 0.000000 2.086580 
# 
# From -- ./inp_files/82000.got.cif
#   From: 2010.06.25/outbox.cif.g09.slc.cpg/sg15_41_cif.got.tgz:82000.got - 2010.06.28 07:06:18.
