data_PCOD8132710
_publ_section_title
;
Structure prediction by ZEFSAII (Michael W. Deem and Ramdas Pophale) SiO2 
 PCOD8132710
Probable space group: C 2/C
;
_chemical_formula_sum "Si O2"
_cell_formula_units_Z 56
_cell_length_a 16.546233
_cell_length_b 8.988259
_cell_length_c 29.130171
_cell_angle_alpha 90.000000
_cell_angle_beta 142.766348
_cell_angle_gamma 90.000000
_cell_volume 2621.326408
_symmetry_space_group_name_H-M "C 2/C"
_symmetry_group_IT_number 15
_symmetry_cell_setting 'monoclinic'
loop_
_space_group_symop_operation_xyz
x,y,z
-x,y,1/2-z
-x,-y,-z
x,-y,1/2+z
1/2+x,1/2+y,z
1/2-x,1/2+y,1/2-z
1/2-x,1/2-y,-z
1/2+x,1/2-y,1/2+z
loop_
_atom_site_type_symbol
_atom_site_label
_atom_site_fract_x
_atom_site_fract_y
_atom_site_fract_z
Si Si1 0.154843 0.860460 0.789298
Si Si2 0.500000 0.105245 0.750000
Si Si3 0.930447 0.436316 0.897117
Si Si4 0.044066 0.283232 0.032209
Si Si5 0.242803 0.303138 0.563813
Si Si6 0.000000 0.119437 0.750000
Si Si7 0.802688 0.361135 0.624338
Si Si8 0.839774 0.473995 0.056211
O O1 0.064219 0.713644 0.739500
O O2 0.288304 0.861615 0.818545
O O3 0.195084 0.859322 0.861311
O O4 0.071935 0.013012 0.744756
O O5 0.377898 0.008370 0.676122
O O6 0.894827 0.576477 0.913289
O O7 0.006090 0.482399 0.884859
O O8 0.018744 0.323129 0.967400
O O9 0.158686 0.155602 0.084158
O O10 0.906344 0.233457 0.994801
O O11 0.233498 0.447273 0.525831
O O12 0.335746 0.179821 0.582603
O O13 0.105478 0.218406 0.825698
O O14 0.779048 0.390921 0.559088
#
# Coordination Sequence:
#
# PCOD8132710 Si02
#       8
#     8   4   8   8   8   4   8   8
#     4  10  18  40  63  80 106 165 204 219 273 377
#     4  10  22  36  60  82 114 156 204 234 266 350
#     4   9  18  35  58  86 112 151 188 238 287 347
#     4   9  18  34  60  83 114 147 196 230 283 353
#     4   9  19  37  61  87 114 155 184 237 302 347
#     4  10  22  34  62  82 110 156 208 228 270 344
#     4  11  21  37  56  90 116 148 192 252 285 327
#     4  10  20  34  57  89 123 136 178 251 305 325
#
# _framework density 21.363230000000001
#
# number of rings (size 3 to 8) (size 9 to 14) (size 15 to 20)
#    0.000    2.286    2.857    0.857    0.000    1.143 
#    0.000    1.429    0.000    0.000    0.000    0.000 
#    0.000    0.000    0.000    0.000    0.000    0.000 
#
# Total GULP energy -346896.963069 kJ/mol
# GULP energy per Si atom -12389.177252 kJ/mol
# Density = 2.131461 g / cm^3
# Si number density = 21.363230 Si / 1000 Ang^3
#
#
#
# Elastic Constant Matrix: (Units=GPa)
#
#
# Indices 1 2 3 4 5 6 
#
# 1 119.4937 41.6031 29.8361 0.0000 21.8339 0.0000
# 2 41.6031 98.1889 22.6742 0.0000 14.9025 0.0000
# 3 29.8361 22.6742 50.1673 0.0000 11.9196 0.0000
# 4 0.0000 0.0000 0.0000 31.7177 0.0000 10.3273
# 5 21.8339 14.9025 11.9196 0.0000 32.7161 0.0000
# 6 0.0000 0.0000 0.0000 10.3273 0.0000 40.4514
#
#
#
# Elastic Compliance Matrix: (Units=1/GPa)
#
#
# Indices 1 2 3 4 5 6 
#
# 1 0.011362 -0.003134 -0.004246 0.000000 -0.004608 0.000000
# 2 -0.003134 0.012642 -0.003261 0.000000 -0.002479 0.000000
# 3 -0.004246 -0.003261 0.025077 0.000000 -0.004817 0.000000
# 4 0.000000 0.000000 0.000000 0.034387 0.000000 -0.008779
# 5 -0.004608 -0.002479 -0.004817 0.000000 0.036526 0.000000
# 6 0.000000 0.000000 0.000000 -0.008779 0.000000 0.026962
#
#
# Mechanical properties :
#
#
# Convention : Reuss Voigt Hill
#
# Bulk Modulus (GPa) = 35.97278 50.67520 43.32399
# Shear Modulus (GPa) = 28.16857 32.55947 30.36402
#
# Velocity S-wave (km/s) = 3.63513 3.90819 3.77413
# Velocity P-wave (km/s) = 5.87317 6.64361 6.27023
#
# Compressibility (1/GPa) = 0.02779880
#
# Stress axis : x y z
#
# Youngs Moduli (GPa) = 88.01251 79.10375 39.87749
#
# Poissons Ratio (x) = 0.24793 0.16932
# Poissons Ratio (y) = 0.27585 0.13003
# Poissons Ratio (z) = 0.37369 0.25793
#
# Static dielectric constant tensor:
#      x y z
#    x 3.953610 0.000000 0.275700 
#    y 0.000000 3.843660 0.000000 
#    z 0.275700 0.000000 3.838850 
# 
# 
# High freq. dielectric constant tensor:
#      x y z
#    x 1.829770 0.000000 0.027930 
#    y 0.000000 1.829230 0.000000 
#    z 0.027930 0.000000 1.818340 
# 
# From -- ./inp_files/298600.got.cif
#   From: 2010.06.25/outbox.cif.g09.slc.cpg/sg15_150_cif.got.tgz:298600.got - 2010.06.28 07:06:18.
