data_PCOD8132971
_publ_section_title
;
Structure prediction by ZEFSAII (Michael W. Deem and Ramdas Pophale) SiO2 
 PCOD8132971
Probable space group: C 2/C
;
_chemical_formula_sum "Si O2"
_cell_formula_units_Z 52
_cell_length_a 8.845444
_cell_length_b 17.387267
_cell_length_c 29.972752
_cell_angle_alpha 90.000000
_cell_angle_beta 44.689141
_cell_angle_gamma 90.000000
_cell_volume 3241.854225
_symmetry_space_group_name_H-M "C 2/C"
_symmetry_group_IT_number 15
_symmetry_cell_setting 'monoclinic'
loop_
_space_group_symop_operation_xyz
x,y,z
-x,y,1/2-z
-x,-y,-z
x,-y,1/2+z
1/2+x,1/2+y,z
1/2-x,1/2+y,1/2-z
1/2-x,1/2-y,-z
1/2+x,1/2-y,1/2+z
loop_
_atom_site_type_symbol
_atom_site_label
_atom_site_fract_x
_atom_site_fract_y
_atom_site_fract_z
Si Si1 0.500000 0.440513 0.250000
Si Si2 0.868910 0.671399 0.986216
Si Si3 0.872228 0.521198 0.133923
Si Si4 0.194954 0.057038 0.954084
Si Si5 0.488116 0.831631 0.561872
Si Si6 0.312467 0.610454 0.874867
Si Si7 0.031463 0.842068 0.066476
O O1 0.704985 0.499022 0.208721
O O2 0.528457 0.383244 0.201506
O O3 0.872316 0.659580 0.038580
O O4 0.750000 0.750000 0.000000
O O5 0.736073 0.602082 0.991712
O O6 0.117422 0.673338 0.916082
O O7 0.802168 0.473674 0.103760
O O8 0.102459 0.493507 0.102899
O O9 0.875869 0.611144 0.120769
O O10 0.152123 0.117895 0.923932
O O11 0.000000 0.000000 0.000000
O O12 0.739710 0.852366 0.505806
O O13 0.464191 0.746428 0.586354
O O14 0.460618 0.618025 0.887002
#
# Coordination Sequence:
#
# PCOD8132971 Si02
#       7
#     4   8   8   8   8   8   8
#     4   8  18  38  56  68  98 148 192 202 248 320
#     4  10  19  32  50  80 112 138 165 215 276 320
#     4   9  19  35  56  70 101 142 177 211 250 319
#     4  11  20  29  50  83 108 131 168 216 268 309
#     4  10  19  31  52  79 109 137 166 211 276 315
#     4   8  19  33  57  69 101 144 177 210 254 316
#     4  10  19  31  49  85 108 127 168 222 268 313
#
# _framework density 16.040203000000002
#
# number of rings (size 3 to 8) (size 9 to 14) (size 15 to 20)
#    0.923    1.538    3.077    0.000    2.154    1.846 
#    0.000    0.769    6.769    0.000    0.000    0.000 
#    0.000    0.000    0.000    0.000    0.000    0.000 
#
# Total GULP energy -322139.831704 kJ/mol
# GULP energy per Si atom -12389.993527 kJ/mol
# Density = 1.600369 g / cm^3
# Si number density = 16.040203 Si / 1000 Ang^3
#
#
#
# Elastic Constant Matrix: (Units=GPa)
#
#
# Indices 1 2 3 4 5 6 
#
# 1 94.3643 32.2885 25.6084 -0.0008 -0.6109 0.0014
# 2 32.2885 73.3313 31.3171 -0.0006 -4.6657 0.0004
# 3 25.6084 31.3171 82.2330 -0.0026 -7.4649 0.0008
# 4 -0.0008 -0.0006 -0.0026 22.3590 0.0007 0.9190
# 5 -0.6109 -4.6657 -7.4649 0.0007 20.6985 -0.0006
# 6 0.0014 0.0004 0.0008 0.9190 -0.0006 28.5052
#
#
#
# Elastic Compliance Matrix: (Units=1/GPa)
#
#
# Indices 1 2 3 4 5 6 
#
# 1 0.012848 -0.004761 -0.002327 0.000000 -0.001533 -0.000001
# 2 -0.004761 0.018094 -0.005222 0.000000 0.002055 0.000000
# 3 -0.002327 -0.005222 0.015260 0.000001 0.004258 0.000000
# 4 0.000000 0.000000 0.000001 0.044784 -0.000001 -0.001444
# 5 -0.001533 0.002055 0.004258 -0.000001 0.050266 0.000001
# 6 -0.000001 0.000000 0.000000 -0.001444 0.000001 0.035128
#
#
# Mechanical properties :
#
#
# Convention : Reuss Voigt Hill
#
# Bulk Modulus (GPa) = 46.33294 47.59521 46.96407
# Shear Modulus (GPa) = 24.01616 25.02684 24.52150
#
# Velocity S-wave (km/s) = 3.87363 3.95429 3.91417
# Velocity P-wave (km/s) = 6.99677 7.11235 7.05480
#
# Compressibility (1/GPa) = 0.02158292
#
# Stress axis : x y z
#
# Youngs Moduli (GPa) = 77.83430 55.26801 65.52936
#
# Poissons Ratio (x) = 0.26312 0.15249
# Poissons Ratio (y) = 0.37055 0.34217
# Poissons Ratio (z) = 0.18113 0.28859
#
# Static dielectric constant tensor:
#      x y z
#    x 3.156880 0.000000 -0.071380 
#    y 0.000000 3.010840 0.000000 
#    z -0.071380 0.000000 2.817720 
# 
# 
# High freq. dielectric constant tensor:
#      x y z
#    x 1.622390 0.000000 -0.004680 
#    y 0.000000 1.614980 0.000000 
#    z -0.004680 0.000000 1.579930 
# 
# From -- ./inp_files/308405.got.cif
#   From: 2010.06.25/outbox.cif.g09.slc.cpg/sg15_155_cif.got.tgz:308405.got - 2010.06.28 07:06:18.
