data_PCOD8132141
_publ_section_title
;
Structure prediction by ZEFSAII (Michael W. Deem and Ramdas Pophale) SiO2 
 PCOD8132141
Probable space group: C 2/C
;
_chemical_formula_sum "Si O2"
_cell_formula_units_Z 44
_cell_length_a 14.526370
_cell_length_b 34.325293
_cell_length_c 8.652701
_cell_angle_alpha 90.000000
_cell_angle_beta 146.227810
_cell_angle_gamma 90.000000
_cell_volume 2398.355954
_symmetry_space_group_name_H-M "C 2/C"
_symmetry_group_IT_number 15
_symmetry_cell_setting 'monoclinic'
loop_
_space_group_symop_operation_xyz
x,y,z
-x,y,1/2-z
-x,-y,-z
x,-y,1/2+z
1/2+x,1/2+y,z
1/2-x,1/2+y,1/2-z
1/2-x,1/2-y,-z
1/2+x,1/2-y,1/2+z
loop_
_atom_site_type_symbol
_atom_site_label
_atom_site_fract_x
_atom_site_fract_y
_atom_site_fract_z
Si Si1 0.000000 0.010624 0.750000
Si Si2 0.675897 0.846049 0.316170
Si Si3 0.470592 0.222335 0.035941
Si Si4 0.000000 0.111080 0.250000
Si Si5 0.676556 0.776773 0.550818
Si Si6 0.842830 0.050239 0.243830
Si Si7 0.500000 0.909679 0.250000
O O1 0.906476 0.038047 0.499772
O O2 0.862240 0.984647 0.646569
O O3 0.601674 0.821369 0.070422
O O4 0.701929 0.819053 0.506159
O O5 0.553152 0.881989 0.181615
O O6 0.847994 0.861721 0.491491
O O7 0.335187 0.248725 0.750413
O O8 0.500000 0.237222 0.250000
O O9 0.648018 0.220584 0.196979
O O10 0.952760 0.086078 0.335136
O O11 0.500000 0.758807 0.250000
O O12 0.652816 0.062263 0.003788
#
# Coordination Sequence:
#
# PCOD8132141 Si02
#       7
#     4   8   8   4   8   8   4
#     4   9  18  38  58  86 115 138 178 214 259 314
#     4  10  19  36  55  73 108 145 186 220 273 332
#     4  11  22  35  52  80 106 134 184 244 275 311
#     4   9  20  34  55  80 102 152 180 212 268 334
#     4  10  20  36  56  73  98 145 186 226 271 328
#     4   9  19  35  60  83 112 142 177 218 257 317
#     4  10  18  36  57  78 111 142 184 212 265 322
#
# _framework density 18.3459
#
# number of rings (size 3 to 8) (size 9 to 14) (size 15 to 20)
#    0.000    2.182    2.727    2.727    3.818    0.727 
#    3.273    0.000    2.000    0.000    0.000    0.000 
#    0.000    0.000    0.000    0.000    0.000    0.000 
#
# Total GULP energy -272586.480026 kJ/mol
# GULP energy per Si atom -12390.294547 kJ/mol
# Density = 1.830414 g / cm^3
# Si number density = 18.345900 Si / 1000 Ang^3
#
#
#
# Elastic Constant Matrix: (Units=GPa)
#
#
# Indices 1 2 3 4 5 6 
#
# 1 108.3795 42.6814 49.8809 0.0000 17.3567 0.0000
# 2 42.6814 90.3066 52.0760 0.0000 15.8714 0.0000
# 3 49.8809 52.0760 84.3869 0.0000 9.7893 0.0000
# 4 0.0000 0.0000 0.0000 5.6294 0.0000 4.5971
# 5 17.3567 15.8714 9.7893 0.0000 37.5823 0.0000
# 6 0.0000 0.0000 0.0000 4.5971 0.0000 21.8729
#
#
#
# Elastic Compliance Matrix: (Units=1/GPa)
#
#
# Indices 1 2 3 4 5 6 
#
# 1 0.013544 -0.002142 -0.006252 0.000000 -0.003722 0.000000
# 2 -0.002142 0.018351 -0.009563 0.000000 -0.004270 0.000000
# 3 -0.006252 -0.009563 0.021287 0.000000 0.001381 0.000000
# 4 0.000000 0.000000 0.000000 0.214442 0.000000 -0.045070
# 5 -0.003722 -0.004270 0.001381 0.000000 0.029770 0.000000
# 6 0.000000 0.000000 0.000000 -0.045070 0.000000 0.055191
#
#
# Mechanical properties :
#
#
# Convention : Reuss Voigt Hill
#
# Bulk Modulus (GPa) = 57.91240 63.59440 60.75340
# Shear Modulus (GPa) = 12.68214 22.24591 17.46402
#
# Velocity S-wave (km/s) = 2.63207 3.48599 3.08868
# Velocity P-wave (km/s) = 6.39316 7.13738 6.77550
#
# Compressibility (1/GPa) = 0.01726746
#
# Stress axis : x y z
#
# Youngs Moduli (GPa) = 73.83378 54.49407 46.97650
#
# Poissons Ratio (x) = 0.11670 0.29372
# Poissons Ratio (y) = 0.15812 0.44924
# Poissons Ratio (z) = 0.46164 0.52114
#
# Static dielectric constant tensor:
#      x y z
#    x 3.698050 0.000000 0.164010 
#    y 0.000000 3.422590 0.000000 
#    z 0.164010 0.000000 3.099070 
# 
# 
# High freq. dielectric constant tensor:
#      x y z
#    x 1.733080 0.000000 0.013870 
#    y 0.000000 1.708540 0.000000 
#    z 0.013870 0.000000 1.680470 
# 
# From -- ./inp_files/44387.got.cif
#   From: 2010.06.25/outbox.cif.g09.slc.cpg/sg15_23_cif.got.tgz:44387.got - 2010.06.28 07:06:18.
