data_PCOD8132286
_publ_section_title
;
Structure prediction by ZEFSAII (Michael W. Deem and Ramdas Pophale) SiO2 
 PCOD8132286
Probable space group: C 2/C
;
_chemical_formula_sum "Si O2"
_cell_formula_units_Z 52
_cell_length_a 8.863966
_cell_length_b 16.571740
_cell_length_c 17.330149
_cell_angle_alpha 90.000000
_cell_angle_beta 74.300815
_cell_angle_gamma 90.000000
_cell_volume 2450.684895
_symmetry_space_group_name_H-M "C 2/C"
_symmetry_group_IT_number 15
_symmetry_cell_setting 'monoclinic'
loop_
_space_group_symop_operation_xyz
x,y,z
-x,y,1/2-z
-x,-y,-z
x,-y,1/2+z
1/2+x,1/2+y,z
1/2-x,1/2+y,1/2-z
1/2-x,1/2-y,-z
1/2+x,1/2-y,1/2+z
loop_
_atom_site_type_symbol
_atom_site_label
_atom_site_fract_x
_atom_site_fract_y
_atom_site_fract_z
Si Si1 0.000000 0.647951 0.250000
Si Si2 0.016301 0.829137 0.664599
Si Si3 0.603590 0.847958 0.333212
Si Si4 0.362203 0.223845 0.117225
Si Si5 0.658322 0.168603 0.996500
Si Si6 0.765198 0.607178 0.841827
Si Si7 0.727227 0.429883 0.881399
O O1 0.069737 0.703950 0.307635
O O2 0.139206 0.591870 0.199393
O O3 0.197568 0.817692 0.619750
O O4 0.000000 0.872163 0.750000
O O5 0.919738 0.745714 0.684499
O O6 0.935602 0.883813 0.611222
O O7 0.684217 0.858869 0.405036
O O8 0.717840 0.886731 0.253530
O O9 0.436352 0.891520 0.356756
O O10 0.476343 0.189809 0.035624
O O11 0.345044 0.320449 0.112953
O O12 0.714946 0.094630 0.041526
O O13 0.750000 0.250000 0.000000
O O14 0.686985 0.524141 0.880051
#
# Coordination Sequence:
#
# PCOD8132286 Si02
#       7
#     4   8   8   8   8   8   8
#     4  10  18  36  62  90 118 164 224 254 294 394
#     4  11  18  38  65  95 121 172 223 266 301 389
#     4  10  19  40  68  89 131 171 217 255 330 386
#     4  10  22  38  66  90 121 172 220 261 323 382
#     4  11  24  41  67  97 127 173 217 273 316 393
#     4  10  21  39  65  95 126 169 211 271 317 388
#     4  11  22  38  65  96 131 160 217 265 324 375
#
# _framework density 21.218557000000001
#
# number of rings (size 3 to 8) (size 9 to 14) (size 15 to 20)
#    0.000    1.538    6.154    0.923    2.154    3.077 
#    1.385    0.769    3.385    0.000    0.000    0.000 
#    0.000    0.000    0.000    0.000    0.000    0.000 
#
# Total GULP energy -322467.238542 kJ/mol
# GULP energy per Si atom -12402.586098 kJ/mol
# Density = 2.117026 g / cm^3
# Si number density = 21.218557 Si / 1000 Ang^3
#
#
#
# Elastic Constant Matrix: (Units=GPa)
#
#
# Indices 1 2 3 4 5 6 
#
# 1 102.4825 48.6340 34.7743 0.0000 8.1345 0.0000
# 2 48.6340 120.3191 28.3765 0.0000 9.5438 0.0000
# 3 34.7743 28.3765 106.1270 0.0000 25.0335 0.0000
# 4 0.0000 0.0000 0.0000 17.0615 0.0000 6.0265
# 5 8.1345 9.5438 25.0335 0.0000 24.1676 0.0000
# 6 0.0000 0.0000 0.0000 6.0265 0.0000 23.6765
#
#
#
# Elastic Compliance Matrix: (Units=1/GPa)
#
#
# Indices 1 2 3 4 5 6 
#
# 1 0.012937 -0.004533 -0.003205 0.000000 0.000756 0.000000
# 2 -0.004533 0.010494 -0.000930 0.000000 -0.001655 0.000000
# 3 -0.003205 -0.000930 0.013737 0.000000 -0.012783 0.000000
# 4 0.000000 0.000000 0.000000 0.064401 0.000000 -0.016392
# 5 0.000756 -0.001655 -0.012783 0.000000 0.055018 0.000000
# 6 0.000000 0.000000 0.000000 -0.016392 0.000000 0.046408
#
#
# Mechanical properties :
#
#
# Convention : Reuss Voigt Hill
#
# Bulk Modulus (GPa) = 50.42693 61.38869 55.90781
# Shear Modulus (GPa) = 22.03203 27.45738 24.74471
#
# Velocity S-wave (km/s) = 3.22582 3.60116 3.41865
# Velocity P-wave (km/s) = 6.13935 6.80335 6.47986
#
# Compressibility (1/GPa) = 0.01983067
#
# Stress axis : x y z
#
# Youngs Moduli (GPa) = 77.30045 95.29062 72.79680
#
# Poissons Ratio (x) = 0.43196 0.23332
# Poissons Ratio (y) = 0.35041 0.06772
# Poissons Ratio (z) = 0.24775 0.08865
#
# Static dielectric constant tensor:
#      x y z
#    x 3.938440 0.000000 0.112850 
#    y 0.000000 3.604900 0.000000 
#    z 0.112850 0.000000 3.949300 
# 
# 
# High freq. dielectric constant tensor:
#      x y z
#    x 1.832300 0.000000 0.008090 
#    y 0.000000 1.809870 0.000000 
#    z 0.008090 0.000000 1.829030 
# 
# From -- ./inp_files/190414.got.cif
#   From: 2010.06.25/outbox.cif.g09.slc.cpg/sg15_96_cif.got.tgz:190414.got - 2010.06.28 07:06:18.
