data_PCOD8132705
_publ_section_title
;
Structure prediction by ZEFSAII (Michael W. Deem and Ramdas Pophale) SiO2 
 PCOD8132705
Probable space group: C 2/C
;
_chemical_formula_sum "Si O2"
_cell_formula_units_Z 44
_cell_length_a 26.912084
_cell_length_b 11.368224
_cell_length_c 16.138264
_cell_angle_alpha 90.000000
_cell_angle_beta 153.883035
_cell_angle_gamma 90.000000
_cell_volume 2173.460692
_symmetry_space_group_name_H-M "C 2/C"
_symmetry_group_IT_number 15
_symmetry_cell_setting 'monoclinic'
loop_
_space_group_symop_operation_xyz
x,y,z
-x,y,1/2-z
-x,-y,-z
x,-y,1/2+z
1/2+x,1/2+y,z
1/2-x,1/2+y,1/2-z
1/2-x,1/2-y,-z
1/2+x,1/2-y,1/2+z
loop_
_atom_site_type_symbol
_atom_site_label
_atom_site_fract_x
_atom_site_fract_y
_atom_site_fract_z
Si Si1 0.063276 0.759634 0.090888
Si Si2 0.720055 0.043996 0.334397
Si Si3 0.111596 0.075273 0.527177
Si Si4 0.139157 0.322143 0.310860
Si Si5 0.000000 0.263552 0.250000
Si Si6 0.058268 0.869125 0.255455
O O1 0.128118 0.638828 0.168014
O O2 0.127198 0.870439 0.142775
O O3 0.054818 0.775586 0.176560
O O4 0.936976 0.756247 0.864983
O O5 0.812506 0.103879 0.531276
O O6 0.775214 0.991198 0.332944
O O7 0.661303 0.945337 0.301204
O O8 0.090398 0.182005 0.432404
O O9 0.004702 0.988458 0.365412
O O10 0.250000 0.250000 0.500000
O O11 0.068298 0.345791 0.288707
O O12 0.000000 0.813397 0.250000
#
# Coordination Sequence:
#
# PCOD8132705 Si02
#       6
#     8   8   8   8   4   8
#     4  11  24  38  62  98 126 162 219 261 326 386
#     4  11  21  40  61  92 132 161 203 279 318 368
#     4  10  19  39  64  86 121 169 220 251 309 394
#     4  11  22  41  66  88 130 167 211 265 320 378
#     4  10  18  40  62  90 114 168 224 248 300 394
#     4  10  21  42  64  87 127 172 213 256 313 399
#
# _framework density 20.244212999999998
#
# number of rings (size 3 to 8) (size 9 to 14) (size 15 to 20)
#    0.000    1.455    4.545    2.727    0.000    2.909 
#    8.182    0.000    0.000    0.000    0.000    0.000 
#    0.000    0.000    0.000    0.000    0.000    0.000 
#
# Total GULP energy -272824.348957 kJ/mol
# GULP energy per Si atom -12401.106771 kJ/mol
# Density = 2.019814 g / cm^3
# Si number density = 20.244213 Si / 1000 Ang^3
#
#
#
# Elastic Constant Matrix: (Units=GPa)
#
#
# Indices 1 2 3 4 5 6 
#
# 1 145.0596 46.0813 54.7065 0.0000 -3.9634 0.0000
# 2 46.0813 67.8818 52.2801 0.0000 4.8713 0.0000
# 3 54.7065 52.2801 93.6431 0.0000 9.4209 0.0000
# 4 0.0000 0.0000 0.0000 17.9024 0.0000 -1.2522
# 5 -3.9634 4.8713 9.4209 0.0000 24.3593 0.0000
# 6 0.0000 0.0000 0.0000 -1.2522 0.0000 45.8054
#
#
#
# Elastic Compliance Matrix: (Units=1/GPa)
#
#
# Indices 1 2 3 4 5 6 
#
# 1 0.009694 -0.003854 -0.003899 0.000000 0.003856 0.000000
# 2 -0.003854 0.027380 -0.012923 0.000000 -0.001104 0.000000
# 3 -0.003899 -0.012923 0.020784 0.000000 -0.006088 0.000000
# 4 0.000000 0.000000 0.000000 0.055966 0.000000 0.001530
# 5 0.003856 -0.001104 -0.006088 0.000000 0.044255 0.000000
# 6 0.000000 0.000000 0.000000 0.001530 0.000000 0.021873
#
#
# Mechanical properties :
#
#
# Convention : Reuss Voigt Hill
#
# Bulk Modulus (GPa) = 60.58911 68.08001 64.33456
# Shear Modulus (GPa) = 22.04502 27.84787 24.94645
#
# Velocity S-wave (km/s) = 3.30351 3.71293 3.51419
# Velocity P-wave (km/s) = 6.67420 7.21689 6.95084
#
# Compressibility (1/GPa) = 0.01650462
#
# Stress axis : x y z
#
# Youngs Moduli (GPa) = 103.15581 36.52247 48.11292
#
# Poissons Ratio (x) = 0.14077 0.18761
# Poissons Ratio (y) = 0.39760 0.62178
# Poissons Ratio (z) = 0.40225 0.47200
#
# Static dielectric constant tensor:
#      x y z
#    x 3.937680 0.000000 0.040250 
#    y 0.000000 3.468830 0.000000 
#    z 0.040250 0.000000 3.662130 
# 
# 
# High freq. dielectric constant tensor:
#      x y z
#    x 1.801820 0.000000 0.004400 
#    y 0.000000 1.772070 0.000000 
#    z 0.004400 0.000000 1.785560 
# 
# From -- ./inp_files/225233.got.cif
#   From: 2010.06.25/outbox.cif.g09.slc.cpg/sg15_113_cif.got.tgz:225233.got - 2010.06.28 07:06:18.
