data_PCOD8132086
_publ_section_title
;
Structure prediction by ZEFSAII (Michael W. Deem and Ramdas Pophale) SiO2 
 PCOD8132086
Probable space group: C 2/C
;
_chemical_formula_sum "Si O2"
_cell_formula_units_Z 56
_cell_length_a 9.386820
_cell_length_b 16.105231
_cell_length_c 18.504536
_cell_angle_alpha 90.000000
_cell_angle_beta 74.380462
_cell_angle_gamma 90.000000
_cell_volume 2694.150591
_symmetry_space_group_name_H-M "C 2/C"
_symmetry_group_IT_number 15
_symmetry_cell_setting 'monoclinic'
loop_
_space_group_symop_operation_xyz
x,y,z
-x,y,1/2-z
-x,-y,-z
x,-y,1/2+z
1/2+x,1/2+y,z
1/2-x,1/2+y,1/2-z
1/2-x,1/2-y,-z
1/2+x,1/2-y,1/2+z
loop_
_atom_site_type_symbol
_atom_site_label
_atom_site_fract_x
_atom_site_fract_y
_atom_site_fract_z
Si Si1 0.179383 0.362835 0.141287
Si Si2 0.193239 0.573432 0.952575
Si Si3 0.507621 0.660644 0.563569
Si Si4 0.460489 0.191955 0.176637
Si Si5 0.043416 0.264733 0.421544
Si Si6 0.523798 0.983736 0.611237
Si Si7 0.151769 0.768580 0.756210
O O1 0.348883 0.381055 0.097561
O O2 0.090068 0.448042 0.155756
O O3 0.164405 0.325720 0.223878
O O4 0.109672 0.296522 0.093501
O O5 0.369214 0.591741 0.931431
O O6 0.112217 0.661947 0.959730
O O7 0.139468 0.514659 0.893217
O O8 0.139821 0.524331 0.030149
O O9 0.522305 0.743574 0.609801
O O10 0.520060 0.686649 0.477707
O O11 0.500000 0.226938 0.250000
O O12 0.524038 0.101512 0.154330
O O13 0.283314 0.180565 0.201040
O O14 0.157140 0.235900 0.342726
O O15 0.000000 0.811297 0.750000
#
# Coordination Sequence:
#
# PCOD8132086 Si02
#       7
#     8   8   8   8   8   8   8
#     4   9  21  38  59  87 121 158 193 236 302 357
#     4  10  21  36  59  85 120 151 196 237 299 348
#     4  11  21  37  64  92 113 152 205 250 280 348
#     4  11  23  38  62  91 115 150 202 250 286 345
#     4  10  18  35  64  87 117 154 196 245 295 341
#     4  10  22  40  56  84 122 159 187 239 306 352
#     4   9  20  38  59  88 116 153 198 240 290 349
#
# _framework density 20.785772000000001
#
# number of rings (size 3 to 8) (size 9 to 14) (size 15 to 20)
#    0.000    2.000    1.429    1.714    2.000    3.429 
#    0.000    1.429    0.000    0.000    0.000    0.000 
#    0.000    0.000    0.000    0.000    0.000    0.000 
#
# Total GULP energy -347102.772333 kJ/mol
# GULP energy per Si atom -12396.527583 kJ/mol
# Density = 2.073846 g / cm^3
# Si number density = 20.785772 Si / 1000 Ang^3
#
#
#
# Elastic Constant Matrix: (Units=GPa)
#
#
# Indices 1 2 3 4 5 6 
#
# 1 100.7933 19.8110 21.0550 0.0000 -10.8440 0.0000
# 2 19.8110 67.2512 24.5877 0.0000 3.0673 0.0000
# 3 21.0550 24.5877 100.7351 0.0000 4.7150 0.0000
# 4 0.0000 0.0000 0.0000 12.9181 0.0000 2.1329
# 5 -10.8440 3.0673 4.7150 0.0000 27.1078 0.0000
# 6 0.0000 0.0000 0.0000 2.1329 0.0000 30.2273
#
#
#
# Elastic Compliance Matrix: (Units=1/GPa)
#
#
# Indices 1 2 3 4 5 6 
#
# 1 0.011461 -0.002910 -0.001931 0.000000 0.005250 0.000000
# 2 -0.002910 0.017102 -0.003449 0.000000 -0.002499 0.000000
# 3 -0.001931 -0.003449 0.011282 0.000000 -0.002345 0.000000
# 4 0.000000 0.000000 0.000000 0.078324 0.000000 -0.005527
# 5 0.005250 -0.002499 -0.002345 0.000000 0.039681 0.000000
# 6 0.000000 0.000000 0.000000 -0.005527 0.000000 0.033473
#
#
# Mechanical properties :
#
#
# Convention : Reuss Voigt Hill
#
# Bulk Modulus (GPa) = 42.98197 44.40967 43.69582
# Shear Modulus (GPa) = 23.18491 27.60568 25.39530
#
# Velocity S-wave (km/s) = 3.34342 3.64827 3.49917
# Velocity P-wave (km/s) = 5.96892 6.25766 6.11500
#
# Compressibility (1/GPa) = 0.02326557
#
# Stress axis : x y z
#
# Youngs Moduli (GPa) = 87.24901 58.47334 88.63468
#
# Poissons Ratio (x) = 0.17014 0.17116
# Poissons Ratio (y) = 0.25387 0.30571
# Poissons Ratio (z) = 0.16849 0.20168
#
# Static dielectric constant tensor:
#      x y z
#    x 3.962600 0.000000 -0.003160 
#    y 0.000000 3.432490 0.000000 
#    z -0.003160 0.000000 3.750600 
# 
# 
# High freq. dielectric constant tensor:
#      x y z
#    x 1.818190 0.000000 0.001900 
#    y 0.000000 1.783460 0.000000 
#    z 0.001900 0.000000 1.816080 
# 
# From -- ./inp_files/190921.got.cif
#   From: 2010.06.25/outbox.cif.g09.slc.cpg/sg15_96_cif.got.tgz:190921.got - 2010.06.28 07:06:18.
