data_PCOD8132472
_publ_section_title
;
Structure prediction by ZEFSAII (Michael W. Deem and Ramdas Pophale) SiO2 
 PCOD8132472
Probable space group: C 2/C
;
_chemical_formula_sum "Si O2"
_cell_formula_units_Z 48
_cell_length_a 33.366163
_cell_length_b 14.214600
_cell_length_c 15.963339
_cell_angle_alpha 90.000000
_cell_angle_beta 162.924780
_cell_angle_gamma 90.000000
_cell_volume 2223.107801
_symmetry_space_group_name_H-M "C 2/C"
_symmetry_group_IT_number 15
_symmetry_cell_setting 'monoclinic'
loop_
_space_group_symop_operation_xyz
x,y,z
-x,y,1/2-z
-x,-y,-z
x,-y,1/2+z
1/2+x,1/2+y,z
1/2-x,1/2+y,1/2-z
1/2-x,1/2-y,-z
1/2+x,1/2-y,1/2+z
loop_
_atom_site_type_symbol
_atom_site_label
_atom_site_fract_x
_atom_site_fract_y
_atom_site_fract_z
Si Si1 0.738924 0.646913 0.516373
Si Si2 0.808460 0.516538 0.034348
Si Si3 0.291869 0.090834 0.332509
Si Si4 0.433878 0.071603 0.030501
Si Si5 0.460614 0.397548 0.533535
Si Si6 0.000000 0.747434 0.750000
Si Si7 0.000000 0.051251 0.750000
O O1 0.750000 0.750000 0.500000
O O2 0.813019 0.570657 0.606230
O O3 0.580253 0.618504 0.205385
O O4 0.813497 0.641293 0.756824
O O5 0.789003 0.483291 0.900935
O O6 0.682831 0.588330 0.802706
O O7 0.954599 0.569106 0.322414
O O8 0.369886 0.184732 0.514389
O O9 0.369699 0.034208 0.413359
O O10 0.133053 0.116116 0.998566
O O11 0.500000 0.109255 0.250000
O O12 0.452780 0.306398 0.576215
O O13 0.490881 0.489042 0.648641
#
# Coordination Sequence:
#
# PCOD8132472 Si02
#       7
#     8   8   8   8   8   4   4
#     4  12  24  40  66  95 132 170 217 268 327 380
#     4  10  21  41  63  92 126 174 210 258 331 386
#     4  10  18  37  65  94 121 161 220 264 315 382
#     4  10  21  41  68  93 124 171 215 264 326 386
#     4  10  22  38  62  89 131 174 207 262 320 388
#     4  11  20  36  64  93 122 164 223 266 314 366
#     4   9  18  36  64  89 120 168 213 260 320 370
#
# _framework density 21.591396
#
# number of rings (size 3 to 8) (size 9 to 14) (size 15 to 20)
#    0.000    1.667    4.167    2.000    2.333    0.000 
#    0.000    5.833    3.667    0.000    0.000    0.000 
#    0.000    0.000    0.000    0.000    0.000    0.000 
#
# Total GULP energy -297466.749047 kJ/mol
# GULP energy per Si atom -12394.447877 kJ/mol
# Density = 2.154225 g / cm^3
# Si number density = 21.591396 Si / 1000 Ang^3
#
#
#
# Elastic Constant Matrix: (Units=GPa)
#
#
# Indices 1 2 3 4 5 6 
#
# 1 66.5143 22.7016 32.1716 0.0000 14.8534 0.0000
# 2 22.7016 89.2527 51.1776 0.0000 -4.0126 0.0000
# 3 32.1716 51.1776 151.9449 0.0000 21.5555 0.0000
# 4 0.0000 0.0000 0.0000 26.9366 0.0000 -0.2375
# 5 14.8534 -4.0126 21.5555 0.0000 36.3063 0.0000
# 6 0.0000 0.0000 0.0000 -0.2375 0.0000 22.7854
#
#
#
# Elastic Compliance Matrix: (Units=1/GPa)
#
#
# Indices 1 2 3 4 5 6 
#
# 1 0.018846 -0.004243 -0.001530 0.000000 -0.007271 0.000000
# 2 -0.004243 0.015620 -0.005300 0.000000 0.006609 0.000000
# 3 -0.001530 -0.005300 0.009483 0.000000 -0.005590 0.000000
# 4 0.000000 0.000000 0.000000 0.037128 0.000000 0.000387
# 5 -0.007271 0.006609 -0.005590 0.000000 0.034568 0.000000
# 6 0.000000 0.000000 0.000000 0.000387 0.000000 0.043892
#
#
# Mechanical properties :
#
#
# Convention : Reuss Voigt Hill
#
# Bulk Modulus (GPa) = 45.86493 57.75705 51.81099
# Shear Modulus (GPa) = 26.46201 30.64976 28.55588
#
# Velocity S-wave (km/s) = 3.50463 3.77176 3.64065
# Velocity P-wave (km/s) = 6.13717 6.76582 6.45915
#
# Compressibility (1/GPa) = 0.02180315
#
# Stress axis : x y z
#
# Youngs Moduli (GPa) = 53.06110 64.02179 105.44700
#
# Poissons Ratio (x) = 0.27167 0.16129
# Poissons Ratio (y) = 0.22516 0.55888
# Poissons Ratio (z) = 0.08116 0.33932
#
# Static dielectric constant tensor:
#      x y z
#    x 3.847180 0.000000 0.415070 
#    y 0.000000 3.506090 0.000000 
#    z 0.415070 0.000000 4.718270 
# 
# 
# High freq. dielectric constant tensor:
#      x y z
#    x 1.836330 0.000000 0.021470 
#    y 0.000000 1.811690 0.000000 
#    z 0.021470 0.000000 1.869180 
# 
# From -- ./inp_files/182563.got.cif
#   From: 2010.06.25/outbox.cif.g09.slc.cpg/sg15_92_cif.got.tgz:182563.got - 2010.06.28 07:06:18.
