data_PCOD8132537
_publ_section_title
;
Structure prediction by ZEFSAII (Michael W. Deem and Ramdas Pophale) SiO2 
 PCOD8132537
Probable space group: C 2/C
;
_chemical_formula_sum "Si O2"
_cell_formula_units_Z 52
_cell_length_a 14.389989
_cell_length_b 12.330107
_cell_length_c 15.198315
_cell_angle_alpha 90.000000
_cell_angle_beta 108.715309
_cell_angle_gamma 90.000000
_cell_volume 2554.052709
_symmetry_space_group_name_H-M "C 2/C"
_symmetry_group_IT_number 15
_symmetry_cell_setting 'monoclinic'
loop_
_space_group_symop_operation_xyz
x,y,z
-x,y,1/2-z
-x,-y,-z
x,-y,1/2+z
1/2+x,1/2+y,z
1/2-x,1/2+y,1/2-z
1/2-x,1/2-y,-z
1/2+x,1/2-y,1/2+z
loop_
_atom_site_type_symbol
_atom_site_label
_atom_site_fract_x
_atom_site_fract_y
_atom_site_fract_z
Si Si1 0.000000 0.350398 0.250000
Si Si2 0.739722 0.400189 0.377495
Si Si3 0.808843 0.510646 0.723524
Si Si4 0.092506 0.270369 0.451501
Si Si5 0.446965 0.111616 0.011316
Si Si6 0.603714 0.193066 0.317824
Si Si7 0.772457 0.924217 0.483498
O O1 0.910362 0.423030 0.257456
O O2 0.962270 0.275158 0.159023
O O3 0.738013 0.463585 0.284225
O O4 0.851431 0.365304 0.424733
O O5 0.669696 0.296336 0.358633
O O6 0.705075 0.475768 0.446348
O O7 0.838689 0.383304 0.734143
O O8 0.740601 0.536428 0.619669
O O9 0.133506 0.151659 0.479655
O O10 0.175129 0.362594 0.485072
O O11 0.019250 0.290052 0.510341
O O12 0.416536 0.114793 0.104231
O O13 0.500000 0.000000 0.000000
O O14 0.500000 0.235026 0.250000
#
# Coordination Sequence:
#
# PCOD8132537 Si02
#       7
#     4   8   8   8   8   8   8
#     4  10  18  38  62 102 120 168 222 274 304 402
#     4  12  25  44  66 101 135 172 220 282 335 394
#     4  11  22  40  69  92 129 169 228 268 324 389
#     4  10  21  38  67  95 131 170 214 267 330 383
#     4  12  21  43  72  96 127 172 226 276 324 384
#     4  12  27  43  68  98 134 173 227 278 332 398
#     4  10  23  40  62  98 136 169 214 270 331 399
#
# _framework density 20.359798999999999
#
# number of rings (size 3 to 8) (size 9 to 14) (size 15 to 20)
#    0.000    0.923    5.385    2.308    2.154    2.462 
#    1.385    0.769    0.000    0.000    0.000    0.000 
#    0.000    0.000    0.000    0.000    0.000    0.000 
#
# Total GULP energy -322440.995650 kJ/mol
# GULP energy per Si atom -12401.576756 kJ/mol
# Density = 2.031346 g / cm^3
# Si number density = 20.359799 Si / 1000 Ang^3
#
#
#
# Elastic Constant Matrix: (Units=GPa)
#
#
# Indices 1 2 3 4 5 6 
#
# 1 86.7276 63.9417 50.8677 0.0000 7.8279 0.0000
# 2 63.9417 116.3655 57.5852 0.0000 19.1870 0.0000
# 3 50.8677 57.5852 115.8568 0.0000 5.5464 0.0000
# 4 0.0000 0.0000 0.0000 33.6146 0.0000 3.9471
# 5 7.8279 19.1870 5.5464 0.0000 37.3229 0.0000
# 6 0.0000 0.0000 0.0000 3.9471 0.0000 34.2583
#
#
#
# Elastic Compliance Matrix: (Units=1/GPa)
#
#
# Indices 1 2 3 4 5 6 
#
# 1 0.021159 -0.009538 -0.004604 0.000000 0.001150 0.000000
# 2 -0.009538 0.016728 -0.003838 0.000000 -0.006029 0.000000
# 3 -0.004604 -0.003838 0.012509 0.000000 0.001080 0.000000
# 4 0.000000 0.000000 0.000000 0.030157 0.000000 -0.003475
# 5 0.001150 -0.006029 0.001080 0.000000 0.029491 0.000000
# 6 0.000000 0.000000 0.000000 -0.003475 0.000000 0.029590
#
#
# Mechanical properties :
#
#
# Convention : Reuss Voigt Hill
#
# Bulk Modulus (GPa) = 69.27477 73.74879 71.51178
# Shear Modulus (GPa) = 27.71517 30.80952 29.26234
#
# Velocity S-wave (km/s) = 3.69354 3.89427 3.79524
# Velocity P-wave (km/s) = 7.23110 7.51810 7.37600
#
# Compressibility (1/GPa) = 0.01443527
#
# Stress axis : x y z
#
# Youngs Moduli (GPa) = 47.26113 59.78035 79.94232
#
# Poissons Ratio (x) = 0.57016 0.36809
# Poissons Ratio (y) = 0.45076 0.30684
# Poissons Ratio (z) = 0.21761 0.22945
#
# Static dielectric constant tensor:
#      x y z
#    x 3.708880 0.000000 0.011380 
#    y 0.000000 3.509960 0.000000 
#    z 0.011380 0.000000 3.909950 
# 
# 
# High freq. dielectric constant tensor:
#      x y z
#    x 1.788210 0.000000 0.001650 
#    y 0.000000 1.779660 0.000000 
#    z 0.001650 0.000000 1.811380 
# 
# From -- ./inp_files/152703.got.cif
#   From: 2010.06.25/outbox.cif.g09.slc.cpg/sg15_77_cif.got.tgz:152703.got - 2010.06.28 07:06:18.
