data_PCOD8132735
_publ_section_title
;
Structure prediction by ZEFSAII (Michael W. Deem and Ramdas Pophale) SiO2 
 PCOD8132735
Probable space group: C 2/C
;
_chemical_formula_sum "Si O2"
_cell_formula_units_Z 52
_cell_length_a 9.041959
_cell_length_b 28.596018
_cell_length_c 12.511299
_cell_angle_alpha 90.000000
_cell_angle_beta 126.160480
_cell_angle_gamma 90.000000
_cell_volume 2611.811067
_symmetry_space_group_name_H-M "C 2/C"
_symmetry_group_IT_number 15
_symmetry_cell_setting 'monoclinic'
loop_
_space_group_symop_operation_xyz
x,y,z
-x,y,1/2-z
-x,-y,-z
x,-y,1/2+z
1/2+x,1/2+y,z
1/2-x,1/2+y,1/2-z
1/2-x,1/2-y,-z
1/2+x,1/2-y,1/2+z
loop_
_atom_site_type_symbol
_atom_site_label
_atom_site_fract_x
_atom_site_fract_y
_atom_site_fract_z
Si Si1 0.602511 0.877943 0.399909
Si Si2 0.000000 0.934867 0.250000
Si Si3 0.523478 0.799695 0.010411
Si Si4 0.145764 0.627250 0.400821
Si Si5 0.859075 0.775063 0.286537
Si Si6 0.397500 0.048454 0.953857
Si Si7 0.048373 0.128764 0.567207
O O1 0.500000 0.861391 0.250000
O O2 0.612044 0.833820 0.483149
O O3 0.489954 0.921355 0.399724
O O4 0.811705 0.892346 0.461020
O O5 0.815620 0.965046 0.157640
O O6 0.960139 0.902532 0.332609
O O7 0.655908 0.771071 0.147761
O O8 0.654896 0.832241 0.993901
O O9 0.395154 0.767460 0.882915
O O10 0.092591 0.577285 0.430737
O O11 0.345030 0.628160 0.429679
O O12 0.000000 0.640760 0.250000
O O13 0.877573 0.820987 0.365932
O O14 0.000000 0.773701 0.250000
O O15 0.500000 0.000000 0.000000
#
# Coordination Sequence:
#
# PCOD8132735 Si02
#       7
#     8   4   8   8   8   8   8
#     4  11  21  42  63  88 126 160 206 255 320 366
#     4  10  18  40  66  90 118 160 204 246 298 376
#     4  11  24  37  61  88 125 167 208 265 302 363
#     4  10  22  42  62  88 124 159 209 253 313 365
#     4  12  21  36  61  93 119 163 223 254 301 365
#     4  10  22  41  65  94 122 158 202 257 305 376
#     4  11  20  38  66  86 116 167 208 245 307 365
#
# _framework density 19.909555999999998
#
# number of rings (size 3 to 8) (size 9 to 14) (size 15 to 20)
#    0.000    1.231    5.385    1.846    2.154    1.231 
#    2.769    3.846    0.000    0.000    0.000    0.000 
#    0.000    0.000    0.000    0.000    0.000    0.000 
#
# Total GULP energy -322337.975794 kJ/mol
# GULP energy per Si atom -12397.614454 kJ/mol
# Density = 1.986424 g / cm^3
# Si number density = 19.909556 Si / 1000 Ang^3
#
#
#
# Elastic Constant Matrix: (Units=GPa)
#
#
# Indices 1 2 3 4 5 6 
#
# 1 163.4731 42.6863 51.1757 0.0000 14.3859 0.0000
# 2 42.6863 102.3221 42.9955 0.0000 11.5360 0.0000
# 3 51.1757 42.9955 102.2331 0.0000 20.4651 0.0000
# 4 0.0000 0.0000 0.0000 15.6771 0.0000 9.5883
# 5 14.3859 11.5360 20.4651 0.0000 27.8242 0.0000
# 6 0.0000 0.0000 0.0000 9.5883 0.0000 20.3314
#
#
#
# Elastic Compliance Matrix: (Units=1/GPa)
#
#
# Indices 1 2 3 4 5 6 
#
# 1 0.007573 -0.001865 -0.002788 0.000000 -0.001092 0.000000
# 2 -0.001865 0.012381 -0.004033 0.000000 -0.001203 0.000000
# 3 -0.002788 -0.004033 0.014365 0.000000 -0.007452 0.000000
# 4 0.000000 0.000000 0.000000 0.089644 0.000000 -0.042276
# 5 -0.001092 -0.001203 -0.007452 0.000000 0.042484 0.000000
# 6 0.000000 0.000000 0.000000 -0.042276 0.000000 0.069122
#
#
# Mechanical properties :
#
#
# Convention : Reuss Voigt Hill
#
# Bulk Modulus (GPa) = 59.00411 71.30482 65.15446
# Shear Modulus (GPa) = 19.33564 28.17793 23.75679
#
# Velocity S-wave (km/s) = 3.11975 3.76612 3.45807
# Velocity P-wave (km/s) = 6.53280 7.40295 6.98145
#
# Compressibility (1/GPa) = 0.01694797
#
# Stress axis : x y z
#
# Youngs Moduli (GPa) = 132.04775 80.76782 69.61311
#
# Poissons Ratio (x) = 0.15060 0.19409
# Poissons Ratio (y) = 0.24622 0.28074
# Poissons Ratio (z) = 0.36817 0.32573
#
# Static dielectric constant tensor:
#      x y z
#    x 4.017180 0.000000 0.096720 
#    y 0.000000 3.419540 0.000000 
#    z 0.096720 0.000000 3.790780 
# 
# 
# High freq. dielectric constant tensor:
#      x y z
#    x 1.787550 0.000000 0.004250 
#    y 0.000000 1.755710 0.000000 
#    z 0.004250 0.000000 1.771110 
# 
# From -- ./inp_files/81505.got.cif
#   From: 2010.06.25/outbox.cif.g09.slc.cpg/sg15_41_cif.got.tgz:81505.got - 2010.06.28 07:06:18.
