data_PCOD8132592
_publ_section_title
;
Structure prediction by ZEFSAII (Michael W. Deem and Ramdas Pophale) SiO2 
 PCOD8132592
Probable space group: C 2/C
;
_chemical_formula_sum "Si O2"
_cell_formula_units_Z 64
_cell_length_a 25.166209
_cell_length_b 15.259094
_cell_length_c 11.309310
_cell_angle_alpha 90.000000
_cell_angle_beta 133.438655
_cell_angle_gamma 90.000000
_cell_volume 3153.447801
_symmetry_space_group_name_H-M "C 2/C"
_symmetry_group_IT_number 15
_symmetry_cell_setting 'monoclinic'
loop_
_space_group_symop_operation_xyz
x,y,z
-x,y,1/2-z
-x,-y,-z
x,-y,1/2+z
1/2+x,1/2+y,z
1/2-x,1/2+y,1/2-z
1/2-x,1/2-y,-z
1/2+x,1/2-y,1/2+z
loop_
_atom_site_type_symbol
_atom_site_label
_atom_site_fract_x
_atom_site_fract_y
_atom_site_fract_z
Si Si1 0.792888 0.749276 0.185760
Si Si2 0.724319 0.926704 0.697009
Si Si3 0.824883 0.871989 0.644922
Si Si4 0.762378 0.382930 0.217128
Si Si5 0.980659 0.056554 0.353118
Si Si6 0.604582 0.804924 0.173595
Si Si7 0.953228 0.758008 0.484391
Si Si8 0.922270 0.386310 0.123356
O O1 0.767909 0.661884 0.216156
O O2 0.773540 0.838079 0.224637
O O3 0.880061 0.753916 0.293005
O O4 0.750000 0.750000 0.000000
O O5 0.772518 0.923513 0.653550
O O6 0.638855 0.943695 0.535198
O O7 0.750193 0.012563 0.806560
O O8 0.778532 0.843810 0.459470
O O9 0.893426 0.932631 0.716054
O O10 0.853459 0.785893 0.751805
O O11 0.849516 0.360220 0.352232
O O12 0.000000 0.017345 0.250000
O O13 0.025441 0.146080 0.438235
O O14 0.000000 0.000000 0.500000
O O15 0.609780 0.861731 0.299579
O O16 0.519596 0.786214 0.010236
O O17 0.938050 0.704622 0.580393
O O18 0.000000 0.438686 0.250000
#
# Coordination Sequence:
#
# PCOD8132592 Si02
#       8
#     8   8   8   8   8   8   8   8
#     4  11  25  44  63  91 135 169 202 259 332 381
#     4  11  24  39  62 100 121 165 215 251 319 383
#     4  11  22  40  67  89 124 160 221 261 305 378
#     4  12  24  38  67  93 128 161 209 268 311 372
#     4  11  24  40  60  94 127 169 215 263 323 383
#     4  10  18  38  65  91 111 155 213 261 298 358
#     4   9  20  40  63  85 118 165 208 257 312 377
#     4   9  17  36  64  86 114 151 206 263 303 352
#
# _framework density 20.295245999999999
#
# number of rings (size 3 to 8) (size 9 to 14) (size 15 to 20)
#    0.000    1.500    2.500    4.500    5.250    0.000 
#    0.000    7.500    0.000    0.000    0.000    0.000 
#    0.000    0.000    0.000    0.000    0.000    0.000 
#
# Total GULP energy -396621.252329 kJ/mol
# GULP energy per Si atom -12394.414135 kJ/mol
# Density = 2.024905 g / cm^3
# Si number density = 20.295246 Si / 1000 Ang^3
#
#
#
# Elastic Constant Matrix: (Units=GPa)
#
#
# Indices 1 2 3 4 5 6 
#
# 1 112.5167 29.3852 60.1468 0.0000 15.5552 0.0000
# 2 29.3852 78.1609 21.8085 0.0000 3.8875 0.0000
# 3 60.1468 21.8085 124.6638 0.0000 13.7642 0.0000
# 4 0.0000 0.0000 0.0000 13.7060 0.0000 0.1406
# 5 15.5552 3.8875 13.7642 0.0000 31.3118 0.0000
# 6 0.0000 0.0000 0.0000 0.1406 0.0000 21.1043
#
#
#
# Elastic Compliance Matrix: (Units=1/GPa)
#
#
# Indices 1 2 3 4 5 6 
#
# 1 0.013113 -0.003252 -0.005342 0.000000 -0.003762 0.000000
# 2 -0.003252 0.014271 -0.000957 0.000000 0.000264 0.000000
# 3 -0.005342 -0.000957 0.010994 0.000000 -0.002060 0.000000
# 4 0.000000 0.000000 0.000000 0.072966 0.000000 -0.000486
# 5 -0.003762 0.000264 -0.002060 0.000000 0.034678 0.000000
# 6 0.000000 0.000000 0.000000 -0.000486 0.000000 0.047387
#
#
# Mechanical properties :
#
#
# Convention : Reuss Voigt Hill
#
# Bulk Modulus (GPa) = 51.88012 59.78028 55.83020
# Shear Modulus (GPa) = 22.83780 26.82449 24.83114
#
# Velocity S-wave (km/s) = 3.35816 3.63948 3.50164
# Velocity P-wave (km/s) = 6.37609 6.86880 6.62702
#
# Compressibility (1/GPa) = 0.01927521
#
# Stress axis : x y z
#
# Youngs Moduli (GPa) = 76.26165 70.07443 90.95992
#
# Poissons Ratio (x) = 0.22789 0.48593
# Poissons Ratio (y) = 0.24801 0.08701
# Poissons Ratio (z) = 0.40741 0.06703
#
# Static dielectric constant tensor:
#      x y z
#    x 4.066490 0.000000 0.550480 
#    y 0.000000 3.522630 0.000000 
#    z 0.550480 0.000000 4.103050 
# 
# 
# High freq. dielectric constant tensor:
#      x y z
#    x 1.803800 0.000000 0.027200 
#    y 0.000000 1.773080 0.000000 
#    z 0.027200 0.000000 1.784670 
# 
# From -- ./inp_files/123562.got.cif
#   From: 2010.06.25/outbox.cif.g09.slc.cpg/sg15_62_cif.got.tgz:123562.got - 2010.06.28 07:06:18.
