data_PCOD8132657
_publ_section_title
;
Structure prediction by ZEFSAII (Michael W. Deem and Ramdas Pophale) SiO2 
 PCOD8132657
Probable space group: C 2/C
;
_chemical_formula_sum "Si O2"
_cell_formula_units_Z 52
_cell_length_a 16.904743
_cell_length_b 28.003151
_cell_length_c 11.466478
_cell_angle_alpha 90.000000
_cell_angle_beta 150.931222
_cell_angle_gamma 90.000000
_cell_volume 2637.278035
_symmetry_space_group_name_H-M "C 2/C"
_symmetry_group_IT_number 15
_symmetry_cell_setting 'monoclinic'
loop_
_space_group_symop_operation_xyz
x,y,z
-x,y,1/2-z
-x,-y,-z
x,-y,1/2+z
1/2+x,1/2+y,z
1/2-x,1/2+y,1/2-z
1/2-x,1/2-y,-z
1/2+x,1/2-y,1/2+z
loop_
_atom_site_type_symbol
_atom_site_label
_atom_site_fract_x
_atom_site_fract_y
_atom_site_fract_z
Si Si1 0.000000 0.907894 0.250000
Si Si2 0.148939 0.032316 0.736089
Si Si3 0.834141 0.403402 0.284595
Si Si4 0.329805 0.686194 0.006553
Si Si5 0.686407 0.940400 0.487975
Si Si6 0.161372 0.291615 0.520305
Si Si7 0.797836 0.378924 0.777325
O O1 0.920478 0.939489 0.246028
O O2 0.152603 0.877575 0.495689
O O3 0.240172 0.068340 0.765262
O O4 0.000000 0.000000 0.500000
O O5 0.288174 0.996318 0.958844
O O6 0.788168 0.347407 0.220679
O O7 0.756429 0.426213 0.067495
O O8 0.033007 0.403921 0.552052
O O9 0.343020 0.735698 0.949996
O O10 0.500000 0.659897 0.250000
O O11 0.294912 0.698908 0.095564
O O12 0.500000 0.926626 0.250000
O O13 0.769169 0.908708 0.696731
O O14 0.179969 0.323512 0.660208
O O15 0.000000 0.309817 0.250000
#
# Coordination Sequence:
#
# PCOD8132657 Si02
#       7
#     4   8   8   8   8   8   8
#     4  12  28  42  60  88 126 176 214 260 324 372
#     4  12  26  43  61  89 128 165 215 267 302 391
#     4  11  24  40  68  92 125 167 212 265 323 372
#     4  10  21  32  65 104 127 155 204 263 328 374
#     4  10  22  39  63  89 119 160 207 265 319 357
#     4  10  18  39  63  99 132 158 198 270 331 367
#     4  11  22  43  62  90 132 168 206 261 314 382
#
# _framework density 19.717299000000001
#
# number of rings (size 3 to 8) (size 9 to 14) (size 15 to 20)
#    0.000    1.231    4.615    1.385    6.462    1.231 
#    0.000    0.000    0.000    3.692    0.000    0.000 
#    0.000    0.000    0.000    0.000    0.000    0.000 
#
# Total GULP energy -322097.333950 kJ/mol
# GULP energy per Si atom -12388.358998 kJ/mol
# Density = 1.967242 g / cm^3
# Si number density = 19.717299 Si / 1000 Ang^3
#
#
#
# Elastic Constant Matrix: (Units=GPa)
#
#
# Indices 1 2 3 4 5 6 
#
# 1 113.0988 46.9203 36.6904 0.0000 -2.5446 0.0000
# 2 46.9203 123.9066 49.1002 0.0000 -8.9149 0.0000
# 3 36.6904 49.1002 121.5555 0.0000 -7.3906 0.0000
# 4 0.0000 0.0000 0.0000 31.8357 0.0000 5.6814
# 5 -2.5446 -8.9149 -7.3906 0.0000 22.4404 0.0000
# 6 0.0000 0.0000 0.0000 5.6814 0.0000 33.8429
#
#
#
# Elastic Compliance Matrix: (Units=1/GPa)
#
#
# Indices 1 2 3 4 5 6 
#
# 1 0.010868 -0.003395 -0.001955 0.000000 -0.000760 0.000000
# 2 -0.003395 0.010819 -0.003171 0.000000 0.002869 0.000000
# 3 -0.001955 -0.003171 0.010212 0.000000 0.001882 0.000000
# 4 0.000000 0.000000 0.000000 0.032381 0.000000 -0.005436
# 5 -0.000760 0.002869 0.001882 0.000000 0.046236 0.000000
# 6 0.000000 0.000000 0.000000 -0.005436 0.000000 0.030461
#
#
# Mechanical properties :
#
#
# Convention : Reuss Voigt Hill
#
# Bulk Modulus (GPa) = 67.31155 69.33141 68.32148
# Shear Modulus (GPa) = 30.68023 32.68047 31.68035
#
# Velocity S-wave (km/s) = 3.94890 4.07560 4.01275
# Velocity P-wave (km/s) = 7.41648 7.57538 7.49635
#
# Compressibility (1/GPa) = 0.01485629
#
# Stress axis : x y z
#
# Youngs Moduli (GPa) = 92.01743 92.42774 97.92307
#
# Poissons Ratio (x) = 0.31381 0.19144
# Poissons Ratio (y) = 0.31242 0.31051
# Poissons Ratio (z) = 0.17990 0.29309
#
# Static dielectric constant tensor:
#      x y z
#    x 3.485700 0.000000 0.195840 
#    y 0.000000 3.754190 0.000000 
#    z 0.195840 0.000000 4.042750 
# 
# 
# High freq. dielectric constant tensor:
#      x y z
#    x 1.762180 0.000000 0.025340 
#    y 0.000000 1.771130 0.000000 
#    z 0.025340 0.000000 1.761160 
# 
# From -- ./inp_files/91188.got.cif
#   From: 2010.06.25/outbox.cif.g09.slc.cpg/sg15_46_cif.got.tgz:91188.got - 2010.06.28 07:06:18.
