data_PCOD8132628
_publ_section_title
;
Structure prediction by ZEFSAII (Michael W. Deem and Ramdas Pophale) SiO2 
 PCOD8132628
Probable space group: C 2/C
;
_chemical_formula_sum "Si O2"
_cell_formula_units_Z 56
_cell_length_a 8.764649
_cell_length_b 16.627145
_cell_length_c 23.611611
_cell_angle_alpha 90.000000
_cell_angle_beta 129.823406
_cell_angle_gamma 90.000000
_cell_volume 2642.721964
_symmetry_space_group_name_H-M "C 2/C"
_symmetry_group_IT_number 15
_symmetry_cell_setting 'monoclinic'
loop_
_space_group_symop_operation_xyz
x,y,z
-x,y,1/2-z
-x,-y,-z
x,-y,1/2+z
1/2+x,1/2+y,z
1/2-x,1/2+y,1/2-z
1/2-x,1/2-y,-z
1/2+x,1/2-y,1/2+z
loop_
_atom_site_type_symbol
_atom_site_label
_atom_site_fract_x
_atom_site_fract_y
_atom_site_fract_z
Si Si1 0.170047 0.240418 0.068019
Si Si2 0.485036 0.078651 0.812200
Si Si3 0.607268 0.029799 0.110366
Si Si4 0.717731 0.723905 0.783779
Si Si5 0.887863 0.300415 0.850795
Si Si6 0.390387 0.650382 0.922690
Si Si7 0.738858 0.081919 0.547669
O O1 0.165126 0.240068 0.134794
O O2 0.371254 0.202024 0.090530
O O3 0.142072 0.331514 0.039289
O O4 0.990749 0.184715 0.003660
O O5 0.500000 0.054057 0.750000
O O6 0.333174 0.151659 0.782044
O O7 0.697313 0.098888 0.891254
O O8 0.408605 0.003238 0.829759
O O9 0.694761 0.119549 0.138712
O O10 0.751075 0.972661 0.107441
O O11 0.392298 0.034662 0.029354
O O12 0.500000 0.691357 0.750000
O O13 0.692299 0.795683 0.732466
O O14 0.808002 0.223737 0.865497
O O15 0.539373 0.593950 0.922498
#
# Coordination Sequence:
#
# PCOD8132628 Si02
#       7
#     8   8   8   8   8   8   8
#     4  10  18  38  68  98 116 175 224 256 317 383
#     4  12  26  40  63  95 136 169 207 270 339 381
#     4  11  22  39  66  96 128 165 217 265 326 378
#     4  10  22  41  69  90 125 174 225 264 317 402
#     4  10  19  39  70  90 121 169 222 267 301 381
#     4  11  21  40  70  91 132 170 216 263 316 392
#     4  10  20  39  67  94 126 170 216 263 321 385
#
# _framework density 21.190273999999999
#
# number of rings (size 3 to 8) (size 9 to 14) (size 15 to 20)
#    0.000    1.429    5.714    0.857    0.000    2.857 
#    0.000    0.000   12.571    0.000    0.000    0.000 
#    0.000    0.000    0.000    0.000    0.000    0.000 
#
# Total GULP energy -347244.133965 kJ/mol
# GULP energy per Si atom -12401.576213 kJ/mol
# Density = 2.114204 g / cm^3
# Si number density = 21.190274 Si / 1000 Ang^3
#
#
#
# Elastic Constant Matrix: (Units=GPa)
#
#
# Indices 1 2 3 4 5 6 
#
# 1 67.3305 37.7198 31.6312 0.0000 -11.4016 0.0000
# 2 37.7198 91.8551 27.6556 0.0000 -5.9020 0.0000
# 3 31.6312 27.6556 116.6564 0.0000 -19.6206 0.0000
# 4 0.0000 0.0000 0.0000 29.8494 0.0000 -11.2209
# 5 -11.4016 -5.9020 -19.6206 0.0000 35.7369 0.0000
# 6 0.0000 0.0000 0.0000 -11.2209 0.0000 21.2101
#
#
#
# Elastic Compliance Matrix: (Units=1/GPa)
#
#
# Indices 1 2 3 4 5 6 
#
# 1 0.021247 -0.007473 -0.003368 0.000000 0.003695 0.000000
# 2 -0.007473 0.014359 -0.001520 0.000000 -0.000848 0.000000
# 3 -0.003368 -0.001520 0.010602 0.000000 0.004495 0.000000
# 4 0.000000 0.000000 0.000000 0.041818 0.000000 0.022123
# 5 0.003695 -0.000848 0.004495 0.000000 0.031489 0.000000
# 6 0.000000 0.000000 0.000000 0.022123 0.000000 0.058852
#
#
# Mechanical properties :
#
#
# Convention : Reuss Voigt Hill
#
# Bulk Modulus (GPa) = 46.54496 52.20613 49.37554
# Shear Modulus (GPa) = 23.78112 29.28164 26.53138
#
# Velocity S-wave (km/s) = 3.35366 3.72135 3.54228
# Velocity P-wave (km/s) = 6.08350 6.56924 6.33103
#
# Compressibility (1/GPa) = 0.02148461
#
# Stress axis : x y z
#
# Youngs Moduli (GPa) = 47.06590 69.64328 94.32375
#
# Poissons Ratio (x) = 0.52048 0.31766
# Poissons Ratio (y) = 0.35175 0.14339
# Poissons Ratio (z) = 0.15851 0.10587
#
# Static dielectric constant tensor:
#      x y z
#    x 3.644630 0.000000 -0.192160 
#    y 0.000000 3.687580 0.000000 
#    z -0.192160 0.000000 3.914040 
# 
# 
# High freq. dielectric constant tensor:
#      x y z
#    x 1.809390 0.000000 -0.017960 
#    y 0.000000 1.817450 0.000000 
#    z -0.017960 0.000000 1.841390 
# 
# From -- ./inp_files/265595.got.cif
#   From: 2010.06.25/outbox.cif.g09.slc.cpg/sg15_133_cif.got.tgz:265595.got - 2010.06.28 07:06:18.
