data_PCOD8132669
_publ_section_title
;
Structure prediction by ZEFSAII (Michael W. Deem and Ramdas Pophale) SiO2 
 PCOD8132669
Probable space group: C 2/C
;
_chemical_formula_sum "Si O2"
_cell_formula_units_Z 36
_cell_length_a 8.118569
_cell_length_b 20.770184
_cell_length_c 18.513610
_cell_angle_alpha 90.000000
_cell_angle_beta 35.151914
_cell_angle_gamma 90.000000
_cell_volume 1797.389124
_symmetry_space_group_name_H-M "C 2/C"
_symmetry_group_IT_number 15
_symmetry_cell_setting 'monoclinic'
loop_
_space_group_symop_operation_xyz
x,y,z
-x,y,1/2-z
-x,-y,-z
x,-y,1/2+z
1/2+x,1/2+y,z
1/2-x,1/2+y,1/2-z
1/2-x,1/2-y,-z
1/2+x,1/2-y,1/2+z
loop_
_atom_site_type_symbol
_atom_site_label
_atom_site_fract_x
_atom_site_fract_y
_atom_site_fract_z
Si Si1 0.780957 0.335049 0.270305
Si Si2 0.663729 0.082757 0.377706
Si Si3 0.500000 0.245345 0.250000
Si Si4 0.742598 0.818672 0.540402
Si Si5 0.340000 0.062119 0.639831
O O1 0.678881 0.286488 0.244173
O O2 0.515842 0.358600 0.415153
O O3 0.922498 0.397514 0.181785
O O4 0.000000 0.303461 0.250000
O O5 0.537173 0.139678 0.375401
O O6 0.532566 0.089188 0.505198
O O7 0.000000 0.092640 0.250000
O O8 0.583878 0.012472 0.374610
O O9 0.266497 0.198699 0.371535
O O10 0.750000 0.750000 0.500000
O O11 0.000000 0.072715 0.750000
#
# Coordination Sequence:
#
# PCOD8132669 Si02
#       5
#     8   8   4   8   8
#     4  11  22  39  65  92 120 174 219 256 328 386
#     4  10  21  35  66  98 125 172 215 261 325 380
#     4  10  22  40  62  88 132 166 212 280 312 374
#     4  10  21  39  60  89 129 168 215 266 312 387
#     4  10  18  39  65  90 133 170 209 265 321 386
#
# _framework density 20.029053000000001
#
# number of rings (size 3 to 8) (size 9 to 14) (size 15 to 20)
#    0.000    1.778    3.333    1.333    0.000    6.222 
#    2.000    1.111    0.000    0.000    0.000    0.000 
#    0.000    0.000    0.000    0.000    0.000    0.000 
#
# Total GULP energy -222997.011870 kJ/mol
# GULP energy per Si atom -12388.722882 kJ/mol
# Density = 1.998347 g / cm^3
# Si number density = 20.029053 Si / 1000 Ang^3
#
#
#
# Elastic Constant Matrix: (Units=GPa)
#
#
# Indices 1 2 3 4 5 6 
#
# 1 125.4295 56.6233 54.6020 0.0000 9.5684 0.0015
# 2 56.6233 99.2604 49.9178 0.0000 13.2189 0.0001
# 3 54.6020 49.9178 170.0018 0.0031 22.9233 -0.0009
# 4 0.0000 0.0000 0.0031 36.6417 -0.0002 2.6226
# 5 9.5684 13.2189 22.9233 -0.0002 33.1820 -0.0001
# 6 0.0015 0.0001 -0.0009 2.6226 -0.0001 25.2196
#
#
#
# Elastic Compliance Matrix: (Units=1/GPa)
#
#
# Indices 1 2 3 4 5 6 
#
# 1 0.011313 -0.005455 -0.002079 0.000000 0.000347 -0.000001
# 2 -0.005455 0.014648 -0.002177 0.000000 -0.002758 0.000000
# 3 -0.002079 -0.002177 0.007710 -0.000001 -0.003859 0.000000
# 4 0.000000 0.000000 -0.000001 0.027496 0.000001 -0.002859
# 5 0.000347 -0.002758 -0.003859 0.000001 0.033802 0.000000
# 6 -0.000001 0.000000 0.000000 -0.002859 0.000000 0.039949
#
#
# Mechanical properties :
#
#
# Convention : Reuss Voigt Hill
#
# Bulk Modulus (GPa) = 70.17474 79.66419 74.91946
# Shear Modulus (GPa) = 31.42873 34.57856 33.00365
#
# Velocity S-wave (km/s) = 3.96556 4.15953 4.06370
# Velocity P-wave (km/s) = 7.48866 7.93282 7.71394
#
# Compressibility (1/GPa) = 0.01425014
#
# Stress axis : x y z
#
# Youngs Moduli (GPa) = 88.39002 68.26681 129.70640
#
# Poissons Ratio (x) = 0.37236 0.26964
# Poissons Ratio (y) = 0.48213 0.28242
# Poissons Ratio (z) = 0.18375 0.14864
#
# Static dielectric constant tensor:
#      x y z
#    x 3.418460 0.000000 0.391520 
#    y 0.000000 3.775220 0.000000 
#    z 0.391520 0.000000 4.532690 
# 
# 
# High freq. dielectric constant tensor:
#      x y z
#    x 1.745040 0.000000 0.018550 
#    y 0.000000 1.780250 0.000000 
#    z 0.018550 0.000000 1.809400 
# 
# From -- ./inp_files/76461.got.cif
#   From: 2010.06.25/outbox.cif.g09.slc.cpg/sg15_39_cif.got.tgz:76461.got - 2010.06.28 07:06:18.
