data_PCOD8132197
_publ_section_title
;
Structure prediction by ZEFSAII (Michael W. Deem and Ramdas Pophale) SiO2 
 PCOD8132197
Probable space group: C 2/C
;
_chemical_formula_sum "Si O2"
_cell_formula_units_Z 48
_cell_length_a 28.126624
_cell_length_b 18.787162
_cell_length_c 15.609669
_cell_angle_alpha 90.000000
_cell_angle_beta 18.528369
_cell_angle_gamma 90.000000
_cell_volume 2621.145116
_symmetry_space_group_name_H-M "C 2/C"
_symmetry_group_IT_number 15
_symmetry_cell_setting 'monoclinic'
loop_
_space_group_symop_operation_xyz
x,y,z
-x,y,1/2-z
-x,-y,-z
x,-y,1/2+z
1/2+x,1/2+y,z
1/2-x,1/2+y,1/2-z
1/2-x,1/2-y,-z
1/2+x,1/2-y,1/2+z
loop_
_atom_site_type_symbol
_atom_site_label
_atom_site_fract_x
_atom_site_fract_y
_atom_site_fract_z
Si Si1 0.857039 0.787534 0.750240
Si Si2 0.094494 0.937377 0.754033
Si Si3 0.210250 0.291892 0.306271
Si Si4 0.313349 0.280774 0.307369
Si Si5 0.500000 0.630173 0.250000
Si Si6 0.000000 0.399127 0.750000
Si Si7 0.717945 0.444964 0.142166
O O1 0.857875 0.872488 0.763750
O O2 0.816241 0.766643 0.721877
O O3 0.018355 0.754820 0.494700
O O4 0.750000 0.750000 0.000000
O O5 0.101550 0.914605 0.642800
O O6 0.212658 0.001403 0.569593
O O7 0.925205 0.966841 0.055493
O O8 0.215896 0.256550 0.391479
O O9 0.078506 0.351343 0.540124
O O10 0.377358 0.324600 0.011492
O O11 0.250000 0.250000 0.500000
O O12 0.305718 0.363893 0.341675
O O13 0.123649 0.451613 0.579751
#
# Coordination Sequence:
#
# PCOD8132197 Si02
#       7
#     8   8   8   8   4   4   8
#     4  11  19  32  57  83 109 141 190 238 271 331
#     4  10  20  36  58  82 114 154 187 230 286 345
#     4  11  20  34  58  85 110 148 195 229 284 345
#     4  10  20  37  57  81 113 151 183 232 287 335
#     4  12  18  38  59  83 108 160 190 220 296 352
#     4  10  18  36  59  81 108 150 184 242 284 338
#     4   9  19  37  57  80 111 152 188 229 282 343
#
# _framework density 18.312608000000001
#
# number of rings (size 3 to 8) (size 9 to 14) (size 15 to 20)
#    0.000    1.667    6.667    2.000    0.000    0.000 
#    0.000    8.333    0.000    0.000    0.000    0.000 
#    0.000    0.000    0.000    0.000    0.000    0.000 
#
# Total GULP energy -297317.364668 kJ/mol
# GULP energy per Si atom -12388.223528 kJ/mol
# Density = 1.827093 g / cm^3
# Si number density = 18.312608 Si / 1000 Ang^3
#
#
#
# Elastic Constant Matrix: (Units=GPa)
#
#
# Indices 1 2 3 4 5 6 
#
# 1 172.3814 66.8920 39.1570 0.0011 -5.4534 -0.0004
# 2 66.8920 60.0292 29.3017 -0.0025 -7.6964 0.0017
# 3 39.1570 29.3017 97.3734 0.0017 -16.1975 -0.0002
# 4 0.0011 -0.0025 0.0017 20.9432 0.0005 -5.4891
# 5 -5.4534 -7.6964 -16.1975 0.0005 31.1320 -0.0004
# 6 -0.0004 0.0017 -0.0002 -5.4891 -0.0004 32.2011
#
#
#
# Elastic Compliance Matrix: (Units=1/GPa)
#
#
# Indices 1 2 3 4 5 6 
#
# 1 0.010337 -0.011206 -0.001034 -0.000002 -0.001497 0.000000
# 2 -0.011206 0.031783 -0.004463 0.000004 0.003572 -0.000001
# 3 -0.001034 -0.004463 0.012934 -0.000002 0.005445 0.000000
# 4 -0.000002 0.000004 -0.000002 0.049981 -0.000001 0.008520
# 5 -0.001497 0.003572 0.005445 -0.000001 0.035575 0.000000
# 6 0.000000 -0.000001 0.000000 0.008520 0.000000 0.032507
#
#
# Mechanical properties :
#
#
# Convention : Reuss Voigt Hill
#
# Bulk Modulus (GPa) = 46.19562 66.72059 56.45811
# Shear Modulus (GPa) = 23.39286 29.81748 26.60517
#
# Velocity S-wave (km/s) = 3.57798 4.03953 3.81574
# Velocity P-wave (km/s) = 6.50770 7.63351 7.09297
#
# Compressibility (1/GPa) = 0.02164707
#
# Stress axis : x y z
#
# Youngs Moduli (GPa) = 96.73895 31.46365 77.31344
#
# Poissons Ratio (x) = 0.35259 0.07993
# Poissons Ratio (y) = 1.08408 0.34509
# Poissons Ratio (z) = 0.10001 0.14044
#
# Static dielectric constant tensor:
#      x y z
#    x 3.903540 -0.000220 -1.057160 
#    y -0.000220 3.434340 0.000650 
#    z -1.057160 0.000650 6.343140 
# 
# 
# High freq. dielectric constant tensor:
#      x y z
#    x 1.712810 0.000000 -0.007990 
#    y 0.000000 1.676670 0.000000 
#    z -0.007990 0.000000 1.720520 
# 
# From -- ./inp_files/178923.got.cif
#   From: 2010.06.25/outbox.cif.g09.slc.cpg/sg15_90_cif.got.tgz:178923.got - 2010.06.28 07:06:18.
