data_PCOD8132623
_publ_section_title
;
Structure prediction by ZEFSAII (Michael W. Deem and Ramdas Pophale) SiO2 
 PCOD8132623
Probable space group: C 2/C
;
_chemical_formula_sum "Si O2"
_cell_formula_units_Z 44
_cell_length_a 9.693754
_cell_length_b 16.210757
_cell_length_c 14.243447
_cell_angle_alpha 90.000000
_cell_angle_beta 67.096214
_cell_angle_gamma 90.000000
_cell_volume 2061.794228
_symmetry_space_group_name_H-M "C 2/C"
_symmetry_group_IT_number 15
_symmetry_cell_setting 'monoclinic'
loop_
_space_group_symop_operation_xyz
x,y,z
-x,y,1/2-z
-x,-y,-z
x,-y,1/2+z
1/2+x,1/2+y,z
1/2-x,1/2+y,1/2-z
1/2-x,1/2-y,-z
1/2+x,1/2-y,1/2+z
loop_
_atom_site_type_symbol
_atom_site_label
_atom_site_fract_x
_atom_site_fract_y
_atom_site_fract_z
Si Si1 0.917821 0.273915 0.964798
Si Si2 0.196259 0.906641 0.283764
Si Si3 0.837876 0.830168 0.014265
Si Si4 0.930493 0.008534 0.416992
Si Si5 0.126801 0.439098 0.431910
Si Si6 0.000000 0.770959 0.250000
O O1 0.973850 0.290034 0.844101
O O2 0.003174 0.196252 0.986038
O O3 0.750000 0.250000 0.000000
O O4 0.945129 0.351689 0.023190
O O5 0.244875 0.877714 0.376406
O O6 0.340181 0.943527 0.189357
O O7 0.142999 0.828380 0.235953
O O8 0.065620 0.977357 0.314322
O O9 0.750000 0.750000 0.000000
O O10 0.874005 0.895652 0.920651
O O11 0.784461 0.951477 0.443759
O O12 0.000000 0.000000 0.500000
O O13 0.000000 0.500000 0.500000
#
# Coordination Sequence:
#
# PCOD8132623 Si02
#       6
#     8   8   8   8   8   4
#     4  11  21  40  67  89 123 166 216 258 310 383
#     4  10  19  40  68  85 126 178 213 248 317 398
#     4  10  22  41  65  96 131 161 210 272 326 377
#     4  10  20  40  66  89 122 176 216 248 313 403
#     4  12  23  40  62  96 131 161 211 276 320 363
#     4  10  18  38  68  88 116 168 226 248 298 386
#
# _framework density 21.340637000000001
#
# number of rings (size 3 to 8) (size 9 to 14) (size 15 to 20)
#    0.000    1.455    3.636    3.273    0.000    0.000 
#    9.818    8.182    0.000    0.000    0.000    0.000 
#    0.000    0.000    0.000    0.000    0.000    0.000 
#
# Total GULP energy -272579.035657 kJ/mol
# GULP energy per Si atom -12389.956166 kJ/mol
# Density = 2.129206 g / cm^3
# Si number density = 21.340637 Si / 1000 Ang^3
#
#
#
# Elastic Constant Matrix: (Units=GPa)
#
#
# Indices 1 2 3 4 5 6 
#
# 1 50.5597 6.6805 34.6200 0.0000 -4.2059 0.0000
# 2 6.6805 104.6964 68.4413 0.0000 -6.3372 0.0000
# 3 34.6200 68.4413 162.0053 0.0000 -19.1028 0.0000
# 4 0.0000 0.0000 0.0000 38.3581 0.0000 -0.5712
# 5 -4.2059 -6.3372 -19.1028 0.0000 31.7264 0.0000
# 6 0.0000 0.0000 0.0000 -0.5712 0.0000 35.4913
#
#
#
# Elastic Compliance Matrix: (Units=1/GPa)
#
#
# Indices 1 2 3 4 5 6 
#
# 1 0.023625 0.002478 -0.006101 0.000000 -0.000047 0.000000
# 2 0.002478 0.013473 -0.006314 0.000000 -0.000782 0.000000
# 3 -0.006101 -0.006314 0.010656 0.000000 0.004346 0.000000
# 4 0.000000 0.000000 0.000000 0.026076 0.000000 0.000420
# 5 -0.000047 -0.000782 0.004346 0.000000 0.033974 0.000000
# 6 0.000000 0.000000 0.000000 0.000420 0.000000 0.028183
#
#
# Mechanical properties :
#
#
# Convention : Reuss Voigt Hill
#
# Bulk Modulus (GPa) = 35.86664 59.63832 47.75248
# Shear Modulus (GPa) = 30.27469 34.94981 32.61225
#
# Velocity S-wave (km/s) = 3.77057 4.05126 3.91343
# Velocity P-wave (km/s) = 5.98327 7.06329 6.54559
#
# Compressibility (1/GPa) = 0.02788106
#
# Stress axis : x y z
#
# Youngs Moduli (GPa) = 42.32836 74.22058 93.84220
#
# Poissons Ratio (x) = -0.18391 0.57252
# Poissons Ratio (y) = -0.10489 0.59249
# Poissons Ratio (z) = 0.25824 0.46861
#
# Static dielectric constant tensor:
#      x y z
#    x 3.713120 0.000000 -0.020280 
#    y 0.000000 2.702400 0.000000 
#    z -0.020280 0.000000 3.915800 
# 
# 
# High freq. dielectric constant tensor:
#      x y z
#    x 1.825640 0.000000 0.001520 
#    y 0.000000 1.833370 0.000000 
#    z 0.001520 0.000000 1.837600 
# 
# From -- ./inp_files/134763.got.cif
#   From: 2010.06.25/outbox.cif.g09.slc.cpg/sg15_68_cif.got.tgz:134763.got - 2010.06.28 07:06:18.
