data_PCOD8132365
_publ_section_title
;
Structure prediction by ZEFSAII (Michael W. Deem and Ramdas Pophale) SiO2 
 PCOD8132365
Probable space group: C 2/C
;
_chemical_formula_sum "Si O2"
_cell_formula_units_Z 52
_cell_length_a 9.024565
_cell_length_b 25.946290
_cell_length_c 12.189703
_cell_angle_alpha 90.000000
_cell_angle_beta 57.378689
_cell_angle_gamma 90.000000
_cell_volume 2404.012335
_symmetry_space_group_name_H-M "C 2/C"
_symmetry_group_IT_number 15
_symmetry_cell_setting 'monoclinic'
loop_
_space_group_symop_operation_xyz
x,y,z
-x,y,1/2-z
-x,-y,-z
x,-y,1/2+z
1/2+x,1/2+y,z
1/2-x,1/2+y,1/2-z
1/2-x,1/2-y,-z
1/2+x,1/2-y,1/2+z
loop_
_atom_site_type_symbol
_atom_site_label
_atom_site_fract_x
_atom_site_fract_y
_atom_site_fract_z
Si Si1 0.500000 0.134305 0.250000
Si Si2 0.623691 0.064847 0.608559
Si Si3 0.173360 0.967942 0.944736
Si Si4 0.301380 0.310560 0.366311
Si Si5 0.513322 0.612864 0.116248
Si Si6 0.186140 0.202388 0.380401
Si Si7 0.870846 0.412370 0.024372
O O1 0.350681 0.172461 0.262568
O O2 0.447868 0.098333 0.372352
O O3 0.500000 0.092278 0.750000
O O4 0.799548 0.097373 0.510944
O O5 0.513688 0.058193 0.540264
O O6 0.670002 0.008674 0.641223
O O7 0.151550 0.918749 0.872090
O O8 0.202129 0.948192 0.059778
O O9 0.000000 0.000000 0.000000
O O10 0.500000 0.316468 0.250000
O O11 0.201395 0.263104 0.345058
O O12 0.305249 0.303054 0.493580
O O13 0.191401 0.361998 0.383642
O O14 0.500000 0.601920 0.250000
O O15 0.486930 0.674023 0.100021
#
# Coordination Sequence:
#
# PCOD8132365 Si02
#       7
#     4   8   8   8   8   8   8
#     4  10  18  36  68  94 124 162 234 264 320 384
#     4  11  27  41  63  99 139 177 218 284 346 396
#     4  10  23  42  64  93 127 173 226 278 332 394
#     4  10  21  36  68  96 127 167 216 268 333 394
#     4  11  23  45  69  96 134 177 225 276 334 400
#     4  10  20  38  63  98 127 163 215 274 317 399
#     4  11  23  41  66  95 131 177 221 275 326 400
#
# _framework density 21.630504999999999
#
# number of rings (size 3 to 8) (size 9 to 14) (size 15 to 20)
#    0.000    1.538    3.846    1.385    3.231    2.462 
#    0.000    2.308    0.000    0.000    0.000    0.000 
#    0.000    0.000    0.000    0.000    0.000    0.000 
#
# Total GULP energy -322142.596481 kJ/mol
# GULP energy per Si atom -12390.099865 kJ/mol
# Density = 2.158127 g / cm^3
# Si number density = 21.630505 Si / 1000 Ang^3
#
#
#
# Elastic Constant Matrix: (Units=GPa)
#
#
# Indices 1 2 3 4 5 6 
#
# 1 147.9358 59.1780 39.0278 0.0000 -3.0278 0.0000
# 2 59.1780 111.1054 39.8778 0.0000 -15.3587 0.0000
# 3 39.0278 39.8778 97.1808 0.0000 -11.9439 0.0000
# 4 0.0000 0.0000 0.0000 12.4659 0.0000 -2.3647
# 5 -3.0278 -15.3587 -11.9439 0.0000 24.5938 0.0000
# 6 0.0000 0.0000 0.0000 -2.3647 0.0000 39.3700
#
#
#
# Elastic Compliance Matrix: (Units=1/GPa)
#
#
# Indices 1 2 3 4 5 6 
#
# 1 0.009037 -0.004414 -0.002148 0.000000 -0.002687 0.000000
# 2 -0.004414 0.013265 -0.002892 0.000000 0.006336 0.000000
# 3 -0.002148 -0.002892 0.012852 0.000000 0.004171 0.000000
# 4 0.000000 0.000000 0.000000 0.081143 0.000000 0.004874
# 5 -0.002687 0.006336 0.004171 0.000000 0.046312 0.000000
# 6 0.000000 0.000000 0.000000 0.004874 0.000000 0.025693
#
#
# Mechanical properties :
#
#
# Convention : Reuss Voigt Hill
#
# Bulk Modulus (GPa) = 61.55276 70.26548 65.90912
# Shear Modulus (GPa) = 23.51536 29.82850 26.67193
#
# Velocity S-wave (km/s) = 3.30076 3.71752 3.51532
# Velocity P-wave (km/s) = 6.56086 7.14014 6.85662
#
# Compressibility (1/GPa) = 0.01624622
#
# Stress axis : x y z
#
# Youngs Moduli (GPa) = 110.65497 75.38482 77.80734
#
# Poissons Ratio (x) = 0.33273 0.16716
# Poissons Ratio (y) = 0.48841 0.22502
# Poissons Ratio (z) = 0.23773 0.21801
#
# Static dielectric constant tensor:
#      x y z
#    x 4.242350 0.000000 -0.357340 
#    y 0.000000 4.555070 0.000000 
#    z -0.357340 0.000000 4.185810 
# 
# 
# High freq. dielectric constant tensor:
#      x y z
#    x 1.846000 0.000000 -0.013570 
#    y 0.000000 1.857230 0.000000 
#    z -0.013570 0.000000 1.833580 
# 
# From -- ./inp_files/138445.got.cif
#   From: 2010.06.25/outbox.cif.g09.slc.cpg/sg15_70_cif.got.tgz:138445.got - 2010.06.28 07:06:18.
