data_PCOD8132907
_publ_section_title
;
Structure prediction by ZEFSAII (Michael W. Deem and Ramdas Pophale) SiO2 
 PCOD8132907
Probable space group: C 2/C
;
_chemical_formula_sum "Si O2"
_cell_formula_units_Z 64
_cell_length_a 30.797905
_cell_length_b 15.944991
_cell_length_c 9.377702
_cell_angle_alpha 90.000000
_cell_angle_beta 53.439098
_cell_angle_gamma 90.000000
_cell_volume 3698.951496
_symmetry_space_group_name_H-M "C 2/C"
_symmetry_group_IT_number 15
_symmetry_cell_setting 'monoclinic'
loop_
_space_group_symop_operation_xyz
x,y,z
-x,y,1/2-z
-x,-y,-z
x,-y,1/2+z
1/2+x,1/2+y,z
1/2-x,1/2+y,1/2-z
1/2-x,1/2-y,-z
1/2+x,1/2-y,1/2+z
loop_
_atom_site_type_symbol
_atom_site_label
_atom_site_fract_x
_atom_site_fract_y
_atom_site_fract_z
Si Si1 0.891898 0.498053 0.197362
Si Si2 0.149266 0.738449 0.544140
Si Si3 0.180646 0.910563 0.567310
Si Si4 0.302360 0.134536 0.806273
Si Si5 0.708505 0.548518 0.300360
Si Si6 0.302692 0.073890 0.518455
Si Si7 0.061370 0.394188 0.155512
Si Si8 0.735420 0.183252 0.148053
O O1 0.839426 0.448326 0.242626
O O2 0.866320 0.552428 0.377116
O O3 0.935287 0.440833 0.197182
O O4 0.918802 0.550022 0.017213
O O5 0.141460 0.838113 0.581233
O O6 0.170393 0.707617 0.656752
O O7 0.094756 0.692325 0.602186
O O8 0.192392 0.724563 0.336293
O O9 0.241584 0.877443 0.478033
O O10 0.165318 0.941246 0.755804
O O11 0.177182 0.988663 0.469618
O O12 0.298287 0.150494 0.642632
O O13 0.765599 0.505386 0.139725
O O14 0.717062 0.641566 0.350618
O O15 0.286288 0.102392 0.393123
O O16 0.000000 0.368185 0.250000
O O17 0.750000 0.250000 0.000000
#
# Coordination Sequence:
#
# PCOD8132907 Si02
#       8
#     8   8   8   8   8   8   8   8
#     4  11  18  34  54  76 106 140 183 224 265 324
#     4  11  23  36  51  76 110 146 185 222 272 322
#     4  11  21  33  51  74 109 146 177 217 260 331
#     4  10  19  30  51  74 107 147 179 205 260 323
#     4  11  20  33  49  74 106 147 180 212 258 326
#     4  11  18  32  49  74 106 148 183 210 254 320
#     4  11  23  38  56  78 106 145 193 235 273 316
#     4  12  22  32  49  78 113 149 185 217 267 323
#
# _framework density 17.302199999999999
#
# number of rings (size 3 to 8) (size 9 to 14) (size 15 to 20)
#    0.000    1.000    6.250    3.750    1.750    0.000 
#    0.000    0.000    0.000    0.000    0.000    0.875 
#    0.000    0.000    0.000    0.000    0.000    0.000 
#
# Total GULP energy -396469.887476 kJ/mol
# GULP energy per Si atom -12389.683984 kJ/mol
# Density = 1.726282 g / cm^3
# Si number density = 17.302200 Si / 1000 Ang^3
#
#
#
# Elastic Constant Matrix: (Units=GPa)
#
#
# Indices 1 2 3 4 5 6 
#
# 1 70.0563 33.7107 31.7313 0.0000 9.6344 0.0000
# 2 33.7107 89.5352 41.6785 0.0000 9.2269 0.0000
# 3 31.7313 41.6785 79.4184 0.0000 23.2173 0.0000
# 4 0.0000 0.0000 0.0000 25.7359 0.0000 9.7595
# 5 9.6344 9.2269 23.2173 0.0000 27.7627 0.0000
# 6 0.0000 0.0000 0.0000 9.7595 0.0000 20.8806
#
#
#
# Elastic Compliance Matrix: (Units=1/GPa)
#
#
# Indices 1 2 3 4 5 6 
#
# 1 0.018861 -0.004799 -0.004726 0.000000 -0.000999 0.000000
# 2 -0.004799 0.016092 -0.007215 0.000000 0.002351 0.000000
# 3 -0.004726 -0.007215 0.022614 0.000000 -0.014874 0.000000
# 4 0.000000 0.000000 0.000000 0.047227 0.000000 -0.022074
# 5 -0.000999 0.002351 -0.014874 0.000000 0.048024 0.000000
# 6 0.000000 0.000000 0.000000 -0.022074 0.000000 0.058208
#
#
# Mechanical properties :
#
#
# Convention : Reuss Voigt Hill
#
# Bulk Modulus (GPa) = 41.51301 50.36120 45.93711
# Shear Modulus (GPa) = 19.79931 23.66846 21.73388
#
# Velocity S-wave (km/s) = 3.38645 3.70259 3.54804
# Velocity P-wave (km/s) = 6.27182 6.88831 6.58728
#
# Compressibility (1/GPa) = 0.02408884
#
# Stress axis : x y z
#
# Youngs Moduli (GPa) = 53.01931 62.14348 44.21974
#
# Poissons Ratio (x) = 0.29821 0.20897
# Poissons Ratio (y) = 0.25442 0.31904
# Poissons Ratio (z) = 0.25055 0.44836
#
# Static dielectric constant tensor:
#      x y z
#    x 3.104970 0.000000 0.465080 
#    y 0.000000 3.220290 0.000000 
#    z 0.465080 0.000000 3.369430 
# 
# 
# High freq. dielectric constant tensor:
#      x y z
#    x 1.633990 0.000000 0.052380 
#    y 0.000000 1.661090 0.000000 
#    z 0.052380 0.000000 1.666760 
# 
# From -- ./inp_files/69926.got.cif
#   From: 2010.06.25/outbox.cif.g09.slc.cpg/sg15_35_cif.got.tgz:69926.got - 2010.06.28 07:06:18.
