data_PCOD8132130
_publ_section_title
;
Structure prediction by ZEFSAII (Michael W. Deem and Ramdas Pophale) SiO2 
 PCOD8132130
Probable space group: C 2/C
;
_chemical_formula_sum "Si O2"
_cell_formula_units_Z 52
_cell_length_a 14.833252
_cell_length_b 8.674298
_cell_length_c 21.558863
_cell_angle_alpha 90.000000
_cell_angle_beta 67.618368
_cell_angle_gamma 90.000000
_cell_volume 2564.971031
_symmetry_space_group_name_H-M "C 2/C"
_symmetry_group_IT_number 15
_symmetry_cell_setting 'monoclinic'
loop_
_space_group_symop_operation_xyz
x,y,z
-x,y,1/2-z
-x,-y,-z
x,-y,1/2+z
1/2+x,1/2+y,z
1/2-x,1/2+y,1/2-z
1/2-x,1/2-y,-z
1/2+x,1/2-y,1/2+z
loop_
_atom_site_type_symbol
_atom_site_label
_atom_site_fract_x
_atom_site_fract_y
_atom_site_fract_z
Si Si1 0.625080 0.954458 0.406894
Si Si2 0.845743 0.838070 0.674474
Si Si3 0.955422 0.873124 0.142636
Si Si4 0.828353 0.523173 0.351136
Si Si5 0.251369 0.219203 0.171089
Si Si6 0.926401 0.637320 0.448999
Si Si7 0.000000 0.309624 0.750000
O O1 0.630178 0.837075 0.348323
O O2 0.632925 0.870143 0.471352
O O3 0.714926 0.074848 0.379914
O O4 0.520826 0.030560 0.425485
O O5 0.803916 0.847708 0.754693
O O6 0.945358 0.941309 0.645255
O O7 0.772417 0.897309 0.640958
O O8 0.846022 0.811138 0.167478
O O9 0.031324 0.812062 0.070316
O O10 0.000242 0.805527 0.192956
O O11 0.817525 0.336425 0.349872
O O12 0.855991 0.576603 0.413096
O O13 0.907446 0.577801 0.279662
#
# Coordination Sequence:
#
# PCOD8132130 Si02
#       7
#     8   8   8   8   8   8   4
#     4  10  21  39  60  80 121 147 196 235 293 344
#     4  11  21  35  58  86 112 154 185 248 289 349
#     4   9  19  35  56  80 114 147 197 228 295 340
#     4  10  21  35  59  81 113 153 197 229 299 343
#     4  10  20  35  57  86 112 152 188 240 293 355
#     4   9  21  40  58  82 110 164 188 238 286 349
#     4  10  18  36  56  80 120 150 184 254 280 356
#
# _framework density 20.273135
#
# number of rings (size 3 to 8) (size 9 to 14) (size 15 to 20)
#    0.000    2.154    1.538    1.846    4.308    1.846 
#    2.769    0.000    0.000    0.000    0.000    0.000 
#    0.000    0.000    0.000    0.000    0.000    0.000 
#
# Total GULP energy -322281.992362 kJ/mol
# GULP energy per Si atom -12395.461245 kJ/mol
# Density = 2.022699 g / cm^3
# Si number density = 20.273135 Si / 1000 Ang^3
#
#
#
# Elastic Constant Matrix: (Units=GPa)
#
#
# Indices 1 2 3 4 5 6 
#
# 1 57.9245 23.5077 16.0979 0.0000 2.3495 0.0000
# 2 23.5077 104.0389 19.0057 0.0000 -14.3084 0.0000
# 3 16.0979 19.0057 79.4661 0.0000 -2.1396 0.0000
# 4 0.0000 0.0000 0.0000 19.4989 0.0000 -0.1025
# 5 2.3495 -14.3084 -2.1396 0.0000 16.0444 0.0000
# 6 0.0000 0.0000 0.0000 -0.1025 0.0000 30.2840
#
#
#
# Elastic Compliance Matrix: (Units=1/GPa)
#
#
# Indices 1 2 3 4 5 6 
#
# 1 0.020566 -0.005180 -0.003144 0.000000 -0.008050 0.000000
# 2 -0.005180 0.012722 -0.001673 0.000000 0.011881 0.000000
# 3 -0.003144 -0.001673 0.013642 0.000000 0.000787 0.000000
# 4 0.000000 0.000000 0.000000 0.051286 0.000000 0.000174
# 5 -0.008050 0.011881 0.000787 0.000000 0.074206 0.000000
# 6 0.000000 0.000000 0.000000 0.000174 0.000000 0.033021
#
#
# Mechanical properties :
#
#
# Convention : Reuss Voigt Hill
#
# Bulk Modulus (GPa) = 37.12547 39.85025 38.48786
# Shear Modulus (GPa) = 21.32950 25.35334 23.34142
#
# Velocity S-wave (km/s) = 3.24714 3.54020 3.39683
# Velocity P-wave (km/s) = 5.69306 6.03407 5.86605
#
# Compressibility (1/GPa) = 0.02693569
#
# Stress axis : x y z
#
# Youngs Moduli (GPa) = 48.62316 78.60519 73.30118
#
# Poissons Ratio (x) = 0.40716 0.23047
# Poissons Ratio (y) = 0.25186 0.12267
# Poissons Ratio (z) = 0.15288 0.13154
#
# Static dielectric constant tensor:
#      x y z
#    x 3.572820 0.000000 -0.040870 
#    y 0.000000 3.962320 0.000000 
#    z -0.040870 0.000000 3.779410 
# 
# 
# High freq. dielectric constant tensor:
#      x y z
#    x 1.778870 0.000000 -0.000620 
#    y 0.000000 1.793650 0.000000 
#    z -0.000620 0.000000 1.786200 
# 
# From -- ./inp_files/246894.got.cif
#   From: 2010.06.25/outbox.cif.g09.slc.cpg/sg15_124_cif.got.tgz:246894.got - 2010.06.28 07:06:18.
