data_PCOD8132066
_publ_section_title
;
Structure prediction by ZEFSAII (Michael W. Deem and Ramdas Pophale) SiO2 
 PCOD8132066
Probable space group: C 2/C
;
_chemical_formula_sum "Si O2"
_cell_formula_units_Z 40
_cell_length_a 13.191136
_cell_length_b 23.555858
_cell_length_c 8.268797
_cell_angle_alpha 90.000000
_cell_angle_beta 46.983761
_cell_angle_gamma 90.000000
_cell_volume 1878.607726
_symmetry_space_group_name_H-M "C 2/C"
_symmetry_group_IT_number 15
_symmetry_cell_setting 'monoclinic'
loop_
_space_group_symop_operation_xyz
x,y,z
-x,y,1/2-z
-x,-y,-z
x,-y,1/2+z
1/2+x,1/2+y,z
1/2-x,1/2+y,1/2-z
1/2-x,1/2-y,-z
1/2+x,1/2-y,1/2+z
loop_
_atom_site_type_symbol
_atom_site_label
_atom_site_fract_x
_atom_site_fract_y
_atom_site_fract_z
Si Si1 0.500000 0.655049 0.750000
Si Si2 0.467676 0.180927 0.473990
Si Si3 0.648714 0.434999 0.896175
Si Si4 0.685345 0.733606 0.738549
Si Si5 0.000000 0.028038 0.250000
Si Si6 0.536591 0.061611 0.525462
O O1 0.621685 0.618748 0.537701
O O2 0.564987 0.688501 0.829792
O O3 0.500000 0.189624 0.250000
O O4 0.599184 0.213988 0.417693
O O5 0.317799 0.207989 0.693240
O O6 0.459399 0.113887 0.521219
O O7 0.557704 0.433512 0.831835
O O8 0.803071 0.430597 0.672332
O O9 0.621316 0.489966 0.038072
O O10 0.750000 0.750000 0.500000
O O11 0.500000 0.065313 0.750000
O O12 0.500000 0.000000 0.500000
#
# Coordination Sequence:
#
# PCOD8132066 Si02
#       6
#     4   8   8   8   4   8
#     4  11  20  34  66  96 120 168 203 274 306 384
#     4  10  21  38  66  92 126 164 215 263 311 376
#     4  10  21  37  61  88 126 160 217 253 329 368
#     4  10  18  35  62  94 123 160 213 256 312 367
#     4   9  20  38  58  88 122 168 201 272 306 394
#     4  12  26  42  64  91 129 170 212 264 321 386
#
# _framework density 21.292363999999999
#
# number of rings (size 3 to 8) (size 9 to 14) (size 15 to 20)
#    0.000    1.600    3.000    4.200    0.000    6.400 
#    0.000    1.000    2.200    0.000    0.000    0.000 
#    0.000    0.000    0.000    0.000    0.000    0.000 
#
# Total GULP energy -247780.584382 kJ/mol
# GULP energy per Si atom -12389.029219 kJ/mol
# Density = 2.124390 g / cm^3
# Si number density = 21.292364 Si / 1000 Ang^3
#
#
#
# Elastic Constant Matrix: (Units=GPa)
#
#
# Indices 1 2 3 4 5 6 
#
# 1 56.1970 39.7711 29.2194 0.0000 -18.8414 0.0000
# 2 39.7711 136.3863 31.8251 0.0000 -22.8880 0.0000
# 3 29.2194 31.8251 107.6853 0.0000 -21.2449 0.0000
# 4 0.0000 0.0000 0.0000 10.7648 0.0000 10.2003
# 5 -18.8414 -22.8880 -21.2449 0.0000 39.6811 0.0000
# 6 0.0000 0.0000 0.0000 10.2003 0.0000 24.2842
#
#
#
# Elastic Compliance Matrix: (Units=1/GPa)
#
#
# Indices 1 2 3 4 5 6 
#
# 1 0.026178 -0.005493 -0.004084 0.000000 0.007075 0.000000
# 2 -0.005493 0.009542 -0.000848 0.000000 0.002441 0.000000
# 3 -0.004084 -0.000848 0.011367 0.000000 0.003658 0.000000
# 4 0.000000 0.000000 0.000000 0.154314 0.000000 -0.064818
# 5 0.007075 0.002441 0.003658 0.000000 0.031927 0.000000
# 6 0.000000 0.000000 0.000000 -0.064818 0.000000 0.068405
#
#
# Mechanical properties :
#
#
# Convention : Reuss Voigt Hill
#
# Bulk Modulus (GPa) = 38.11567 55.76666 46.94116
# Shear Modulus (GPa) = 15.09085 28.24287 21.66686
#
# Velocity S-wave (km/s) = 2.66511 3.64597 3.19343
# Velocity P-wave (km/s) = 5.23549 6.63113 5.97421
#
# Compressibility (1/GPa) = 0.02623593
#
# Stress axis : x y z
#
# Youngs Moduli (GPa) = 38.20066 104.80523 87.97767
#
# Poissons Ratio (x) = 0.57573 0.35928
# Poissons Ratio (y) = 0.20985 0.07458
# Poissons Ratio (z) = 0.15600 0.08884
#
# Static dielectric constant tensor:
#      x y z
#    x 3.576140 0.000000 -0.323460 
#    y 0.000000 4.895980 0.000000 
#    z -0.323460 0.000000 3.937010 
# 
# 
# High freq. dielectric constant tensor:
#      x y z
#    x 1.813150 0.000000 -0.028490 
#    y 0.000000 1.845210 0.000000 
#    z -0.028490 0.000000 1.833350 
# 
# From -- ./inp_files/33353.got.cif
#   From: 2010.06.25/outbox.cif.g09.slc.cpg/sg15_17_cif.got.tgz:33353.got - 2010.06.28 07:06:18.
