data_PCOD8132679
_publ_section_title
;
Structure prediction by ZEFSAII (Michael W. Deem and Ramdas Pophale) SiO2 
 PCOD8132679
Probable space group: C 2/C
;
_chemical_formula_sum "Si O2"
_cell_formula_units_Z 40
_cell_length_a 25.507717
_cell_length_b 9.230124
_cell_length_c 14.068970
_cell_angle_alpha 90.000000
_cell_angle_beta 30.949300
_cell_angle_gamma 90.000000
_cell_volume 1703.493740
_symmetry_space_group_name_H-M "C 2/C"
_symmetry_group_IT_number 15
_symmetry_cell_setting 'monoclinic'
loop_
_space_group_symop_operation_xyz
x,y,z
-x,y,1/2-z
-x,-y,-z
x,-y,1/2+z
1/2+x,1/2+y,z
1/2-x,1/2+y,1/2-z
1/2-x,1/2-y,-z
1/2+x,1/2-y,1/2+z
loop_
_atom_site_type_symbol
_atom_site_label
_atom_site_fract_x
_atom_site_fract_y
_atom_site_fract_z
Si Si1 0.545324 0.344149 0.906339
Si Si2 0.389258 0.738161 0.386811
Si Si3 0.095821 0.396338 0.850560
Si Si4 0.192828 0.349510 0.297945
Si Si5 0.888546 0.577372 0.384513
O O1 0.622880 0.344322 0.695925
O O2 0.608282 0.267551 0.894187
O O3 0.500000 0.500000 0.000000
O O4 0.443908 0.250063 0.037358
O O5 0.500000 0.693356 0.250000
O O6 0.305726 0.689787 0.591871
O O7 0.376084 0.907242 0.389960
O O8 0.178187 0.483910 0.784330
O O9 0.132402 0.355475 0.686813
O O10 0.000000 0.500000 0.000000
O O11 0.190955 0.355236 0.416039
O O12 0.000000 0.616216 0.250000
#
# Coordination Sequence:
#
# PCOD8132679 Si02
#       5
#     8   8   8   8   8
#     4  11  23  43  69 101 141 173 221 295 354 404
#     4  11  24  44  67  98 135 179 234 288 334 404
#     4  10  18  39  70  98 129 184 226 260 345 420
#     4  11  23  43  72  98 135 188 227 274 351 417
#     4  11  19  39  72  97 130 181 230 271 328 430
#
# _framework density 23.481154
#
# number of rings (size 3 to 8) (size 9 to 14) (size 15 to 20)
#    0.000    1.200    8.000    1.800    0.000    1.600 
#    7.200    1.000    0.000    0.000    0.000    0.000 
#    0.000    0.000    0.000    0.000    0.000    0.000 
#
# Total GULP energy -247893.218906 kJ/mol
# GULP energy per Si atom -12394.660945 kJ/mol
# Density = 2.342771 g / cm^3
# Si number density = 23.481154 Si / 1000 Ang^3
#
#
#
# Elastic Constant Matrix: (Units=GPa)
#
#
# Indices 1 2 3 4 5 6 
#
# 1 45.5144 8.7146 35.7375 0.0000 22.9987 0.0000
# 2 8.7146 102.7631 40.3177 0.0001 -6.2145 -0.0001
# 3 35.7375 40.3177 173.9236 0.0000 28.9099 0.0000
# 4 0.0000 0.0001 0.0000 34.8622 0.0000 10.0495
# 5 22.9987 -6.2145 28.9099 0.0000 54.1646 0.0000
# 6 0.0000 -0.0001 0.0000 10.0495 0.0000 17.7874
#
#
#
# Elastic Compliance Matrix: (Units=1/GPa)
#
#
# Indices 1 2 3 4 5 6 
#
# 1 0.031240 -0.001698 -0.004157 0.000000 -0.011241 0.000000
# 2 -0.001698 0.011199 -0.002832 0.000000 0.003517 0.000000
# 3 -0.004157 -0.002832 0.007704 0.000000 -0.002672 0.000000
# 4 0.000000 0.000000 0.000000 0.034265 0.000000 -0.019359
# 5 -0.011241 0.003517 -0.002672 0.000000 0.025065 0.000000
# 6 0.000000 0.000000 0.000000 -0.019359 0.000000 0.067157
#
#
# Mechanical properties :
#
#
# Convention : Reuss Voigt Hill
#
# Bulk Modulus (GPa) = 30.51592 54.63784 42.57688
# Shear Modulus (GPa) = 24.39887 37.19158 30.79523
#
# Velocity S-wave (km/s) = 3.22698 3.98413 3.62537
# Velocity P-wave (km/s) = 5.18735 6.66961 5.97463
#
# Compressibility (1/GPa) = 0.03276978
#
# Stress axis : x y z
#
# Youngs Moduli (GPa) = 32.00983 89.29499 129.79567
#
# Poissons Ratio (x) = 0.15163 0.53957
# Poissons Ratio (y) = 0.05435 0.36755
# Poissons Ratio (z) = 0.13307 0.25286
#
# Static dielectric constant tensor:
#      x y z
#    x 4.358950 0.000000 0.190190 
#    y 0.000000 4.958670 0.000000 
#    z 0.190190 0.000000 4.230240 
# 
# 
# High freq. dielectric constant tensor:
#      x y z
#    x 1.916010 0.000000 0.021430 
#    y 0.000000 1.907290 0.000000 
#    z 0.021430 0.000000 1.941470 
# 
# From -- ./inp_files/181004.got.cif
#   From: 2010.06.25/outbox.cif.g09.slc.cpg/sg15_91_cif.got.tgz:181004.got - 2010.06.28 07:06:18.
