data_PCOD8132685
_publ_section_title
;
Structure prediction by ZEFSAII (Michael W. Deem and Ramdas Pophale) SiO2 
 PCOD8132685
Probable space group: C 2/C
;
_chemical_formula_sum "Si O2"
_cell_formula_units_Z 48
_cell_length_a 14.636085
_cell_length_b 32.461667
_cell_length_c 8.029036
_cell_angle_alpha 90.000000
_cell_angle_beta 141.303964
_cell_angle_gamma 90.000000
_cell_volume 2384.900360
_symmetry_space_group_name_H-M "C 2/C"
_symmetry_group_IT_number 15
_symmetry_cell_setting 'monoclinic'
loop_
_space_group_symop_operation_xyz
x,y,z
-x,y,1/2-z
-x,-y,-z
x,-y,1/2+z
1/2+x,1/2+y,z
1/2-x,1/2+y,1/2-z
1/2-x,1/2-y,-z
1/2+x,1/2-y,1/2+z
loop_
_atom_site_type_symbol
_atom_site_label
_atom_site_fract_x
_atom_site_fract_y
_atom_site_fract_z
Si Si1 0.954042 0.370594 0.365988
Si Si2 0.097255 0.797999 0.242245
Si Si3 0.075762 0.706516 0.190592
Si Si4 0.139799 0.131920 0.550675
Si Si5 0.186395 0.951426 0.259250
Si Si6 0.500000 0.927556 0.750000
Si Si7 0.000000 0.001432 0.250000
O O1 0.778961 0.365413 0.126275
O O2 0.000000 0.389023 0.250000
O O3 0.026566 0.325128 0.477779
O O4 0.010709 0.399844 0.597021
O O5 0.028254 0.753841 0.087984
O O6 0.252215 0.793476 0.548434
O O7 0.105596 0.824871 0.088570
O O8 0.000000 0.818249 0.250000
O O9 0.000000 0.689696 0.250000
O O10 0.168365 0.097985 0.733560
O O11 0.000000 0.117498 0.250000
O O12 0.359191 0.958180 0.540273
O O13 0.077193 0.970944 0.233793
O O14 0.133237 0.970625 0.008266
#
# Coordination Sequence:
#
# PCOD8132685 Si02
#       7
#     8   8   8   8   8   4   4
#     4  11  23  40  65  90 125 172 214 261 319 364
#     4  10  22  34  61  87 115 167 209 259 324 365
#     4  10  18  40  57  81 124 163 211 265 312 368
#     4  11  23  40  57  90 127 154 211 265 303 376
#     4  10  22  42  66  92 129 162 204 256 311 382
#     4  10  22  44  66  97 130 164 212 263 304 372
#     4  10  22  42  66  95 126 166 198 247 326 380
#
# _framework density 20.126626999999999
#
# number of rings (size 3 to 8) (size 9 to 14) (size 15 to 20)
#    0.000    1.667    3.333    1.000    3.500    2.667 
#    3.000    1.667    0.000    0.000    0.000    0.000 
#    0.000    0.000    0.000    0.000    0.000    0.000 
#
# Total GULP energy -297508.470865 kJ/mol
# GULP energy per Si atom -12396.186286 kJ/mol
# Density = 2.008082 g / cm^3
# Si number density = 20.126627 Si / 1000 Ang^3
#
#
#
# Elastic Constant Matrix: (Units=GPa)
#
#
# Indices 1 2 3 4 5 6 
#
# 1 122.8135 29.1908 42.6957 0.0000 3.4427 0.0000
# 2 29.1908 68.1373 24.6713 0.0000 3.2518 0.0000
# 3 42.6957 24.6713 114.0538 0.0000 19.0049 0.0000
# 4 0.0000 0.0000 0.0000 31.0527 0.0000 8.7003
# 5 3.4427 3.2518 19.0049 0.0000 37.3893 0.0000
# 6 0.0000 0.0000 0.0000 8.7003 0.0000 24.1762
#
#
#
# Elastic Compliance Matrix: (Units=1/GPa)
#
#
# Indices 1 2 3 4 5 6 
#
# 1 0.009985 -0.003159 -0.003220 0.000000 0.000992 0.000000
# 2 -0.003159 0.016928 -0.002494 0.000000 0.000086 0.000000
# 3 -0.003220 -0.002494 0.011392 0.000000 -0.005277 0.000000
# 4 0.000000 0.000000 0.000000 0.035814 0.000000 -0.012889
# 5 0.000992 0.000086 -0.005277 0.000000 0.029329 0.000000
# 6 0.000000 0.000000 0.000000 -0.012889 0.000000 0.046001
#
#
# Mechanical properties :
#
#
# Convention : Reuss Voigt Hill
#
# Bulk Modulus (GPa) = 48.63763 55.34669 51.99216
# Shear Modulus (GPa) = 28.72770 32.42008 30.57389
#
# Velocity S-wave (km/s) = 3.78212 4.01784 3.90176
# Velocity P-wave (km/s) = 6.57958 7.00592 6.79610
#
# Compressibility (1/GPa) = 0.02056021
#
# Stress axis : x y z
#
# Youngs Moduli (GPa) = 100.15201 59.07222 87.78245
#
# Poissons Ratio (x) = 0.18662 0.28263
# Poissons Ratio (y) = 0.31640 0.21889
# Poissons Ratio (z) = 0.32246 0.14730
#
# Static dielectric constant tensor:
#      x y z
#    x 3.555500 0.000000 0.142480 
#    y 0.000000 3.695940 0.000000 
#    z 0.142480 0.000000 3.782690 
# 
# 
# High freq. dielectric constant tensor:
#      x y z
#    x 1.781960 0.000000 0.016320 
#    y 0.000000 1.781910 0.000000 
#    z 0.016320 0.000000 1.784450 
# 
# From -- ./inp_files/44682.got.cif
#   From: 2010.06.25/outbox.cif.g09.slc.cpg/sg15_23_cif.got.tgz:44682.got - 2010.06.28 07:06:18.
