data_PCOD8132981
_publ_section_title
;
Structure prediction by ZEFSAII (Michael W. Deem and Ramdas Pophale) SiO2 
 PCOD8132981
Probable space group: C 2/C
;
_chemical_formula_sum "Si O2"
_cell_formula_units_Z 56
_cell_length_a 23.470933
_cell_length_b 15.651424
_cell_length_c 9.517981
_cell_angle_alpha 90.000000
_cell_angle_beta 54.681291
_cell_angle_gamma 90.000000
_cell_volume 2852.935691
_symmetry_space_group_name_H-M "C 2/C"
_symmetry_group_IT_number 15
_symmetry_cell_setting 'monoclinic'
loop_
_space_group_symop_operation_xyz
x,y,z
-x,y,1/2-z
-x,-y,-z
x,-y,1/2+z
1/2+x,1/2+y,z
1/2-x,1/2+y,1/2-z
1/2-x,1/2-y,-z
1/2+x,1/2-y,1/2+z
loop_
_atom_site_type_symbol
_atom_site_label
_atom_site_fract_x
_atom_site_fract_y
_atom_site_fract_z
Si Si1 0.301073 0.321835 0.140100
Si Si2 0.125442 0.791611 0.743976
Si Si3 0.734766 0.344653 0.806039
Si Si4 0.955759 0.949853 0.674631
Si Si5 0.154868 0.608284 0.767708
Si Si6 0.176671 0.065249 0.646199
Si Si7 0.681985 0.983452 0.958152
O O1 0.271655 0.246162 0.281384
O O2 0.237646 0.370913 0.153272
O O3 0.344341 0.385037 0.180670
O O4 0.353422 0.283784 0.949927
O O5 0.188896 0.837522 0.731738
O O6 0.057479 0.852018 0.856065
O O7 0.110852 0.697106 0.828341
O O8 0.793904 0.415203 0.693022
O O9 0.683825 0.369384 0.006324
O O10 0.000000 0.949322 0.750000
O O11 0.881034 0.994684 0.808577
O O12 0.000000 0.000000 0.500000
O O13 0.136591 0.553481 0.934288
O O14 0.136667 0.558080 0.648806
O O15 0.252115 0.025254 0.560356
#
# Coordination Sequence:
#
# PCOD8132981 Si02
#       7
#     8   8   8   8   8   8   8
#     4  10  19  31  52  78 109 151 174 210 275 343
#     4  11  20  36  52  73 108 148 184 231 272 313
#     4  11  18  31  50  78 114 142 176 215 272 349
#     4  12  25  39  56  76 104 152 204 236 262 306
#     4  10  19  31  50  79 109 143 173 211 270 348
#     4  11  22  33  51  76 113 146 182 230 274 312
#     4  11  18  30  52  79 112 143 170 210 277 350
#
# _framework density 19.628903000000001
#
# number of rings (size 3 to 8) (size 9 to 14) (size 15 to 20)
#    0.000    1.143    5.714    3.000    2.000    0.000 
#    0.000    0.000    0.000    0.000    0.000    1.000 
#    0.000    0.000    0.000    0.429    0.000    0.000 
#
# Total GULP energy -347146.316759 kJ/mol
# GULP energy per Si atom -12398.082741 kJ/mol
# Density = 1.958423 g / cm^3
# Si number density = 19.628903 Si / 1000 Ang^3
#
#
#
# Elastic Constant Matrix: (Units=GPa)
#
#
# Indices 1 2 3 4 5 6 
#
# 1 65.1011 50.6987 24.5755 0.0000 16.7511 0.0000
# 2 50.6987 131.0294 51.0392 0.0000 21.1711 0.0000
# 3 24.5755 51.0392 59.6177 0.0000 11.4010 0.0000
# 4 0.0000 0.0000 0.0000 35.9591 0.0000 6.8911
# 5 16.7511 21.1711 11.4010 0.0000 19.0239 0.0000
# 6 0.0000 0.0000 0.0000 6.8911 0.0000 34.5363
#
#
#
# Elastic Compliance Matrix: (Units=1/GPa)
#
#
# Indices 1 2 3 4 5 6 
#
# 1 0.024665 -0.006660 -0.001953 0.000000 -0.013135 0.000000
# 2 -0.006660 0.014361 -0.008600 0.000000 -0.004963 0.000000
# 3 -0.001953 -0.008600 0.025731 0.000000 -0.004130 0.000000
# 4 0.000000 0.000000 0.000000 0.028915 0.000000 -0.005769
# 5 -0.013135 -0.004963 -0.004130 0.000000 0.072130 0.000000
# 6 0.000000 0.000000 0.000000 -0.005769 0.000000 0.030106
#
#
# Mechanical properties :
#
#
# Convention : Reuss Voigt Hill
#
# Bulk Modulus (GPa) = 32.97104 56.48609 44.72857
# Shear Modulus (GPa) = 20.79486 26.53285 23.66385
#
# Velocity S-wave (km/s) = 3.25837 3.68057 3.47589
# Velocity P-wave (km/s) = 5.56684 6.84847 6.24064
#
# Compressibility (1/GPa) = 0.03032964
#
# Stress axis : x y z
#
# Youngs Moduli (GPa) = 40.54368 69.63522 38.86391
#
# Poissons Ratio (x) = 0.46378 0.07592
# Poissons Ratio (y) = 0.27003 0.33421
# Poissons Ratio (z) = 0.07920 0.59884
#
# Static dielectric constant tensor:
#      x y z
#    x 3.301660 0.000000 0.324720 
#    y 0.000000 3.725980 0.000000 
#    z 0.324720 0.000000 3.320010 
# 
# 
# High freq. dielectric constant tensor:
#      x y z
#    x 1.718220 0.000000 0.046190 
#    y 0.000000 1.783890 0.000000 
#    z 0.046190 0.000000 1.744050 
# 
# From -- ./inp_files/61494.got.cif
#   From: 2010.06.25/outbox.cif.g09.slc.cpg/sg15_31_cif.got.tgz:61494.got - 2010.06.28 07:06:18.
