data_PCOD8132618
_publ_section_title
;
Structure prediction by ZEFSAII (Michael W. Deem and Ramdas Pophale) SiO2 
 PCOD8132618
Probable space group: C 2/C
;
_chemical_formula_sum "Si O2"
_cell_formula_units_Z 52
_cell_length_a 29.292265
_cell_length_b 8.330692
_cell_length_c 15.651140
_cell_angle_alpha 90.000000
_cell_angle_beta 39.376209
_cell_angle_gamma 90.000000
_cell_volume 2422.979567
_symmetry_space_group_name_H-M "C 2/C"
_symmetry_group_IT_number 15
_symmetry_cell_setting 'monoclinic'
loop_
_space_group_symop_operation_xyz
x,y,z
-x,y,1/2-z
-x,-y,-z
x,-y,1/2+z
1/2+x,1/2+y,z
1/2-x,1/2+y,1/2-z
1/2-x,1/2-y,-z
1/2+x,1/2-y,1/2+z
loop_
_atom_site_type_symbol
_atom_site_label
_atom_site_fract_x
_atom_site_fract_y
_atom_site_fract_z
Si Si1 0.766702 0.156542 0.101879
Si Si2 0.144419 0.359630 0.645309
Si Si3 0.516593 0.161528 0.130353
Si Si4 0.693130 0.636248 0.836063
Si Si5 0.500000 0.646205 0.250000
Si Si6 0.047982 0.020518 0.513018
Si Si7 0.616610 0.891488 0.048158
O O1 0.694172 0.119204 0.155239
O O2 0.754559 0.315240 0.179047
O O3 0.783194 0.995925 0.129991
O O4 0.832349 0.199933 0.942644
O O5 0.155373 0.509573 0.566289
O O6 0.062330 0.356822 0.798440
O O7 0.500000 0.221882 0.250000
O O8 0.562673 0.290951 0.010253
O O9 0.562982 0.998453 0.066431
O O10 0.622683 0.570939 0.889015
O O11 0.677190 0.807902 0.903270
O O12 0.495060 0.542169 0.342645
O O13 0.570676 0.753117 0.159893
O O14 0.000000 0.000000 0.500000
#
# Coordination Sequence:
#
# PCOD8132618 Si02
#       7
#     8   8   8   8   4   8   8
#     4  11  24  41  61  85 128 169 208 250 304 377
#     4  10  21  40  64  91 117 165 214 246 307 393
#     4  10  18  38  67  93 121 164 199 262 332 362
#     4  11  24  43  58  90 127 163 207 261 309 378
#     4  10  20  38  58  96 126 150 202 266 320 374
#     4  11  23  39  64  97 126 162 208 266 325 370
#     4  10  20  39  65  90 121 158 207 265 325 356
#
# _framework density 21.461179000000001
#
# number of rings (size 3 to 8) (size 9 to 14) (size 15 to 20)
#    0.000    1.538    3.077    3.692    2.154    0.615 
#    5.538    2.308    0.000    0.000    0.000    0.000 
#    0.000    0.000    0.000    0.000    0.000    0.000 
#
# Total GULP energy -322351.085959 kJ/mol
# GULP energy per Si atom -12398.118691 kJ/mol
# Density = 2.141233 g / cm^3
# Si number density = 21.461179 Si / 1000 Ang^3
#
#
#
# Elastic Constant Matrix: (Units=GPa)
#
#
# Indices 1 2 3 4 5 6 
#
# 1 120.2927 50.6064 8.9378 0.0022 11.6668 -0.0012
# 2 50.6064 117.2219 27.5193 0.0081 6.1163 -0.0035
# 3 8.9378 27.5193 53.0993 0.0028 3.5410 -0.0012
# 4 0.0022 0.0081 0.0028 16.8591 -0.0028 -7.0740
# 5 11.6668 6.1163 3.5410 -0.0028 20.1899 0.0015
# 6 -0.0012 -0.0035 -0.0012 -7.0740 0.0015 24.2849
#
#
#
# Elastic Compliance Matrix: (Units=1/GPa)
#
#
# Indices 1 2 3 4 5 6 
#
# 1 0.010636 -0.004545 0.000893 0.000000 -0.004926 0.000000
# 2 -0.004545 0.011742 -0.005320 -0.000004 0.000002 0.000000
# 3 0.000893 -0.005320 0.021619 -0.000002 -0.002696 0.000000
# 4 0.000000 -0.000004 -0.000002 0.067574 0.000010 0.019684
# 5 -0.004926 0.000002 -0.002696 0.000010 0.052849 -0.000001
# 6 0.000000 0.000000 0.000000 0.019684 -0.000001 0.046912
#
#
# Mechanical properties :
#
#
# Convention : Reuss Voigt Hill
#
# Bulk Modulus (GPa) = 38.38136 51.63786 45.00961
# Shear Modulus (GPa) = 21.01198 25.83682 23.42440
#
# Velocity S-wave (km/s) = 3.13240 3.47347 3.30734
# Velocity P-wave (km/s) = 5.56826 6.34034 5.96680
#
# Compressibility (1/GPa) = 0.02605431
#
# Stress axis : x y z
#
# Youngs Moduli (GPa) = 94.01748 85.16642 46.25469
#
# Poissons Ratio (x) = 0.38704 -0.04133
# Poissons Ratio (y) = 0.42727 0.24610
# Poissons Ratio (z) = -0.08400 0.45312
#
# Static dielectric constant tensor:
#      x y z
#    x 3.778920 0.000000 -0.131190 
#    y 0.000000 3.959310 0.000000 
#    z -0.131190 0.000000 4.089820 
# 
# 
# High freq. dielectric constant tensor:
#      x y z
#    x 1.834920 0.000000 -0.009470 
#    y 0.000000 1.849670 0.000000 
#    z -0.009470 0.000000 1.836240 
# 
# From -- ./inp_files/181091.got.cif
#   From: 2010.06.25/outbox.cif.g09.slc.cpg/sg15_91_cif.got.tgz:181091.got - 2010.06.28 07:06:18.
