data_PCOD8132919
_publ_section_title
;
Structure prediction by ZEFSAII (Michael W. Deem and Ramdas Pophale) SiO2 
 PCOD8132919
Probable space group: C 2/C
;
_chemical_formula_sum "Si O2"
_cell_formula_units_Z 32
_cell_length_a 10.124952
_cell_length_b 30.675161
_cell_length_c 5.136859
_cell_angle_alpha 90.000000
_cell_angle_beta 90.155927
_cell_angle_gamma 90.000000
_cell_volume 1595.423044
_symmetry_space_group_name_H-M "C 2/C"
_symmetry_group_IT_number 15
_symmetry_cell_setting 'monoclinic'
loop_
_space_group_symop_operation_xyz
x,y,z
-x,y,1/2-z
-x,-y,-z
x,-y,1/2+z
1/2+x,1/2+y,z
1/2-x,1/2+y,1/2-z
1/2-x,1/2-y,-z
1/2+x,1/2-y,1/2+z
loop_
_atom_site_type_symbol
_atom_site_label
_atom_site_fract_x
_atom_site_fract_y
_atom_site_fract_z
Si Si1 0.000000 0.728478 0.250000
Si Si2 0.646819 0.981549 0.444781
Si Si3 0.350966 0.118062 0.723317
Si Si4 0.736007 0.163908 0.286185
Si Si5 0.000000 0.214768 0.250000
O O1 0.875140 0.699968 0.163675
O O2 0.959212 0.756857 0.499782
O O3 0.647003 0.932057 0.356752
O O4 0.500000 0.000000 0.500000
O O5 0.719849 0.989522 0.721073
O O6 0.500000 0.135609 0.750000
O O7 0.274886 0.144857 0.502747
O O8 0.279775 0.125477 0.999666
O O9 0.878137 0.184654 0.329143
#
# Coordination Sequence:
#
# PCOD8132919 Si02
#       5
#     4   8   8   8   4
#     4  12  22  42  66  88 116 150 210 260 302 344
#     4  10  19  30  53  86 129 149 183 242 308 340
#     4  12  21  37  59  91 128 154 193 246 305 352
#     4  12  25  40  63  89 122 159 201 249 301 359
#     4  12  26  44  60  88 120 162 202 246 306 362
#
# _framework density 20.057375
#
# number of rings (size 3 to 8) (size 9 to 14) (size 15 to 20)
#    0.000    0.500    5.000    6.000    3.500    0.000 
#    0.000    0.000    0.000    0.000    0.000   17.500 
#    0.000    0.000    0.000    0.000    0.000    0.000 
#
# Total GULP energy -198377.580453 kJ/mol
# GULP energy per Si atom -12398.598778 kJ/mol
# Density = 2.001172 g / cm^3
# Si number density = 20.057375 Si / 1000 Ang^3
#
#
#
# Elastic Constant Matrix: (Units=GPa)
#
#
# Indices 1 2 3 4 5 6 
#
# 1 78.0523 36.0771 19.0976 0.0000 -12.5300 0.0000
# 2 36.0771 104.0671 40.8207 0.0000 -3.9215 0.0000
# 3 19.0976 40.8207 156.2214 0.0000 14.9930 0.0000
# 4 0.0000 0.0000 0.0000 55.7460 0.0000 0.9991
# 5 -12.5300 -3.9215 14.9930 0.0000 26.9611 0.0000
# 6 0.0000 0.0000 0.0000 0.9991 0.0000 4.7308
#
#
#
# Elastic Compliance Matrix: (Units=1/GPa)
#
#
# Indices 1 2 3 4 5 6 
#
# 1 0.016718 -0.004901 -0.001522 0.000000 0.007903 0.000000
# 2 -0.004901 0.012427 -0.002750 0.000000 0.001059 0.000000
# 3 -0.001522 -0.002750 0.007830 0.000000 -0.005461 0.000000
# 4 0.000000 0.000000 0.000000 0.018007 0.000000 -0.003803
# 5 0.007903 0.001059 -0.005461 0.000000 0.043954 0.000000
# 6 0.000000 0.000000 0.000000 -0.003803 0.000000 0.212185
#
#
# Mechanical properties :
#
#
# Convention : Reuss Voigt Hill
#
# Bulk Modulus (GPa) = 53.67612 58.92571 56.30091
# Shear Modulus (GPa) = 14.89534 33.64394 24.26964
#
# Velocity S-wave (km/s) = 2.72809 4.10003 3.48229
# Velocity P-wave (km/s) = 6.06158 7.20111 6.65578
#
# Compressibility (1/GPa) = 0.01863026
#
# Stress axis : x y z
#
# Youngs Moduli (GPa) = 59.81472 80.47201 127.71777
#
# Poissons Ratio (x) = 0.39440 0.19433
# Poissons Ratio (y) = 0.29316 0.35117
# Poissons Ratio (z) = 0.09101 0.22126
#
# Static dielectric constant tensor:
#      x y z
#    x 5.099280 0.000000 0.070200 
#    y 0.000000 3.709750 0.000000 
#    z 0.070200 0.000000 2.487940 
# 
# 
# High freq. dielectric constant tensor:
#      x y z
#    x 1.731290 0.000000 0.016240 
#    y 0.000000 1.790060 0.000000 
#    z 0.016240 0.000000 1.819000 
# 
# From -- ./inp_files/2404.got.cif
#   From: 2010.06.25/outbox.cif.g09.slc.cpg/sg15_2_cif.got.tgz:2404.got - 2010.06.28 07:06:18.
