data_PCOD8132416
_publ_section_title
;
Structure prediction by ZEFSAII (Michael W. Deem and Ramdas Pophale) SiO2 
 PCOD8132416
Probable space group: C 2/C
;
_chemical_formula_sum "Si O2"
_cell_formula_units_Z 56
_cell_length_a 9.228344
_cell_length_b 21.974880
_cell_length_c 22.975521
_cell_angle_alpha 90.000000
_cell_angle_beta 141.232755
_cell_angle_gamma 90.000000
_cell_volume 2917.425071
_symmetry_space_group_name_H-M "C 2/C"
_symmetry_group_IT_number 15
_symmetry_cell_setting 'monoclinic'
loop_
_space_group_symop_operation_xyz
x,y,z
-x,y,1/2-z
-x,-y,-z
x,-y,1/2+z
1/2+x,1/2+y,z
1/2-x,1/2+y,1/2-z
1/2-x,1/2-y,-z
1/2+x,1/2-y,1/2+z
loop_
_atom_site_type_symbol
_atom_site_label
_atom_site_fract_x
_atom_site_fract_y
_atom_site_fract_z
Si Si1 0.247439 0.340187 0.796983
Si Si2 0.194948 0.443992 0.921753
Si Si3 0.178018 0.954604 0.753808
Si Si4 0.121869 0.814177 0.542593
Si Si5 0.239679 0.157189 0.659713
Si Si6 0.624864 0.520668 0.622639
Si Si7 0.983340 0.225626 0.811276
O O1 0.353169 0.390589 0.788471
O O2 0.432924 0.327997 0.906607
O O3 0.207390 0.279485 0.746489
O O4 0.000000 0.357967 0.750000
O O5 0.235830 0.371657 0.939044
O O6 0.235209 0.468332 0.868289
O O7 0.935655 0.459542 0.860252
O O8 0.360529 0.479848 0.017918
O O9 0.000000 0.961002 0.750000
O O10 0.130527 0.008205 0.692974
O O11 0.274625 0.752514 0.587580
O O12 0.882455 0.806503 0.432009
O O13 0.500000 0.180991 0.750000
O O14 0.241950 0.085645 0.646403
O O15 0.094706 0.169895 0.673029
O O16 0.000000 0.201746 0.750000
#
# Coordination Sequence:
#
# PCOD8132416 Si02
#       7
#     8   8   8   8   8   8   8
#     4   9  16  35  60  80 100 143 198 231 263 327
#     4  10  18  37  61  81 108 146 203 233 271 338
#     4  12  21  32  56  87 119 140 176 243 303 327
#     4   9  17  35  64  79 103 148 198 238 265 328
#     4  11  22  35  55  85 115 145 191 231 283 342
#     4  10  22  36  58  81 109 158 195 231 271 346
#     4   9  19  36  59  80 108 153 183 230 286 336
#
# _framework density 19.195008999999999
#
# number of rings (size 3 to 8) (size 9 to 14) (size 15 to 20)
#    0.000    2.286    4.286    1.714    0.000    1.714 
#    0.000    2.857    6.286    0.000    0.000    0.000 
#    0.000    0.000    0.000    0.000    0.000    0.000 
#
# Total GULP energy -347108.881178 kJ/mol
# GULP energy per Si atom -12396.745756 kJ/mol
# Density = 1.915132 g / cm^3
# Si number density = 19.195009 Si / 1000 Ang^3
#
#
#
# Elastic Constant Matrix: (Units=GPa)
#
#
# Indices 1 2 3 4 5 6 
#
# 1 75.3998 10.7513 45.8767 -0.0008 10.9867 -0.0027
# 2 10.7513 36.7975 15.0856 0.0000 3.7328 -0.0016
# 3 45.8767 15.0856 151.5293 0.0023 4.2983 -0.0036
# 4 -0.0008 0.0000 0.0023 15.4763 0.0010 -6.4245
# 5 10.9867 3.7328 4.2983 0.0010 23.4155 -0.0042
# 6 -0.0027 -0.0016 -0.0036 -6.4245 -0.0042 24.5507
#
#
#
# Elastic Compliance Matrix: (Units=1/GPa)
#
#
# Indices 1 2 3 4 5 6 
#
# 1 0.017600 -0.002431 -0.004889 0.000002 -0.006973 0.000000
# 2 -0.002431 0.029049 -0.002068 0.000001 -0.003111 0.000001
# 3 -0.004889 -0.002068 0.008254 -0.000001 0.001108 0.000000
# 4 0.000002 0.000001 -0.000001 0.072490 -0.000001 0.018969
# 5 -0.006973 -0.003111 0.001108 -0.000001 0.046271 0.000007
# 6 0.000000 0.000001 0.000000 0.018969 0.000007 0.045696
#
#
# Mechanical properties :
#
#
# Convention : Reuss Voigt Hill
#
# Bulk Modulus (GPa) = 27.67899 45.23932 36.45916
# Shear Modulus (GPa) = 19.98586 25.48935 22.73761
#
# Velocity S-wave (km/s) = 3.23026 3.64801 3.44548
# Velocity P-wave (km/s) = 5.32579 6.43144 5.90455
#
# Compressibility (1/GPa) = 0.03612849
#
# Stress axis : x y z
#
# Youngs Moduli (GPa) = 56.81886 34.42428 121.15474
#
# Poissons Ratio (x) = 0.08367 0.59229
# Poissons Ratio (y) = 0.13811 0.25053
# Poissons Ratio (z) = 0.27777 0.07119
#
# Static dielectric constant tensor:
#      x y z
#    x 3.053480 0.000000 -0.191700 
#    y 0.000000 3.324030 0.000000 
#    z -0.191700 0.000000 3.910600 
# 
# 
# High freq. dielectric constant tensor:
#      x y z
#    x 1.700870 0.000000 -0.016310 
#    y 0.000000 1.735910 0.000000 
#    z -0.016310 0.000000 1.763840 
# 
# From -- ./inp_files/266448.got.cif
#   From: 2010.06.25/outbox.cif.g09.slc.cpg/sg15_134_cif.got.tgz:266448.got - 2010.06.28 07:06:18.
