data_PCOD8132461
_publ_section_title
;
Structure prediction by ZEFSAII (Michael W. Deem and Ramdas Pophale) SiO2 
 PCOD8132461
Probable space group: C 2/C
;
_chemical_formula_sum "Si O2"
_cell_formula_units_Z 52
_cell_length_a 9.085616
_cell_length_b 30.879241
_cell_length_c 13.837470
_cell_angle_alpha 90.000000
_cell_angle_beta 40.288752
_cell_angle_gamma 90.000000
_cell_volume 2510.384717
_symmetry_space_group_name_H-M "C 2/C"
_symmetry_group_IT_number 15
_symmetry_cell_setting 'monoclinic'
loop_
_space_group_symop_operation_xyz
x,y,z
-x,y,1/2-z
-x,-y,-z
x,-y,1/2+z
1/2+x,1/2+y,z
1/2-x,1/2+y,1/2-z
1/2-x,1/2-y,-z
1/2+x,1/2-y,1/2+z
loop_
_atom_site_type_symbol
_atom_site_label
_atom_site_fract_x
_atom_site_fract_y
_atom_site_fract_z
Si Si1 0.357208 0.902726 0.617788
Si Si2 0.500000 0.663931 0.250000
Si Si3 0.698902 0.394899 0.224223
Si Si4 0.077565 0.967461 0.041694
Si Si5 0.500000 0.473163 0.750000
Si Si6 0.500000 0.916676 0.750000
Si Si7 0.478757 0.269746 0.924937
Si Si8 0.707364 0.195113 0.721827
O O1 0.225915 0.865122 0.625023
O O2 0.587116 0.912428 0.444032
O O3 0.403324 0.888796 0.707371
O O4 0.196532 0.944913 0.702293
O O5 0.447902 0.691675 0.181796
O O6 0.500000 0.382942 0.250000
O O7 0.618111 0.431562 0.340070
O O8 0.761371 0.352109 0.251310
O O9 0.127003 0.995650 0.111532
O O10 0.310341 0.946135 0.893365
O O11 0.000000 0.000000 0.000000
O O12 0.662121 0.230501 0.829642
O O13 0.250000 0.250000 0.000000
O O14 0.439139 0.289230 0.051651
O O15 0.500000 0.194157 0.750000
#
# Coordination Sequence:
#
# PCOD8132461 Si02
#       8
#     8   4   8   8   4   4   8   8
#     4  11  25  41  68  96 134 172 220 277 335 395
#     4  11  22  38  70  99 130 168 223 274 332 393
#     4  12  26  45  64  95 139 179 215 274 342 399
#     4  12  26  43  68  96 131 177 228 273 338 399
#     4  11  24  46  66  98 127 175 226 282 330 397
#     4  12  24  44  62  95 131 169 217 276 334 404
#     4  10  18  37  64  96 124 164 216 275 324 380
#     4  10  22  39  67  95 126 168 223 275 328 386
#
# _framework density 20.713956
#
# number of rings (size 3 to 8) (size 9 to 14) (size 15 to 20)
#    0.000    0.923    6.154    1.846    4.308    2.462 
#    0.000    0.769    1.692    0.000    0.000    0.000 
#    0.000    0.000    0.000    0.000    0.000    0.000 
#
# Total GULP energy -322318.741501 kJ/mol
# GULP energy per Si atom -12396.874673 kJ/mol
# Density = 2.066681 g / cm^3
# Si number density = 20.713956 Si / 1000 Ang^3
#
#
#
# Elastic Constant Matrix: (Units=GPa)
#
#
# Indices 1 2 3 4 5 6 
#
# 1 70.7830 32.1091 29.7297 0.0000 7.0169 0.0000
# 2 32.1091 123.5501 52.4471 0.0000 8.0318 0.0000
# 3 29.7297 52.4471 147.3108 0.0000 6.4357 0.0000
# 4 0.0000 0.0000 0.0000 32.3142 0.0000 15.4993
# 5 7.0169 8.0318 6.4357 0.0000 33.6496 0.0000
# 6 0.0000 0.0000 0.0000 15.4993 0.0000 19.8044
#
#
#
# Elastic Compliance Matrix: (Units=1/GPa)
#
#
# Indices 1 2 3 4 5 6 
#
# 1 0.016739 -0.003310 -0.002099 0.000000 -0.002299 0.000000
# 2 -0.003310 0.010280 -0.002940 0.000000 -0.001201 0.000000
# 3 -0.002099 -0.002940 0.008278 0.000000 -0.000444 0.000000
# 4 0.000000 0.000000 0.000000 0.049544 0.000000 -0.038774
# 5 -0.002299 -0.001201 -0.000444 0.000000 0.030569 0.000000
# 6 0.000000 0.000000 0.000000 -0.038774 0.000000 0.080839
#
#
# Mechanical properties :
#
#
# Convention : Reuss Voigt Hill
#
# Bulk Modulus (GPa) = 53.76448 63.35731 58.56090
# Shear Modulus (GPa) = 22.81593 32.31085 27.56339
#
# Velocity S-wave (km/s) = 3.32245 3.95379 3.65179
# Velocity P-wave (km/s) = 6.38203 7.17610 6.79068
#
# Compressibility (1/GPa) = 0.01859964
#
# Stress axis : x y z
#
# Youngs Moduli (GPa) = 59.74197 97.27690 120.80179
#
# Poissons Ratio (x) = 0.32194 0.25361
# Poissons Ratio (y) = 0.19772 0.35511
# Poissons Ratio (z) = 0.12542 0.28595
#
# Static dielectric constant tensor:
#      x y z
#    x 4.971890 0.000000 0.131380 
#    y 0.000000 1.442990 0.000000 
#    z 0.131380 0.000000 4.262970 
# 
# 
# High freq. dielectric constant tensor:
#      x y z
#    x 1.782800 0.000000 0.010430 
#    y 0.000000 1.817860 0.000000 
#    z 0.010430 0.000000 1.831530 
# 
# From -- ./inp_files/139757.got.cif
#   From: 2010.06.25/outbox.cif.g09.slc.cpg/sg15_70_cif.got.tgz:139757.got - 2010.06.28 07:06:18.
