data_PCOD8132750
_publ_section_title
;
Structure prediction by ZEFSAII (Michael W. Deem and Ramdas Pophale) SiO2 
 PCOD8132750
Probable space group: C 2/C
;
_chemical_formula_sum "Si O2"
_cell_formula_units_Z 60
_cell_length_a 11.549625
_cell_length_b 14.486229
_cell_length_c 18.006948
_cell_angle_alpha 90.000000
_cell_angle_beta 102.863810
_cell_angle_gamma 90.000000
_cell_volume 2937.137695
_symmetry_space_group_name_H-M "C 2/C"
_symmetry_group_IT_number 15
_symmetry_cell_setting 'monoclinic'
loop_
_space_group_symop_operation_xyz
x,y,z
-x,y,1/2-z
-x,-y,-z
x,-y,1/2+z
1/2+x,1/2+y,z
1/2-x,1/2+y,1/2-z
1/2-x,1/2-y,-z
1/2+x,1/2-y,1/2+z
loop_
_atom_site_type_symbol
_atom_site_label
_atom_site_fract_x
_atom_site_fract_y
_atom_site_fract_z
Si Si1 0.000000 0.287841 0.250000
Si Si2 0.806484 0.823003 0.802022
Si Si3 0.144478 0.968195 0.350918
Si Si4 0.779006 0.344093 0.867469
Si Si5 0.868711 0.028976 0.821997
Si Si6 0.536106 0.895257 0.496959
Si Si7 0.788735 0.695196 0.933515
Si Si8 0.189972 0.650789 0.883336
O O1 0.068024 0.219294 0.204622
O O2 0.086949 0.356038 0.306618
O O3 0.714164 0.822646 0.719753
O O4 0.754939 0.760860 0.860147
O O5 0.826204 0.925887 0.834173
O O6 0.162951 0.942541 0.266957
O O7 0.216303 0.899090 0.413900
O O8 0.008401 0.962868 0.355726
O O9 0.191838 0.070883 0.371721
O O10 0.911807 0.362523 0.916162
O O11 0.724164 0.256832 0.902489
O O12 0.804198 0.095542 0.870856
O O13 0.428181 0.829419 0.457342
O O14 0.642715 0.891533 0.452872
O O15 0.500000 0.000000 0.500000
O O16 0.750000 0.750000 0.000000
#
# Coordination Sequence:
#
# PCOD8132750 Si02
#       8
#     4   8   8   8   8   8   8   8
#     4  10  18  40  68  94 124 174 222 278 326 396
#     4  10  21  42  68  97 127 174 222 271 332 402
#     4  10  21  44  64  96 134 175 214 278 333 388
#     4  10  22  43  70  95 129 175 225 275 330 397
#     4  10  22  38  70  99 129 168 231 274 321 393
#     4  12  26  45  66  96 140 177 219 281 344 401
#     4  12  27  45  67  95 141 180 215 277 352 404
#     4  11  23  38  68  98 127 172 229 272 331 396
#
# _framework density 20.428051
#
# number of rings (size 3 to 8) (size 9 to 14) (size 15 to 20)
#    0.000    1.333    2.667    4.400    3.733    0.000 
#    0.000    1.333    0.000    0.000    0.000    0.000 
#    0.000    0.000    0.000    0.000    0.000    0.000 
#
# Total GULP energy -372108.636303 kJ/mol
# GULP energy per Si atom -12403.621210 kJ/mol
# Density = 2.038156 g / cm^3
# Si number density = 20.428051 Si / 1000 Ang^3
#
#
#
# Elastic Constant Matrix: (Units=GPa)
#
#
# Indices 1 2 3 4 5 6 
#
# 1 89.8475 58.9332 60.7603 0.0000 11.1476 0.0000
# 2 58.9332 127.7679 70.9576 0.0000 -14.2774 0.0000
# 3 60.7603 70.9576 111.5148 0.0000 6.1471 0.0000
# 4 0.0000 0.0000 0.0000 30.2114 0.0000 1.5432
# 5 11.1476 -14.2774 6.1471 0.0000 39.6029 0.0000
# 6 0.0000 0.0000 0.0000 1.5432 0.0000 33.1640
#
#
#
# Elastic Compliance Matrix: (Units=1/GPa)
#
#
# Indices 1 2 3 4 5 6 
#
# 1 0.021051 -0.006777 -0.006754 0.000000 -0.007320 0.000000
# 2 -0.006777 0.015660 -0.006746 0.000000 0.008600 0.000000
# 3 -0.006754 -0.006746 0.017116 0.000000 -0.003188 0.000000
# 4 0.000000 0.000000 0.000000 0.033179 0.000000 -0.001544
# 5 -0.007320 0.008600 -0.003188 0.000000 0.030907 0.000000
# 6 0.000000 0.000000 0.000000 -0.001544 0.000000 0.030225
#
#
# Mechanical properties :
#
#
# Convention : Reuss Voigt Hill
#
# Bulk Modulus (GPa) = 75.34429 78.93695 77.14062
# Shear Modulus (GPa) = 25.89111 29.82760 27.85936
#
# Velocity S-wave (km/s) = 3.56396 3.82531 3.69694
# Velocity P-wave (km/s) = 7.34156 7.63125 7.48781
#
# Compressibility (1/GPa) = 0.01327241
#
# Stress axis : x y z
#
# Youngs Moduli (GPa) = 47.50403 63.85618 58.42460
#
# Poissons Ratio (x) = 0.43273 0.39462
# Poissons Ratio (y) = 0.32192 0.39416
# Poissons Ratio (z) = 0.32086 0.43080
#
# Static dielectric constant tensor:
#      x y z
#    x 3.645170 0.000000 0.226900 
#    y 0.000000 3.736530 0.000000 
#    z 0.226900 0.000000 3.935840 
# 
# 
# High freq. dielectric constant tensor:
#      x y z
#    x 1.788450 0.000000 0.012300 
#    y 0.000000 1.809620 0.000000 
#    z 0.012300 0.000000 1.798500 
# 
# From -- ./inp_files/197907.got.cif
#   From: 2010.06.25/outbox.cif.g09.slc.cpg/sg15_99_cif.got.tgz:197907.got - 2010.06.28 07:06:18.
