data_PCOD8132536
_publ_section_title
;
Structure prediction by ZEFSAII (Michael W. Deem and Ramdas Pophale) SiO2 
 PCOD8132536
Probable space group: C 2/C
;
_chemical_formula_sum "Si O2"
_cell_formula_units_Z 60
_cell_length_a 20.414460
_cell_length_b 24.045873
_cell_length_c 12.321641
_cell_angle_alpha 90.000000
_cell_angle_beta 152.596247
_cell_angle_gamma 90.000000
_cell_volume 2783.865724
_symmetry_space_group_name_H-M "C 2/C"
_symmetry_group_IT_number 15
_symmetry_cell_setting 'monoclinic'
loop_
_space_group_symop_operation_xyz
x,y,z
-x,y,1/2-z
-x,-y,-z
x,-y,1/2+z
1/2+x,1/2+y,z
1/2-x,1/2+y,1/2-z
1/2-x,1/2-y,-z
1/2+x,1/2-y,1/2+z
loop_
_atom_site_type_symbol
_atom_site_label
_atom_site_fract_x
_atom_site_fract_y
_atom_site_fract_z
Si Si1 0.189134 0.012969 0.173990
Si Si2 0.273903 0.711268 0.382845
Si Si3 0.354109 0.036028 0.091996
Si Si4 0.088208 0.107935 0.167003
Si Si5 0.962552 0.785945 0.369541
Si Si6 0.388670 0.090551 0.678734
Si Si7 0.867591 0.598561 0.326685
Si Si8 0.000000 0.050076 0.250000
O O1 0.230007 0.962974 0.317349
O O2 0.080718 0.056326 0.071607
O O3 0.332224 0.047251 0.355760
O O4 0.130244 0.990516 0.973038
O O5 0.124567 0.744868 0.177551
O O6 0.386807 0.737258 0.460798
O O7 0.352950 0.701895 0.612458
O O8 0.230273 0.649835 0.279441
O O9 0.500000 0.051767 0.250000
O O10 0.349466 0.974236 0.134769
O O11 0.331290 0.083052 0.149449
O O12 0.248116 0.125121 0.439659
O O13 0.016479 0.088596 0.171573
O O14 0.998765 0.158972 0.989265
O O15 0.500000 0.104399 0.750000
O O16 0.463482 0.109863 0.902909
#
# Coordination Sequence:
#
# PCOD8132536 Si02
#       8
#     8   8   8   8   8   8   8   4
#     4  11  22  39  62  95 134 178 220 257 320 404
#     4  10  23  43  74  99 122 169 223 288 331 401
#     4  10  21  34  55  93 136 173 208 265 308 388
#     4  11  23  42  64  89 139 176 212 275 327 396
#     4  10  22  47  71  96 130 164 224 281 347 384
#     4  10  18  38  61  91 128 171 215 257 316 393
#     4  12  21  37  67  94 125 174 221 265 335 387
#     4  12  28  36  60 100 140 178 216 258 326 410
#
# _framework density 21.552764
#
# number of rings (size 3 to 8) (size 9 to 14) (size 15 to 20)
#    0.000    1.333    5.333    2.400    5.600    0.000 
#    7.200    0.667    1.467    0.000    0.000    0.000 
#    0.000    0.000    0.000    0.000    0.000    0.000 
#
# Total GULP energy -371688.783807 kJ/mol
# GULP energy per Si atom -12389.626127 kJ/mol
# Density = 2.150371 g / cm^3
# Si number density = 21.552764 Si / 1000 Ang^3
#
#
#
# Elastic Constant Matrix: (Units=GPa)
#
#
# Indices 1 2 3 4 5 6 
#
# 1 103.5398 44.9658 31.5494 0.0000 7.1979 0.0000
# 2 44.9658 72.5855 48.6339 0.0000 3.4494 0.0000
# 3 31.5494 48.6339 116.1947 0.0000 1.4565 0.0000
# 4 0.0000 0.0000 0.0000 127.5756 0.0000 -14.8089
# 5 7.1979 3.4494 1.4565 0.0000 33.3909 0.0000
# 6 0.0000 0.0000 0.0000 -14.8089 0.0000 21.6233
#
#
#
# Elastic Compliance Matrix: (Units=1/GPa)
#
#
# Indices 1 2 3 4 5 6 
#
# 1 0.013354 -0.008010 -0.000248 0.000000 -0.002040 0.000000
# 2 -0.008010 0.024039 -0.007882 0.000000 -0.000413 0.000000
# 3 -0.000248 -0.007882 0.011968 0.000000 0.000346 0.000000
# 4 0.000000 0.000000 0.000000 0.008515 0.000000 0.005832
# 5 -0.002040 -0.000413 0.000346 0.000000 0.030416 0.000000
# 6 0.000000 0.000000 0.000000 0.005832 0.000000 0.050240
#
#
# Mechanical properties :
#
#
# Convention : Reuss Voigt Hill
#
# Bulk Modulus (GPa) = 58.53796 60.29089 59.41442
# Shear Modulus (GPa) = 28.32768 47.66268 37.99518
#
# Velocity S-wave (km/s) = 3.62932 4.70770 4.20323
# Velocity P-wave (km/s) = 6.69192 7.58843 7.15423
#
# Compressibility (1/GPa) = 0.01708293
#
# Stress axis : x y z
#
# Youngs Moduli (GPa) = 74.88437 41.59856 83.55481
#
# Poissons Ratio (x) = 0.33319 0.02071
# Poissons Ratio (y) = 0.59979 0.65856
# Poissons Ratio (z) = 0.01856 0.32787
#
# Static dielectric constant tensor:
#      x y z
#    x 4.147550 0.000000 -0.377360 
#    y 0.000000 3.446800 0.000000 
#    z -0.377360 0.000000 5.111790 
# 
# 
# High freq. dielectric constant tensor:
#      x y z
#    x 1.849310 0.000000 0.001580 
#    y 0.000000 1.793260 0.000000 
#    z 0.001580 0.000000 1.864530 
# 
# From -- ./inp_files/114852.got.cif
#   From: 2010.06.25/outbox.cif.g09.slc.cpg/sg15_58_cif.got.tgz:114852.got - 2010.06.28 07:06:18.
