data_PCOD8132627
_publ_section_title
;
Structure prediction by ZEFSAII (Michael W. Deem and Ramdas Pophale) SiO2 
 PCOD8132627
Probable space group: C 2/C
;
_chemical_formula_sum "Si O2"
_cell_formula_units_Z 52
_cell_length_a 11.898086
_cell_length_b 28.096268
_cell_length_c 7.436928
_cell_angle_alpha 90.000000
_cell_angle_beta 63.635915
_cell_angle_gamma 90.000000
_cell_volume 2227.525191
_symmetry_space_group_name_H-M "C 2/C"
_symmetry_group_IT_number 15
_symmetry_cell_setting 'monoclinic'
loop_
_space_group_symop_operation_xyz
x,y,z
-x,y,1/2-z
-x,-y,-z
x,-y,1/2+z
1/2+x,1/2+y,z
1/2-x,1/2+y,1/2-z
1/2-x,1/2-y,-z
1/2+x,1/2-y,1/2+z
loop_
_atom_site_type_symbol
_atom_site_label
_atom_site_fract_x
_atom_site_fract_y
_atom_site_fract_z
Si Si1 0.397623 0.644038 0.055628
Si Si2 0.760128 0.435534 0.739506
Si Si3 0.389993 0.748668 0.978878
Si Si4 0.141490 0.987429 0.139996
Si Si5 0.093853 0.345912 0.344678
Si Si6 0.346187 0.609247 0.693045
Si Si7 0.000000 0.403653 0.750000
O O1 0.401842 0.700342 0.085367
O O2 0.362871 0.634982 0.872923
O O3 0.532346 0.621842 0.013042
O O4 0.288320 0.618824 0.254200
O O5 0.743092 0.468728 0.576109
O O6 0.897913 0.437591 0.727483
O O7 0.658174 0.460829 0.940582
O O8 0.500000 0.752130 0.750000
O O9 0.250000 0.750000 0.000000
O O10 0.404217 0.790002 0.116273
O O11 0.166799 0.947819 0.278180
O O12 0.000000 0.006737 0.250000
O O13 0.225462 0.367481 0.183514
O O14 0.060820 0.371313 0.555012
O O15 0.000000 0.357984 0.250000
#
# Coordination Sequence:
#
# PCOD8132627 Si02
#       7
#     8   8   8   8   8   8   4
#     4  10  18  38  68  96 125 183 223 272 348 405
#     4  11  24  40  66  96 135 176 228 279 345 415
#     4  12  21  39  74 101 134 189 232 280 353 415
#     4  11  21  39  66  95 125 169 226 287 336 397
#     4  12  26  45  71 104 140 181 231 283 337 417
#     4  10  18  40  67  93 130 177 228 276 340 401
#     4  12  24  48  66  96 140 192 222 268 358 420
#
# _framework density 23.344293
#
# number of rings (size 3 to 8) (size 9 to 14) (size 15 to 20)
#    0.000    0.923   10.000    0.462    0.000    1.846 
#    1.385    3.846    0.000    0.000    0.000    0.000 
#    0.000    0.000    0.000    0.000    0.000    0.000 
#
# Total GULP energy -322318.505273 kJ/mol
# GULP energy per Si atom -12396.865587 kJ/mol
# Density = 2.329116 g / cm^3
# Si number density = 23.344293 Si / 1000 Ang^3
#
#
#
# Elastic Constant Matrix: (Units=GPa)
#
#
# Indices 1 2 3 4 5 6 
#
# 1 169.8526 42.2863 19.5586 0.0000 -14.6254 0.0000
# 2 42.2863 128.5207 -1.5334 0.0000 -3.0292 0.0000
# 3 19.5586 -1.5334 29.5190 0.0000 -6.8741 0.0000
# 4 0.0000 0.0000 0.0000 12.9636 0.0000 0.5036
# 5 -14.6254 -3.0292 -6.8741 0.0000 32.2685 0.0000
# 6 0.0000 0.0000 0.0000 0.5036 0.0000 40.3721
#
#
#
# Elastic Compliance Matrix: (Units=1/GPa)
#
#
# Indices 1 2 3 4 5 6 
#
# 1 0.007159 -0.002358 -0.004379 0.000000 0.002090 0.000000
# 2 -0.002358 0.008585 0.002049 0.000000 0.000174 0.000000
# 3 -0.004379 0.002049 0.038370 0.000000 0.006382 0.000000
# 4 0.000000 0.000000 0.000000 0.077176 0.000000 -0.000963
# 5 0.002090 0.000174 0.006382 0.000000 0.033313 0.000000
# 6 0.000000 0.000000 0.000000 -0.000963 0.000000 0.024782
#
#
# Mechanical properties :
#
#
# Convention : Reuss Voigt Hill
#
# Bulk Modulus (GPa) = 22.35249 49.83503 36.09376
# Shear Modulus (GPa) = 23.40001 34.95958 29.17980
#
# Velocity S-wave (km/s) = 3.16948 3.87404 3.53933
# Velocity P-wave (km/s) = 4.79480 6.43468 5.67429
#
# Compressibility (1/GPa) = 0.04473775
#
# Stress axis : x y z
#
# Youngs Moduli (GPa) = 139.68736 116.47752 26.06180
#
# Poissons Ratio (x) = 0.27470 0.11412
# Poissons Ratio (y) = 0.32944 -0.05340
# Poissons Ratio (z) = 0.61169 -0.23866
#
# Static dielectric constant tensor:
#      x y z
#    x 4.371300 0.000000 -0.249620 
#    y 0.000000 4.673920 0.000000 
#    z -0.249620 0.000000 3.989620 
# 
# 
# High freq. dielectric constant tensor:
#      x y z
#    x 1.930070 0.000000 -0.008250 
#    y 0.000000 1.933660 0.000000 
#    z -0.008250 0.000000 1.892840 
# 
# From -- ./inp_files/33489.got.cif
#   From: 2010.06.25/outbox.cif.g09.slc.cpg/sg15_17_cif.got.tgz:33489.got - 2010.06.28 07:06:18.
