data_PCOD8132249
_publ_section_title
;
Structure prediction by ZEFSAII (Michael W. Deem and Ramdas Pophale) SiO2 
 PCOD8132249
Probable space group: C 2/C
;
_chemical_formula_sum "Si O2"
_cell_formula_units_Z 44
_cell_length_a 25.314029
_cell_length_b 12.349786
_cell_length_c 11.005915
_cell_angle_alpha 90.000000
_cell_angle_beta 141.608198
_cell_angle_gamma 90.000000
_cell_volume 2136.797589
_symmetry_space_group_name_H-M "C 2/C"
_symmetry_group_IT_number 15
_symmetry_cell_setting 'monoclinic'
loop_
_space_group_symop_operation_xyz
x,y,z
-x,y,1/2-z
-x,-y,-z
x,-y,1/2+z
1/2+x,1/2+y,z
1/2-x,1/2+y,1/2-z
1/2-x,1/2-y,-z
1/2+x,1/2-y,1/2+z
loop_
_atom_site_type_symbol
_atom_site_label
_atom_site_fract_x
_atom_site_fract_y
_atom_site_fract_z
Si Si1 0.972395 0.427377 0.566473
Si Si2 0.500000 0.474024 0.250000
Si Si3 0.335785 0.369067 0.704575
Si Si4 0.986210 0.194851 0.938549
Si Si5 0.710557 0.164334 0.760591
Si Si6 0.142996 0.091190 0.634104
O O1 0.870635 0.414869 0.384760
O O2 0.000000 0.474485 0.750000
O O3 0.000000 0.500000 0.500000
O O4 0.017560 0.311092 0.632283
O O5 0.516926 0.401444 0.163878
O O6 0.583784 0.548383 0.417331
O O7 0.315691 0.291256 0.785321
O O8 0.263866 0.358076 0.476331
O O9 0.335272 0.493016 0.738988
O O10 0.428590 0.326113 0.827043
O O11 0.905290 0.185817 0.880221
O O12 0.768218 0.141604 0.748153
#
# Coordination Sequence:
#
# PCOD8132249 Si02
#       6
#     8   4   8   8   8   8
#     4  11  26  48  67  88 128 180 224 271 322 384
#     4  10  18  36  60  92 136 156 202 270 328 392
#     4   9  20  38  57  88 128 161 194 264 322 374
#     4  10  20  39  64  90 128 163 211 268 331 382
#     4  10  22  39  59  88 128 160 213 268 308 383
#     4  11  20  33  64  96 118 165 207 257 329 394
#
# _framework density 20.591562
#
# number of rings (size 3 to 8) (size 9 to 14) (size 15 to 20)
#    0.000    1.818    0.909    4.364    2.545    1.455 
#    8.182    0.909    0.000    0.000    0.000    0.000 
#    0.000    0.000    0.000    0.000    0.000    0.000 
#
# Total GULP energy -272710.222002 kJ/mol
# GULP energy per Si atom -12395.919182 kJ/mol
# Density = 2.054470 g / cm^3
# Si number density = 20.591562 Si / 1000 Ang^3
#
#
#
# Elastic Constant Matrix: (Units=GPa)
#
#
# Indices 1 2 3 4 5 6 
#
# 1 147.3626 49.1279 47.5338 0.0000 29.6703 0.0000
# 2 49.1279 63.4928 10.1758 0.0000 7.1842 0.0000
# 3 47.5338 10.1758 94.6177 0.0000 3.7775 0.0000
# 4 0.0000 0.0000 0.0000 22.4747 0.0000 5.3873
# 5 29.6703 7.1842 3.7775 0.0000 40.7589 0.0000
# 6 0.0000 0.0000 0.0000 5.3873 0.0000 22.9391
#
#
#
# Elastic Compliance Matrix: (Units=1/GPa)
#
#
# Indices 1 2 3 4 5 6 
#
# 1 0.012630 -0.008118 -0.005181 0.000000 -0.007283 0.000000
# 2 -0.008118 0.021540 0.001684 0.000000 0.001957 0.000000
# 3 -0.005181 0.001684 0.012900 0.000000 0.002279 0.000000
# 4 0.000000 0.000000 0.000000 0.047149 0.000000 -0.011073
# 5 -0.007283 0.001957 0.002279 0.000000 0.029280 0.000000
# 6 0.000000 0.000000 0.000000 -0.011073 0.000000 0.046194
#
#
# Mechanical properties :
#
#
# Convention : Reuss Voigt Hill
#
# Bulk Modulus (GPa) = 41.94905 57.68311 49.81608
# Shear Modulus (GPa) = 24.89171 30.47690 27.68431
#
# Velocity S-wave (km/s) = 3.48060 3.85134 3.67065
# Velocity P-wave (km/s) = 6.04722 6.91743 6.49691
#
# Compressibility (1/GPa) = 0.02383844
#
# Stress axis : x y z
#
# Youngs Moduli (GPa) = 79.17633 46.42523 77.52121
#
# Poissons Ratio (x) = 0.37689 0.40165
# Poissons Ratio (y) = 0.64276 -0.13052
# Poissons Ratio (z) = 0.41023 -0.07817
#
# Static dielectric constant tensor:
#      x y z
#    x 3.744860 0.000000 0.228030 
#    y 0.000000 3.824660 0.000000 
#    z 0.228030 0.000000 3.948150 
# 
# 
# High freq. dielectric constant tensor:
#      x y z
#    x 1.800380 0.000000 0.007590 
#    y 0.000000 1.797000 0.000000 
#    z 0.007590 0.000000 1.813250 
# 
# From -- ./inp_files/117901.got.cif
#   From: 2010.06.25/outbox.cif.g09.slc.cpg/sg15_59_cif.got.tgz:117901.got - 2010.06.28 07:06:18.
