data_PCOD8132854
_publ_section_title
;
Structure prediction by ZEFSAII (Michael W. Deem and Ramdas Pophale) SiO2 
 PCOD8132854
Probable space group: C 2/C
;
_chemical_formula_sum "Si O2"
_cell_formula_units_Z 52
_cell_length_a 16.658930
_cell_length_b 22.768841
_cell_length_c 12.337121
_cell_angle_alpha 90.000000
_cell_angle_beta 36.188265
_cell_angle_gamma 90.000000
_cell_volume 2762.981020
_symmetry_space_group_name_H-M "C 2/C"
_symmetry_group_IT_number 15
_symmetry_cell_setting 'monoclinic'
loop_
_space_group_symop_operation_xyz
x,y,z
-x,y,1/2-z
-x,-y,-z
x,-y,1/2+z
1/2+x,1/2+y,z
1/2-x,1/2+y,1/2-z
1/2-x,1/2-y,-z
1/2+x,1/2-y,1/2+z
loop_
_atom_site_type_symbol
_atom_site_label
_atom_site_fract_x
_atom_site_fract_y
_atom_site_fract_z
Si Si1 0.728942 0.905992 0.365967
Si Si2 0.966158 0.440942 0.098507
Si Si3 0.212781 0.508772 0.064713
Si Si4 0.794445 0.609283 0.259546
Si Si5 0.485752 0.429869 0.530272
Si Si6 0.500000 0.453565 0.750000
Si Si7 0.153395 0.694722 0.114269
O O1 0.640247 0.902372 0.355115
O O2 0.699399 0.853759 0.478893
O O3 0.697047 0.969538 0.457989
O O4 0.885637 0.899562 0.163921
O O5 0.891761 0.454945 0.295189
O O6 0.000000 0.500000 0.000000
O O7 0.103850 0.401440 0.954563
O O8 0.169066 0.560852 0.191002
O O9 0.369419 0.493782 0.917163
O O10 0.640892 0.601556 0.388389
O O11 0.826994 0.671035 0.283427
O O12 0.500000 0.500000 0.500000
O O13 0.474594 0.414584 0.670557
O O14 0.000000 0.712922 0.250000
O O15 0.250000 0.750000 0.000000
#
# Coordination Sequence:
#
# PCOD8132854 Si02
#       7
#     8   8   8   8   8   4   8
#     4  11  21  37  56  79 125 159 191 243 295 349
#     4  10  19  33  49  78 110 159 191 229 286 355
#     4  10  19  29  51  76 111 161 188 224 275 352
#     4  10  21  37  54  79 119 153 195 242 299 347
#     4  12  21  35  53  84 121 169 201 232 284 361
#     4  12  20  32  48  80 120 158 206 226 262 354
#     4  11  25  42  63  90 118 151 205 256 312 362
#
# _framework density 18.820252
#
# number of rings (size 3 to 8) (size 9 to 14) (size 15 to 20)
#    0.000    1.231    6.154    0.923    2.154    1.231 
#    0.000    0.000    0.000    0.000    0.000    1.077 
#    0.000    0.000    0.000    0.000    0.000    0.000 
#
# Total GULP energy -322201.210878 kJ/mol
# GULP energy per Si atom -12392.354265 kJ/mol
# Density = 1.877742 g / cm^3
# Si number density = 18.820252 Si / 1000 Ang^3
#
#
#
# Elastic Constant Matrix: (Units=GPa)
#
#
# Indices 1 2 3 4 5 6 
#
# 1 85.0086 24.0410 36.2405 0.0068 -8.4875 -0.0022
# 2 24.0410 63.5948 42.8788 0.0138 -5.7488 -0.0106
# 3 36.2405 42.8788 147.7683 0.0177 -15.8030 -0.0193
# 4 0.0068 0.0138 0.0177 23.9302 -0.0101 0.2506
# 5 -8.4875 -5.7488 -15.8030 -0.0101 38.0039 0.0073
# 6 -0.0022 -0.0106 -0.0193 0.2506 0.0073 15.3811
#
#
#
# Elastic Compliance Matrix: (Units=1/GPa)
#
#
# Indices 1 2 3 4 5 6 
#
# 1 0.013882 -0.003633 -0.002174 0.000001 0.001647 -0.000004
# 2 -0.003633 0.020514 -0.005041 -0.000007 0.000196 0.000007
# 3 -0.002174 -0.005041 0.009032 -0.000002 0.002507 0.000006
# 4 0.000001 -0.000007 -0.000002 0.041795 0.000009 -0.000681
# 5 0.001647 0.000196 0.002507 0.000009 0.027753 -0.000010
# 6 -0.000004 0.000007 0.000006 -0.000681 -0.000010 0.065026
#
#
# Mechanical properties :
#
#
# Convention : Reuss Voigt Hill
#
# Bulk Modulus (GPa) = 46.01563 55.85471 50.93517
# Shear Modulus (GPa) = 24.16121 28.34380 26.25250
#
# Velocity S-wave (km/s) = 3.58689 3.88497 3.73890
# Velocity P-wave (km/s) = 6.45426 7.06161 6.76476
#
# Compressibility (1/GPa) = 0.02173174
#
# Stress axis : x y z
#
# Youngs Moduli (GPa) = 72.03399 48.74602 110.72352
#
# Poissons Ratio (x) = 0.17710 0.24075
# Poissons Ratio (y) = 0.26171 0.55814
# Poissons Ratio (z) = 0.15663 0.24572
#
# Static dielectric constant tensor:
#      x y z
#    x 3.671990 -0.000020 0.117760 
#    y -0.000020 3.086670 -0.000020 
#    z 0.117760 -0.000020 4.081450 
# 
# 
# High freq. dielectric constant tensor:
#      x y z
#    x 1.732590 0.000000 -0.010980 
#    y 0.000000 1.658250 0.000000 
#    z -0.010980 0.000000 1.761100 
# 
# From -- ./inp_files/42343.got.cif
#   From: 2010.06.25/outbox.cif.g09.slc.cpg/sg15_22_cif.got.tgz:42343.got - 2010.06.28 07:06:18.
