data_PCOD8132561
_publ_section_title
;
Structure prediction by ZEFSAII (Michael W. Deem and Ramdas Pophale) SiO2 
 PCOD8132561
Probable space group: C 2/C
;
_chemical_formula_sum "Si O2"
_cell_formula_units_Z 48
_cell_length_a 14.205609
_cell_length_b 26.925245
_cell_length_c 9.168474
_cell_angle_alpha 90.000000
_cell_angle_beta 42.734741
_cell_angle_gamma 90.000000
_cell_volume 2379.763142
_symmetry_space_group_name_H-M "C 2/C"
_symmetry_group_IT_number 15
_symmetry_cell_setting 'monoclinic'
loop_
_space_group_symop_operation_xyz
x,y,z
-x,y,1/2-z
-x,-y,-z
x,-y,1/2+z
1/2+x,1/2+y,z
1/2-x,1/2+y,1/2-z
1/2-x,1/2-y,-z
1/2+x,1/2-y,1/2+z
loop_
_atom_site_type_symbol
_atom_site_label
_atom_site_fract_x
_atom_site_fract_y
_atom_site_fract_z
Si Si1 0.727512 0.354257 0.728515
Si Si2 0.533095 0.291835 0.550567
Si Si3 0.612469 0.550360 0.009394
Si Si4 0.415998 0.558168 0.974538
Si Si5 0.790949 0.356662 0.329238
Si Si6 0.032448 0.308676 0.884010
O O1 0.574224 0.333136 0.879603
O O2 0.705883 0.410177 0.811547
O O3 0.809922 0.350531 0.481955
O O4 0.810279 0.324992 0.759867
O O5 0.500000 0.271190 0.750000
O O6 0.683907 0.316913 0.382306
O O7 0.519418 0.247682 0.451382
O O8 0.653451 0.493529 0.005836
O O9 0.744956 0.586549 0.853336
O O10 0.500000 0.573644 0.250000
O O11 0.543626 0.546096 0.932617
O O12 0.500000 0.586446 0.750000
O O13 0.934842 0.346449 0.084606
O O14 0.000000 0.312130 0.750000
#
# Coordination Sequence:
#
# PCOD8132561 Si02
#       6
#     8   8   8   8   8   8
#     4  11  22  41  63  89 119 161 202 237 295 355
#     4  10  21  41  67  88 110 155 209 246 286 355
#     4  10  18  38  62  95 119 152 198 243 292 353
#     4  10  21  33  63  96 125 148 191 250 299 344
#     4  11  21  41  65  87 118 159 204 242 286 360
#     4  12  28  40  55  87 127 158 195 250 306 351
#
# _framework density 20.170076000000002
#
# number of rings (size 3 to 8) (size 9 to 14) (size 15 to 20)
#    0.000    1.333    3.333    3.000    2.333    6.000 
#    0.000    0.833    0.000    0.000    0.000    0.000 
#    0.000    0.000    0.000    0.000    0.000    0.000 
#
# Total GULP energy -297531.077707 kJ/mol
# GULP energy per Si atom -12397.128238 kJ/mol
# Density = 2.012417 g / cm^3
# Si number density = 20.170076 Si / 1000 Ang^3
#
#
#
# Elastic Constant Matrix: (Units=GPa)
#
#
# Indices 1 2 3 4 5 6 
#
# 1 92.9459 19.3041 24.0336 0.0000 20.6116 0.0000
# 2 19.3041 102.8789 30.3461 0.0000 8.8164 0.0000
# 3 24.0336 30.3461 83.6606 0.0000 16.3282 0.0000
# 4 0.0000 0.0000 0.0000 24.5539 0.0000 9.7270
# 5 20.6116 8.8164 16.3282 0.0000 28.7789 0.0000
# 6 0.0000 0.0000 0.0000 9.7270 0.0000 18.6014
#
#
#
# Elastic Compliance Matrix: (Units=1/GPa)
#
#
# Indices 1 2 3 4 5 6 
#
# 1 0.013281 -0.001275 -0.001769 0.000000 -0.008118 0.000000
# 2 -0.001275 0.011046 -0.003552 0.000000 -0.000456 0.000000
# 3 -0.001769 -0.003552 0.014945 0.000000 -0.006124 0.000000
# 4 0.000000 0.000000 0.000000 0.051368 0.000000 -0.026861
# 5 -0.008118 -0.000456 -0.006124 0.000000 0.044176 0.000000
# 6 0.000000 0.000000 0.000000 -0.026861 0.000000 0.067805
#
#
# Mechanical properties :
#
#
# Convention : Reuss Voigt Hill
#
# Bulk Modulus (GPa) = 38.34009 47.42812 42.88411
# Shear Modulus (GPa) = 22.27122 28.10695 25.18908
#
# Velocity S-wave (km/s) = 3.32651 3.73701 3.53772
# Velocity P-wave (km/s) = 5.81411 6.49503 6.16398
#
# Compressibility (1/GPa) = 0.02608236
#
# Stress axis : x y z
#
# Youngs Moduli (GPa) = 75.29400 90.53037 66.91339
#
# Poissons Ratio (x) = 0.11540 0.11834
# Poissons Ratio (y) = 0.09598 0.23764
# Poissons Ratio (z) = 0.13316 0.32152
#
# Static dielectric constant tensor:
#      x y z
#    x 3.724270 0.000000 0.209440 
#    y 0.000000 3.718800 0.000000 
#    z 0.209440 0.000000 3.538940 
# 
# 
# High freq. dielectric constant tensor:
#      x y z
#    x 1.784750 0.000000 0.019950 
#    y 0.000000 1.792160 0.000000 
#    z 0.019950 0.000000 1.770790 
# 
# From -- ./inp_files/33418.got.cif
#   From: 2010.06.25/outbox.cif.g09.slc.cpg/sg15_17_cif.got.tgz:33418.got - 2010.06.28 07:06:18.
