data_PCOD8132150
_publ_section_title
;
Structure prediction by ZEFSAII (Michael W. Deem and Ramdas Pophale) SiO2 
 PCOD8132150
Probable space group: C 2/C
;
_chemical_formula_sum "Si O2"
_cell_formula_units_Z 64
_cell_length_a 14.774691
_cell_length_b 11.004935
_cell_length_c 28.723754
_cell_angle_alpha 90.000000
_cell_angle_beta 139.817583
_cell_angle_gamma 90.000000
_cell_volume 3013.402221
_symmetry_space_group_name_H-M "C 2/C"
_symmetry_group_IT_number 15
_symmetry_cell_setting 'monoclinic'
loop_
_space_group_symop_operation_xyz
x,y,z
-x,y,1/2-z
-x,-y,-z
x,-y,1/2+z
1/2+x,1/2+y,z
1/2-x,1/2+y,1/2-z
1/2-x,1/2-y,-z
1/2+x,1/2-y,1/2+z
loop_
_atom_site_type_symbol
_atom_site_label
_atom_site_fract_x
_atom_site_fract_y
_atom_site_fract_z
Si Si1 0.859426 0.264322 0.167162
Si Si2 0.510610 0.964488 0.347184
Si Si3 0.351399 0.135348 0.030870
Si Si4 0.263644 0.126816 0.227076
Si Si5 0.697477 0.872806 0.162506
Si Si6 0.939404 0.959961 0.318811
Si Si7 0.623392 0.744072 0.641152
Si Si8 0.769860 0.993651 0.600669
O O1 0.899505 0.369122 0.147025
O O2 0.738399 0.319294 0.153178
O O3 0.774501 0.151396 0.110473
O O4 0.000000 0.222300 0.250000
O O5 0.448092 0.889303 0.366702
O O6 0.615946 0.069313 0.406982
O O7 0.389049 0.028094 0.266962
O O8 0.501639 0.177875 0.067760
O O9 0.250000 0.250000 0.000000
O O10 0.290229 0.031963 0.972962
O O11 0.254836 0.233348 0.184747
O O12 0.286792 0.176295 0.288079
O O13 0.105286 0.072190 0.165372
O O14 0.807087 0.952359 0.233412
O O15 0.685454 0.929033 0.106206
O O16 0.967201 0.849713 0.364359
O O17 0.067880 0.971321 0.334854
#
# Coordination Sequence:
#
# PCOD8132150 Si02
#       8
#     8   8   8   8   8   8   8   8
#     4  12  23  41  66 102 130 161 210 273 337 394
#     4  10  23  42  65  93 135 174 211 269 329 386
#     4  11  24  47  62  87 131 183 228 266 315 380
#     4   9  18  37  64  90 131 164 205 270 335 394
#     4  10  20  36  61  99 122 161 219 270 328 385
#     4  10  18  36  57  88 125 162 198 264 337 377
#     4  10  21  39  62  85 129 171 208 265 322 379
#     4  12  23  37  67  91 125 169 217 269 310 387
#
# _framework density 21.238451999999999
#
# number of rings (size 3 to 8) (size 9 to 14) (size 15 to 20)
#    0.000    1.500    1.250    7.125    0.000    2.500 
#    4.500    3.125    0.000    0.000    0.000    0.000 
#    0.000    0.000    0.000    0.000    0.000    0.000 
#
# Total GULP energy -396437.895371 kJ/mol
# GULP energy per Si atom -12388.684230 kJ/mol
# Density = 2.119011 g / cm^3
# Si number density = 21.238452 Si / 1000 Ang^3
#
#
#
# Elastic Constant Matrix: (Units=GPa)
#
#
# Indices 1 2 3 4 5 6 
#
# 1 93.5638 18.3997 10.0455 0.0000 7.6986 0.0000
# 2 18.3997 98.4117 23.3848 0.0000 -2.1678 0.0000
# 3 10.0455 23.3848 60.6752 0.0000 2.9554 0.0000
# 4 0.0000 0.0000 0.0000 18.2814 0.0000 11.9385
# 5 7.6986 -2.1678 2.9554 0.0000 19.8031 0.0000
# 6 0.0000 0.0000 0.0000 11.9385 0.0000 34.8212
#
#
#
# Elastic Compliance Matrix: (Units=1/GPa)
#
#
# Indices 1 2 3 4 5 6 
#
# 1 0.011565 -0.002049 -0.000902 0.000000 -0.004586 0.000000
# 2 -0.002049 0.011619 -0.004271 0.000000 0.002706 0.000000
# 3 -0.000902 -0.004271 0.018416 0.000000 -0.002865 0.000000
# 4 0.000000 0.000000 0.000000 0.070481 0.000000 -0.024165
# 5 -0.004586 0.002706 -0.002865 0.000000 0.053004 0.000000
# 6 0.000000 0.000000 0.000000 -0.024165 0.000000 0.037003
#
#
# Mechanical properties :
#
#
# Convention : Reuss Voigt Hill
#
# Bulk Modulus (GPa) = 36.82248 39.59008 38.20628
# Shear Modulus (GPa) = 22.16484 27.96918 25.06701
#
# Velocity S-wave (km/s) = 3.23401 3.63287 3.43923
# Velocity P-wave (km/s) = 5.59646 6.02314 5.81372
#
# Compressibility (1/GPa) = 0.02715732
#
# Stress axis : x y z
#
# Youngs Moduli (GPa) = 86.46807 86.06685 54.30072
#
# Poissons Ratio (x) = 0.17635 0.04896
# Poissons Ratio (y) = 0.17718 0.23190
# Poissons Ratio (z) = 0.07796 0.36755
#
# Static dielectric constant tensor:
#      x y z
#    x 4.315250 0.000000 0.258350 
#    y 0.000000 4.179320 0.000000 
#    z 0.258350 0.000000 3.661630 
# 
# 
# High freq. dielectric constant tensor:
#      x y z
#    x 1.827520 0.000000 0.018420 
#    y 0.000000 1.844500 0.000000 
#    z 0.018420 0.000000 1.801420 
# 
# From -- ./inp_files/296163.got.cif
#   From: 2010.06.25/outbox.cif.g09.slc.cpg/sg15_149_cif.got.tgz:296163.got - 2010.06.28 07:06:18.
