data_PCOD8132737
_publ_section_title
;
Structure prediction by ZEFSAII (Michael W. Deem and Ramdas Pophale) SiO2 
 PCOD8132737
Probable space group: C 2/C
;
_chemical_formula_sum "Si O2"
_cell_formula_units_Z 60
_cell_length_a 16.721210
_cell_length_b 8.439296
_cell_length_c 20.847632
_cell_angle_alpha 90.000000
_cell_angle_beta 100.660601
_cell_angle_gamma 90.000000
_cell_volume 2891.141787
_symmetry_space_group_name_H-M "C 2/C"
_symmetry_group_IT_number 15
_symmetry_cell_setting 'monoclinic'
loop_
_space_group_symop_operation_xyz
x,y,z
-x,y,1/2-z
-x,-y,-z
x,-y,1/2+z
1/2+x,1/2+y,z
1/2-x,1/2+y,1/2-z
1/2-x,1/2-y,-z
1/2+x,1/2-y,1/2+z
loop_
_atom_site_type_symbol
_atom_site_label
_atom_site_fract_x
_atom_site_fract_y
_atom_site_fract_z
Si Si1 0.814779 0.259516 0.066641
Si Si2 0.088789 0.310371 0.142373
Si Si3 0.500000 0.900232 0.250000
Si Si4 0.528993 0.651420 0.465356
Si Si5 0.392670 0.069262 0.131518
Si Si6 0.748476 0.150823 0.308886
Si Si7 0.452015 0.842912 0.910465
Si Si8 0.704401 0.710672 0.669243
O O1 0.886361 0.131076 0.062060
O O2 0.859370 0.430416 0.079862
O O3 0.767847 0.221767 0.125789
O O4 0.750000 0.250000 0.000000
O O5 0.050748 0.295113 0.207665
O O6 0.183420 0.275999 0.161540
O O7 0.077462 0.479507 0.107237
O O8 0.045077 0.179611 0.093319
O O9 0.435094 0.003075 0.201731
O O10 0.500000 0.500000 0.500000
O O11 0.544248 0.802674 0.513859
O O12 0.319119 0.176679 0.146112
O O13 0.456799 0.179935 0.103682
O O14 0.713763 0.183658 0.233557
O O15 0.780295 0.972050 0.313921
O O16 0.388633 0.723323 0.867942
#
# Coordination Sequence:
#
# PCOD8132737 Si02
#       8
#     8   8   4   8   8   8   8   8
#     4  11  22  42  68  90 128 177 217 259 330 394
#     4  11  23  39  69  93 127 170 220 264 325 390
#     4  10  18  40  66  92 122 178 212 258 330 402
#     4  12  25  43  64  95 131 170 218 272 322 394
#     4  10  22  40  67  95 129 170 217 267 328 385
#     4  11  23  42  64 101 133 168 215 268 324 391
#     4  11  22  44  67  93 127 175 215 268 329 384
#     4  11  23  41  70  95 131 169 214 268 326 387
#
# _framework density 20.753046999999999
#
# number of rings (size 3 to 8) (size 9 to 14) (size 15 to 20)
#    0.000    1.067    4.000    5.200    1.867    0.000 
#    4.800    2.000    0.000    0.000    0.000    0.000 
#    0.000    0.000    0.000    0.000    0.000    0.000 
#
# Total GULP energy -371971.373386 kJ/mol
# GULP energy per Si atom -12399.045780 kJ/mol
# Density = 2.070581 g / cm^3
# Si number density = 20.753047 Si / 1000 Ang^3
#
#
#
# Elastic Constant Matrix: (Units=GPa)
#
#
# Indices 1 2 3 4 5 6 
#
# 1 155.5166 34.4428 30.6751 0.0000 -10.7697 0.0000
# 2 34.4428 54.6865 16.4315 0.0000 -16.8257 0.0000
# 3 30.6751 16.4315 98.1212 0.0000 1.5901 0.0000
# 4 0.0000 0.0000 0.0000 37.7222 0.0000 -1.9082
# 5 -10.7697 -16.8257 1.5901 0.0000 37.0904 0.0000
# 6 0.0000 0.0000 0.0000 -1.9082 0.0000 28.1690
#
#
#
# Elastic Compliance Matrix: (Units=1/GPa)
#
#
# Indices 1 2 3 4 5 6 
#
# 1 0.007734 -0.004233 -0.001715 0.000000 0.000399 0.000000
# 2 -0.004233 0.025016 -0.003032 0.000000 0.010249 0.000000
# 3 -0.001715 -0.003032 0.011274 0.000000 -0.002357 0.000000
# 4 0.000000 0.000000 0.000000 0.026601 0.000000 0.001802
# 5 0.000399 0.010249 -0.002357 0.000000 0.031828 0.000000
# 6 0.000000 0.000000 0.000000 0.001802 0.000000 0.035622
#
#
# Mechanical properties :
#
#
# Convention : Reuss Voigt Hill
#
# Bulk Modulus (GPa) = 38.36796 52.38035 45.37415
# Shear Modulus (GPa) = 30.35411 35.71463 33.03437
#
# Velocity S-wave (km/s) = 3.82859 4.15291 3.99405
# Velocity P-wave (km/s) = 6.17026 6.94912 6.57124
#
# Compressibility (1/GPa) = 0.02606342
#
# Stress axis : x y z
#
# Youngs Moduli (GPa) = 129.30638 39.97376 88.70196
#
# Poissons Ratio (x) = 0.16919 0.15216
# Poissons Ratio (y) = 0.54730 0.26896
# Poissons Ratio (z) = 0.22181 0.12121
#
# Static dielectric constant tensor:
#      x y z
#    x 4.429920 0.000000 -0.050790 
#    y 0.000000 3.443680 0.000000 
#    z -0.050790 0.000000 3.991520 
# 
# 
# High freq. dielectric constant tensor:
#      x y z
#    x 1.835730 0.000000 0.004770 
#    y 0.000000 1.779910 0.000000 
#    z 0.004770 0.000000 1.829500 
# 
# From -- ./inp_files/247555.got.cif
#   From: 2010.06.25/outbox.cif.g09.slc.cpg/sg15_124_cif.got.tgz:247555.got - 2010.06.28 07:06:18.
