data_PCOD8132964
_publ_section_title
;
Structure prediction by ZEFSAII (Michael W. Deem and Ramdas Pophale) SiO2 
 PCOD8132964
Probable space group: C 2/C
;
_chemical_formula_sum "Si O2"
_cell_formula_units_Z 48
_cell_length_a 16.120538
_cell_length_b 21.645086
_cell_length_c 12.474529
_cell_angle_alpha 90.000000
_cell_angle_beta 39.302510
_cell_angle_gamma 90.000000
_cell_volume 2757.091580
_symmetry_space_group_name_H-M "C 2/C"
_symmetry_group_IT_number 15
_symmetry_cell_setting 'monoclinic'
loop_
_space_group_symop_operation_xyz
x,y,z
-x,y,1/2-z
-x,-y,-z
x,-y,1/2+z
1/2+x,1/2+y,z
1/2-x,1/2+y,1/2-z
1/2-x,1/2-y,-z
1/2+x,1/2-y,1/2+z
loop_
_atom_site_type_symbol
_atom_site_label
_atom_site_fract_x
_atom_site_fract_y
_atom_site_fract_z
Si Si1 0.223869 0.387791 0.404593
Si Si2 0.000023 0.294667 0.875562
Si Si3 0.000002 0.932163 0.874727
Si Si4 0.499981 0.341097 0.058795
Si Si5 0.276082 0.887785 0.852405
Si Si6 0.715492 0.499997 0.784513
O O1 0.129076 0.332605 0.462681
O O2 0.373683 0.366215 0.247601
O O3 0.190411 0.406391 0.559581
O O4 0.195265 0.446818 0.357563
O O5 0.000000 0.276994 0.750000
O O6 0.000011 0.232732 0.945625
O O7 0.129157 0.332587 0.779062
O O8 0.000000 0.916727 0.750000
O O9 0.127017 0.972126 0.777855
O O10 1.000000 0.866973 0.937719
O O11 0.872995 0.972129 0.031879
O O12 0.626258 0.366224 0.995056
O O13 0.304713 0.946808 0.748139
#
# Coordination Sequence:
#
# PCOD8132964 Si02
#       6
#     8   8   8   8   8   8
#     4  10  19  31  49  72  97 124 155 194 236 278
#     4  10  20  32  48  71  98 126 155 192 237 280
#     4   9  17  30  49  73  97 120 154 199 237 273
#     4  10  19  31  51  73  93 123 157 195 236 274
#     4  10  19  31  49  72  97 124 155 194 236 278
#     4   9  18  29  48  72  94 124 156 192 236 278
#
# _framework density 17.409649999999999
#
# number of rings (size 3 to 8) (size 9 to 14) (size 15 to 20)
#    0.000    2.333    0.000    4.500    0.000    3.333 
#    0.000    0.000    0.000   18.000    0.000    0.000 
#    0.000    0.000    0.000    0.000    0.000    0.000 
#
# Total GULP energy -297634.487816 kJ/mol
# GULP energy per Si atom -12401.436992 kJ/mol
# Density = 1.737002 g / cm^3
# Si number density = 17.409650 Si / 1000 Ang^3
#
#
#
# Elastic Constant Matrix: (Units=GPa)
#
#
# Indices 1 2 3 4 5 6 
#
# 1 62.4030 42.1431 30.5113 0.0003 11.5809 -0.0003
# 2 42.1431 142.6819 37.1797 -0.0003 10.7943 0.0001
# 3 30.5113 37.1797 55.7669 -0.0023 2.8355 0.0016
# 4 0.0003 -0.0003 -0.0023 19.2180 0.0010 5.4494
# 5 11.5809 10.7943 2.8355 0.0010 32.2099 -0.0009
# 6 -0.0003 0.0001 0.0016 5.4494 -0.0009 21.7109
#
#
#
# Elastic Compliance Matrix: (Units=1/GPa)
#
#
# Indices 1 2 3 4 5 6 
#
# 1 0.025355 -0.004177 -0.010743 -0.000002 -0.006771 0.000001
# 2 -0.004177 0.009352 -0.003884 0.000000 -0.001290 0.000000
# 3 -0.010743 -0.003884 0.026254 0.000004 0.002853 -0.000003
# 4 -0.000002 0.000000 0.000004 0.056022 -0.000002 -0.014061
# 5 -0.006771 -0.001290 0.002853 -0.000002 0.033662 0.000002
# 6 0.000001 0.000000 -0.000003 -0.014061 0.000002 0.049589
#
#
# Mechanical properties :
#
#
# Convention : Reuss Voigt Hill
#
# Bulk Modulus (GPa) = 42.82198 53.39112 48.10655
# Shear Modulus (GPa) = 20.35606 24.69562 22.52584
#
# Velocity S-wave (km/s) = 3.42313 3.77039 3.60094
# Velocity P-wave (km/s) = 6.34616 7.04901 6.70680
#
# Compressibility (1/GPa) = 0.02335249
#
# Stress axis : x y z
#
# Youngs Moduli (GPa) = 39.43957 106.92761 38.08960
#
# Poissons Ratio (x) = 0.44668 0.40920
# Poissons Ratio (y) = 0.16475 0.14794
# Poissons Ratio (z) = 0.42370 0.41530
#
# Static dielectric constant tensor:
#      x y z
#    x 3.060320 0.000000 -0.099710 
#    y 0.000000 3.381980 0.000000 
#    z -0.099710 0.000000 3.106400 
# 
# 
# High freq. dielectric constant tensor:
#      x y z
#    x 1.654470 0.000000 -0.008330 
#    y 0.000000 1.680960 0.000000 
#    z -0.008330 0.000000 1.658320 
# 
# From -- ./inp_files/50026.got.cif
#   From: 2010.06.25/outbox.cif.g09.slc.cpg/sg15_26_cif.got.tgz:50026.got - 2010.06.28 07:06:18.
