data_PCOD8132152
_publ_section_title
;
Structure prediction by ZEFSAII (Michael W. Deem and Ramdas Pophale) SiO2 
 PCOD8132152
Probable space group: C 2/C
;
_chemical_formula_sum "Si O2"
_cell_formula_units_Z 56
_cell_length_a 11.562483
_cell_length_b 17.635388
_cell_length_c 16.114112
_cell_angle_alpha 90.000000
_cell_angle_beta 115.674106
_cell_angle_gamma 90.000000
_cell_volume 2961.411948
_symmetry_space_group_name_H-M "C 2/C"
_symmetry_group_IT_number 15
_symmetry_cell_setting 'monoclinic'
loop_
_space_group_symop_operation_xyz
x,y,z
-x,y,1/2-z
-x,-y,-z
x,-y,1/2+z
1/2+x,1/2+y,z
1/2-x,1/2+y,1/2-z
1/2-x,1/2-y,-z
1/2+x,1/2-y,1/2+z
loop_
_atom_site_type_symbol
_atom_site_label
_atom_site_fract_x
_atom_site_fract_y
_atom_site_fract_z
Si Si1 0.962863 0.605727 0.097542
Si Si2 0.751965 0.040213 0.765601
Si Si3 0.237694 0.371156 0.721525
Si Si4 0.500000 0.015444 0.750000
Si Si5 0.491918 0.472539 0.091260
Si Si6 0.257914 0.606471 0.589490
Si Si7 0.862942 0.738357 0.175916
Si Si8 0.500000 0.585343 0.250000
O O1 0.958141 0.535845 0.159262
O O2 0.890394 0.677529 0.113724
O O3 0.111791 0.624857 0.122217
O O4 0.883052 0.587300 0.989998
O O5 0.770037 0.056450 0.674916
O O6 0.743787 0.949113 0.776053
O O7 0.618253 0.071290 0.761969
O O8 0.875217 0.074063 0.852072
O O9 0.219054 0.300248 0.776501
O O10 0.371902 0.362176 0.713475
O O11 0.369072 0.418376 0.060132
O O12 0.488255 0.536875 0.161640
O O13 0.500000 0.500000 0.000000
O O14 0.274299 0.695008 0.613572
O O15 0.000000 0.770992 0.250000
#
# Coordination Sequence:
#
# PCOD8132152 Si02
#       8
#     8   8   8   4   8   8   8   4
#     4  10  19  34  54  84 110 145 192 234 286 350
#     4  10  19  37  52  81 117 147 192 239 279 351
#     4   9  18  36  59  76 111 153 190 227 287 348
#     4  10  18  36  58  74 114 158 192 234 284 352
#     4  11  21  35  56  87 120 147 192 242 297 343
#     4  12  22  33  58  90 119 144 192 252 300 335
#     4  10  19  36  58  82 111 150 189 240 290 343
#     4  10  20  40  58  82 116 152 196 240 282 362
#
# _framework density 18.909898999999999
#
# number of rings (size 3 to 8) (size 9 to 14) (size 15 to 20)
#    0.000    1.714    6.429    2.143    2.000    2.286 
#    2.571    0.714    0.000    0.857    0.000    0.000 
#    0.000    0.000    0.000    0.000    0.000    0.000 
#
# Total GULP energy -346965.365909 kJ/mol
# GULP energy per Si atom -12391.620211 kJ/mol
# Density = 1.886686 g / cm^3
# Si number density = 18.909899 Si / 1000 Ang^3
#
#
#
# Elastic Constant Matrix: (Units=GPa)
#
#
# Indices 1 2 3 4 5 6 
#
# 1 170.4290 26.9223 50.3577 0.0000 17.2800 0.0000
# 2 26.9223 41.6640 14.3528 0.0000 0.2616 0.0000
# 3 50.3577 14.3528 124.5330 0.0000 12.1974 0.0000
# 4 0.0000 0.0000 0.0000 16.7369 0.0000 -3.0358
# 5 17.2800 0.2616 12.1974 0.0000 36.2583 0.0000
# 6 0.0000 0.0000 0.0000 -3.0358 0.0000 15.1757
#
#
#
# Elastic Compliance Matrix: (Units=1/GPa)
#
#
# Indices 1 2 3 4 5 6 
#
# 1 0.007455 -0.004014 -0.002282 0.000000 -0.002756 0.000000
# 2 -0.004014 0.027178 -0.001735 0.000000 0.002300 0.000000
# 3 -0.002282 -0.001735 0.009353 0.000000 -0.002046 0.000000
# 4 0.000000 0.000000 0.000000 0.061998 0.000000 0.012402
# 5 -0.002756 0.002300 -0.002046 0.000000 0.029565 0.000000
# 6 0.000000 0.000000 0.000000 0.012402 0.000000 0.068376
#
#
# Mechanical properties :
#
#
# Convention : Reuss Voigt Hill
#
# Bulk Modulus (GPa) = 35.80952 57.76575 46.78763
# Shear Modulus (GPa) = 21.80591 29.96707 25.88649
#
# Velocity S-wave (km/s) = 3.39949 3.98518 3.70393
# Velocity P-wave (km/s) = 5.86402 7.19651 6.56416
#
# Compressibility (1/GPa) = 0.02792553
#
# Stress axis : x y z
#
# Youngs Moduli (GPa) = 134.13023 36.79389 106.91555
#
# Poissons Ratio (x) = 0.14769 0.24400
# Poissons Ratio (y) = 0.53841 0.18545
# Poissons Ratio (z) = 0.30611 0.06382
#
# Static dielectric constant tensor:
#      x y z
#    x 4.135010 0.000000 0.303750 
#    y 0.000000 3.067650 0.000000 
#    z 0.303750 0.000000 3.417380 
# 
# 
# High freq. dielectric constant tensor:
#      x y z
#    x 1.752880 0.000000 0.019190 
#    y 0.000000 1.690480 0.000000 
#    z 0.019190 0.000000 1.727760 
# 
# From -- ./inp_files/146187.got.cif
#   From: 2010.06.25/outbox.cif.g09.slc.cpg/sg15_74_cif.got.tgz:146187.got - 2010.06.28 07:06:18.
