data_PCOD8132790
_publ_section_title
;
Structure prediction by ZEFSAII (Michael W. Deem and Ramdas Pophale) SiO2 
 PCOD8132790
Probable space group: C 2/C
;
_chemical_formula_sum "Si O2"
_cell_formula_units_Z 56
_cell_length_a 14.820200
_cell_length_b 8.898809
_cell_length_c 24.906343
_cell_angle_alpha 90.000000
_cell_angle_beta 54.817051
_cell_angle_gamma 90.000000
_cell_volume 2684.640461
_symmetry_space_group_name_H-M "C 2/C"
_symmetry_group_IT_number 15
_symmetry_cell_setting 'monoclinic'
loop_
_space_group_symop_operation_xyz
x,y,z
-x,y,1/2-z
-x,-y,-z
x,-y,1/2+z
1/2+x,1/2+y,z
1/2-x,1/2+y,1/2-z
1/2-x,1/2-y,-z
1/2+x,1/2-y,1/2+z
loop_
_atom_site_type_symbol
_atom_site_label
_atom_site_fract_x
_atom_site_fract_y
_atom_site_fract_z
Si Si1 0.333863 0.811656 0.772370
Si Si2 0.022413 0.920919 0.047713
Si Si3 0.931982 0.409835 0.839527
Si Si4 0.115088 0.736742 0.686389
Si Si5 0.699609 0.601847 0.808626
Si Si6 0.651631 0.146878 0.016897
Si Si7 0.297103 0.388092 0.949068
O O1 0.311742 0.653498 0.750021
O O2 0.361835 0.789734 0.826654
O O3 0.438722 0.886919 0.708587
O O4 0.233904 0.927867 0.798358
O O5 0.915683 0.892112 0.120516
O O6 0.066925 0.755309 0.014681
O O7 0.111009 0.021175 0.049179
O O8 0.000000 0.000000 0.000000
O O9 0.903644 0.570772 0.827154
O O10 0.904447 0.410616 0.910287
O O11 0.213978 0.721474 0.695550
O O12 0.151429 0.840807 0.624861
O O13 0.000000 0.802394 0.750000
O O14 0.750000 0.250000 0.000000
O O15 0.695000 0.000997 0.969836
O O16 0.250000 0.250000 0.000000
#
# Coordination Sequence:
#
# PCOD8132790 Si02
#       7
#     8   8   8   8   8   8   8
#     4  10  22  38  65  94 127 168 208 267 328 390
#     4  11  25  43  67  92 129 169 223 276 325 382
#     4  10  18  42  68  87 124 176 210 255 330 400
#     4  11  22  41  65  93 133 171 210 267 338 394
#     4  11  23  42  63  96 131 163 215 272 325 384
#     4  10  22  41  65  92 124 169 220 258 318 395
#     4  11  23  42  70  94 127 173 222 266 327 401
#
# _framework density 20.859404999999999
#
# number of rings (size 3 to 8) (size 9 to 14) (size 15 to 20)
#    0.000    1.429    5.714    0.857    8.000    0.000 
#    5.143    4.286    0.000    0.000    0.000    0.000 
#    0.000    0.000    0.000    0.000    0.000    0.000 
#
# Total GULP energy -346960.976384 kJ/mol
# GULP energy per Si atom -12391.463442 kJ/mol
# Density = 2.081193 g / cm^3
# Si number density = 20.859405 Si / 1000 Ang^3
#
#
#
# Elastic Constant Matrix: (Units=GPa)
#
#
# Indices 1 2 3 4 5 6 
#
# 1 84.9907 38.1542 29.0157 0.0000 -6.9306 0.0000
# 2 38.1542 90.2172 30.2966 0.0000 1.8768 0.0001
# 3 29.0157 30.2966 111.5493 0.0000 -7.5819 0.0000
# 4 0.0000 0.0000 0.0000 44.5164 0.0000 1.9132
# 5 -6.9306 1.8768 -7.5819 0.0000 44.1452 0.0000
# 6 0.0000 0.0001 0.0000 1.9132 0.0000 30.7416
#
#
#
# Elastic Compliance Matrix: (Units=1/GPa)
#
#
# Indices 1 2 3 4 5 6 
#
# 1 0.015310 -0.005761 -0.002264 0.000000 0.002260 0.000000
# 2 -0.005761 0.014418 -0.002550 0.000000 -0.001955 0.000000
# 3 -0.002264 -0.002550 0.010350 0.000000 0.001531 0.000000
# 4 0.000000 0.000000 0.000000 0.022524 0.000000 -0.001402
# 5 0.002260 -0.001955 0.001531 0.000000 0.023353 0.000000
# 6 0.000000 0.000000 0.000000 -0.001402 0.000000 0.032616
#
#
# Mechanical properties :
#
#
# Convention : Reuss Voigt Hill
#
# Bulk Modulus (GPa) = 52.83507 53.52113 53.17810
# Shear Modulus (GPa) = 34.23924 36.50001 35.36963
#
# Velocity S-wave (km/s) = 4.05585 4.18761 4.12226
# Velocity P-wave (km/s) = 6.87876 7.00680 6.94307
#
# Compressibility (1/GPa) = 0.01892682
#
# Stress axis : x y z
#
# Youngs Moduli (GPa) = 65.31859 69.35765 96.61664
#
# Poissons Ratio (x) = 0.39960 0.21873
# Poissons Ratio (y) = 0.37633 0.24639
# Poissons Ratio (z) = 0.14787 0.17687
#
# Static dielectric constant tensor:
#      x y z
#    x 4.124440 0.000000 -0.059880 
#    y 0.000000 4.000110 0.000000 
#    z -0.059880 0.000000 3.946880 
# 
# 
# High freq. dielectric constant tensor:
#      x y z
#    x 1.814740 0.000000 -0.015140 
#    y 0.000000 1.812790 0.000000 
#    z -0.015140 0.000000 1.826510 
# 
# From -- ./inp_files/273073.got.cif
#   From: 2010.06.25/outbox.cif.g09.slc.cpg/sg15_137_cif.got.tgz:273073.got - 2010.06.28 07:06:18.
