data_PCOD8132067
_publ_section_title
;
Structure prediction by ZEFSAII (Michael W. Deem and Ramdas Pophale) SiO2 
 PCOD8132067
Probable space group: C 2/C
;
_chemical_formula_sum "Si O2"
_cell_formula_units_Z 44
_cell_length_a 16.683906
_cell_length_b 7.798240
_cell_length_c 16.799678
_cell_angle_alpha 90.000000
_cell_angle_beta 102.728671
_cell_angle_gamma 90.000000
_cell_volume 2132.008386
_symmetry_space_group_name_H-M "C 2/C"
_symmetry_group_IT_number 15
_symmetry_cell_setting 'monoclinic'
loop_
_space_group_symop_operation_xyz
x,y,z
-x,y,1/2-z
-x,-y,-z
x,-y,1/2+z
1/2+x,1/2+y,z
1/2-x,1/2+y,1/2-z
1/2-x,1/2-y,-z
1/2+x,1/2-y,1/2+z
loop_
_atom_site_type_symbol
_atom_site_label
_atom_site_fract_x
_atom_site_fract_y
_atom_site_fract_z
Si Si1 0.000000 0.407528 0.250000
Si Si2 0.149175 0.452079 0.693033
Si Si3 0.112516 0.727840 0.901851
Si Si4 0.766979 0.121474 0.837950
Si Si5 0.332259 0.551051 0.501856
Si Si6 0.847607 0.425166 0.477870
O O1 0.928441 0.532100 0.265638
O O2 0.964669 0.282106 0.174209
O O3 0.164201 0.253638 0.676808
O O4 0.230193 0.524367 0.754133
O O5 0.129199 0.557953 0.609253
O O6 0.197919 0.723363 0.872511
O O7 0.105447 0.568163 0.960713
O O8 0.107552 0.905931 0.949334
O O9 0.810852 0.985204 0.905054
O O10 0.250094 0.553615 0.536445
O O11 0.375817 0.737131 0.515023
#
# Coordination Sequence:
#
# PCOD8132067 Si02
#       6
#     4   8   8   8   8   8
#     4  10  26  38  60  84 130 170 196 242 318 350
#     4  11  20  38  59  92 121 163 199 253 298 362
#     4  10  19  41  58  85 121 160 195 251 302 358
#     4  10  19  34  61  87 121 152 208 246 298 354
#     4  10  18  35  62  96 113 152 202 259 296 354
#     4  10  19  33  65  91 117 153 205 247 301 358
#
# _framework density 20.637816999999998
#
# number of rings (size 3 to 8) (size 9 to 14) (size 15 to 20)
#    0.000    1.818    3.636    2.182    0.000    2.182 
#    0.000    1.818    4.000    0.000    0.000    0.000 
#    0.000    0.000    0.000    0.000    0.000    0.000 
#
# Total GULP energy -272870.295720 kJ/mol
# GULP energy per Si atom -12403.195260 kJ/mol
# Density = 2.059084 g / cm^3
# Si number density = 20.637817 Si / 1000 Ang^3
#
#
#
# Elastic Constant Matrix: (Units=GPa)
#
#
# Indices 1 2 3 4 5 6 
#
# 1 54.1264 31.0216 30.2960 0.0000 4.2553 0.0000
# 2 31.0216 153.5873 56.5103 0.0000 8.6493 0.0000
# 3 30.2960 56.5103 135.9144 0.0000 10.7610 0.0000
# 4 0.0000 0.0000 0.0000 21.6225 0.0000 -5.8244
# 5 4.2553 8.6493 10.7610 0.0000 27.2541 0.0000
# 6 0.0000 0.0000 0.0000 -5.8244 0.0000 16.7357
#
#
#
# Elastic Compliance Matrix: (Units=1/GPa)
#
#
# Indices 1 2 3 4 5 6 
#
# 1 0.022370 -0.003134 -0.003598 0.000000 -0.001077 0.000000
# 2 -0.003134 0.008165 -0.002612 0.000000 -0.001071 0.000000
# 3 -0.003598 -0.002612 0.009430 0.000000 -0.002333 0.000000
# 4 0.000000 0.000000 0.000000 0.051032 0.000000 0.017760
# 5 -0.001077 -0.001071 -0.002333 0.000000 0.038121 0.000000
# 6 0.000000 0.000000 0.000000 0.017760 0.000000 0.065933
#
#
# Mechanical properties :
#
#
# Convention : Reuss Voigt Hill
#
# Bulk Modulus (GPa) = 46.99605 64.36487 55.68046
# Shear Modulus (GPa) = 22.64170 28.17581 25.40875
#
# Velocity S-wave (km/s) = 3.31584 3.69894 3.51262
# Velocity P-wave (km/s) = 6.12217 7.03551 6.59467
#
# Compressibility (1/GPa) = 0.02127838
#
# Stress axis : x y z
#
# Youngs Moduli (GPa) = 44.70272 122.47243 106.04283
#
# Poissons Ratio (x) = 0.38380 0.38156
# Poissons Ratio (y) = 0.14009 0.27694
# Poissons Ratio (z) = 0.16085 0.31985
#
# Static dielectric constant tensor:
#      x y z
#    x 3.336380 0.000000 -0.056250 
#    y 0.000000 3.707560 0.000000 
#    z -0.056250 0.000000 3.940420 
# 
# 
# High freq. dielectric constant tensor:
#      x y z
#    x 1.766800 0.000000 -0.004750 
#    y 0.000000 1.804800 0.000000 
#    z -0.004750 0.000000 1.823010 
# 
# From -- ./inp_files/159390.got.cif
#   From: 2010.06.25/outbox.cif.g09.slc.cpg/sg15_80_cif.got.tgz:159390.got - 2010.06.28 07:06:18.
