data_PCOD8132381
_publ_section_title
;
Structure prediction by ZEFSAII (Michael W. Deem and Ramdas Pophale) SiO2 
 PCOD8132381
Probable space group: C 2/C
;
_chemical_formula_sum "Si O2"
_cell_formula_units_Z 60
_cell_length_a 15.498003
_cell_length_b 11.865120
_cell_length_c 18.332391
_cell_angle_alpha 90.000000
_cell_angle_beta 87.158974
_cell_angle_gamma 90.000000
_cell_volume 3366.920552
_symmetry_space_group_name_H-M "C 2/C"
_symmetry_group_IT_number 15
_symmetry_cell_setting 'monoclinic'
loop_
_space_group_symop_operation_xyz
x,y,z
-x,y,1/2-z
-x,-y,-z
x,-y,1/2+z
1/2+x,1/2+y,z
1/2-x,1/2+y,1/2-z
1/2-x,1/2-y,-z
1/2+x,1/2-y,1/2+z
loop_
_atom_site_type_symbol
_atom_site_label
_atom_site_fract_x
_atom_site_fract_y
_atom_site_fract_z
Si Si1 0.382670 0.534095 0.067872
Si Si2 0.920601 0.996192 0.404661
Si Si3 0.377619 0.713254 0.811266
Si Si4 0.500000 0.104367 0.250000
Si Si5 0.704698 0.639465 0.177283
Si Si6 0.282662 0.630411 0.674225
Si Si7 0.190295 0.775990 0.838124
Si Si8 0.841463 0.464708 0.207448
O O1 0.481399 0.526409 0.085646
O O2 0.326817 0.436329 0.107399
O O3 0.351266 0.657114 0.093665
O O4 0.369608 0.523532 0.982090
O O5 0.879136 0.101471 0.363816
O O6 0.919313 0.884158 0.356943
O O7 0.445931 0.815096 0.806049
O O8 0.353601 0.663995 0.732463
O O9 0.291228 0.760637 0.851830
O O10 0.434098 0.024198 0.209501
O O11 0.741384 0.755779 0.142904
O O12 0.678715 0.654564 0.263280
O O13 0.777686 0.544020 0.163841
O O14 0.204746 0.557204 0.712465
O O15 0.144839 0.653789 0.834441
#
# Coordination Sequence:
#
# PCOD8132381 Si02
#       8
#     8   8   8   4   8   8   8   8
#     4  11  23  37  53  85 111 149 187 228 266 328
#     4  11  23  36  55  80 116 146 190 226 269 322
#     4  10  19  34  58  82 103 148 181 229 268 332
#     4  12  18  30  58  88 108 128 186 242 276 316
#     4  10  18  37  57  81 109 140 180 231 271 328
#     4  10  19  37  60  80 111 142 187 224 281 332
#     4  10  20  37  58  80 114 140 182 221 281 334
#     4  10  19  33  55  89 107 134 177 232 277 322
#
# _framework density 17.820439
#
# number of rings (size 3 to 8) (size 9 to 14) (size 15 to 20)
#    0.000    1.867    6.667    0.800    0.000    4.800 
#    0.000    0.000    0.000    0.800    0.000    0.000 
#    0.000    0.000    0.000    0.000    0.000    0.000 
#
# Total GULP energy -371977.918633 kJ/mol
# GULP energy per Si atom -12399.263954 kJ/mol
# Density = 1.777988 g / cm^3
# Si number density = 17.820439 Si / 1000 Ang^3
#
#
#
# Elastic Constant Matrix: (Units=GPa)
#
#
# Indices 1 2 3 4 5 6 
#
# 1 76.2510 41.6082 13.6382 0.0000 1.9985 0.0000
# 2 41.6082 122.8431 23.6417 0.0000 -5.0122 0.0000
# 3 13.6382 23.6417 16.2601 0.0000 -1.9010 0.0000
# 4 0.0000 0.0000 0.0000 3.9644 0.0000 -6.8374
# 5 1.9985 -5.0122 -1.9010 0.0000 24.8025 0.0000
# 6 0.0000 0.0000 0.0000 -6.8374 0.0000 37.3686
#
#
#
# Elastic Compliance Matrix: (Units=1/GPa)
#
#
# Indices 1 2 3 4 5 6 
#
# 1 0.017021 -0.004263 -0.008414 0.000000 -0.002878 0.000000
# 2 -0.004263 0.012398 -0.014244 0.000000 0.001757 0.000000
# 3 -0.008414 -0.014244 0.089816 0.000000 0.004684 0.000000
# 4 0.000000 0.000000 0.000000 0.368551 0.000000 0.067434
# 5 -0.002878 0.001757 0.004684 0.000000 0.041264 0.000000
# 6 0.000000 0.000000 0.000000 0.067434 0.000000 0.039099
#
#
# Mechanical properties :
#
#
# Convention : Reuss Voigt Hill
#
# Bulk Modulus (GPa) = 15.29268 41.45893 28.37580
# Shear Modulus (GPa) = 7.76651 22.32485 15.04568
#
# Velocity S-wave (km/s) = 2.08990 3.54328 2.90883
# Velocity P-wave (km/s) = 3.79786 6.32891 5.21914
#
# Compressibility (1/GPa) = 0.06539078
#
# Stress axis : x y z
#
# Youngs Moduli (GPa) = 58.74955 80.66087 11.13387
#
# Poissons Ratio (x) = 0.34389 0.09369
# Poissons Ratio (y) = 0.25047 0.15859
# Poissons Ratio (z) = 0.49434 1.14896
#
# Static dielectric constant tensor:
#      x y z
#    x 3.310430 0.000000 -0.018700 
#    y 0.000000 3.549870 0.000000 
#    z -0.018700 0.000000 3.047810 
# 
# 
# High freq. dielectric constant tensor:
#      x y z
#    x 1.691620 0.000000 -0.000030 
#    y 0.000000 1.711030 0.000000 
#    z -0.000030 0.000000 1.650000 
# 
# From -- ./inp_files/243374.got.cif
#   From: 2010.06.25/outbox.cif.g09.slc.cpg/sg15_122_cif.got.tgz:243374.got - 2010.06.28 07:06:18.
