data_PCOD8132427
_publ_section_title
;
Structure prediction by ZEFSAII (Michael W. Deem and Ramdas Pophale) SiO2 
 PCOD8132427
Probable space group: C 2/C
;
_chemical_formula_sum "Si O2"
_cell_formula_units_Z 44
_cell_length_a 9.902100
_cell_length_b 24.571271
_cell_length_c 10.059974
_cell_angle_alpha 90.000000
_cell_angle_beta 116.619564
_cell_angle_gamma 90.000000
_cell_volume 2188.214723
_symmetry_space_group_name_H-M "C 2/C"
_symmetry_group_IT_number 15
_symmetry_cell_setting 'monoclinic'
loop_
_space_group_symop_operation_xyz
x,y,z
-x,y,1/2-z
-x,-y,-z
x,-y,1/2+z
1/2+x,1/2+y,z
1/2-x,1/2+y,1/2-z
1/2-x,1/2-y,-z
1/2+x,1/2-y,1/2+z
loop_
_atom_site_type_symbol
_atom_site_label
_atom_site_fract_x
_atom_site_fract_y
_atom_site_fract_z
Si Si1 0.044548 0.312212 0.126065
Si Si2 0.000000 0.208429 0.250000
Si Si3 0.328401 0.556738 0.927944
Si Si4 0.324263 0.433950 0.901625
Si Si5 0.169028 0.126715 0.825498
Si Si6 0.277686 0.870637 0.893735
O O1 0.029960 0.246403 0.132830
O O2 0.000000 0.338056 0.250000
O O3 0.216334 0.325396 0.162357
O O4 0.933346 0.336488 0.964744
O O5 0.857448 0.171890 0.155043
O O6 0.267992 0.495083 0.903415
O O7 0.319704 0.577285 0.773328
O O8 0.499018 0.562810 0.058460
O O9 0.221533 0.590685 0.977586
O O10 0.230487 0.407279 0.740873
O O11 0.290354 0.397108 0.013643
O O12 0.000000 0.151623 0.750000
#
# Coordination Sequence:
#
# PCOD8132427 Si02
#       6
#     8   4   8   8   8   8
#     4  10  23  40  64  90 123 163 217 255 308 370
#     4  10  22  40  68  92 114 170 222 254 304 376
#     4  10  18  37  61  92 126 170 204 243 310 391
#     4  10  21  33  62  96 127 160 209 254 312 369
#     4  10  21  40  61  87 131 165 199 262 324 364
#     4  12  20  39  67  92 124 163 217 257 299 378
#
# _framework density 20.107714999999999
#
# number of rings (size 3 to 8) (size 9 to 14) (size 15 to 20)
#    0.545    1.091    3.636    1.636    0.000    3.636 
#    0.000    6.364    0.000    0.000    0.000    0.000 
#    0.000    0.000    0.000    0.000    0.000    0.000 
#
# Total GULP energy -272801.651930 kJ/mol
# GULP energy per Si atom -12400.075088 kJ/mol
# Density = 2.006195 g / cm^3
# Si number density = 20.107715 Si / 1000 Ang^3
#
#
#
# Elastic Constant Matrix: (Units=GPa)
#
#
# Indices 1 2 3 4 5 6 
#
# 1 97.9232 47.4248 35.5966 0.0000 3.6992 0.0000
# 2 47.4248 123.1108 39.9742 0.0000 6.0898 0.0000
# 3 35.5966 39.9742 100.8044 0.0000 -2.7295 0.0000
# 4 0.0000 0.0000 0.0000 26.7341 0.0000 -7.6507
# 5 3.6992 6.0898 -2.7295 0.0000 31.3885 0.0000
# 6 0.0000 0.0000 0.0000 -7.6507 0.0000 6.3971
#
#
#
# Elastic Compliance Matrix: (Units=1/GPa)
#
#
# Indices 1 2 3 4 5 6 
#
# 1 0.013366 -0.004080 -0.003130 0.000000 -0.001056 0.000000
# 2 -0.004080 0.010714 -0.002858 0.000000 -0.001846 0.000000
# 3 -0.003130 -0.002858 0.012213 0.000000 0.001985 0.000000
# 4 0.000000 0.000000 0.000000 0.056870 0.000000 0.068015
# 5 -0.001056 -0.001846 0.001985 0.000000 0.032514 0.000000
# 6 0.000000 0.000000 0.000000 0.068015 0.000000 0.237666
#
#
# Mechanical properties :
#
#
# Convention : Reuss Voigt Hill
#
# Bulk Modulus (GPa) = 61.89780 63.09217 62.49499
# Shear Modulus (GPa) = 12.85795 26.16012 19.50903
#
# Velocity S-wave (km/s) = 2.53148 3.61085 3.11822
# Velocity P-wave (km/s) = 6.27650 6.98781 6.64169
#
# Compressibility (1/GPa) = 0.01615566
#
# Stress axis : x y z
#
# Youngs Moduli (GPa) = 74.81678 93.33779 81.88229
#
# Poissons Ratio (x) = 0.38083 0.25633
# Poissons Ratio (y) = 0.30527 0.23400
# Poissons Ratio (z) = 0.23421 0.26674
#
# Static dielectric constant tensor:
#      x y z
#    x 3.477890 0.000000 0.056220 
#    y 0.000000 3.593330 0.000000 
#    z 0.056220 0.000000 3.660540 
# 
# 
# High freq. dielectric constant tensor:
#      x y z
#    x 1.764070 0.000000 -0.000790 
#    y 0.000000 1.783040 0.000000 
#    z -0.000790 0.000000 1.785270 
# 
# From -- ./inp_files/43356.got.cif
#   From: 2010.06.25/outbox.cif.g09.slc.cpg/sg15_22_cif.got.tgz:43356.got - 2010.06.28 07:06:18.
