data_PCOD8132289
_publ_section_title
;
Structure prediction by ZEFSAII (Michael W. Deem and Ramdas Pophale) SiO2 
 PCOD8132289
Probable space group: C 2/C
;
_chemical_formula_sum "Si O2"
_cell_formula_units_Z 60
_cell_length_a 21.354759
_cell_length_b 8.757045
_cell_length_c 14.602327
_cell_angle_alpha 90.000000
_cell_angle_beta 73.355586
_cell_angle_gamma 90.000000
_cell_volume 2616.287955
_symmetry_space_group_name_H-M "C 2/C"
_symmetry_group_IT_number 15
_symmetry_cell_setting 'monoclinic'
loop_
_space_group_symop_operation_xyz
x,y,z
-x,y,1/2-z
-x,-y,-z
x,-y,1/2+z
1/2+x,1/2+y,z
1/2-x,1/2+y,1/2-z
1/2-x,1/2-y,-z
1/2+x,1/2-y,1/2+z
loop_
_atom_site_type_symbol
_atom_site_label
_atom_site_fract_x
_atom_site_fract_y
_atom_site_fract_z
Si Si1 0.858821 0.786065 0.952654
Si Si2 0.423162 0.770833 0.139486
Si Si3 0.077298 0.981865 0.717736
Si Si4 0.901649 0.311714 0.744319
Si Si5 0.000000 0.530928 0.750000
Si Si6 0.029305 0.665668 0.477010
Si Si7 0.197408 0.515846 0.801496
Si Si8 0.250639 0.725553 0.634373
O O1 0.900298 0.921638 0.890271
O O2 0.908258 0.672669 0.981890
O O3 0.818587 0.702489 0.888149
O O4 0.807838 0.849504 0.049385
O O5 0.398111 0.626420 0.208572
O O6 0.468184 0.722712 0.033171
O O7 0.476661 0.863025 0.177413
O O8 0.362534 0.879905 0.134501
O O9 0.000000 0.999919 0.750000
O O10 0.112118 0.144208 0.712704
O O11 0.939501 0.418649 0.802020
O O12 0.947722 0.297093 0.634697
O O13 0.832051 0.387782 0.753815
O O14 0.000000 0.500000 0.500000
O O15 0.247824 0.628061 0.728993
O O16 0.235799 0.409738 0.859268
#
# Coordination Sequence:
#
# PCOD8132289 Si02
#       8
#     8   8   8   8   4   8   8   8
#     4  11  24  43  68  97 137 181 228 279 347 409
#     4  11  21  39  69  98 132 179 222 273 351 421
#     4  12  23  42  67 101 136 177 216 281 360 412
#     4  11  25  39  64 102 138 173 221 287 339 412
#     4  10  18  36  62  94 132 168 214 268 346 408
#     4  12  21  39  70 104 140 171 230 282 351 418
#     4  11  24  44  68  99 129 185 234 279 338 414
#     4  11  25  44  71  95 134 182 236 287 334 407
#
# _framework density 22.933256
#
# number of rings (size 3 to 8) (size 9 to 14) (size 15 to 20)
#    0.000    0.800    8.000    0.000    3.733    0.533 
#    0.000    0.667    2.933    0.000    0.000    0.000 
#    0.000    0.000    0.000    0.000    0.000    0.000 
#
# Total GULP energy -371746.626983 kJ/mol
# GULP energy per Si atom -12391.554233 kJ/mol
# Density = 2.288106 g / cm^3
# Si number density = 22.933256 Si / 1000 Ang^3
#
#
#
# Elastic Constant Matrix: (Units=GPa)
#
#
# Indices 1 2 3 4 5 6 
#
# 1 88.5282 16.5615 11.8344 0.0000 -1.5864 0.0000
# 2 16.5615 87.8399 2.3406 0.0000 2.5866 0.0000
# 3 11.8344 2.3406 62.2408 0.0000 -17.7485 0.0000
# 4 0.0000 0.0000 0.0000 14.1609 0.0000 -5.7800
# 5 -1.5864 2.5866 -17.7485 0.0000 32.2655 0.0000
# 6 0.0000 0.0000 0.0000 -5.7800 0.0000 29.6030
#
#
#
# Elastic Compliance Matrix: (Units=1/GPa)
#
#
# Indices 1 2 3 4 5 6 
#
# 1 0.012010 -0.002186 -0.002352 0.000000 -0.000528 0.000000
# 2 -0.002186 0.011844 -0.000393 0.000000 -0.001273 0.000000
# 3 -0.002352 -0.000393 0.019575 0.000000 0.010684 0.000000
# 4 0.000000 0.000000 0.000000 0.076732 0.000000 0.014982
# 5 -0.000528 -0.001273 0.010684 0.000000 0.036946 0.000000
# 6 0.000000 0.000000 0.000000 0.014982 0.000000 0.036706
#
#
# Mechanical properties :
#
#
# Convention : Reuss Voigt Hill
#
# Bulk Modulus (GPa) = 29.79044 33.34242 31.56643
# Shear Modulus (GPa) = 23.27057 29.06404 26.16731
#
# Velocity S-wave (km/s) = 3.18890 3.56382 3.38156
# Velocity P-wave (km/s) = 5.15530 5.61292 5.38897
#
# Compressibility (1/GPa) = 0.03356781
#
# Stress axis : x y z
#
# Youngs Moduli (GPa) = 83.26573 84.42752 51.08528
#
# Poissons Ratio (x) = 0.18457 0.12015
# Poissons Ratio (y) = 0.18203 0.02006
# Poissons Ratio (z) = 0.19583 0.03316
#
# Static dielectric constant tensor:
#      x y z
#    x 4.356460 0.000000 -0.057150 
#    y 0.000000 4.128670 0.000000 
#    z -0.057150 0.000000 5.343490 
# 
# 
# High freq. dielectric constant tensor:
#      x y z
#    x 1.916220 0.000000 -0.011010 
#    y 0.000000 1.888080 0.000000 
#    z -0.011010 0.000000 1.888530 
# 
# From -- ./inp_files/171877.got.cif
#   From: 2010.06.25/outbox.cif.g09.slc.cpg/sg15_86_cif.got.tgz:171877.got - 2010.06.28 07:06:18.
