data_PCOD8132059
_publ_section_title
;
Structure prediction by ZEFSAII (Michael W. Deem and Ramdas Pophale) SiO2 
 PCOD8132059
Probable space group: C 2/C
;
_chemical_formula_sum "Si O2"
_cell_formula_units_Z 48
_cell_length_a 8.136450
_cell_length_b 28.599735
_cell_length_c 18.963832
_cell_angle_alpha 90.000000
_cell_angle_beta 32.509601
_cell_angle_gamma 90.000000
_cell_volume 2371.667509
_symmetry_space_group_name_H-M "C 2/C"
_symmetry_group_IT_number 15
_symmetry_cell_setting 'monoclinic'
loop_
_space_group_symop_operation_xyz
x,y,z
-x,y,1/2-z
-x,-y,-z
x,-y,1/2+z
1/2+x,1/2+y,z
1/2-x,1/2+y,1/2-z
1/2-x,1/2-y,-z
1/2+x,1/2-y,1/2+z
loop_
_atom_site_type_symbol
_atom_site_label
_atom_site_fract_x
_atom_site_fract_y
_atom_site_fract_z
Si Si1 0.070008 0.724478 0.145810
Si Si2 0.642842 0.493966 0.121601
Si Si3 0.156139 0.069640 0.367930
Si Si4 0.853285 0.805491 0.138314
Si Si5 0.236360 0.635780 0.290010
Si Si6 0.598696 0.406385 0.044289
O O1 0.000000 0.711731 0.250000
O O2 0.963773 0.777262 0.167800
O O3 0.869496 0.689469 0.170384
O O4 0.431219 0.714955 0.002223
O O5 0.500000 0.499955 0.250000
O O6 0.540825 0.533946 0.105333
O O7 0.534067 0.444840 0.127320
O O8 0.000000 0.500000 0.000000
O O9 0.500000 0.049768 0.250000
O O10 0.158918 0.119652 0.326150
O O11 0.003873 0.076323 0.500054
O O12 0.500000 0.795253 0.250000
O O13 0.902012 0.860426 0.134222
O O14 0.500000 0.627714 0.250000
O O15 0.958893 0.603162 0.415006
#
# Coordination Sequence:
#
# PCOD8132059 Si02
#       6
#     8   8   8   8   8   8
#     4  10  21  39  61  86 118 157 202 247 291 356
#     4  12  25  41  61  89 123 158 202 251 304 361
#     4  10  20  38  62  87 116 157 208 249 291 357
#     4  10  22  39  58  87 121 153 195 246 302 360
#     4  10  18  35  62  88 115 154 204 250 292 348
#     4  10  22  38  58  86 123 157 194 248 307 363
#
# _framework density 20.238925999999999
#
# number of rings (size 3 to 8) (size 9 to 14) (size 15 to 20)
#    0.000    1.667    0.000    7.000    0.000    3.333 
#    0.000    6.667    0.000    0.000    0.000    0.000 
#    0.000    0.000    0.000    0.000    0.000    0.000 
#
# Total GULP energy -297592.648166 kJ/mol
# GULP energy per Si atom -12399.693674 kJ/mol
# Density = 2.019286 g / cm^3
# Si number density = 20.238926 Si / 1000 Ang^3
#
#
#
# Elastic Constant Matrix: (Units=GPa)
#
#
# Indices 1 2 3 4 5 6 
#
# 1 127.5039 50.3233 61.4738 -0.0002 -9.9426 0.0001
# 2 50.3233 128.2760 39.6220 -0.0001 -3.3078 0.0001
# 3 61.4738 39.6220 89.4620 -0.0007 -18.2398 0.0019
# 4 -0.0002 -0.0001 -0.0007 23.2538 0.0002 6.0398
# 5 -9.9426 -3.3078 -18.2398 0.0002 28.2267 -0.0003
# 6 0.0001 0.0001 0.0019 6.0398 -0.0003 13.3576
#
#
#
# Elastic Compliance Matrix: (Units=1/GPa)
#
#
# Indices 1 2 3 4 5 6 
#
# 1 0.012447 -0.002561 -0.007585 0.000000 -0.000817 0.000001
# 2 -0.002561 0.009635 -0.002834 0.000000 -0.001605 0.000000
# 3 -0.007585 -0.002834 0.019618 0.000001 0.009673 -0.000003
# 4 0.000000 0.000000 0.000001 0.048726 0.000000 -0.022032
# 5 -0.000817 -0.001605 0.009673 0.000000 0.041202 -0.000001
# 6 0.000001 0.000000 -0.000003 -0.022032 -0.000001 0.084826
#
#
# Mechanical properties :
#
#
# Convention : Reuss Voigt Hill
#
# Bulk Modulus (GPa) = 63.54213 72.00891 67.77552
# Shear Modulus (GPa) = 20.18889 25.88913 23.03901
#
# Velocity S-wave (km/s) = 3.16179 3.58044 3.37761
# Velocity P-wave (km/s) = 6.69279 7.26287 6.98365
#
# Compressibility (1/GPa) = 0.01573759
#
# Stress axis : x y z
#
# Youngs Moduli (GPa) = 80.33951 103.79324 50.97457
#
# Poissons Ratio (x) = 0.26583 0.38666
# Poissons Ratio (y) = 0.20576 0.14448
# Poissons Ratio (z) = 0.60941 0.29418
#
# Static dielectric constant tensor:
#      x y z
#    x 3.621410 0.000000 0.015640 
#    y 0.000000 3.774060 0.000000 
#    z 0.015640 0.000000 3.654840 
# 
# 
# High freq. dielectric constant tensor:
#      x y z
#    x 1.790720 0.000000 -0.002750 
#    y 0.000000 1.800950 0.000000 
#    z -0.002750 0.000000 1.781740 
# 
# From -- ./inp_files/234749.got.cif
#   From: 2010.06.25/outbox.cif.g09.slc.cpg/sg15_118_cif.got.tgz:234749.got - 2010.06.28 07:06:18.
