data_PCOD8132984
_publ_section_title
;
Structure prediction by ZEFSAII (Michael W. Deem and Ramdas Pophale) SiO2 
 PCOD8132984
Probable space group: C 2/C
;
_chemical_formula_sum "Si O2"
_cell_formula_units_Z 40
_cell_length_a 8.191053
_cell_length_b 23.106583
_cell_length_c 18.764361
_cell_angle_alpha 90.000000
_cell_angle_beta 32.591693
_cell_angle_gamma 90.000000
_cell_volume 1912.999284
_symmetry_space_group_name_H-M "C 2/C"
_symmetry_group_IT_number 15
_symmetry_cell_setting 'monoclinic'
loop_
_space_group_symop_operation_xyz
x,y,z
-x,y,1/2-z
-x,-y,-z
x,-y,1/2+z
1/2+x,1/2+y,z
1/2-x,1/2+y,1/2-z
1/2-x,1/2-y,-z
1/2+x,1/2-y,1/2+z
loop_
_atom_site_type_symbol
_atom_site_label
_atom_site_fract_x
_atom_site_fract_y
_atom_site_fract_z
Si Si1 0.627988 0.959840 0.586777
Si Si2 0.449414 0.449313 0.619116
Si Si3 0.244979 0.248300 0.788001
Si Si4 0.648510 0.673517 0.374162
Si Si5 0.776685 0.166972 0.997440
O O1 0.783648 0.962301 0.606041
O O2 0.266184 0.964895 0.733789
O O3 0.722403 0.901174 0.510397
O O4 0.744170 0.012140 0.493185
O O5 0.535587 0.381047 0.591107
O O6 0.500000 0.230803 0.750000
O O7 0.395066 0.269448 0.658278
O O8 0.026838 0.192902 0.850519
O O9 0.045339 0.301289 0.892609
O O10 0.556955 0.685777 0.489026
O O11 0.000000 0.652598 0.250000
#
# Coordination Sequence:
#
# PCOD8132984 Si02
#       5
#     8   8   8   8   8
#     4   9  15  27  47  74  99 126 160 204 261 296
#     4   9  14  26  47  74  96 128 159 201 258 304
#     4  10  19  31  51  74  94 138 174 199 249 308
#     4   9  15  32  50  68 102 132 159 204 261 291
#     4   9  18  34  50  71 106 130 161 219 252 295
#
# _framework density 20.909573999999999
#
# number of rings (size 3 to 8) (size 9 to 14) (size 15 to 20)
#    0.000    2.800    6.000    0.000    0.000    0.800 
#   10.800    0.000    0.000    1.200    0.000    0.000 
#    0.000    0.000    0.000    0.000    0.000    0.000 
#
# Total GULP energy -247769.656162 kJ/mol
# GULP energy per Si atom -12388.482808 kJ/mol
# Density = 2.086198 g / cm^3
# Si number density = 20.909574 Si / 1000 Ang^3
#
#
#
# Elastic Constant Matrix: (Units=GPa)
#
#
# Indices 1 2 3 4 5 6 
#
# 1 13.1492 -3.4610 3.0399 0.0007 -3.4919 -0.0004
# 2 -3.4610 94.7763 45.7290 0.0013 9.3439 -0.0004
# 3 3.0399 45.7290 78.3612 -0.0018 6.1921 0.0023
# 4 0.0007 0.0013 -0.0018 33.9772 0.0007 6.0564
# 5 -3.4919 9.3439 6.1921 0.0007 15.8104 0.0003
# 6 -0.0004 -0.0004 0.0023 6.0564 0.0003 14.9291
#
#
#
# Elastic Compliance Matrix: (Units=1/GPa)
#
#
# Indices 1 2 3 4 5 6 
#
# 1 0.084043 0.004893 -0.007589 -0.000003 0.018643 0.000004
# 2 0.004893 0.015448 -0.008843 -0.000002 -0.004586 0.000003
# 3 -0.007589 -0.008843 0.018508 0.000002 -0.003699 -0.000004
# 4 -0.000003 -0.000002 0.000002 0.031726 -0.000002 -0.012870
# 5 0.018643 -0.004586 -0.003699 -0.000002 0.071526 0.000000
# 6 0.000004 0.000003 -0.000004 -0.012870 0.000000 0.072204
#
#
# Mechanical properties :
#
#
# Convention : Reuss Voigt Hill
#
# Bulk Modulus (GPa) = 10.53488 30.76695 20.65092
# Shear Modulus (GPa) = 14.36063 22.34194 18.35129
#
# Velocity S-wave (km/s) = 2.62352 3.27234 2.96573
# Velocity P-wave (km/s) = 3.77179 5.38738 4.65028
#
# Compressibility (1/GPa) = 0.09492280
#
# Stress axis : x y z
#
# Youngs Moduli (GPa) = 11.89862 64.73127 54.02972
#
# Poissons Ratio (x) = -0.31670 0.41001
# Poissons Ratio (y) = -0.05821 0.47776
# Poissons Ratio (z) = 0.09029 0.57239
#
# Static dielectric constant tensor:
#      x y z
#    x 3.215680 0.000000 0.262810 
#    y 0.000000 3.791540 0.000010 
#    z 0.262810 0.000010 4.174490 
# 
# 
# High freq. dielectric constant tensor:
#      x y z
#    x 1.753300 0.000000 0.007940 
#    y 0.000000 1.813940 0.000000 
#    z 0.007940 0.000000 1.810770 
# 
# From -- ./inp_files/77749.got.cif
#   From: 2010.06.25/outbox.cif.g09.slc.cpg/sg15_39_cif.got.tgz:77749.got - 2010.06.28 07:06:18.
