data_PCOD8132625
_publ_section_title
;
Structure prediction by ZEFSAII (Michael W. Deem and Ramdas Pophale) SiO2 
 PCOD8132625
Probable space group: C 2/C
;
_chemical_formula_sum "Si O2"
_cell_formula_units_Z 48
_cell_length_a 15.173644
_cell_length_b 11.247526
_cell_length_c 29.310800
_cell_angle_alpha 90.000000
_cell_angle_beta 26.366800
_cell_angle_gamma 90.000000
_cell_volume 2221.626623
_symmetry_space_group_name_H-M "C 2/C"
_symmetry_group_IT_number 15
_symmetry_cell_setting 'monoclinic'
loop_
_space_group_symop_operation_xyz
x,y,z
-x,y,1/2-z
-x,-y,-z
x,-y,1/2+z
1/2+x,1/2+y,z
1/2-x,1/2+y,1/2-z
1/2-x,1/2-y,-z
1/2+x,1/2-y,1/2+z
loop_
_atom_site_type_symbol
_atom_site_label
_atom_site_fract_x
_atom_site_fract_y
_atom_site_fract_z
Si Si1 0.705695 0.061683 0.894328
Si Si2 0.884211 0.096136 0.383959
Si Si3 0.302032 0.826310 0.370903
Si Si4 0.684430 0.976687 0.563965
Si Si5 0.823638 0.428818 0.679029
Si Si6 0.567897 0.266547 0.011949
O O1 0.874708 0.996292 0.846011
O O2 0.732597 0.040991 0.827688
O O3 0.699398 0.200949 0.911479
O O4 0.500000 0.000000 0.000000
O O5 0.776724 0.217894 0.418406
O O6 0.112304 0.126613 0.291147
O O7 0.777961 0.042828 0.477265
O O8 0.500000 0.803623 0.250000
O O9 0.112448 0.838593 0.426326
O O10 0.300804 0.950526 0.396791
O O11 0.446736 0.968274 0.666299
O O12 0.793169 0.851002 0.521934
O O13 0.972104 0.334238 0.587795
#
# Coordination Sequence:
#
# PCOD8132625 Si02
#       6
#     8   8   8   8   8   8
#     4  10  18  38  68  94 126 172 215 260 318 385
#     4  12  22  41  71  98 126 173 228 268 319 385
#     4  12  24  45  67  90 134 181 218 258 333 406
#     4  12  27  41  66 104 133 167 214 285 329 377
#     4  11  22  41  70  98 129 172 225 267 320 386
#     4  11  22  44  67  91 137 175 208 269 335 386
#
# _framework density 21.605791
#
# number of rings (size 3 to 8) (size 9 to 14) (size 15 to 20)
#    0.000    0.667    8.333    2.000    2.333    0.000 
#    0.000    1.667    0.000    0.000    0.000    0.000 
#    0.000    0.000    0.000    0.000    0.000    0.000 
#
# Total GULP energy -297505.994669 kJ/mol
# GULP energy per Si atom -12396.083111 kJ/mol
# Density = 2.155662 g / cm^3
# Si number density = 21.605791 Si / 1000 Ang^3
#
#
#
# Elastic Constant Matrix: (Units=GPa)
#
#
# Indices 1 2 3 4 5 6 
#
# 1 87.1380 27.1122 30.4229 0.0033 -18.0329 -0.0024
# 2 27.1122 77.3560 17.8273 -0.0010 3.5932 -0.0009
# 3 30.4229 17.8273 50.8596 0.0075 -27.5770 0.0021
# 4 0.0033 -0.0010 0.0075 15.4871 -0.0034 -4.6796
# 5 -18.0329 3.5932 -27.5770 -0.0034 35.9812 -0.0029
# 6 -0.0024 -0.0009 0.0021 -4.6796 -0.0029 28.8747
#
#
#
# Elastic Compliance Matrix: (Units=1/GPa)
#
#
# Indices 1 2 3 4 5 6 
#
# 1 0.015627 -0.004338 -0.005725 0.000001 0.003877 0.000002
# 2 -0.004338 0.017141 -0.009446 0.000004 -0.011126 0.000000
# 3 -0.005725 -0.009446 0.043381 -0.000015 0.031323 -0.000003
# 4 0.000001 0.000004 -0.000015 0.067895 -0.000004 0.011004
# 5 0.003877 -0.011126 0.031323 -0.000004 0.054853 0.000002
# 6 0.000002 0.000000 -0.000003 0.011004 0.000002 0.036416
#
#
# Mechanical properties :
#
#
# Convention : Reuss Voigt Hill
#
# Bulk Modulus (GPa) = 26.93078 40.67538 33.80308
# Shear Modulus (GPa) = 17.43936 25.40133 21.42035
#
# Velocity S-wave (km/s) = 2.84414 3.43253 3.15209
# Velocity P-wave (km/s) = 4.82464 5.88019 5.37838
#
# Compressibility (1/GPa) = 0.03713223
#
# Stress axis : x y z
#
# Youngs Moduli (GPa) = 63.99263 58.33868 23.05148
#
# Poissons Ratio (x) = 0.25306 0.13196
# Poissons Ratio (y) = 0.27759 0.21775
# Poissons Ratio (z) = 0.36633 0.55107
#
# Static dielectric constant tensor:
#      x y z
#    x 4.353300 -0.000030 -0.226870 
#    y -0.000030 4.040290 0.000020 
#    z -0.226870 0.000020 3.866090 
# 
# 
# High freq. dielectric constant tensor:
#      x y z
#    x 1.860450 0.000000 -0.022830 
#    y 0.000000 1.832080 0.000000 
#    z -0.022830 0.000000 1.837060 
# 
# From -- ./inp_files/313523.got.cif
#   From: 2010.06.25/outbox.cif.g09.slc.cpg/sg15_157_cif.got.tgz:313523.got - 2010.06.28 07:06:18.
