data_PCOD8132205
_publ_section_title
;
Structure prediction by ZEFSAII (Michael W. Deem and Ramdas Pophale) SiO2 
 PCOD8132205
Probable space group: C 2/C
;
_chemical_formula_sum "Si O2"
_cell_formula_units_Z 44
_cell_length_a 13.078106
_cell_length_b 31.291116
_cell_length_c 13.304145
_cell_angle_alpha 90.000000
_cell_angle_beta 157.680305
_cell_angle_gamma 90.000000
_cell_volume 2067.656065
_symmetry_space_group_name_H-M "C 2/C"
_symmetry_group_IT_number 15
_symmetry_cell_setting 'monoclinic'
loop_
_space_group_symop_operation_xyz
x,y,z
-x,y,1/2-z
-x,-y,-z
x,-y,1/2+z
1/2+x,1/2+y,z
1/2-x,1/2+y,1/2-z
1/2-x,1/2-y,-z
1/2+x,1/2-y,1/2+z
loop_
_atom_site_type_symbol
_atom_site_label
_atom_site_fract_x
_atom_site_fract_y
_atom_site_fract_z
Si Si1 0.500000 0.025291 0.750000
Si Si2 0.127632 0.729298 0.759423
Si Si3 0.259030 0.633602 0.839036
Si Si4 0.415903 0.602727 0.776775
Si Si5 0.726858 0.420488 0.851424
Si Si6 0.622688 0.048368 0.218146
O O1 0.747714 0.054085 0.019128
O O2 0.391153 0.998833 0.746288
O O3 0.230919 0.680995 0.854737
O O4 0.000000 0.742215 0.750000
O O5 0.881198 0.740105 0.459745
O O6 0.382446 0.635635 0.838517
O O7 0.965530 0.613725 0.566565
O O8 0.448486 0.605798 0.086012
O O9 0.500000 0.627439 0.750000
O O10 0.159670 0.572351 0.532012
O O11 0.668669 0.572735 0.023652
O O12 0.767611 0.454017 0.796431
#
# Coordination Sequence:
#
# PCOD8132205 Si02
#       6
#     4   8   8   8   8   8
#     4  12  22  38  56  80 116 158 200 260 286 334
#     4  10  21  39  65  91 113 151 185 223 285 353
#     4  10  22  40  58  85 123 143 192 243 277 359
#     4  10  18  36  59  83 107 158 196 235 290 336
#     4  10  24  37  54  86 113 160 193 239 302 330
#     4  10  21  36  56  76 114 150 208 247 282 341
#
# _framework density 21.280135999999999
#
# number of rings (size 3 to 8) (size 9 to 14) (size 15 to 20)
#    0.000    1.818    1.818    1.636    1.273    3.636 
#    0.000    5.455    0.000    1.091    0.000    0.000 
#    0.000    0.000    0.000    0.000    0.000    0.000 
#
# Total GULP energy -272637.192127 kJ/mol
# GULP energy per Si atom -12392.599642 kJ/mol
# Density = 2.123170 g / cm^3
# Si number density = 21.280136 Si / 1000 Ang^3
#
#
#
# Elastic Constant Matrix: (Units=GPa)
#
#
# Indices 1 2 3 4 5 6 
#
# 1 43.8386 42.2199 42.1118 -0.0001 -0.1953 0.0000
# 2 42.2199 93.3480 38.1534 -0.0001 0.8713 0.0000
# 3 42.1118 38.1534 140.6593 -0.0012 4.2002 -0.0003
# 4 -0.0001 -0.0001 -0.0012 20.6083 -0.0004 5.4785
# 5 -0.1953 0.8713 4.2002 -0.0004 26.2531 -0.0001
# 6 0.0000 0.0000 -0.0003 5.4785 -0.0001 27.8168
#
#
#
# Elastic Compliance Matrix: (Units=1/GPa)
#
#
# Indices 1 2 3 4 5 6 
#
# 1 0.050676 -0.018795 -0.010152 0.000000 0.002625 0.000000
# 2 -0.018795 0.019020 0.000493 0.000000 -0.000850 0.000000
# 3 -0.010152 0.000493 0.010066 0.000001 -0.001702 0.000000
# 4 0.000000 0.000000 0.000001 0.051205 0.000001 -0.010085
# 5 0.002625 -0.000850 -0.001702 0.000001 0.038411 0.000000
# 6 0.000000 0.000000 0.000000 -0.010085 0.000000 0.037936
#
#
# Mechanical properties :
#
#
# Convention : Reuss Voigt Hill
#
# Bulk Modulus (GPa) = 43.75634 58.09067 50.92351
# Shear Modulus (GPa) = 18.39324 25.29301 21.84312
#
# Velocity S-wave (km/s) = 2.94315 3.45131 3.20731
# Velocity P-wave (km/s) = 5.67065 6.57567 6.13985
#
# Compressibility (1/GPa) = 0.02285383
#
# Stress axis : x y z
#
# Youngs Moduli (GPa) = 19.73316 52.57716 99.34633
#
# Poissons Ratio (x) = 0.98820 1.00857
# Poissons Ratio (y) = 0.37089 -0.04902
# Poissons Ratio (z) = 0.20033 -0.02594
#
# Static dielectric constant tensor:
#      x y z
#    x 4.084490 0.000000 -0.087160 
#    y 0.000000 3.389220 0.000000 
#    z -0.087160 0.000000 4.387890 
# 
# 
# High freq. dielectric constant tensor:
#      x y z
#    x 1.833000 0.000000 0.003590 
#    y 0.000000 1.792500 0.000000 
#    z 0.003590 0.000000 1.869020 
# 
# From -- ./inp_files/157570.got.cif
#   From: 2010.06.25/outbox.cif.g09.slc.cpg/sg15_79_cif.got.tgz:157570.got - 2010.06.28 07:06:18.
