data_PCOD8132572
_publ_section_title
;
Structure prediction by ZEFSAII (Michael W. Deem and Ramdas Pophale) SiO2 
 PCOD8132572
Probable space group: C 2/C
;
_chemical_formula_sum "Si O2"
_cell_formula_units_Z 52
_cell_length_a 11.147325
_cell_length_b 15.261566
_cell_length_c 20.703332
_cell_angle_alpha 90.000000
_cell_angle_beta 49.861189
_cell_angle_gamma 90.000000
_cell_volume 2692.643923
_symmetry_space_group_name_H-M "C 2/C"
_symmetry_group_IT_number 15
_symmetry_cell_setting 'monoclinic'
loop_
_space_group_symop_operation_xyz
x,y,z
-x,y,1/2-z
-x,-y,-z
x,-y,1/2+z
1/2+x,1/2+y,z
1/2-x,1/2+y,1/2-z
1/2-x,1/2-y,-z
1/2+x,1/2-y,1/2+z
loop_
_atom_site_type_symbol
_atom_site_label
_atom_site_fract_x
_atom_site_fract_y
_atom_site_fract_z
Si Si1 0.041686 0.083025 0.526535
Si Si2 0.509946 0.607977 0.319274
Si Si3 0.158869 0.785058 0.880725
Si Si4 0.500000 0.277458 0.250000
Si Si5 0.412547 0.910191 0.107094
Si Si6 0.229111 0.488191 0.962786
Si Si7 0.357295 0.416637 0.208399
O O1 0.089747 0.162420 0.464823
O O2 0.883110 0.101486 0.623200
O O3 0.184705 0.061760 0.524956
O O4 0.000000 0.000000 0.500000
O O5 0.500000 0.646811 0.250000
O O6 0.611846 0.672781 0.328310
O O7 0.336929 0.596388 0.409923
O O8 0.583818 0.511742 0.290991
O O9 0.348795 0.782582 0.818988
O O10 0.080569 0.690384 0.916981
O O11 0.459799 0.340259 0.204738
O O12 0.324490 0.912269 0.207056
O O13 0.317480 0.966707 0.088024
O O14 0.584194 0.951163 0.054600
#
# Coordination Sequence:
#
# PCOD8132572 Si02
#       7
#     8   8   8   4   8   8   8
#     4  11  21  38  60  90 119 165 193 246 313 356
#     4  11  19  38  65  84 114 168 199 237 297 372
#     4  11  23  39  62  92 127 145 203 260 300 345
#     4  10  22  40  60  94 116 154 200 262 286 356
#     4  10  22  41  60  94 118 160 207 255 285 357
#     4  10  21  39  65  83 120 166 205 237 300 363
#     4  10  18  38  64  78 122 161 198 233 306 362
#
# _framework density 19.311874
#
# number of rings (size 3 to 8) (size 9 to 14) (size 15 to 20)
#    0.000    1.538    5.385    2.769    0.000    4.308 
#    5.538    0.000    0.000    0.000    0.000    0.000 
#    0.000    0.000    0.000    0.000    0.000    0.000 
#
# Total GULP energy -322298.664919 kJ/mol
# GULP energy per Si atom -12396.102497 kJ/mol
# Density = 1.926792 g / cm^3
# Si number density = 19.311874 Si / 1000 Ang^3
#
#
#
# Elastic Constant Matrix: (Units=GPa)
#
#
# Indices 1 2 3 4 5 6 
#
# 1 48.9904 18.2512 45.2695 -0.0001 -9.0257 0.0001
# 2 18.2512 78.0524 56.4113 0.0000 -13.4110 0.0000
# 3 45.2695 56.4113 171.8177 -0.0001 -3.8668 0.0001
# 4 -0.0001 0.0000 -0.0001 35.4961 0.0000 -1.1098
# 5 -9.0257 -13.4110 -3.8668 0.0000 29.9452 0.0000
# 6 0.0001 0.0000 0.0001 -1.1098 0.0000 27.3976
#
#
#
# Elastic Compliance Matrix: (Units=1/GPa)
#
#
# Indices 1 2 3 4 5 6 
#
# 1 0.028641 -0.000069 -0.007351 0.000000 0.007652 0.000000
# 2 -0.000069 0.018317 -0.005828 0.000000 0.007430 0.000000
# 3 -0.007351 -0.005828 0.009590 0.000000 -0.003588 0.000000
# 4 0.000000 0.000000 0.000000 0.028208 0.000000 0.001143
# 5 0.007652 0.007430 -0.003588 0.000000 0.038565 0.000000
# 6 0.000000 0.000000 0.000000 0.001143 0.000000 0.036546
#
#
# Mechanical properties :
#
#
# Convention : Reuss Voigt Hill
#
# Bulk Modulus (GPa) = 33.27818 59.85826 46.56822
# Shear Modulus (GPa) = 25.46080 30.49634 27.97857
#
# Velocity S-wave (km/s) = 3.63492 3.97816 3.81041
# Velocity P-wave (km/s) = 5.90646 7.22246 6.59735
#
# Compressibility (1/GPa) = 0.03004972
#
# Stress axis : x y z
#
# Youngs Moduli (GPa) = 34.91556 54.59374 104.27793
#
# Poissons Ratio (x) = 0.00379 0.76655
# Poissons Ratio (y) = 0.00242 0.60777
# Poissons Ratio (z) = 0.25666 0.31819
#
# Static dielectric constant tensor:
#      x y z
#    x 3.452150 0.000000 -0.179660 
#    y 0.000000 3.354290 0.000000 
#    z -0.179660 0.000000 3.679400 
# 
# 
# High freq. dielectric constant tensor:
#      x y z
#    x 1.735050 0.000000 -0.002450 
#    y 0.000000 1.744910 0.000000 
#    z -0.002450 0.000000 1.767710 
# 
# From -- ./inp_files/238646.got.cif
#   From: 2010.06.25/outbox.cif.g09.slc.cpg/sg15_120_cif.got.tgz:238646.got - 2010.06.28 07:06:18.
