data_PCOD8132814
_publ_section_title
;
Structure prediction by ZEFSAII (Michael W. Deem and Ramdas Pophale) SiO2 
 PCOD8132814
Probable space group: C 2/C
;
_chemical_formula_sum "Si O2"
_cell_formula_units_Z 40
_cell_length_a 18.812725
_cell_length_b 20.424269
_cell_length_c 13.542881
_cell_angle_alpha 90.000000
_cell_angle_beta 152.114788
_cell_angle_gamma 90.000000
_cell_volume 2433.762747
_symmetry_space_group_name_H-M "C 2/C"
_symmetry_group_IT_number 15
_symmetry_cell_setting 'monoclinic'
loop_
_space_group_symop_operation_xyz
x,y,z
-x,y,1/2-z
-x,-y,-z
x,-y,1/2+z
1/2+x,1/2+y,z
1/2-x,1/2+y,1/2-z
1/2-x,1/2-y,-z
1/2+x,1/2-y,1/2+z
loop_
_atom_site_type_symbol
_atom_site_label
_atom_site_fract_x
_atom_site_fract_y
_atom_site_fract_z
Si Si1 0.086883 0.799487 0.953292
Si Si2 0.889868 0.412139 0.907605
Si Si3 0.787228 0.821629 0.688672
Si Si4 0.947090 0.480149 0.790196
Si Si5 0.810175 0.386808 0.131253
O O1 0.000000 0.773731 0.750000
O O2 0.967585 0.811572 0.895218
O O3 0.213941 0.746030 0.136557
O O4 0.170554 0.868569 0.031913
O O5 0.907925 0.484894 0.977979
O O6 0.031303 0.367119 0.119771
O O7 0.736289 0.376581 0.755181
O O8 0.888489 0.420455 0.786826
O O9 0.704791 0.845747 0.487512
O O10 0.813960 0.535108 0.612565
O O11 0.000000 0.451393 0.750000
#
# Coordination Sequence:
#
# PCOD8132814 Si02
#       5
#     8   8   8   8   8
#     4  10  19  24  41  65  92 120 135 163 220 262
#     4   9  16  27  45  62  83 114 146 172 209 244
#     4  11  17  27  40  65  93 115 138 172 209 260
#     4   9  16  27  47  62  83 113 147 174 206 246
#     4   9  15  27  40  62  89 112 139 171 203 259
#
# _framework density 16.435457
#
# number of rings (size 3 to 8) (size 9 to 14) (size 15 to 20)
#    1.200    1.200    2.000    5.400    0.000    0.000 
#    0.000    1.000    0.000    0.000    0.000    5.600 
#    0.000    0.000    0.000    0.000    0.000    0.000 
#
# Total GULP energy -247768.777436 kJ/mol
# GULP energy per Si atom -12388.438872 kJ/mol
# Density = 1.639805 g / cm^3
# Si number density = 16.435457 Si / 1000 Ang^3
#
#
#
# Elastic Constant Matrix: (Units=GPa)
#
#
# Indices 1 2 3 4 5 6 
#
# 1 150.7831 54.8063 38.5381 0.0000 25.1308 0.0000
# 2 54.8063 54.0275 18.5266 0.0000 14.5436 0.0000
# 3 38.5381 18.5266 32.1055 0.0000 17.9029 0.0000
# 4 0.0000 0.0000 0.0000 10.9379 0.0000 4.0113
# 5 25.1308 14.5436 17.9029 0.0000 28.8855 0.0000
# 6 0.0000 0.0000 0.0000 4.0113 0.0000 25.4196
#
#
#
# Elastic Compliance Matrix: (Units=1/GPa)
#
#
# Indices 1 2 3 4 5 6 
#
# 1 0.012494 -0.009358 -0.009418 0.000000 -0.000321 0.000000
# 2 -0.009358 0.030596 -0.003625 0.000000 -0.005016 0.000000
# 3 -0.009418 -0.003625 0.059532 0.000000 -0.026878 0.000000
# 4 0.000000 0.000000 0.000000 0.097041 0.000000 -0.015313
# 5 -0.000321 -0.005016 -0.026878 0.000000 0.054083 0.000000
# 6 0.000000 0.000000 0.000000 -0.015313 0.000000 0.041756
#
#
# Mechanical properties :
#
#
# Convention : Reuss Voigt Hill
#
# Bulk Modulus (GPa) = 17.29524 51.18424 34.23974
# Shear Modulus (GPa) = 13.90515 21.38493 17.64504
#
# Velocity S-wave (km/s) = 2.91184 3.61105 3.28013
# Velocity P-wave (km/s) = 4.67451 6.97112 5.93496
#
# Compressibility (1/GPa) = 0.05781937
#
# Stress axis : x y z
#
# Youngs Moduli (GPa) = 80.03647 32.68444 16.79756
#
# Poissons Ratio (x) = 0.30587 0.15821
# Poissons Ratio (y) = 0.74901 0.06089
# Poissons Ratio (z) = 0.75381 0.11847
#
# Static dielectric constant tensor:
#      x y z
#    x 3.096700 0.000000 0.270200 
#    y 0.000000 2.875970 0.000000 
#    z 0.270200 0.000000 2.745110 
# 
# 
# High freq. dielectric constant tensor:
#      x y z
#    x 1.623450 0.000000 0.030160 
#    y 0.000000 1.610210 0.000000 
#    z 0.030160 0.000000 1.578870 
# 
# From -- ./inp_files/163468.got.cif
#   From: 2010.06.25/outbox.cif.g09.slc.cpg/sg15_82_cif.got.tgz:163468.got - 2010.06.28 07:06:18.
