data_PCOD8132596
_publ_section_title
;
Structure prediction by ZEFSAII (Michael W. Deem and Ramdas Pophale) SiO2 
 PCOD8132596
Probable space group: C 2/C
;
_chemical_formula_sum "Si O2"
_cell_formula_units_Z 52
_cell_length_a 14.441057
_cell_length_b 15.201793
_cell_length_c 16.553016
_cell_angle_alpha 90.000000
_cell_angle_beta 139.010824
_cell_angle_gamma 90.000000
_cell_volume 2383.523559
_symmetry_space_group_name_H-M "C 2/C"
_symmetry_group_IT_number 15
_symmetry_cell_setting 'monoclinic'
loop_
_space_group_symop_operation_xyz
x,y,z
-x,y,1/2-z
-x,-y,-z
x,-y,1/2+z
1/2+x,1/2+y,z
1/2-x,1/2+y,1/2-z
1/2-x,1/2-y,-z
1/2+x,1/2-y,1/2+z
loop_
_atom_site_type_symbol
_atom_site_label
_atom_site_fract_x
_atom_site_fract_y
_atom_site_fract_z
Si Si1 0.000000 0.613565 0.250000
Si Si2 0.696899 0.854845 0.741719
Si Si3 0.162200 0.181194 0.883442
Si Si4 0.158195 0.969703 0.109622
Si Si5 0.932760 0.416612 0.995972
Si Si6 0.204629 0.328647 0.198079
Si Si7 0.767829 0.509762 0.015184
O O1 0.889531 0.670468 0.232230
O O2 0.919739 0.553922 0.132381
O O3 0.605494 0.850327 0.600864
O O4 0.806429 0.776379 0.798097
O O5 0.761215 0.951401 0.791855
O O6 0.259747 0.155830 0.872076
O O7 0.000000 0.210166 0.750000
O O8 0.250000 0.250000 0.000000
O O9 0.152527 0.086746 0.922887
O O10 0.175847 0.878382 0.169820
O O11 0.216971 0.954170 0.058453
O O12 0.000000 0.000000 0.000000
O O13 0.796565 0.441789 0.960839
O O14 0.054344 0.367639 0.127126
O O15 0.000000 0.500000 0.000000
#
# Coordination Sequence:
#
# PCOD8132596 Si02
#       7
#     4   8   8   8   8   8   8
#     4  10  18  38  66 102 132 168 228 284 372 422
#     4  11  24  39  67  98 134 176 224 292 347 423
#     4  12  26  39  65 110 147 179 228 297 376 440
#     4  11  24  45  66  99 138 179 226 287 357 416
#     4  12  21  44  66  96 131 179 236 277 350 422
#     4  12  26  40  68  99 139 181 224 292 352 424
#     4  11  22  41  71  94 132 187 236 290 346 430
#
# _framework density 21.81644
#
# number of rings (size 3 to 8) (size 9 to 14) (size 15 to 20)
#    0.000    0.615    4.615    3.692    8.615    0.000 
#    0.000    0.769    3.385    0.000    0.000    0.000 
#    0.000    0.000    0.000    0.000    0.000    0.000 
#
# Total GULP energy -322216.707792 kJ/mol
# GULP energy per Si atom -12392.950300 kJ/mol
# Density = 2.176678 g / cm^3
# Si number density = 21.816440 Si / 1000 Ang^3
#
#
#
# Elastic Constant Matrix: (Units=GPa)
#
#
# Indices 1 2 3 4 5 6 
#
# 1 111.6821 46.7094 38.6495 0.0001 -11.3681 0.0000
# 2 46.7094 85.9725 17.2368 0.0001 -10.5962 0.0000
# 3 38.6495 17.2368 108.4999 0.0002 -1.6404 0.0001
# 4 0.0001 0.0001 0.0002 37.4418 0.0001 0.7620
# 5 -11.3681 -10.5962 -1.6404 0.0001 36.7237 0.0000
# 6 0.0000 0.0000 0.0001 0.7620 0.0000 36.8111
#
#
#
# Elastic Compliance Matrix: (Units=1/GPa)
#
#
# Indices 1 2 3 4 5 6 
#
# 1 0.012952 -0.006052 -0.003621 0.000000 0.002101 0.000000
# 2 -0.006052 0.015278 -0.000233 0.000000 0.002524 0.000000
# 3 -0.003621 -0.000233 0.010532 0.000000 -0.000718 0.000000
# 4 0.000000 0.000000 0.000000 0.026719 0.000000 -0.000553
# 5 0.002101 0.002524 -0.000718 0.000000 0.028577 0.000000
# 6 0.000000 0.000000 0.000000 -0.000553 0.000000 0.027177
#
#
# Mechanical properties :
#
#
# Convention : Reuss Voigt Hill
#
# Bulk Modulus (GPa) = 52.76805 56.81622 54.79214
# Shear Modulus (GPa) = 33.92961 35.76591 34.84776
#
# Velocity S-wave (km/s) = 3.94792 4.05335 4.00098
# Velocity P-wave (km/s) = 6.70979 6.92860 6.82007
#
# Compressibility (1/GPa) = 0.01895086
#
# Stress axis : x y z
#
# Youngs Moduli (GPa) = 77.20813 65.45538 94.94455
#
# Poissons Ratio (x) = 0.39614 0.34375
# Poissons Ratio (y) = 0.46727 0.02213
# Poissons Ratio (z) = 0.27953 0.01526
#
# Static dielectric constant tensor:
#      x y z
#    x 4.038270 0.000000 -0.116870 
#    y 0.000000 4.259320 0.000000 
#    z -0.116870 0.000000 3.831430 
# 
# 
# High freq. dielectric constant tensor:
#      x y z
#    x 1.844980 0.000000 -0.012020 
#    y 0.000000 1.853640 0.000000 
#    z -0.012020 0.000000 1.865230 
# 
# From -- ./inp_files/205786.got.cif
#   From: 2010.06.25/outbox.cif.g09.slc.cpg/sg15_103_cif.got.tgz:205786.got - 2010.06.28 07:06:18.
