data_PCOD8132299
_publ_section_title
;
Structure prediction by ZEFSAII (Michael W. Deem and Ramdas Pophale) SiO2 
 PCOD8132299
Probable space group: C 2/C
;
_chemical_formula_sum "Si O2"
_cell_formula_units_Z 48
_cell_length_a 4.978358
_cell_length_b 16.926634
_cell_length_c 23.757030
_cell_angle_alpha 90.000000
_cell_angle_beta 97.685576
_cell_angle_gamma 90.000000
_cell_volume 1983.946397
_symmetry_space_group_name_H-M "C 2/C"
_symmetry_group_IT_number 15
_symmetry_cell_setting 'monoclinic'
loop_
_space_group_symop_operation_xyz
x,y,z
-x,y,1/2-z
-x,-y,-z
x,-y,1/2+z
1/2+x,1/2+y,z
1/2-x,1/2+y,1/2-z
1/2-x,1/2-y,-z
1/2+x,1/2-y,1/2+z
loop_
_atom_site_type_symbol
_atom_site_label
_atom_site_fract_x
_atom_site_fract_y
_atom_site_fract_z
Si Si1 0.000000 0.335496 0.750000
Si Si2 0.777557 0.967926 0.627131
Si Si3 0.460038 0.923547 0.039201
Si Si4 0.861874 0.707944 0.362454
Si Si5 0.400189 0.248189 0.924849
Si Si6 0.585801 0.583171 0.031970
Si Si7 0.500000 0.558221 0.250000
O O1 0.080255 0.277549 0.701390
O O2 0.262193 0.389206 0.770843
O O3 0.605026 0.886406 0.625446
O O4 0.031171 0.953689 0.592079
O O5 0.884425 0.991545 0.693124
O O6 0.584351 0.038137 0.599254
O O7 0.499149 0.829936 0.042114
O O8 0.140094 0.943665 0.021212
O O9 0.618264 0.945652 0.984170
O O10 0.565739 0.738387 0.371399
O O11 0.081805 0.757620 0.403244
O O12 0.443798 0.322090 0.967745
#
# Coordination Sequence:
#
# PCOD8132299 Si02
#       7
#     4   8   8   8   8   8   4
#     4  10  18  36  63  90 109 154 212 254 292 346
#     4  10  23  41  63  91 119 157 207 252 301 358
#     4  12  24  38  61  91 127 161 197 250 308 361
#     4  10  21  38  62  86 118 157 205 252 294 362
#     4  11  22  39  58  88 125 162 196 245 307 362
#     4  11  22  38  61  89 122 162 205 247 292 362
#     4  10  22  38  63  90 119 152 196 258 308 352
#
# _framework density 24.194201
#
# number of rings (size 3 to 8) (size 9 to 14) (size 15 to 20)
#    0.000    1.333    0.000    8.000    0.000    6.667 
#    0.000    0.833    0.000    6.000    0.000    0.000 
#    0.000    0.000    0.000    0.000    0.000    0.000 
#
# Total GULP energy -297614.999352 kJ/mol
# GULP energy per Si atom -12400.624973 kJ/mol
# Density = 2.413913 g / cm^3
# Si number density = 24.194201 Si / 1000 Ang^3
#
#
#
# Elastic Constant Matrix: (Units=GPa)
#
#
# Indices 1 2 3 4 5 6 
#
# 1 133.0606 23.4972 39.7078 0.0000 -3.6254 0.0000
# 2 23.4972 80.8132 23.5324 0.0000 2.5530 0.0000
# 3 39.7078 23.5324 149.7478 0.0000 3.0105 0.0000
# 4 0.0000 0.0000 0.0000 21.1065 0.0000 5.7231
# 5 -3.6254 2.5530 3.0105 0.0000 40.8842 0.0000
# 6 0.0000 0.0000 0.0000 5.7231 0.0000 22.6809
#
#
#
# Elastic Compliance Matrix: (Units=1/GPa)
#
#
# Indices 1 2 3 4 5 6 
#
# 1 0.008469 -0.001923 -0.001964 0.000000 0.001016 0.000000
# 2 -0.001923 0.013422 -0.001581 0.000000 -0.000892 0.000000
# 3 -0.001964 -0.001581 0.007460 0.000000 -0.000625 0.000000
# 4 0.000000 0.000000 0.000000 0.050859 0.000000 -0.012833
# 5 0.001016 -0.000892 -0.000625 0.000000 0.024651 0.000000
# 6 0.000000 0.000000 0.000000 -0.012833 0.000000 0.047328
#
#
# Mechanical properties :
#
#
# Convention : Reuss Voigt Hill
#
# Bulk Modulus (GPa) = 54.30515 59.67736 56.99126
# Shear Modulus (GPa) = 29.54001 35.39327 32.46664
#
# Velocity S-wave (km/s) = 3.49801 3.82891 3.66719
# Velocity P-wave (km/s) = 6.22969 6.65334 6.44500
#
# Compressibility (1/GPa) = 0.01841446
#
# Stress axis : x y z
#
# Youngs Moduli (GPa) = 118.08325 74.50496 134.05319
#
# Poissons Ratio (x) = 0.14324 0.26326
# Poissons Ratio (y) = 0.22702 0.21200
# Poissons Ratio (z) = 0.23190 0.11783
#
# Static dielectric constant tensor:
#      x y z
#    x 4.725070 0.000000 -0.112680 
#    y 0.000000 4.363710 0.000000 
#    z -0.112680 0.000000 4.347830 
# 
# 
# High freq. dielectric constant tensor:
#      x y z
#    x 1.986120 0.000000 -0.007120 
#    y 0.000000 1.948540 0.000000 
#    z -0.007120 0.000000 1.952740 
# 
# From -- ./inp_files/260774.got.cif
#   From: 2010.06.25/outbox.cif.g09.slc.cpg/sg15_131_cif.got.tgz:260774.got - 2010.06.28 07:06:18.
