data_PCOD8132211
_publ_section_title
;
Structure prediction by ZEFSAII (Michael W. Deem and Ramdas Pophale) SiO2 
 PCOD8132211
Probable space group: C 2/C
;
_chemical_formula_sum "Si O2"
_cell_formula_units_Z 56
_cell_length_a 14.501912
_cell_length_b 17.845203
_cell_length_c 13.828666
_cell_angle_alpha 90.000000
_cell_angle_beta 129.354674
_cell_angle_gamma 90.000000
_cell_volume 2767.188902
_symmetry_space_group_name_H-M "C 2/C"
_symmetry_group_IT_number 15
_symmetry_cell_setting 'monoclinic'
loop_
_space_group_symop_operation_xyz
x,y,z
-x,y,1/2-z
-x,-y,-z
x,-y,1/2+z
1/2+x,1/2+y,z
1/2-x,1/2+y,1/2-z
1/2-x,1/2-y,-z
1/2+x,1/2-y,1/2+z
loop_
_atom_site_type_symbol
_atom_site_label
_atom_site_fract_x
_atom_site_fract_y
_atom_site_fract_z
Si Si1 0.278053 0.383833 0.310872
Si Si2 0.373538 0.628860 0.205939
Si Si3 0.548494 0.964016 0.886729
Si Si4 0.958530 0.988276 0.364923
Si Si5 0.311893 0.764223 0.938459
Si Si6 0.711125 0.478163 0.997637
Si Si7 0.480440 0.117411 0.936687
O O1 0.373594 0.415713 0.295834
O O2 0.340874 0.313815 0.405219
O O3 0.260372 0.453929 0.373162
O O4 0.155706 0.359999 0.177835
O O5 0.500000 0.659944 0.250000
O O6 0.387642 0.563659 0.292657
O O7 0.290824 0.694565 0.194625
O O8 0.289677 0.598936 0.062897
O O9 0.500000 0.938447 0.750000
O O10 0.691920 0.962998 0.975767
O O11 0.511082 0.048966 0.886096
O O12 0.505736 0.907021 0.941711
O O13 0.000000 0.000000 0.500000
O O14 0.082502 0.982549 0.387381
O O15 0.250000 0.750000 0.000000
O O16 0.434482 0.811656 0.027497
#
# Coordination Sequence:
#
# PCOD8132211 Si02
#       7
#     8   8   8   8   8   8   8
#     4  11  22  38  60  90 133 162 208 266 319 382
#     4  10  20  35  57  84 119 159 202 248 309 379
#     4  11  21  39  66  92 130 165 220 269 316 378
#     4   9  21  35  57  86 117 161 217 256 303 365
#     4  12  25  38  60  92 137 167 203 255 340 396
#     4  10  18  36  59  88 119 165 204 257 318 369
#     4  11  25  38  62  99 129 169 215 265 324 387
#
# _framework density 20.237143
#
# number of rings (size 3 to 8) (size 9 to 14) (size 15 to 20)
#    0.000    1.429    4.286    0.857    4.000    0.000 
#    0.000    0.000    0.000    6.000    0.000    0.000 
#    0.000    0.000    0.000    0.000    0.000    0.000 
#
# Total GULP energy -347014.121434 kJ/mol
# GULP energy per Si atom -12393.361480 kJ/mol
# Density = 2.019108 g / cm^3
# Si number density = 20.237143 Si / 1000 Ang^3
#
#
#
# Elastic Constant Matrix: (Units=GPa)
#
#
# Indices 1 2 3 4 5 6 
#
# 1 84.3163 52.9358 32.3237 0.0000 19.9380 0.0000
# 2 52.9358 93.3458 28.1671 0.0000 13.1500 0.0000
# 3 32.3237 28.1671 93.3008 0.0000 14.4117 0.0000
# 4 0.0000 0.0000 0.0000 26.7817 0.0000 3.7812
# 5 19.9380 13.1500 14.4117 0.0000 41.4273 0.0000
# 6 0.0000 0.0000 0.0000 3.7812 0.0000 39.8098
#
#
#
# Elastic Compliance Matrix: (Units=1/GPa)
#
#
# Indices 1 2 3 4 5 6 
#
# 1 0.020711 -0.009953 -0.003296 0.000000 -0.005662 0.000000
# 2 -0.009953 0.016851 -0.001641 0.000000 0.000012 0.000000
# 3 -0.003296 -0.001641 0.012713 0.000000 -0.002315 0.000000
# 4 0.000000 0.000000 0.000000 0.037846 0.000000 -0.003595
# 5 -0.005662 0.000012 -0.002315 0.000000 0.027665 0.000000
# 6 0.000000 0.000000 0.000000 -0.003595 0.000000 0.025461
#
#
# Mechanical properties :
#
#
# Convention : Reuss Voigt Hill
#
# Bulk Modulus (GPa) = 48.79224 55.31290 52.05257
# Shear Modulus (GPa) = 28.11222 32.10620 30.10921
#
# Velocity S-wave (km/s) = 3.73116 3.98741 3.86141
# Velocity P-wave (km/s) = 6.53641 6.97072 6.75706
#
# Compressibility (1/GPa) = 0.02049506
#
# Stress axis : x y z
#
# Youngs Moduli (GPa) = 48.28288 59.34524 78.66020
#
# Poissons Ratio (x) = 0.59067 0.25926
# Poissons Ratio (y) = 0.48056 0.12907
# Poissons Ratio (z) = 0.15914 0.09737
#
# Static dielectric constant tensor:
#      x y z
#    x 4.600290 0.000000 0.263580 
#    y 0.000000 3.661720 0.000000 
#    z 0.263580 0.000000 3.726990 
# 
# 
# High freq. dielectric constant tensor:
#      x y z
#    x 1.785970 0.000000 0.018750 
#    y 0.000000 1.757510 0.000000 
#    z 0.018750 0.000000 1.801130 
# 
# From -- ./inp_files/155255.got.cif
#   From: 2010.06.25/outbox.cif.g09.slc.cpg/sg15_78_cif.got.tgz:155255.got - 2010.06.28 07:06:18.
