data_PCOD8132960
_publ_section_title
;
Structure prediction by ZEFSAII (Michael W. Deem and Ramdas Pophale) SiO2 
 PCOD8132960
Probable space group: C 2/C
;
_chemical_formula_sum "Si O2"
_cell_formula_units_Z 52
_cell_length_a 13.875255
_cell_length_b 24.527211
_cell_length_c 9.134567
_cell_angle_alpha 90.000000
_cell_angle_beta 132.348967
_cell_angle_gamma 90.000000
_cell_volume 2297.493252
_symmetry_space_group_name_H-M "C 2/C"
_symmetry_group_IT_number 15
_symmetry_cell_setting 'monoclinic'
loop_
_space_group_symop_operation_xyz
x,y,z
-x,y,1/2-z
-x,-y,-z
x,-y,1/2+z
1/2+x,1/2+y,z
1/2-x,1/2+y,1/2-z
1/2-x,1/2-y,-z
1/2+x,1/2-y,1/2+z
loop_
_atom_site_type_symbol
_atom_site_label
_atom_site_fract_x
_atom_site_fract_y
_atom_site_fract_z
Si Si1 0.647792 0.185811 0.911200
Si Si2 0.933470 0.556947 0.452812
Si Si3 0.369271 0.632602 0.311834
Si Si4 0.716828 0.417492 0.499963
Si Si5 0.210357 0.960913 0.948813
Si Si6 0.500000 0.711106 0.250000
Si Si7 0.302221 0.888626 0.280977
O O1 0.500000 0.162342 0.750000
O O2 0.632081 0.252279 0.904136
O O3 0.725179 0.165869 0.843880
O O4 0.725919 0.159632 0.129043
O O5 0.845169 0.569653 0.222659
O O6 0.850887 0.551652 0.517521
O O7 0.000000 0.500000 0.500000
O O8 0.042618 0.603370 0.564060
O O9 0.380740 0.618107 0.496434
O O10 0.482352 0.674322 0.377798
O O11 0.392299 0.576249 0.246014
O O12 0.660652 0.476710 0.394221
O O13 0.748147 0.381295 0.389606
O O14 0.226677 0.940489 0.132533
#
# Coordination Sequence:
#
# PCOD8132960 Si02
#       7
#     8   8   8   8   8   4   8
#     4   9  20  36  60  80 105 135 187 233 280 320
#     4  11  18  26  43  76 120 154 175 201 268 344
#     4  10  21  39  59  82 108 145 188 228 277 325
#     4  11  20  29  49  80 119 145 170 221 277 340
#     4  10  19  31  48  77 115 150 176 210 261 342
#     4  10  22  42  64  74  96 148 208 242 256 318
#     4  11  18  28  45  80 113 147 171 215 274 339
#
# _framework density 22.633362000000002
#
# number of rings (size 3 to 8) (size 9 to 14) (size 15 to 20)
#    0.462    1.231    3.077    5.077    0.000    0.000 
#    0.000    1.538    0.000    7.385    0.000    0.000 
#    0.000    0.000    0.000    0.000    0.000    0.000 
#
# Total GULP energy -322152.195542 kJ/mol
# GULP energy per Si atom -12390.469059 kJ/mol
# Density = 2.258185 g / cm^3
# Si number density = 22.633362 Si / 1000 Ang^3
#
#
#
# Elastic Constant Matrix: (Units=GPa)
#
#
# Indices 1 2 3 4 5 6 
#
# 1 105.1877 55.5747 36.9022 0.0000 -37.4857 0.0000
# 2 55.5747 137.3993 21.3535 0.0000 -27.0363 0.0000
# 3 36.9022 21.3535 60.5193 0.0000 -38.5293 0.0000
# 4 0.0000 0.0000 0.0000 10.3228 0.0000 -9.0527
# 5 -37.4857 -27.0363 -38.5293 0.0000 44.3145 0.0000
# 6 0.0000 0.0000 0.0000 -9.0527 0.0000 31.0497
#
#
#
# Elastic Compliance Matrix: (Units=1/GPa)
#
#
# Indices 1 2 3 4 5 6 
#
# 1 0.015688 -0.004294 -0.002845 0.000000 0.008177 0.000000
# 2 -0.004294 0.009458 0.001439 0.000000 0.003389 0.000000
# 3 -0.002845 0.001439 0.037578 0.000000 0.031144 0.000000
# 4 0.000000 0.000000 0.000000 0.130150 0.000000 0.037946
# 5 0.008177 0.003389 0.031144 0.000000 0.058628 0.000000
# 6 0.000000 0.000000 0.000000 0.037946 0.000000 0.043270
#
#
# Mechanical properties :
#
#
# Convention : Reuss Voigt Hill
#
# Bulk Modulus (GPa) = 19.48419 58.97413 39.22916
# Shear Modulus (GPa) = 15.46647 29.75579 22.61113
#
# Velocity S-wave (km/s) = 2.61693 3.62980 3.16415
# Velocity P-wave (km/s) = 4.21407 6.60909 5.54249
#
# Compressibility (1/GPa) = 0.05132365
#
# Stress axis : x y z
#
# Youngs Moduli (GPa) = 63.74476 105.72852 26.61123
#
# Poissons Ratio (x) = 0.45401 0.07570
# Poissons Ratio (y) = 0.27373 -0.03829
# Poissons Ratio (z) = 0.18134 -0.15212
#
# Static dielectric constant tensor:
#      x y z
#    x 4.509580 0.000000 0.067770 
#    y 0.000000 4.215030 0.000000 
#    z 0.067770 0.000000 3.917210 
# 
# 
# High freq. dielectric constant tensor:
#      x y z
#    x 1.888820 0.000000 -0.000520 
#    y 0.000000 1.883570 0.000000 
#    z -0.000520 0.000000 1.870270 
# 
# From -- ./inp_files/43233.got.cif
#   From: 2010.06.25/outbox.cif.g09.slc.cpg/sg15_22_cif.got.tgz:43233.got - 2010.06.28 07:06:18.
