data_PCOD8132525
_publ_section_title
;
Structure prediction by ZEFSAII (Michael W. Deem and Ramdas Pophale) SiO2 
 PCOD8132525
Probable space group: C 2/C
;
_chemical_formula_sum "Si O2"
_cell_formula_units_Z 60
_cell_length_a 10.863880
_cell_length_b 12.898920
_cell_length_c 20.291653
_cell_angle_alpha 90.000000
_cell_angle_beta 71.895419
_cell_angle_gamma 90.000000
_cell_volume 2702.736423
_symmetry_space_group_name_H-M "C 2/C"
_symmetry_group_IT_number 15
_symmetry_cell_setting 'monoclinic'
loop_
_space_group_symop_operation_xyz
x,y,z
-x,y,1/2-z
-x,-y,-z
x,-y,1/2+z
1/2+x,1/2+y,z
1/2-x,1/2+y,1/2-z
1/2-x,1/2-y,-z
1/2+x,1/2-y,1/2+z
loop_
_atom_site_type_symbol
_atom_site_label
_atom_site_fract_x
_atom_site_fract_y
_atom_site_fract_z
Si Si1 0.475072 0.619618 0.627496
Si Si2 0.500000 0.728975 0.750000
Si Si3 0.281504 0.729053 0.236016
Si Si4 0.139397 0.564290 0.839323
Si Si5 0.293579 0.522869 0.428835
Si Si6 0.260232 0.253990 0.108553
Si Si7 0.643746 0.038891 0.580450
Si Si8 0.748292 0.021956 0.196612
O O1 0.550068 0.664427 0.678066
O O2 0.562056 0.527308 0.579977
O O3 0.415275 0.711103 0.588725
O O4 0.341719 0.576808 0.680657
O O5 0.372985 0.791888 0.749754
O O6 0.349417 0.815378 0.180650
O O7 0.308490 0.745329 0.308552
O O8 0.338433 0.620674 0.199643
O O9 0.254598 0.532039 0.868009
O O10 0.143307 0.498108 0.771477
O O11 0.009970 0.538868 0.900825
O O12 0.272526 0.646858 0.424098
O O13 0.206744 0.487736 0.505229
O O14 0.189975 0.342998 0.079241
O O15 0.681525 0.967406 0.636494
#
# Coordination Sequence:
#
# PCOD8132525 Si02
#       8
#     8   4   8   8   8   8   8   8
#     4  10  21  41  65  94 129 166 223 275 327 409
#     4  10  18  38  60  92 126 154 214 276 320 384
#     4  11  22  38  65  97 124 164 217 276 336 386
#     4  12  23  44  64  95 133 167 222 278 325 405
#     4  12  24  45  68  92 135 183 214 272 346 400
#     4  10  23  42  66  98 127 172 219 278 339 393
#     4  11  26  43  63  96 133 175 218 268 333 410
#     4  11  23  41  65  97 125 169 218 275 338 382
#
# _framework density 22.199722000000001
#
# number of rings (size 3 to 8) (size 9 to 14) (size 15 to 20)
#    0.000    1.067    6.667    1.200    3.733    2.133 
#    2.400    0.667    0.000    0.000    0.000    0.000 
#    0.000    0.000    0.000    0.000    0.000    0.000 
#
# Total GULP energy -371669.000668 kJ/mol
# GULP energy per Si atom -12388.966689 kJ/mol
# Density = 2.214919 g / cm^3
# Si number density = 22.199722 Si / 1000 Ang^3
#
#
#
# Elastic Constant Matrix: (Units=GPa)
#
#
# Indices 1 2 3 4 5 6 
#
# 1 55.5171 2.5810 9.2529 0.0000 -11.0086 0.0000
# 2 2.5810 94.5474 13.8625 0.0000 0.3360 0.0000
# 3 9.2529 13.8625 87.1648 0.0000 -11.1085 0.0000
# 4 0.0000 0.0000 0.0000 25.1826 0.0000 6.4615
# 5 -11.0086 0.3360 -11.1085 0.0000 30.8495 0.0000
# 6 0.0000 0.0000 0.0000 6.4615 0.0000 31.0923
#
#
#
# Elastic Compliance Matrix: (Units=1/GPa)
#
#
# Indices 1 2 3 4 5 6 
#
# 1 0.019525 -0.000384 -0.001177 0.000000 0.006548 0.000000
# 2 -0.000384 0.010854 -0.001801 0.000000 -0.000904 0.000000
# 3 -0.001177 -0.001801 0.012402 0.000000 0.004065 0.000000
# 4 0.000000 0.000000 0.000000 0.041947 0.000000 -0.008717
# 5 0.006548 -0.000904 0.004065 0.000000 0.036226 0.000000
# 6 0.000000 0.000000 0.000000 -0.008717 0.000000 0.033974
#
#
# Mechanical properties :
#
#
# Convention : Reuss Voigt Hill
#
# Bulk Modulus (GPa) = 27.73295 32.06912 29.90103
# Shear Modulus (GPa) = 28.79025 31.52708 30.15867
#
# Velocity S-wave (km/s) = 3.60512 3.77258 3.68980
# Velocity P-wave (km/s) = 5.46340 5.78391 5.62594
#
# Compressibility (1/GPa) = 0.03605819
#
# Stress axis : x y z
#
# Youngs Moduli (GPa) = 51.21677 92.12851 80.63244
#
# Poissons Ratio (x) = 0.03535 0.09492
# Poissons Ratio (y) = 0.01965 0.14519
# Poissons Ratio (z) = 0.06029 0.16589
#
# Static dielectric constant tensor:
#      x y z
#    x 3.869010 0.000000 0.141140 
#    y 0.000000 4.088220 0.000000 
#    z 0.141140 0.000000 3.859770 
# 
# 
# High freq. dielectric constant tensor:
#      x y z
#    x 1.862230 0.000000 0.011190 
#    y 0.000000 1.876870 0.000000 
#    z 0.011190 0.000000 1.862880 
# 
# From -- ./inp_files/198280.got.cif
#   From: 2010.06.25/outbox.cif.g09.slc.cpg/sg15_100_cif.got.tgz:198280.got - 2010.06.28 07:06:18.
