data_PCOD8132361
_publ_section_title
;
Structure prediction by ZEFSAII (Michael W. Deem and Ramdas Pophale) SiO2 
 PCOD8132361
Probable space group: C 2/C
;
_chemical_formula_sum "Si O2"
_cell_formula_units_Z 52
_cell_length_a 24.889970
_cell_length_b 20.283971
_cell_length_c 13.209512
_cell_angle_alpha 90.000000
_cell_angle_beta 23.176544
_cell_angle_gamma 90.000000
_cell_volume 2624.709577
_symmetry_space_group_name_H-M "C 2/C"
_symmetry_group_IT_number 15
_symmetry_cell_setting 'monoclinic'
loop_
_space_group_symop_operation_xyz
x,y,z
-x,y,1/2-z
-x,-y,-z
x,-y,1/2+z
1/2+x,1/2+y,z
1/2-x,1/2+y,1/2-z
1/2-x,1/2-y,-z
1/2+x,1/2-y,1/2+z
loop_
_atom_site_type_symbol
_atom_site_label
_atom_site_fract_x
_atom_site_fract_y
_atom_site_fract_z
Si Si1 0.844963 0.086744 0.760405
Si Si2 0.500000 0.270436 0.250000
Si Si3 0.371276 0.151995 0.040877
Si Si4 0.412128 0.616259 0.029278
Si Si5 0.358951 0.965098 0.715305
Si Si6 0.773049 0.769311 0.345190
Si Si7 0.862069 0.015482 0.527067
O O1 0.840350 0.159554 0.721372
O O2 0.821244 0.036512 0.710152
O O3 0.001011 0.080135 0.532468
O O4 0.724379 0.070760 0.049305
O O5 0.498860 0.320017 0.155839
O O6 0.370710 0.223657 0.464297
O O7 0.242853 0.142952 0.185129
O O8 0.396431 0.087449 0.064527
O O9 0.358615 0.213864 0.138653
O O10 0.500000 0.166962 0.750000
O O11 0.392446 0.563137 0.973914
O O12 0.500000 0.000000 0.500000
O O13 0.262648 0.023540 0.835891
O O14 0.750000 0.750000 0.500000
O O15 0.000000 0.052645 0.250000
#
# Coordination Sequence:
#
# PCOD8132361 Si02
#       7
#     8   4   8   8   8   8   8
#     4  12  23  40  67  92 126 171 215 262 319 383
#     4  10  18  36  68  86 112 160 214 254 296 380
#     4  10  23  41  65  91 127 166 212 264 321 386
#     4  10  18  38  65  87 113 166 212 248 313 383
#     4  11  25  39  61  94 133 169 208 261 328 383
#     4  11  21  40  64  91 119 161 217 254 303 378
#     4  11  23  38  60  92 124 159 215 264 310 381
#
# _framework density 19.811715
#
# number of rings (size 3 to 8) (size 9 to 14) (size 15 to 20)
#    0.000    1.231    5.385    1.385    4.308    1.846 
#    0.000    0.769    0.000    0.000    0.000    0.000 
#    0.000    0.000    0.000    0.000    0.000    0.000 
#
# Total GULP energy -322126.460966 kJ/mol
# GULP energy per Si atom -12389.479268 kJ/mol
# Density = 1.976662 g / cm^3
# Si number density = 19.811715 Si / 1000 Ang^3
#
#
#
# Elastic Constant Matrix: (Units=GPa)
#
#
# Indices 1 2 3 4 5 6 
#
# 1 98.4365 34.4259 63.1923 -0.0020 -12.6540 0.0015
# 2 34.4259 62.8852 41.9548 -0.0062 -11.2880 0.0040
# 3 63.1923 41.9548 141.9423 -0.0030 -7.0343 0.0021
# 4 -0.0020 -0.0062 -0.0030 19.8554 0.0016 -1.7327
# 5 -12.6540 -11.2880 -7.0343 0.0016 39.8284 -0.0011
# 6 0.0015 0.0040 0.0021 -1.7327 -0.0011 36.1914
#
#
#
# Elastic Compliance Matrix: (Units=1/GPa)
#
#
# Indices 1 2 3 4 5 6 
#
# 1 0.015571 -0.004357 -0.005508 -0.000001 0.002739 0.000000
# 2 -0.004357 0.021908 -0.004334 0.000005 0.004059 -0.000002
# 3 -0.005508 -0.004334 0.010725 0.000000 -0.001084 0.000000
# 4 -0.000001 0.000005 0.000000 0.050575 -0.000001 0.002421
# 5 0.002739 0.004059 -0.001084 -0.000001 0.026937 0.000000
# 6 0.000000 -0.000002 0.000000 0.002421 0.000000 0.027747
#
#
# Mechanical properties :
#
#
# Convention : Reuss Voigt Hill
#
# Bulk Modulus (GPa) = 50.49702 64.71225 57.60463
# Shear Modulus (GPa) = 26.53020 30.08779 28.30899
#
# Velocity S-wave (km/s) = 3.66336 3.90126 3.78418
# Velocity P-wave (km/s) = 6.59071 7.28201 6.94497
#
# Compressibility (1/GPa) = 0.01980315
#
# Stress axis : x y z
#
# Youngs Moduli (GPa) = 64.22141 45.64590 93.24120
#
# Poissons Ratio (x) = 0.19890 0.51362
# Poissons Ratio (y) = 0.27984 0.40414
# Poissons Ratio (z) = 0.35376 0.19784
#
# Static dielectric constant tensor:
#      x y z
#    x 3.606300 0.000000 -0.304080 
#    y 0.000000 3.608340 0.000000 
#    z -0.304080 0.000000 3.735120 
# 
# 
# High freq. dielectric constant tensor:
#      x y z
#    x 1.767470 0.000000 -0.018410 
#    y 0.000000 1.760760 0.000000 
#    z -0.018410 0.000000 1.773480 
# 
# From -- ./inp_files/178998.got.cif
#   From: 2010.06.25/outbox.cif.g09.slc.cpg/sg15_90_cif.got.tgz:178998.got - 2010.06.28 07:06:18.
