data_PCOD8132785
_publ_section_title
;
Structure prediction by ZEFSAII (Michael W. Deem and Ramdas Pophale) SiO2 
 PCOD8132785
Probable space group: C 2/C
;
_chemical_formula_sum "Si O2"
_cell_formula_units_Z 52
_cell_length_a 11.436885
_cell_length_b 13.582601
_cell_length_c 21.429384
_cell_angle_alpha 90.000000
_cell_angle_beta 129.870996
_cell_angle_gamma 90.000000
_cell_volume 2554.894534
_symmetry_space_group_name_H-M "C 2/C"
_symmetry_group_IT_number 15
_symmetry_cell_setting 'monoclinic'
loop_
_space_group_symop_operation_xyz
x,y,z
-x,y,1/2-z
-x,-y,-z
x,-y,1/2+z
1/2+x,1/2+y,z
1/2-x,1/2+y,1/2-z
1/2-x,1/2-y,-z
1/2+x,1/2-y,1/2+z
loop_
_atom_site_type_symbol
_atom_site_label
_atom_site_fract_x
_atom_site_fract_y
_atom_site_fract_z
Si Si1 0.000000 0.673913 0.250000
Si Si2 0.862501 0.475745 0.604548
Si Si3 0.874609 0.835705 0.290660
Si Si4 0.181648 0.060274 0.925104
Si Si5 0.168014 0.476505 0.142740
Si Si6 0.640351 0.371954 0.844109
Si Si7 0.835112 0.661611 0.666448
O O1 0.089853 0.605686 0.329381
O O2 0.120259 0.741865 0.253850
O O3 0.747583 0.424952 0.516780
O O4 0.776111 0.566447 0.608758
O O5 0.001119 0.527435 0.614573
O O6 0.792043 0.927766 0.230612
O O7 0.781001 0.807337 0.319472
O O8 0.046864 0.862631 0.368253
O O9 0.316022 0.079110 0.919305
O O10 0.118263 0.947758 0.894449
O O11 0.214917 0.590629 0.147733
O O12 0.500000 0.374942 0.750000
O O13 0.659422 0.259775 0.875130
O O14 0.000000 0.633159 0.750000
#
# Coordination Sequence:
#
# PCOD8132785 Si02
#       7
#     4   8   8   8   8   8   8
#     4  12  24  42  62  92 118 178 204 258 302 380
#     4  12  24  41  62  93 135 154 207 254 325 356
#     4  12  21  43  66  86 125 162 222 246 308 371
#     4  10  22  40  66  93 122 165 205 262 301 367
#     4  10  18  42  64  92 119 170 201 256 301 378
#     4   9  18  37  63  90 116 159 212 244 308 357
#     4  11  23  38  61  93 121 164 202 263 302 376
#
# _framework density 20.353090999999999
#
# number of rings (size 3 to 8) (size 9 to 14) (size 15 to 20)
#    0.923    0.308    5.385    1.385    0.000    1.846 
#    0.000    0.000    0.000    0.000    0.000    0.000 
#    0.000    0.000    0.000    0.000    0.000    0.000 
#
# Total GULP energy -322178.363245 kJ/mol
# GULP energy per Si atom -12391.475509 kJ/mol
# Density = 2.030677 g / cm^3
# Si number density = 20.353091 Si / 1000 Ang^3
#
#
#
# Elastic Constant Matrix: (Units=GPa)
#
#
# Indices 1 2 3 4 5 6 
#
# 1 96.4238 17.3299 17.7818 0.0000 -7.4677 0.0000
# 2 17.3299 90.8738 36.3517 0.0000 -1.2171 0.0000
# 3 17.7818 36.3517 114.1888 0.0000 -11.1976 0.0000
# 4 0.0000 0.0000 0.0000 12.1030 0.0000 0.4147
# 5 -7.4677 -1.2171 -11.1976 0.0000 17.9135 0.0000
# 6 0.0000 0.0000 0.0000 0.4147 0.0000 9.7701
#
#
#
# Elastic Compliance Matrix: (Units=1/GPa)
#
#
# Indices 1 2 3 4 5 6 
#
# 1 0.011144 -0.001759 -0.000779 0.000000 0.004039 0.000000
# 2 -0.001759 0.012940 -0.004081 0.000000 -0.002405 0.000000
# 3 -0.000779 -0.004081 0.010780 0.000000 0.006136 0.000000
# 4 0.000000 0.000000 0.000000 0.082744 0.000000 -0.003512
# 5 0.004039 -0.002405 0.006136 0.000000 0.061180 0.000000
# 6 0.000000 0.000000 0.000000 -0.003512 0.000000 0.102502
#
#
# Mechanical properties :
#
#
# Convention : Reuss Voigt Hill
#
# Bulk Modulus (GPa) = 46.24533 49.37924 47.81229
# Shear Modulus (GPa) = 16.57067 23.29218 19.93143
#
# Velocity S-wave (km/s) = 2.85644 3.38658 3.13274
# Velocity P-wave (km/s) = 5.80085 6.29332 6.05210
#
# Compressibility (1/GPa) = 0.02162380
#
# Stress axis : x y z
#
# Youngs Moduli (GPa) = 89.73780 77.27842 92.76606
#
# Poissons Ratio (x) = 0.13596 0.07228
# Poissons Ratio (y) = 0.15788 0.37862
# Poissons Ratio (z) = 0.06992 0.31540
#
# Static dielectric constant tensor:
#      x y z
#    x 3.637810 0.000000 -0.118330 
#    y 0.000000 3.816440 0.000000 
#    z -0.118330 0.000000 3.449030 
# 
# 
# High freq. dielectric constant tensor:
#      x y z
#    x 1.784440 0.000000 -0.007030 
#    y 0.000000 1.797920 0.000000 
#    z -0.007030 0.000000 1.774980 
# 
# From -- ./inp_files/238826.got.cif
#   From: 2010.06.25/outbox.cif.g09.slc.cpg/sg15_120_cif.got.tgz:238826.got - 2010.06.28 07:06:18.
