data_PCOD8132749
_publ_section_title
;
Structure prediction by ZEFSAII (Michael W. Deem and Ramdas Pophale) SiO2 
 PCOD8132749
Probable space group: C 2/C
;
_chemical_formula_sum "Si O2"
_cell_formula_units_Z 48
_cell_length_a 9.252593
_cell_length_b 23.238921
_cell_length_c 10.803242
_cell_angle_alpha 90.000000
_cell_angle_beta 86.220457
_cell_angle_gamma 90.000000
_cell_volume 2317.863909
_symmetry_space_group_name_H-M "C 2/C"
_symmetry_group_IT_number 15
_symmetry_cell_setting 'monoclinic'
loop_
_space_group_symop_operation_xyz
x,y,z
-x,y,1/2-z
-x,-y,-z
x,-y,1/2+z
1/2+x,1/2+y,z
1/2-x,1/2+y,1/2-z
1/2-x,1/2-y,-z
1/2+x,1/2-y,1/2+z
loop_
_atom_site_type_symbol
_atom_site_label
_atom_site_fract_x
_atom_site_fract_y
_atom_site_fract_z
Si Si1 0.536147 0.706489 0.607829
Si Si2 0.728465 0.118191 0.953837
Si Si3 0.937449 0.044904 0.102007
Si Si4 0.155542 0.063365 0.780970
Si Si5 0.332344 0.626877 0.471338
Si Si6 0.472985 0.838782 0.611627
O O1 0.500000 0.690146 0.750000
O O2 0.695270 0.680454 0.569849
O O3 0.419758 0.680921 0.519250
O O4 0.530504 0.774449 0.590074
O O5 0.725919 0.081192 0.827231
O O6 0.811106 0.082626 0.052758
O O7 0.564215 0.124026 0.008542
O O8 0.868971 0.006480 0.217378
O O9 0.068558 0.089231 0.130136
O O10 0.000000 0.000000 0.000000
O O11 0.209605 0.086075 0.910402
O O12 0.000000 0.091617 0.750000
O O13 0.195518 0.652280 0.407498
O O14 0.500000 0.859564 0.750000
#
# Coordination Sequence:
#
# PCOD8132749 Si02
#       6
#     8   8   8   8   8   8
#     4  10  18  40  68  92 118 161 209 248 297 368
#     4  11  20  40  65  90 124 160 201 252 308 360
#     4   9  19  35  65  92 110 151 210 248 298 354
#     4  11  18  37  68  94 110 153 215 256 291 354
#     4  10  19  39  63  92 122 161 200 250 301 364
#     4  11  26  39  56  90 137 165 192 252 313 355
#
# _framework density 20.708721000000001
#
# number of rings (size 3 to 8) (size 9 to 14) (size 15 to 20)
#    0.000    1.667    6.667    1.000    0.000    2.000 
#    0.000    5.833    7.333    0.000    0.000    0.000 
#    0.000    0.000    0.000    0.000    0.000    0.000 
#
# Total GULP energy -297448.493419 kJ/mol
# GULP energy per Si atom -12393.687226 kJ/mol
# Density = 2.066159 g / cm^3
# Si number density = 20.708721 Si / 1000 Ang^3
#
#
#
# Elastic Constant Matrix: (Units=GPa)
#
#
# Indices 1 2 3 4 5 6 
#
# 1 68.4637 11.9810 34.3172 0.0000 -5.9869 0.0000
# 2 11.9810 79.1953 33.4682 0.0000 -15.0761 0.0000
# 3 34.3172 33.4682 96.7592 0.0000 -6.0790 0.0000
# 4 0.0000 0.0000 0.0000 34.4792 0.0000 -1.8046
# 5 -5.9869 -15.0761 -6.0790 0.0000 36.0395 0.0000
# 6 0.0000 0.0000 0.0000 -1.8046 0.0000 16.2625
#
#
#
# Elastic Compliance Matrix: (Units=1/GPa)
#
#
# Indices 1 2 3 4 5 6 
#
# 1 0.017904 0.000365 -0.006347 0.000000 0.002056 0.000000
# 2 0.000365 0.015906 -0.005265 0.000000 0.005826 0.000000
# 3 -0.006347 -0.005265 0.014355 0.000000 -0.000836 0.000000
# 4 0.000000 0.000000 0.000000 0.029172 0.000000 0.003237
# 5 0.002056 0.005826 -0.000836 0.000000 0.030385 0.000000
# 6 0.000000 0.000000 0.000000 0.003237 0.000000 0.061850
#
#
# Mechanical properties :
#
#
# Convention : Reuss Voigt Hill
#
# Bulk Modulus (GPa) = 38.95552 44.88346 41.91949
# Shear Modulus (GPa) = 24.92237 28.33302 26.62769
#
# Velocity S-wave (km/s) = 3.47287 3.70289 3.58972
# Velocity P-wave (km/s) = 5.91043 6.32476 6.12110
#
# Compressibility (1/GPa) = 0.02567031
#
# Stress axis : x y z
#
# Youngs Moduli (GPa) = 55.85477 62.86927 69.66376
#
# Poissons Ratio (x) = -0.02296 0.44215
# Poissons Ratio (y) = -0.02040 0.36680
# Poissons Ratio (z) = 0.35450 0.33102
#
# Static dielectric constant tensor:
#      x y z
#    x 3.375530 0.000000 -0.073680 
#    y 0.000000 1.170350 0.000000 
#    z -0.073680 0.000000 3.816340 
# 
# 
# High freq. dielectric constant tensor:
#      x y z
#    x 1.777360 0.000000 -0.000770 
#    y 0.000000 1.822350 0.000000 
#    z -0.000770 0.000000 1.813030 
# 
# From -- ./inp_files/80253.got.cif
#   From: 2010.06.25/outbox.cif.g09.slc.cpg/sg15_41_cif.got.tgz:80253.got - 2010.06.28 07:06:18.
