data_PCOD8132738
_publ_section_title
;
Structure prediction by ZEFSAII (Michael W. Deem and Ramdas Pophale) SiO2 
 PCOD8132738
Probable space group: C 2/C
;
_chemical_formula_sum "Si O2"
_cell_formula_units_Z 40
_cell_length_a 13.492169
_cell_length_b 18.396918
_cell_length_c 20.414696
_cell_angle_alpha 90.000000
_cell_angle_beta 159.743829
_cell_angle_gamma 90.000000
_cell_volume 1754.363300
_symmetry_space_group_name_H-M "C 2/C"
_symmetry_group_IT_number 15
_symmetry_cell_setting 'monoclinic'
loop_
_space_group_symop_operation_xyz
x,y,z
-x,y,1/2-z
-x,-y,-z
x,-y,1/2+z
1/2+x,1/2+y,z
1/2-x,1/2+y,1/2-z
1/2-x,1/2-y,-z
1/2+x,1/2-y,1/2+z
loop_
_atom_site_type_symbol
_atom_site_label
_atom_site_fract_x
_atom_site_fract_y
_atom_site_fract_z
Si Si1 0.000000 0.953166 0.750000
Si Si2 0.970630 0.355469 0.459155
Si Si3 0.000000 0.415663 0.750000
Si Si4 0.177253 0.389257 0.721308
Si Si5 0.447626 0.468668 0.348723
Si Si6 0.191021 0.784955 0.032614
O O1 0.264522 0.901932 0.900978
O O2 0.934441 0.003756 0.647537
O O3 0.953033 0.360902 0.527521
O O4 0.019047 0.271647 0.471464
O O5 0.693193 0.389136 0.251113
O O6 0.949597 0.369160 0.785566
O O7 0.714174 0.463106 0.563398
O O8 0.216198 0.476277 0.736794
O O9 0.491113 0.355258 0.903261
O O10 0.500000 0.809921 0.250000
O O11 0.250000 0.750000 0.000000
#
# Coordination Sequence:
#
# PCOD8132738 Si02
#       6
#     4   8   4   8   8   8
#     4  10  18  40  66  96 126 174 226 280 320 404
#     4  11  22  43  68  98 127 181 229 266 333 405
#     4  12  26  42  58 102 140 176 224 282 340 386
#     4  11  25  43  67  99 136 181 226 274 340 395
#     4  11  23  40  67  95 137 177 225 274 335 396
#     4  12  24  44  72 101 133 171 228 283 335 398
#
# _framework density 22.800294999999998
#
# number of rings (size 3 to 8) (size 9 to 14) (size 15 to 20)
#    0.000    0.800    3.000    6.600    4.200    0.000 
#    0.000    5.000    0.000    0.000    0.000    0.000 
#    0.000    0.000    0.000    0.000    0.000    0.000 
#
# Total GULP energy -247997.866675 kJ/mol
# GULP energy per Si atom -12399.893334 kJ/mol
# Density = 2.274840 g / cm^3
# Si number density = 22.800295 Si / 1000 Ang^3
#
#
#
# Elastic Constant Matrix: (Units=GPa)
#
#
# Indices 1 2 3 4 5 6 
#
# 1 135.9095 5.3459 8.8413 -0.6321 -17.8337 -0.4158
# 2 5.3459 65.4684 19.4911 -0.3350 0.1654 -0.3242
# 3 8.8413 19.4911 116.9726 -0.0528 -16.3395 -0.3501
# 4 -0.6321 -0.3350 -0.0528 21.8406 -0.5277 -6.6591
# 5 -17.8337 0.1654 -16.3395 -0.5277 30.1458 -0.3660
# 6 -0.4158 -0.3242 -0.3501 -6.6591 -0.3660 15.9525
#
#
#
# Elastic Compliance Matrix: (Units=1/GPa)
#
#
# Indices 1 2 3 4 5 6 
#
# 1 0.008016 -0.000720 0.000196 0.000497 0.004867 0.000518
# 2 -0.000720 0.016217 -0.002940 0.000264 -0.002100 0.000308
# 3 0.000196 -0.002940 0.009786 0.000232 0.005445 0.000382
# 4 0.000497 0.000264 0.000232 0.052551 0.001605 0.021997
# 5 0.004867 -0.002100 0.005445 0.001605 0.039064 0.001770
# 6 0.000518 0.000308 0.000382 0.021997 0.001770 0.071937
#
#
# Mechanical properties :
#
#
# Convention : Reuss Voigt Hill
#
# Bulk Modulus (GPa) = 36.91403 42.85637 39.88520
# Shear Modulus (GPa) = 23.41604 32.56592 27.99098
#
# Velocity S-wave (km/s) = 3.20817 3.78340 3.50760
# Velocity P-wave (km/s) = 5.47252 6.15814 5.82542
#
# Compressibility (1/GPa) = 0.02708997
#
# Stress axis : x y z
#
# Youngs Moduli (GPa) = 124.75096 61.66421 102.18747
#
# Poissons Ratio (x) = 0.04440 -0.02000
# Poissons Ratio (y) = 0.08982 0.30044
# Poissons Ratio (z) = -0.02442 0.18130
#
# Static dielectric constant tensor:
#      x y z
#    x 6.079150 0.000130 -0.678970 
#    y 0.000130 4.076300 0.000010 
#    z -0.678970 0.000010 4.265670 
# 
# 
# High freq. dielectric constant tensor:
#      x y z
#    x 1.908800 0.000000 -0.012450 
#    y 0.000000 1.874570 -0.000050 
#    z -0.012450 -0.000050 1.907020 
# 
# From -- ./inp_files/40571.got.cif
#   From: 2010.06.25/outbox.cif.g09.slc.cpg/sg15_21_cif.got.tgz:40571.got - 2010.06.28 07:06:18.
