data_PCOD8132779
_publ_section_title
;
Structure prediction by ZEFSAII (Michael W. Deem and Ramdas Pophale) SiO2 
 PCOD8132779
Probable space group: C 2/C
;
_chemical_formula_sum "Si O2"
_cell_formula_units_Z 52
_cell_length_a 11.762323
_cell_length_b 22.206814
_cell_length_c 9.514089
_cell_angle_alpha 90.000000
_cell_angle_beta 104.650700
_cell_angle_gamma 90.000000
_cell_volume 2404.313741
_symmetry_space_group_name_H-M "C 2/C"
_symmetry_group_IT_number 15
_symmetry_cell_setting 'monoclinic'
loop_
_space_group_symop_operation_xyz
x,y,z
-x,y,1/2-z
-x,-y,-z
x,-y,1/2+z
1/2+x,1/2+y,z
1/2-x,1/2+y,1/2-z
1/2-x,1/2-y,-z
1/2+x,1/2-y,1/2+z
loop_
_atom_site_type_symbol
_atom_site_label
_atom_site_fract_x
_atom_site_fract_y
_atom_site_fract_z
Si Si1 0.185025 0.923655 0.387485
Si Si2 0.244678 0.022857 0.203878
Si Si3 0.392084 0.140321 0.041510
Si Si4 0.000000 0.456514 0.750000
Si Si5 0.577862 0.763699 0.545143
Si Si6 0.000000 0.203297 0.250000
Si Si7 0.240397 0.847591 0.766593
Si Si8 0.000000 0.170917 0.750000
O O1 0.187972 0.960263 0.535736
O O2 0.307505 0.888406 0.397438
O O3 0.084783 0.873623 0.362066
O O4 0.169298 0.970130 0.252942
O O5 0.382454 0.003165 0.229632
O O6 0.245826 0.081394 0.306655
O O7 0.485311 0.088862 0.113360
O O8 0.457672 0.198904 0.011450
O O9 0.308075 0.161809 0.141955
O O10 0.577465 0.739469 0.387263
O O11 0.693562 0.805334 0.598760
O O12 0.572495 0.711475 0.661659
O O13 0.898368 0.165685 0.296457
#
# Coordination Sequence:
#
# PCOD8132779 Si02
#       8
#     8   8   8   4   8   4   8   4
#     4  10  25  39  65 101 124 171 218 259 336 381
#     4  10  21  43  65  93 133 165 218 271 316 397
#     4  10  18  41  70  93 117 175 227 263 317 393
#     4   8  15  36  65  90 115 167 216 260 324 366
#     4  12  22  44  67  93 130 169 225 285 312 393
#     4  12  28  35  59 102 138 164 206 276 356 376
#     4  10  21  43  65  91 129 183 211 268 333 389
#     4  12  25  43  72  92 123 187 230 256 306 418
#
# _framework density 21.627791999999999
#
# number of rings (size 3 to 8) (size 9 to 14) (size 15 to 20)
#    0.000    1.846    4.615    2.308    2.154    6.154 
#    2.769    0.000    0.000    0.000    0.000    0.000 
#    0.000    0.000    0.000    0.000    0.000    0.000 
#
# Total GULP energy -322159.390603 kJ/mol
# GULP energy per Si atom -12390.745792 kJ/mol
# Density = 2.157857 g / cm^3
# Si number density = 21.627792 Si / 1000 Ang^3
#
#
#
# Elastic Constant Matrix: (Units=GPa)
#
#
# Indices 1 2 3 4 5 6 
#
# 1 67.1793 26.0731 13.0158 0.0000 8.1009 0.0000
# 2 26.0731 89.0720 29.3501 0.0000 3.1517 0.0000
# 3 13.0158 29.3501 86.2147 0.0000 8.1001 0.0000
# 4 0.0000 0.0000 0.0000 27.7924 0.0000 7.2544
# 5 8.1009 3.1517 8.1001 0.0000 26.6907 0.0000
# 6 0.0000 0.0000 0.0000 7.2544 0.0000 15.9100
#
#
#
# Elastic Compliance Matrix: (Units=1/GPa)
#
#
# Indices 1 2 3 4 5 6 
#
# 1 0.017384 -0.004735 -0.000586 0.000000 -0.004539 0.000000
# 2 -0.004735 0.013936 -0.004127 0.000000 0.001044 0.000000
# 3 -0.000586 -0.004127 0.013412 0.000000 -0.003405 0.000000
# 4 0.000000 0.000000 0.000000 0.040842 0.000000 -0.018622
# 5 -0.004539 0.001044 -0.003405 0.000000 0.039754 0.000000
# 6 0.000000 0.000000 0.000000 -0.018622 0.000000 0.071344
#
#
# Mechanical properties :
#
#
# Convention : Reuss Voigt Hill
#
# Bulk Modulus (GPa) = 38.70630 42.14932 40.42781
# Shear Modulus (GPa) = 22.30332 25.68043 23.99187
#
# Velocity S-wave (km/s) = 3.21477 3.44958 3.33424
# Velocity P-wave (km/s) = 5.63161 5.94953 5.79275
#
# Compressibility (1/GPa) = 0.02583559
#
# Stress axis : x y z
#
# Youngs Moduli (GPa) = 57.52369 71.75674 74.55738
#
# Poissons Ratio (x) = 0.33976 0.04370
# Poissons Ratio (y) = 0.27237 0.30773
# Poissons Ratio (z) = 0.03371 0.29618
#
# Static dielectric constant tensor:
#      x y z
#    x 4.079190 0.000000 0.292920 
#    y 0.000000 3.992980 0.000000 
#    z 0.292920 0.000000 3.701790 
# 
# 
# High freq. dielectric constant tensor:
#      x y z
#    x 1.847950 0.000000 0.019540 
#    y 0.000000 1.843150 0.000000 
#    z 0.019540 0.000000 1.830050 
# 
# From -- ./inp_files/33750.got.cif
#   From: 2010.06.25/outbox.cif.g09.slc.cpg/sg15_17_cif.got.tgz:33750.got - 2010.06.28 07:06:18.
