data_PCOD8132239
_publ_section_title
;
Structure prediction by ZEFSAII (Michael W. Deem and Ramdas Pophale) SiO2 
 PCOD8132239
Probable space group: C 2/C
;
_chemical_formula_sum "Si O2"
_cell_formula_units_Z 52
_cell_length_a 14.668502
_cell_length_b 16.734438
_cell_length_c 17.450161
_cell_angle_alpha 90.000000
_cell_angle_beta 143.292538
_cell_angle_gamma 90.000000
_cell_volume 2560.360214
_symmetry_space_group_name_H-M "C 2/C"
_symmetry_group_IT_number 15
_symmetry_cell_setting 'monoclinic'
loop_
_space_group_symop_operation_xyz
x,y,z
-x,y,1/2-z
-x,-y,-z
x,-y,1/2+z
1/2+x,1/2+y,z
1/2-x,1/2+y,1/2-z
1/2-x,1/2-y,-z
1/2+x,1/2-y,1/2+z
loop_
_atom_site_type_symbol
_atom_site_label
_atom_site_fract_x
_atom_site_fract_y
_atom_site_fract_z
Si Si1 0.962629 0.166286 0.874736
Si Si2 0.655682 0.875792 0.231868
Si Si3 0.794474 0.383929 0.592732
Si Si4 0.969810 0.448458 0.851227
Si Si5 0.828171 0.245923 0.135960
Si Si6 0.554035 0.821146 0.536847
Si Si7 0.000000 0.244456 0.750000
O O1 0.828652 0.112360 0.819378
O O2 0.991367 0.246492 0.941766
O O3 0.919709 0.189631 0.759369
O O4 0.113483 0.112391 0.972429
O O5 0.660282 0.835202 0.319120
O O6 0.568856 0.958991 0.170571
O O7 0.563842 0.817537 0.113049
O O8 0.849843 0.405984 0.714780
O O9 0.860217 0.443142 0.571354
O O10 0.864560 0.296698 0.620555
O O11 0.959841 0.404956 0.926811
O O12 0.726719 0.188946 0.122050
O O13 0.000000 0.209980 0.250000
O O14 0.750000 0.250000 0.000000
#
# Coordination Sequence:
#
# PCOD8132239 Si02
#       7
#     8   8   8   8   8   8   4
#     4  11  22  36  63  96 120 159 208 263 306 381
#     4  11  25  40  64  92 129 169 211 267 324 389
#     4  10  21  36  62  91 123 161 205 249 318 389
#     4  10  23  41  60  90 130 175 199 254 335 390
#     4  11  24  43  68  96 122 172 233 276 312 376
#     4  11  22  40  65  91 130 162 214 264 326 375
#     4  10  18  36  60  88 126 150 198 254 316 372
#
# _framework density 20.309643000000001
#
# number of rings (size 3 to 8) (size 9 to 14) (size 15 to 20)
#    0.000    1.538    4.615    1.846    6.462    0.615 
#    0.000    1.538    0.000    0.000    0.000    0.000 
#    0.000    0.000    0.000    0.000    0.000    0.000 
#
# Total GULP energy -322355.459132 kJ/mol
# GULP energy per Si atom -12398.286890 kJ/mol
# Density = 2.026342 g / cm^3
# Si number density = 20.309643 Si / 1000 Ang^3
#
#
#
# Elastic Constant Matrix: (Units=GPa)
#
#
# Indices 1 2 3 4 5 6 
#
# 1 139.4626 44.8694 65.8459 -0.0011 15.9564 -0.0003
# 2 44.8694 71.4142 37.1785 -0.0027 -1.7893 -0.0013
# 3 65.8459 37.1785 108.2704 -0.0071 9.7535 -0.0033
# 4 -0.0011 -0.0027 -0.0071 16.5808 -0.0040 0.6050
# 5 15.9564 -1.7893 9.7535 -0.0040 52.7919 -0.0015
# 6 -0.0003 -0.0013 -0.0033 0.6050 -0.0015 21.1251
#
#
#
# Elastic Compliance Matrix: (Units=1/GPa)
#
#
# Indices 1 2 3 4 5 6 
#
# 1 0.011340 -0.004535 -0.005102 -0.000003 -0.002639 -0.000001
# 2 -0.004535 0.019014 -0.004019 0.000002 0.002758 0.000001
# 3 -0.005102 -0.004019 0.013822 0.000005 -0.001148 0.000002
# 4 -0.000003 0.000002 0.000005 0.060374 0.000005 -0.001729
# 5 -0.002639 0.002758 -0.001148 0.000005 0.020045 0.000001
# 6 -0.000001 0.000001 0.000002 -0.001729 0.000001 0.047387
#
#
# Mechanical properties :
#
#
# Convention : Reuss Voigt Hill
#
# Bulk Modulus (GPa) = 59.29798 68.32608 63.81203
# Shear Modulus (GPa) = 24.40029 29.51645 26.95837
#
# Velocity S-wave (km/s) = 3.46990 3.81638 3.64726
# Velocity P-wave (km/s) = 6.73157 7.28937 7.01601
#
# Compressibility (1/GPa) = 0.01686398
#
# Stress axis : x y z
#
# Youngs Moduli (GPa) = 88.18310 52.59318 72.34659
#
# Poissons Ratio (x) = 0.23852 0.36908
# Poissons Ratio (y) = 0.39992 0.29079
# Poissons Ratio (z) = 0.44987 0.21139
#
# Static dielectric constant tensor:
#      x y z
#    x 4.099520 0.000000 -0.019920 
#    y 0.000000 3.370900 0.000000 
#    z -0.019920 0.000000 3.617760 
# 
# 
# High freq. dielectric constant tensor:
#      x y z
#    x 1.815540 0.000000 -0.003590 
#    y 0.000000 1.759210 0.000000 
#    z -0.003590 0.000000 1.791200 
# 
# From -- ./inp_files/205797.got.cif
#   From: 2010.06.25/outbox.cif.g09.slc.cpg/sg15_103_cif.got.tgz:205797.got - 2010.06.28 07:06:18.
