data_PCOD8132022
_publ_section_title
;
Structure prediction by ZEFSAII (Michael W. Deem and Ramdas Pophale) SiO2 
 PCOD8132022
Probable space group: C 2/C
;
_chemical_formula_sum "Si O2"
_cell_formula_units_Z 36
_cell_length_a 6.881617
_cell_length_b 17.649136
_cell_length_c 17.288632
_cell_angle_alpha 90.000000
_cell_angle_beta 118.281485
_cell_angle_gamma 90.000000
_cell_volume 1849.133662
_symmetry_space_group_name_H-M "C 2/C"
_symmetry_group_IT_number 15
_symmetry_cell_setting 'monoclinic'
loop_
_space_group_symop_operation_xyz
x,y,z
-x,y,1/2-z
-x,-y,-z
x,-y,1/2+z
1/2+x,1/2+y,z
1/2-x,1/2+y,1/2-z
1/2-x,1/2-y,-z
1/2+x,1/2-y,1/2+z
loop_
_atom_site_type_symbol
_atom_site_label
_atom_site_fract_x
_atom_site_fract_y
_atom_site_fract_z
Si Si1 0.500000 0.323204 0.250000
Si Si2 0.241857 0.405677 0.569432
Si Si3 0.086888 0.842190 0.519404
Si Si4 0.724015 0.923920 0.087433
Si Si5 0.446883 0.776192 0.877554
O O1 0.313301 0.374914 0.175496
O O2 0.629122 0.271330 0.211652
O O3 0.459960 0.383889 0.563992
O O4 0.265089 0.487890 0.612866
O O5 0.034191 0.404671 0.471559
O O6 0.211259 0.347190 0.634899
O O7 0.148025 0.904794 0.467187
O O8 0.305511 0.803742 0.595175
O O9 0.940265 0.776316 0.452836
#
# Coordination Sequence:
#
# PCOD8132022 Si02
#       5
#     4   8   8   8   8
#     4  10  20  40  50  74 124 150 164 230 292 314
#     4  10  18  35  60  83 101 143 197 224 258 337
#     4   9  17  34  57  80 102 141 183 225 271 324
#     4   9  20  35  57  78 114 144 178 228 280 324
#     4   9  19  33  54  78 108 142 180 224 272 325
#
# _framework density 19.468577
#
# number of rings (size 3 to 8) (size 9 to 14) (size 15 to 20)
#    0.000    2.667    0.000    2.667    0.000    0.000 
#    4.000    8.889    0.000    0.000    0.000    0.000 
#    0.000    0.000    0.000    0.000    0.000    0.000 
#
# Total GULP energy -223211.523951 kJ/mol
# GULP energy per Si atom -12400.640219 kJ/mol
# Density = 1.942427 g / cm^3
# Si number density = 19.468577 Si / 1000 Ang^3
#
#
#
# Elastic Constant Matrix: (Units=GPa)
#
#
# Indices 1 2 3 4 5 6 
#
# 1 73.6906 36.0939 28.3025 0.0000 -14.3651 0.0000
# 2 36.0939 139.9568 48.8861 0.0000 -10.9347 0.0000
# 3 28.3025 48.8861 88.0647 0.0000 -9.7697 0.0000
# 4 0.0000 0.0000 0.0000 30.4192 0.0000 -4.5114
# 5 -14.3651 -10.9347 -9.7697 0.0000 15.0358 0.0000
# 6 0.0000 0.0000 0.0000 -4.5114 0.0000 31.8115
#
#
#
# Elastic Compliance Matrix: (Units=1/GPa)
#
#
# Indices 1 2 3 4 5 6 
#
# 1 0.018774 -0.002706 -0.002974 0.000000 0.014036 0.000000
# 2 -0.002706 0.009428 -0.004192 0.000000 0.001547 0.000000
# 3 -0.002974 -0.004192 0.015071 0.000000 0.003902 0.000000
# 4 0.000000 0.000000 0.000000 0.033580 0.000000 0.004762
# 5 0.014036 0.001547 0.003902 0.000000 0.083579 0.000000
# 6 0.000000 0.000000 0.000000 0.004762 0.000000 0.032111
#
#
# Mechanical properties :
#
#
# Convention : Reuss Voigt Hill
#
# Bulk Modulus (GPa) = 42.50254 58.69745 50.60000
# Shear Modulus (GPa) = 22.71364 28.01526 25.36445
#
# Velocity S-wave (km/s) = 3.41938 3.79753 3.61340
# Velocity P-wave (km/s) = 6.12113 7.03161 6.59211
#
# Compressibility (1/GPa) = 0.02352800
#
# Stress axis : x y z
#
# Youngs Moduli (GPa) = 53.26424 106.06442 66.35099
#
# Poissons Ratio (x) = 0.28703 0.19735
# Poissons Ratio (y) = 0.14414 0.27817
# Poissons Ratio (z) = 0.15843 0.44467
#
# Static dielectric constant tensor:
#      x y z
#    x 3.270810 0.000000 0.023980 
#    y 0.000000 3.825390 0.000000 
#    z 0.023980 0.000000 3.266430 
# 
# 
# High freq. dielectric constant tensor:
#      x y z
#    x 1.741000 0.000000 -0.004070 
#    y 0.000000 1.780450 0.000000 
#    z -0.004070 0.000000 1.728380 
# 
# From -- ./inp_files/128747.got.cif
#   From: 2010.06.25/outbox.cif.g09.slc.cpg/sg15_65_cif.got.tgz:128747.got - 2010.06.28 07:06:18.
