data_PCOD8132932
_publ_section_title
;
Structure prediction by ZEFSAII (Michael W. Deem and Ramdas Pophale) SiO2 
 PCOD8132932
Probable space group: C 2/C
;
_chemical_formula_sum "Si O2"
_cell_formula_units_Z 64
_cell_length_a 24.243926
_cell_length_b 12.818660
_cell_length_c 12.068615
_cell_angle_alpha 90.000000
_cell_angle_beta 80.446273
_cell_angle_gamma 90.000000
_cell_volume 3698.599945
_symmetry_space_group_name_H-M "C 2/C"
_symmetry_group_IT_number 15
_symmetry_cell_setting 'monoclinic'
loop_
_space_group_symop_operation_xyz
x,y,z
-x,y,1/2-z
-x,-y,-z
x,-y,1/2+z
1/2+x,1/2+y,z
1/2-x,1/2+y,1/2-z
1/2-x,1/2-y,-z
1/2+x,1/2-y,1/2+z
loop_
_atom_site_type_symbol
_atom_site_label
_atom_site_fract_x
_atom_site_fract_y
_atom_site_fract_z
Si Si1 0.450366 0.377034 0.012039
Si Si2 0.381417 0.648418 0.729155
Si Si3 0.246983 0.895841 0.577158
Si Si4 0.618156 0.422399 0.678845
Si Si5 0.231302 0.822767 0.341848
Si Si6 0.160557 0.784273 0.046974
Si Si7 0.226634 0.622972 0.900814
Si Si8 0.428729 0.613321 0.078064
O O1 0.413250 0.371451 0.914622
O O2 0.511871 0.330534 0.966024
O O3 0.427722 0.311298 0.125983
O O4 0.445611 0.493091 0.062152
O O5 0.395672 0.544634 0.796752
O O6 0.326730 0.623667 0.673749
O O7 0.368789 0.738956 0.823982
O O8 0.183572 0.903472 0.640477
O O9 0.252886 0.882256 0.443119
O O10 0.276419 0.799750 0.629749
O O11 0.281548 0.998833 0.597390
O O12 0.594708 0.359728 0.792704
O O13 0.274077 0.835749 0.225178
O O14 0.216595 0.850978 0.051100
O O15 0.174394 0.676194 0.981180
O O16 0.119256 0.855708 0.990481
#
# Coordination Sequence:
#
# PCOD8132932 Si02
#       8
#     8   8   8   8   8   8   8   8
#     4  10  19  31  46  71 103 139 173 206 269 316
#     4  10  19  32  49  69 105 137 170 215 256 320
#     4  11  20  33  52  74 106 140 174 223 264 320
#     4  11  18  31  50  67 104 141 169 209 261 316
#     4  10  21  32  48  78 101 136 183 213 269 315
#     4  10  19  34  47  75  96 135 184 207 262 315
#     4  10  21  34  53  72 104 143 175 220 264 326
#     4  10  20  29  47  72 102 137 174 213 252 326
#
# _framework density 17.303844000000002
#
# number of rings (size 3 to 8) (size 9 to 14) (size 15 to 20)
#    0.000    1.750    5.000    1.125    1.750    3.500 
#    0.000    0.000    0.000    0.000    0.000    0.875 
#    0.000    0.500    0.000    0.000    0.000    0.000 
#
# Total GULP energy -396575.219991 kJ/mol
# GULP energy per Si atom -12392.975625 kJ/mol
# Density = 1.726446 g / cm^3
# Si number density = 17.303844 Si / 1000 Ang^3
#
#
#
# Elastic Constant Matrix: (Units=GPa)
#
#
# Indices 1 2 3 4 5 6 
#
# 1 52.8480 7.6512 42.0901 0.0000 -15.2266 0.0000
# 2 7.6512 61.8205 37.1725 0.0000 -4.4494 0.0000
# 3 42.0901 37.1725 157.5055 0.0000 -15.3381 0.0000
# 4 0.0000 0.0000 0.0000 20.1688 0.0000 -2.6527
# 5 -15.2266 -4.4494 -15.3381 0.0000 20.3058 0.0000
# 6 0.0000 0.0000 0.0000 -2.6527 0.0000 15.5438
#
#
#
# Elastic Compliance Matrix: (Units=1/GPa)
#
#
# Indices 1 2 3 4 5 6 
#
# 1 0.028676 0.001500 -0.006359 0.000000 0.017028 0.000000
# 2 0.001500 0.018942 -0.004704 0.000000 0.001723 0.000000
# 3 -0.006359 -0.004704 0.009276 0.000000 0.001208 0.000000
# 4 0.000000 0.000000 0.000000 0.050720 0.000000 0.008656
# 5 0.017028 0.001723 0.001208 0.000000 0.063306 0.000000
# 6 0.000000 0.000000 0.000000 0.008656 0.000000 0.065812
#
#
# Mechanical properties :
#
#
# Convention : Reuss Voigt Hill
#
# Bulk Modulus (GPa) = 26.47654 49.55574 38.01614
# Shear Modulus (GPa) = 18.62571 23.55436 21.09004
#
# Velocity S-wave (km/s) = 3.28440 3.69348 3.49493
# Velocity P-wave (km/s) = 5.45135 6.84761 6.18898
#
# Compressibility (1/GPa) = 0.03776929
#
# Stress axis : x y z
#
# Youngs Moduli (GPa) = 34.87284 52.79139 107.80568
#
# Poissons Ratio (x) = -0.07919 0.68551
# Poissons Ratio (y) = -0.05231 0.50708
# Poissons Ratio (z) = 0.22175 0.24831
#
# Static dielectric constant tensor:
#      x y z
#    x 3.219530 0.000000 -0.265210 
#    y 0.000000 2.925740 0.000000 
#    z -0.265210 0.000000 3.742270 
# 
# 
# High freq. dielectric constant tensor:
#      x y z
#    x 1.644780 0.000000 -0.003900 
#    y 0.000000 1.611380 0.000000 
#    z -0.003900 0.000000 1.703500 
# 
# From -- ./inp_files/122439.got.cif
#   From: 2010.06.25/outbox.cif.g09.slc.cpg/sg15_62_cif.got.tgz:122439.got - 2010.06.28 07:06:18.
