data_PCOD8132288
_publ_section_title
;
Structure prediction by ZEFSAII (Michael W. Deem and Ramdas Pophale) SiO2 
 PCOD8132288
Probable space group: C 2/C
;
_chemical_formula_sum "Si O2"
_cell_formula_units_Z 44
_cell_length_a 9.050197
_cell_length_b 28.582333
_cell_length_c 9.256344
_cell_angle_alpha 90.000000
_cell_angle_beta 117.030297
_cell_angle_gamma 90.000000
_cell_volume 2132.843502
_symmetry_space_group_name_H-M "C 2/C"
_symmetry_group_IT_number 15
_symmetry_cell_setting 'monoclinic'
loop_
_space_group_symop_operation_xyz
x,y,z
-x,y,1/2-z
-x,-y,-z
x,-y,1/2+z
1/2+x,1/2+y,z
1/2-x,1/2+y,1/2-z
1/2-x,1/2-y,-z
1/2+x,1/2-y,1/2+z
loop_
_atom_site_type_symbol
_atom_site_label
_atom_site_fract_x
_atom_site_fract_y
_atom_site_fract_z
Si Si1 0.849969 0.102654 0.972982
Si Si2 0.270277 0.701578 0.854680
Si Si3 0.518180 0.214628 0.993084
Si Si4 0.500000 0.144985 0.250000
Si Si5 0.280443 0.415140 0.754639
Si Si6 0.378668 0.484671 0.324023
O O1 0.830397 0.148461 0.865188
O O2 0.780759 0.060882 0.839373
O O3 0.748378 0.104507 0.078433
O O4 0.039335 0.095921 0.103510
O O5 0.433970 0.734283 0.922600
O O6 0.149675 0.718449 0.673524
O O7 0.175904 0.701349 0.965962
O O8 0.485918 0.177358 0.103607
O O9 0.344251 0.110214 0.191850
O O10 0.255838 0.471813 0.734054
O O11 0.500000 0.469533 0.250000
O O12 0.500000 0.500000 0.500000
#
# Coordination Sequence:
#
# PCOD8132288 Si02
#       6
#     8   8   8   4   8   8
#     4  10  20  39  70  90 127 173 226 261 328 391
#     4  10  22  43  66  94 123 180 214 267 329 390
#     4  10  24  41  65  92 135 164 221 271 323 387
#     4  12  24  42  62  96 138 166 214 280 324 392
#     4  10  21  38  64  95 127 174 212 270 334 383
#     4  10  18  36  62  94 124 161 224 273 308 387
#
# _framework density 20.629738
#
# number of rings (size 3 to 8) (size 9 to 14) (size 15 to 20)
#    0.000    1.818    5.455    0.000    2.545    5.091 
#    1.636    2.727    0.000    0.000    0.000    0.000 
#    0.000    0.000    0.000    0.000    0.000    0.000 
#
# Total GULP energy -272639.720294 kJ/mol
# GULP energy per Si atom -12392.714559 kJ/mol
# Density = 2.058278 g / cm^3
# Si number density = 20.629738 Si / 1000 Ang^3
#
#
#
# Elastic Constant Matrix: (Units=GPa)
#
#
# Indices 1 2 3 4 5 6 
#
# 1 75.5222 52.8792 37.4917 0.0000 -14.4450 0.0000
# 2 52.8792 183.6339 52.5445 0.0000 7.8141 0.0000
# 3 37.4917 52.5445 92.9085 0.0000 -3.9583 0.0000
# 4 0.0000 0.0000 0.0000 33.8701 0.0000 -11.1674
# 5 -14.4450 7.8141 -3.9583 0.0000 23.8351 0.0000
# 6 0.0000 0.0000 0.0000 -11.1674 0.0000 25.5923
#
#
#
# Elastic Compliance Matrix: (Units=1/GPa)
#
#
# Indices 1 2 3 4 5 6 
#
# 1 0.022622 -0.005613 -0.005329 0.000000 0.014665 0.000000
# 2 -0.005613 0.008075 -0.002578 0.000000 -0.006477 0.000000
# 3 -0.005329 -0.002578 0.014372 0.000000 0.000002 0.000000
# 4 0.000000 0.000000 0.000000 0.034486 0.000000 0.015048
# 5 0.014665 -0.006477 0.000002 0.000000 0.052967 0.000000
# 6 0.000000 0.000000 0.000000 0.015048 0.000000 0.045641
#
#
# Mechanical properties :
#
#
# Convention : Reuss Voigt Hill
#
# Bulk Modulus (GPa) = 55.46852 70.87727 63.17289
# Shear Modulus (GPa) = 23.67278 30.60278 27.13778
#
# Velocity S-wave (km/s) = 3.39116 3.85571 3.63087
# Velocity P-wave (km/s) = 6.50226 7.36569 6.94740
#
# Compressibility (1/GPa) = 0.01802824
#
# Stress axis : x y z
#
# Youngs Moduli (GPa) = 44.20436 123.83482 69.58083
#
# Poissons Ratio (x) = 0.69514 0.37082
# Poissons Ratio (y) = 0.24814 0.17936
# Poissons Ratio (z) = 0.23558 0.31921
#
# Static dielectric constant tensor:
#      x y z
#    x 3.512980 0.000000 -0.304560 
#    y 0.000000 9.097160 0.000000 
#    z -0.304560 0.000000 3.790960 
# 
# 
# High freq. dielectric constant tensor:
#      x y z
#    x 1.777530 0.000000 -0.018650 
#    y 0.000000 1.825820 0.000000 
#    z -0.018650 0.000000 1.801260 
# 
# From -- ./inp_files/25707.got.cif
#   From: 2010.06.25/outbox.cif.g09.slc.cpg/sg15_13_cif.got.tgz:25707.got - 2010.06.28 07:06:18.
