data_PCOD8132982
_publ_section_title
;
Structure prediction by ZEFSAII (Michael W. Deem and Ramdas Pophale) SiO2 
 PCOD8132982
Probable space group: C 2/C
;
_chemical_formula_sum "Si O2"
_cell_formula_units_Z 64
_cell_length_a 17.265419
_cell_length_b 26.500921
_cell_length_c 9.040021
_cell_angle_alpha 90.000000
_cell_angle_beta 73.907849
_cell_angle_gamma 90.000000
_cell_volume 3974.186727
_symmetry_space_group_name_H-M "C 2/C"
_symmetry_group_IT_number 15
_symmetry_cell_setting 'monoclinic'
loop_
_space_group_symop_operation_xyz
x,y,z
-x,y,1/2-z
-x,-y,-z
x,-y,1/2+z
1/2+x,1/2+y,z
1/2-x,1/2+y,1/2-z
1/2-x,1/2-y,-z
1/2+x,1/2-y,1/2+z
loop_
_atom_site_type_symbol
_atom_site_label
_atom_site_fract_x
_atom_site_fract_y
_atom_site_fract_z
Si Si1 0.313569 0.700685 0.353887
Si Si2 0.589038 0.942834 0.512310
Si Si3 0.596415 0.045569 0.349822
Si Si4 0.839469 0.360217 0.542722
Si Si5 0.059911 0.277322 0.844603
Si Si6 0.800239 0.211997 0.680597
Si Si7 0.841842 0.652419 0.692154
Si Si8 0.552846 0.247948 0.860988
O O1 0.249123 0.657052 0.355278
O O2 0.273051 0.754925 0.346787
O O3 0.345753 0.694895 0.505826
O O4 0.392032 0.702518 0.204994
O O5 0.493113 0.936197 0.560349
O O6 0.616164 0.952500 0.665798
O O7 0.633894 0.894284 0.423077
O O8 0.614259 0.989434 0.396005
O O9 0.655655 0.082903 0.404018
O O10 0.907769 0.325388 0.582247
O O11 0.851638 0.359522 0.360689
O O12 0.136689 0.243028 0.749296
O O13 0.000000 0.297540 0.750000
O O14 0.006795 0.239506 0.973055
O O15 0.753434 0.166550 0.789693
O O16 0.897008 0.698926 0.614286
O O17 0.500000 0.231524 0.750000
#
# Coordination Sequence:
#
# PCOD8132982 Si02
#       8
#     8   8   8   8   8   8   8   8
#     4   8  15  29  47  64  86 121 160 191 223 263
#     4  10  21  34  49  69  92 121 152 194 230 270
#     4  10  21  34  48  68  95 118 153 193 231 268
#     4  10  19  32  48  66  94 125 155 193 230 275
#     4  11  21  29  43  67  98 126 156 194 230 265
#     4   8  15  31  44  63  91 121 154 192 226 269
#     4  10  19  31  51  67  88 125 163 188 230 272
#     4  11  17  29  47  68  89 125 166 191 216 271
#
# _framework density 16.103923999999999
#
# number of rings (size 3 to 8) (size 9 to 14) (size 15 to 20)
#    0.000    2.250    2.500    3.000    3.500    1.000 
#    2.250    1.875    0.000    0.000    0.000    0.000 
#    0.000    2.000    0.000    0.125    0.000    0.000 
#
# Total GULP energy -396457.693917 kJ/mol
# GULP energy per Si atom -12389.302935 kJ/mol
# Density = 1.606727 g / cm^3
# Si number density = 16.103924 Si / 1000 Ang^3
#
#
#
# Elastic Constant Matrix: (Units=GPa)
#
#
# Indices 1 2 3 4 5 6 
#
# 1 55.9816 30.7974 26.2920 0.0000 -0.8818 0.0000
# 2 30.7974 78.4314 36.4663 0.0000 -6.6720 0.0000
# 3 26.2920 36.4663 70.7475 0.0000 -5.1288 0.0000
# 4 0.0000 0.0000 0.0000 28.3246 0.0000 -4.3371
# 5 -0.8818 -6.6720 -5.1288 0.0000 23.4067 0.0000
# 6 0.0000 0.0000 0.0000 -4.3371 0.0000 19.9710
#
#
#
# Elastic Compliance Matrix: (Units=1/GPa)
#
#
# Indices 1 2 3 4 5 6 
#
# 1 0.024382 -0.007209 -0.005515 0.000000 -0.002345 0.000000
# 2 -0.007209 0.019101 -0.006901 0.000000 0.003661 0.000000
# 3 -0.005515 -0.006901 0.019900 0.000000 0.002186 0.000000
# 4 0.000000 0.000000 0.000000 0.036519 0.000000 0.007931
# 5 -0.002345 0.003661 0.002186 0.000000 0.044157 0.000000
# 6 0.000000 0.000000 0.000000 0.007931 0.000000 0.051795
#
#
# Mechanical properties :
#
#
# Convention : Reuss Voigt Hill
#
# Bulk Modulus (GPa) = 41.43824 43.58576 42.51200
# Shear Modulus (GPa) = 20.56349 21.78076 21.17213
#
# Velocity S-wave (km/s) = 3.57728 3.68164 3.62984
# Velocity P-wave (km/s) = 6.54601 6.72285 6.63502
#
# Compressibility (1/GPa) = 0.02413230
#
# Stress axis : x y z
#
# Youngs Moduli (GPa) = 41.01307 52.35392 50.25181
#
# Poissons Ratio (x) = 0.37744 0.27715
# Poissons Ratio (y) = 0.29568 0.34677
# Poissons Ratio (z) = 0.22620 0.36128
#
# Static dielectric constant tensor:
#      x y z
#    x 3.055280 0.000000 -0.129040 
#    y 0.000000 2.823270 0.000000 
#    z -0.129040 0.000000 3.178630 
# 
# 
# High freq. dielectric constant tensor:
#      x y z
#    x 1.602650 0.000000 -0.003880 
#    y 0.000000 1.582270 0.000000 
#    z -0.003880 0.000000 1.621660 
# 
# From -- ./inp_files/51287.got.cif
#   From: 2010.06.25/outbox.cif.g09.slc.cpg/sg15_26_cif.got.tgz:51287.got - 2010.06.28 07:06:18.
