data_PCOD8132488
_publ_section_title
;
Structure prediction by ZEFSAII (Michael W. Deem and Ramdas Pophale) SiO2 
 PCOD8132488
Probable space group: C 2/C
;
_chemical_formula_sum "Si O2"
_cell_formula_units_Z 64
_cell_length_a 23.479866
_cell_length_b 20.804855
_cell_length_c 13.414387
_cell_angle_alpha 90.000000
_cell_angle_beta 147.733545
_cell_angle_gamma 90.000000
_cell_volume 3498.294691
_symmetry_space_group_name_H-M "C 2/C"
_symmetry_group_IT_number 15
_symmetry_cell_setting 'monoclinic'
loop_
_space_group_symop_operation_xyz
x,y,z
-x,y,1/2-z
-x,-y,-z
x,-y,1/2+z
1/2+x,1/2+y,z
1/2-x,1/2+y,1/2-z
1/2-x,1/2-y,-z
1/2+x,1/2-y,1/2+z
loop_
_atom_site_type_symbol
_atom_site_label
_atom_site_fract_x
_atom_site_fract_y
_atom_site_fract_z
Si Si1 0.597299 0.358848 0.167944
Si Si2 0.263911 0.288164 0.286206
Si Si3 0.087587 0.922273 0.700220
Si Si4 0.877807 0.337323 0.040533
Si Si5 0.567733 0.707775 0.948045
Si Si6 0.888864 0.047498 0.637700
Si Si7 0.263935 0.324398 0.496017
Si Si8 0.214355 0.912049 0.693931
O O1 0.688738 0.323696 0.240261
O O2 0.513101 0.304810 0.079978
O O3 0.645287 0.397674 0.333219
O O4 0.536062 0.412215 0.010817
O O5 0.341469 0.231173 0.441001
O O6 0.252056 0.337934 0.360835
O O7 0.143263 0.268254 0.082747
O O8 0.155489 0.941561 0.702971
O O9 0.097361 0.978182 0.794235
O O10 0.124223 0.854210 0.801783
O O11 0.825093 0.357960 0.067619
O O12 0.000000 0.338283 0.250000
O O13 0.836582 0.391708 0.900614
O O14 0.500000 0.722653 0.750000
O O15 0.648352 0.648905 0.055014
O O16 0.794889 0.040245 0.414708
O O17 0.000000 0.069155 0.750000
O O18 0.250000 0.250000 0.500000
#
# Coordination Sequence:
#
# PCOD8132488 Si02
#       8
#     8   8   8   8   8   8   8   8
#     4  11  21  35  53  81 120 150 190 226 286 340
#     4  10  23  30  53  84 112 150 186 240 282 335
#     4  10  22  32  56  82 108 150 181 226 286 345
#     4   9  19  34  57  79 104 150 193 229 282 339
#     4  10  18  38  52  73 114 159 186 226 278 338
#     4  12  21  35  56  79 116 154 185 228 281 345
#     4   9  19  37  51  77 119 137 179 233 290 326
#     4   9  18  38  52  76 112 145 186 229 275 332
#
# _framework density 18.294627999999999
#
# number of rings (size 3 to 8) (size 9 to 14) (size 15 to 20)
#    0.000    2.000    3.750    2.625    7.000    0.500 
#    0.000    0.000    0.000    3.000    0.000    4.375 
#    0.000    0.000    0.000    0.000    0.000    0.000 
#
# Total GULP energy -396452.038017 kJ/mol
# GULP energy per Si atom -12389.126188 kJ/mol
# Density = 1.825299 g / cm^3
# Si number density = 18.294628 Si / 1000 Ang^3
#
#
#
# Elastic Constant Matrix: (Units=GPa)
#
#
# Indices 1 2 3 4 5 6 
#
# 1 86.3377 37.5021 45.1453 0.0000 -21.0962 0.0000
# 2 37.5021 52.3392 31.4927 0.0000 -10.5265 0.0000
# 3 45.1453 31.4927 136.0200 0.0000 -14.1022 0.0000
# 4 0.0000 0.0000 0.0000 23.4930 0.0000 -9.8533
# 5 -21.0962 -10.5265 -14.1022 0.0000 27.8859 0.0000
# 6 0.0000 0.0000 0.0000 -9.8533 0.0000 26.1002
#
#
#
# Elastic Compliance Matrix: (Units=1/GPa)
#
#
# Indices 1 2 3 4 5 6 
#
# 1 0.020261 -0.010607 -0.003266 0.000000 0.009672 0.000000
# 2 -0.010607 0.028780 -0.003006 0.000000 0.001320 0.000000
# 3 -0.003266 -0.003006 0.009243 0.000000 0.001068 0.000000
# 4 0.000000 0.000000 0.000000 0.050574 0.000000 0.019093
# 5 0.009672 0.001320 0.001068 0.000000 0.044216 0.000000
# 6 0.000000 0.000000 0.000000 0.019093 0.000000 0.045522
#
#
# Mechanical properties :
#
#
# Convention : Reuss Voigt Hill
#
# Bulk Modulus (GPa) = 40.77372 55.88637 48.33005
# Shear Modulus (GPa) = 20.78753 26.19959 23.49356
#
# Velocity S-wave (km/s) = 3.37451 3.78840 3.58743
# Velocity P-wave (km/s) = 6.12525 7.05339 6.60564
#
# Compressibility (1/GPa) = 0.02452560
#
# Stress axis : x y z
#
# Youngs Moduli (GPa) = 49.35643 34.74585 108.19369
#
# Poissons Ratio (x) = 0.36854 0.35336
# Poissons Ratio (y) = 0.52352 0.32526
# Poissons Ratio (z) = 0.16120 0.10446
#
# Static dielectric constant tensor:
#      x y z
#    x 3.460630 0.000000 -0.349640 
#    y 0.000000 3.145200 0.000000 
#    z -0.349640 0.000000 3.620840 
# 
# 
# High freq. dielectric constant tensor:
#      x y z
#    x 1.698750 0.000000 -0.030520 
#    y 0.000000 1.676970 0.000000 
#    z -0.030520 0.000000 1.708090 
# 
# From -- ./inp_files/114283.got.cif
#   From: 2010.06.25/outbox.cif.g09.slc.cpg/sg15_58_cif.got.tgz:114283.got - 2010.06.28 07:06:18.
