data_PCOD8132420
_publ_section_title
;
Structure prediction by ZEFSAII (Michael W. Deem and Ramdas Pophale) SiO2 
 PCOD8132420
Probable space group: C 2/C
;
_chemical_formula_sum "Si O2"
_cell_formula_units_Z 52
_cell_length_a 7.535084
_cell_length_b 17.417783
_cell_length_c 19.528675
_cell_angle_alpha 90.000000
_cell_angle_beta 86.918315
_cell_angle_gamma 90.000000
_cell_volume 2559.323983
_symmetry_space_group_name_H-M "C 2/C"
_symmetry_group_IT_number 15
_symmetry_cell_setting 'monoclinic'
loop_
_space_group_symop_operation_xyz
x,y,z
-x,y,1/2-z
-x,-y,-z
x,-y,1/2+z
1/2+x,1/2+y,z
1/2-x,1/2+y,1/2-z
1/2-x,1/2-y,-z
1/2+x,1/2-y,1/2+z
loop_
_atom_site_type_symbol
_atom_site_label
_atom_site_fract_x
_atom_site_fract_y
_atom_site_fract_z
Si Si1 0.294022 0.364816 0.032033
Si Si2 0.672974 0.471168 0.955742
Si Si3 0.821328 0.873316 0.425522
Si Si4 0.506009 0.793656 0.124749
Si Si5 0.333440 0.486204 0.300618
Si Si6 0.423982 0.376323 0.879687
Si Si7 0.500000 0.094895 0.750000
O O1 0.226893 0.448939 0.063114
O O2 0.488080 0.338590 0.056110
O O3 0.148204 0.304528 0.060562
O O4 0.300787 0.367188 0.949453
O O5 0.607905 0.423527 0.890862
O O6 0.500000 0.500000 0.000000
O O7 0.774547 0.414268 0.006640
O O8 0.692647 0.806640 0.400444
O O9 0.857753 0.936736 0.367967
O O10 0.521415 0.706596 0.150935
O O11 0.550673 0.850956 0.185412
O O12 0.500000 0.469724 0.250000
O O13 0.319117 0.575973 0.323388
O O14 0.160289 0.461964 0.262759
#
# Coordination Sequence:
#
# PCOD8132420 Si02
#       7
#     8   8   8   8   8   8   4
#     4  10  18  37  61  86 116 153 185 227 289 349
#     4   8  15  32  58  82 110 141 187 222 268 345
#     4   9  18  37  57  83 114 145 191 229 276 346
#     4  11  23  36  57  87 119 148 183 242 289 327
#     4  11  20  39  63  75 109 159 193 233 277 334
#     4  10  20  37  60  88 114 144 191 241 286 333
#     4  10  26  40  54  86 110 150 208 220 276 358
#
# _framework density 20.317865000000001
#
# number of rings (size 3 to 8) (size 9 to 14) (size 15 to 20)
#    0.000    2.462    4.615    1.385    1.077    3.077 
#    0.000    1.538    1.692    0.000    0.000    0.000 
#    0.000    0.000    0.000    0.000    0.000    0.000 
#
# Total GULP energy -322236.780245 kJ/mol
# GULP energy per Si atom -12393.722317 kJ/mol
# Density = 2.027162 g / cm^3
# Si number density = 20.317865 Si / 1000 Ang^3
#
#
#
# Elastic Constant Matrix: (Units=GPa)
#
#
# Indices 1 2 3 4 5 6 
#
# 1 83.7208 49.8665 42.6525 0.0000 7.5753 0.0000
# 2 49.8665 141.1214 27.3650 0.0000 11.8877 0.0000
# 3 42.6525 27.3650 61.2740 0.0000 15.5558 0.0000
# 4 0.0000 0.0000 0.0000 15.2630 0.0000 7.6511
# 5 7.5753 11.8877 15.5558 0.0000 25.4647 0.0000
# 6 0.0000 0.0000 0.0000 7.6511 0.0000 22.6767
#
#
#
# Elastic Compliance Matrix: (Units=1/GPa)
#
#
# Indices 1 2 3 4 5 6 
#
# 1 0.021862 -0.005401 -0.013960 0.000000 0.004546 0.000000
# 2 -0.005401 0.009161 0.000410 0.000000 -0.002920 0.000000
# 3 -0.013960 0.000410 0.029410 0.000000 -0.014004 0.000000
# 4 0.000000 0.000000 0.000000 0.078855 0.000000 -0.026606
# 5 0.004546 -0.002920 -0.014004 0.000000 0.047836 0.000000
# 6 0.000000 0.000000 0.000000 -0.026606 0.000000 0.053075
#
#
# Mechanical properties :
#
#
# Convention : Reuss Voigt Hill
#
# Bulk Modulus (GPa) = 44.38444 58.43156 51.40800
# Shear Modulus (GPa) = 17.50621 23.76303 20.63462
#
# Velocity S-wave (km/s) = 2.93852 3.42360 3.19029
# Velocity P-wave (km/s) = 5.77976 6.66702 6.23918
#
# Compressibility (1/GPa) = 0.02253042
#
# Stress axis : x y z
#
# Youngs Moduli (GPa) = 45.74066 109.15605 34.00196
#
# Poissons Ratio (x) = 0.58957 0.47467
# Poissons Ratio (y) = 0.24705 -0.01393
# Poissons Ratio (z) = 0.63855 -0.04472
#
# Static dielectric constant tensor:
#      x y z
#    x 3.473980 0.000000 0.235830 
#    y 0.000000 4.231310 0.000000 
#    z 0.235830 0.000000 3.754160 
# 
# 
# High freq. dielectric constant tensor:
#      x y z
#    x 1.762100 0.000000 0.015340 
#    y 0.000000 1.796010 0.000000 
#    z 0.015340 0.000000 1.787080 
# 
# From -- ./inp_files/190407.got.cif
#   From: 2010.06.25/outbox.cif.g09.slc.cpg/sg15_96_cif.got.tgz:190407.got - 2010.06.28 07:06:18.
