data_PCOD8132140
_publ_section_title
;
Structure prediction by ZEFSAII (Michael W. Deem and Ramdas Pophale) SiO2 
 PCOD8132140
Probable space group: C 2/C
;
_chemical_formula_sum "Si O2"
_cell_formula_units_Z 56
_cell_length_a 30.068376
_cell_length_b 13.436966
_cell_length_c 11.589358
_cell_angle_alpha 90.000000
_cell_angle_beta 138.998864
_cell_angle_gamma 90.000000
_cell_volume 3072.015421
_symmetry_space_group_name_H-M "C 2/C"
_symmetry_group_IT_number 15
_symmetry_cell_setting 'monoclinic'
loop_
_space_group_symop_operation_xyz
x,y,z
-x,y,1/2-z
-x,-y,-z
x,-y,1/2+z
1/2+x,1/2+y,z
1/2-x,1/2+y,1/2-z
1/2-x,1/2-y,-z
1/2+x,1/2-y,1/2+z
loop_
_atom_site_type_symbol
_atom_site_label
_atom_site_fract_x
_atom_site_fract_y
_atom_site_fract_z
Si Si1 0.262352 0.880082 0.108973
Si Si2 0.074087 0.227918 0.900904
Si Si3 0.477306 0.367736 0.837176
Si Si4 0.787844 0.297550 0.402279
Si Si5 0.863857 0.773714 0.733892
Si Si6 0.763792 0.099773 0.479171
Si Si7 0.581474 0.421187 0.220469
O O1 0.251633 0.833254 0.214745
O O2 0.330287 0.836022 0.180673
O O3 0.196683 0.852418 0.904906
O O4 0.269692 0.998926 0.135527
O O5 0.067729 0.125780 0.818099
O O6 0.000000 0.281351 0.750000
O O7 0.130792 0.298328 0.954750
O O8 0.096729 0.196035 0.072656
O O9 0.500000 0.369861 0.750000
O O10 0.421954 0.278805 0.748140
O O11 0.439716 0.465462 0.809156
O O12 0.543260 0.357490 0.046733
O O13 0.758382 0.187494 0.373382
O O14 0.775507 0.372897 0.481704
O O15 0.840971 0.082604 0.665110
#
# Coordination Sequence:
#
# PCOD8132140 Si02
#       7
#     8   8   8   8   8   8   8
#     4  10  21  37  59  80 121 151 189 243 292 353
#     4  10  18  36  57  74 112 147 197 240 282 354
#     4  11  22  32  49  85 121 149 190 232 296 361
#     4   9  22  36  58  89 108 152 199 237 296 342
#     4  10  21  36  53  87 109 156 192 225 294 353
#     4  10  20  38  58  85 115 148 198 245 287 349
#     4  10  21  32  53  81 112 156 184 234 299 353
#
# _framework density 18.229075000000002
#
# number of rings (size 3 to 8) (size 9 to 14) (size 15 to 20)
#    0.000    2.000    2.857    0.429    4.000    4.571 
#    0.000    0.000    0.000    4.286    0.000    0.000 
#    0.000    0.000    0.000    0.000    0.000    0.000 
#
# Total GULP energy -347104.937774 kJ/mol
# GULP energy per Si atom -12396.604920 kJ/mol
# Density = 1.818759 g / cm^3
# Si number density = 18.229075 Si / 1000 Ang^3
#
#
#
# Elastic Constant Matrix: (Units=GPa)
#
#
# Indices 1 2 3 4 5 6 
#
# 1 128.7598 43.4854 51.9188 0.0000 3.0305 0.0000
# 2 43.4854 101.7058 40.0235 0.0000 -2.1734 0.0000
# 3 51.9188 40.0235 115.4039 0.0000 -5.4479 0.0000
# 4 0.0000 0.0000 0.0000 19.1249 0.0000 0.2115
# 5 3.0305 -2.1734 -5.4479 0.0000 26.3776 0.0000
# 6 0.0000 0.0000 0.0000 0.2115 0.0000 23.3670
#
#
#
# Elastic Compliance Matrix: (Units=1/GPa)
#
#
# Indices 1 2 3 4 5 6 
#
# 1 0.010328 -0.003003 -0.003709 0.000000 -0.002200 0.000000
# 2 -0.003003 0.012260 -0.002865 0.000000 0.000764 0.000000
# 3 -0.003709 -0.002865 0.011448 0.000000 0.002554 0.000000
# 4 0.000000 0.000000 0.000000 0.052293 0.000000 -0.000473
# 5 -0.002200 0.000764 0.002554 0.000000 0.038754 0.000000
# 6 0.000000 0.000000 0.000000 -0.000473 0.000000 0.042800
#
#
# Mechanical properties :
#
#
# Convention : Reuss Voigt Hill
#
# Bulk Modulus (GPa) = 67.19399 68.52499 67.85949
# Shear Modulus (GPa) = 26.04206 27.80333 26.92270
#
# Velocity S-wave (km/s) = 3.78378 3.90964 3.84723
# Velocity P-wave (km/s) = 7.48534 7.61926 7.55259
#
# Compressibility (1/GPa) = 0.01488228
#
# Stress axis : x y z
#
# Youngs Moduli (GPa) = 96.82501 81.56572 87.35304
#
# Poissons Ratio (x) = 0.24497 0.32396
# Poissons Ratio (y) = 0.29080 0.25024
# Poissons Ratio (z) = 0.35909 0.23366
#
# Static dielectric constant tensor:
#      x y z
#    x 3.497420 0.000000 0.107090 
#    y 0.000000 3.201070 0.000000 
#    z 0.107090 0.000000 3.534490 
# 
# 
# High freq. dielectric constant tensor:
#      x y z
#    x 1.716260 0.000000 0.001290 
#    y 0.000000 1.673840 0.000000 
#    z 0.001290 0.000000 1.711410 
# 
# From -- ./inp_files/126757.got.cif
#   From: 2010.06.25/outbox.cif.g09.slc.cpg/sg15_64_cif.got.tgz:126757.got - 2010.06.28 07:06:18.
