data_PCOD8132966
_publ_section_title
;
Structure prediction by ZEFSAII (Michael W. Deem and Ramdas Pophale) SiO2 
 PCOD8132966
Probable space group: C 2/C
;
_chemical_formula_sum "Si O2"
_cell_formula_units_Z 32
_cell_length_a 9.746236
_cell_length_b 19.136943
_cell_length_c 13.121001
_cell_angle_alpha 90.000000
_cell_angle_beta 133.338932
_cell_angle_gamma 90.000000
_cell_volume 1779.893320
_symmetry_space_group_name_H-M "C 2/C"
_symmetry_group_IT_number 15
_symmetry_cell_setting 'monoclinic'
loop_
_space_group_symop_operation_xyz
x,y,z
-x,y,1/2-z
-x,-y,-z
x,-y,1/2+z
1/2+x,1/2+y,z
1/2-x,1/2+y,1/2-z
1/2-x,1/2-y,-z
1/2+x,1/2-y,1/2+z
loop_
_atom_site_type_symbol
_atom_site_label
_atom_site_fract_x
_atom_site_fract_y
_atom_site_fract_z
Si Si1 0.206395 0.521550 0.824850
Si Si2 0.657739 0.169856 0.742854
Si Si3 0.503446 0.425860 0.633861
Si Si4 0.071977 0.224295 0.470998
O O1 0.190201 0.587656 0.738419
O O2 0.311910 0.458974 0.823112
O O3 0.000000 0.493987 0.750000
O O4 0.314671 0.546218 0.982418
O O5 0.500000 0.177115 0.750000
O O6 0.583161 0.212851 0.606186
O O7 0.857494 0.203865 0.879980
O O8 0.500000 0.447484 0.750000
O O9 0.520097 0.342543 0.631661
O O10 0.250000 0.250000 0.500000
#
# Coordination Sequence:
#
# PCOD8132966 Si02
#       4
#     8   8   8   8
#     4   9  19  33  47  68 100 129 154 192 240 283
#     4   8  14  25  42  63  89 118 148 188 231 269
#     4  10  19  31  49  73  96 123 161 198 232 278
#     4   9  15  25  44  69  91 113 150 196 233 267
#
# _framework density 17.978607
#
# number of rings (size 3 to 8) (size 9 to 14) (size 15 to 20)
#    0.000    3.000    0.000    3.750    0.000    1.000 
#    0.000    0.000    0.000    1.500    0.000   15.750 
#    0.000    0.000    0.000    0.000    0.000    0.000 
#
# Total GULP energy -198260.558809 kJ/mol
# GULP energy per Si atom -12391.284926 kJ/mol
# Density = 1.793769 g / cm^3
# Si number density = 17.978607 Si / 1000 Ang^3
#
#
#
# Elastic Constant Matrix: (Units=GPa)
#
#
# Indices 1 2 3 4 5 6 
#
# 1 54.5496 44.1086 36.7532 0.0000 17.6961 0.0000
# 2 44.1086 121.6608 43.4584 0.0000 15.1384 0.0000
# 3 36.7532 43.4584 75.5315 0.0000 17.5286 0.0000
# 4 0.0000 0.0000 0.0000 28.1430 0.0000 9.4865
# 5 17.6961 15.1384 17.5286 0.0000 20.9217 0.0000
# 6 0.0000 0.0000 0.0000 9.4865 0.0000 23.6364
#
#
#
# Elastic Compliance Matrix: (Units=1/GPa)
#
#
# Indices 1 2 3 4 5 6 
#
# 1 0.036516 -0.007758 -0.009235 0.000000 -0.017535 0.000000
# 2 -0.007758 0.012159 -0.003354 0.000000 0.000574 0.000000
# 3 -0.009235 -0.003354 0.021460 0.000000 -0.007741 0.000000
# 4 0.000000 0.000000 0.000000 0.041092 0.000000 -0.016492
# 5 -0.017535 0.000574 -0.007741 0.000000 0.068699 0.000000
# 6 0.000000 0.000000 0.000000 -0.016492 0.000000 0.048927
#
#
# Mechanical properties :
#
#
# Convention : Reuss Voigt Hill
#
# Bulk Modulus (GPa) = 33.96802 55.59805 44.78303
# Shear Modulus (GPa) = 17.89800 23.03498 20.46649
#
# Velocity S-wave (km/s) = 3.15860 3.58333 3.37765
# Velocity P-wave (km/s) = 5.67776 6.93628 6.33834
#
# Compressibility (1/GPa) = 0.02943946
#
# Stress axis : x y z
#
# Youngs Moduli (GPa) = 27.38526 82.24363 46.59910
#
# Poissons Ratio (x) = 0.63806 0.43036
# Poissons Ratio (y) = 0.21246 0.15630
# Poissons Ratio (z) = 0.25291 0.27585
#
# Static dielectric constant tensor:
#      x y z
#    x 2.726470 0.000000 0.358030 
#    y 0.000000 3.624650 0.000000 
#    z 0.358030 0.000000 3.858120 
# 
# 
# High freq. dielectric constant tensor:
#      x y z
#    x 1.621690 0.000000 0.031910 
#    y 0.000000 1.706880 0.000000 
#    z 0.031910 0.000000 1.707360 
# 
# From -- ./inp_files/22112.got.cif
#   From: 2010.06.25/outbox.cif.g09.slc.cpg/sg15_12_cif.got.tgz:22112.got - 2010.06.28 07:06:18.
