data_PCOD8132052
_publ_section_title
;
Structure prediction by ZEFSAII (Michael W. Deem and Ramdas Pophale) SiO2 
 PCOD8132052
Probable space group: C 2/C
;
_chemical_formula_sum "Si O2"
_cell_formula_units_Z 36
_cell_length_a 26.998975
_cell_length_b 8.265482
_cell_length_c 14.815198
_cell_angle_alpha 90.000000
_cell_angle_beta 145.537276
_cell_angle_gamma 90.000000
_cell_volume 1870.852518
_symmetry_space_group_name_H-M "C 2/C"
_symmetry_group_IT_number 15
_symmetry_cell_setting 'monoclinic'
loop_
_space_group_symop_operation_xyz
x,y,z
-x,y,1/2-z
-x,-y,-z
x,-y,1/2+z
1/2+x,1/2+y,z
1/2-x,1/2+y,1/2-z
1/2-x,1/2-y,-z
1/2+x,1/2-y,1/2+z
loop_
_atom_site_type_symbol
_atom_site_label
_atom_site_fract_x
_atom_site_fract_y
_atom_site_fract_z
Si Si1 0.408545 0.842599 0.077419
Si Si2 0.701150 0.021083 0.448973
Si Si3 0.380538 0.344468 0.200398
Si Si4 0.091535 0.585355 0.124624
Si Si5 0.000000 0.032824 0.250000
O O1 0.500000 0.923633 0.250000
O O2 0.422426 0.647764 0.093997
O O3 0.331202 0.884069 0.030690
O O4 0.381967 0.911559 0.940128
O O5 0.664457 0.198348 0.425637
O O6 0.806566 0.019413 0.607739
O O7 0.664557 0.986636 0.292314
O O8 0.415454 0.269393 0.347312
O O9 0.462607 0.420208 0.272446
O O10 0.000000 0.500000 0.000000
#
# Coordination Sequence:
#
# PCOD8132052 Si02
#       5
#     8   8   8   8   4
#     4  10  20  36  56  89 115 156 205 246 303 360
#     4   9  20  40  60  82 121 157 204 254 299 361
#     4   9  21  39  59  85 119 158 201 251 300 363
#     4  10  18  35  62  85 113 158 203 244 307 362
#     4  10  22  36  60  84 124 156 196 254 300 358
#
# _framework density 19.242566
#
# number of rings (size 3 to 8) (size 9 to 14) (size 15 to 20)
#    2.000    0.444    2.222    0.000    4.667    1.778 
#    4.000    0.000    0.000    0.000    0.000    0.000 
#    0.000    0.000    0.000    0.000    0.000    0.000 
#
# Total GULP energy -223007.994917 kJ/mol
# GULP energy per Si atom -12389.333051 kJ/mol
# Density = 1.919877 g / cm^3
# Si number density = 19.242566 Si / 1000 Ang^3
#
#
#
# Elastic Constant Matrix: (Units=GPa)
#
#
# Indices 1 2 3 4 5 6 
#
# 1 126.4012 36.2337 53.3149 0.0000 -17.1554 0.0000
# 2 36.2337 46.7867 26.1863 0.0000 3.8647 0.0000
# 3 53.3149 26.1863 91.2085 0.0000 -6.5078 0.0000
# 4 0.0000 0.0000 0.0000 27.2274 0.0000 5.4353
# 5 -17.1554 3.8647 -6.5078 0.0000 37.5591 0.0000
# 6 0.0000 0.0000 0.0000 5.4353 0.0000 36.0092
#
#
#
# Elastic Compliance Matrix: (Units=1/GPa)
#
#
# Indices 1 2 3 4 5 6 
#
# 1 0.013045 -0.007813 -0.004961 0.000000 0.005903 0.000000
# 2 -0.007813 0.030734 -0.004796 0.000000 -0.007562 0.000000
# 3 -0.004961 -0.004796 0.015303 0.000000 0.000879 0.000000
# 4 0.000000 0.000000 0.000000 0.037869 0.000000 -0.005716
# 5 0.005903 -0.007562 0.000879 0.000000 0.030251 0.000000
# 6 0.000000 0.000000 0.000000 -0.005716 0.000000 0.028633
#
#
# Mechanical properties :
#
#
# Convention : Reuss Voigt Hill
#
# Bulk Modulus (GPa) = 41.76893 55.09623 48.43258
# Shear Modulus (GPa) = 25.13125 30.06989 27.60057
#
# Velocity S-wave (km/s) = 3.61782 3.95736 3.79139
# Velocity P-wave (km/s) = 6.26140 7.04099 6.66261
#
# Compressibility (1/GPa) = 0.02394124
#
# Stress axis : x y z
#
# Youngs Moduli (GPa) = 76.66044 32.53772 65.34549
#
# Poissons Ratio (x) = 0.25423 0.32416
# Poissons Ratio (y) = 0.59898 0.31340
# Poissons Ratio (z) = 0.38028 0.15605
#
# Static dielectric constant tensor:
#      x y z
#    x 3.386940 0.000000 -0.076060 
#    y 0.000000 3.291640 0.000000 
#    z -0.076060 0.000000 3.309960 
# 
# 
# High freq. dielectric constant tensor:
#      x y z
#    x 1.738600 0.000000 0.004350 
#    y 0.000000 1.727010 0.000000 
#    z 0.004350 0.000000 1.729050 
# 
# From -- ./inp_files/224139.got.cif
#   From: 2010.06.25/outbox.cif.g09.slc.cpg/sg15_113_cif.got.tgz:224139.got - 2010.06.28 07:06:18.
