data_PCOD8132317
_publ_section_title
;
Structure prediction by ZEFSAII (Michael W. Deem and Ramdas Pophale) SiO2 
 PCOD8132317
Probable space group: C 2/C
;
_chemical_formula_sum "Si O2"
_cell_formula_units_Z 52
_cell_length_a 12.188598
_cell_length_b 28.171121
_cell_length_c 11.154802
_cell_angle_alpha 90.000000
_cell_angle_beta 137.218269
_cell_angle_gamma 90.000000
_cell_volume 2601.489661
_symmetry_space_group_name_H-M "C 2/C"
_symmetry_group_IT_number 15
_symmetry_cell_setting 'monoclinic'
loop_
_space_group_symop_operation_xyz
x,y,z
-x,y,1/2-z
-x,-y,-z
x,-y,1/2+z
1/2+x,1/2+y,z
1/2-x,1/2+y,1/2-z
1/2-x,1/2-y,-z
1/2+x,1/2-y,1/2+z
loop_
_atom_site_type_symbol
_atom_site_label
_atom_site_fract_x
_atom_site_fract_y
_atom_site_fract_z
Si Si1 0.500000 0.075616 0.750000
Si Si2 0.091438 0.367936 0.098884
Si Si3 0.166892 0.485267 0.571567
Si Si4 0.952920 0.723270 0.574159
Si Si5 0.687829 0.417345 0.391835
Si Si6 0.893632 0.816381 0.774377
Si Si7 0.767346 0.598159 0.224897
O O1 0.403277 0.109050 0.764694
O O2 0.368010 0.043125 0.578757
O O3 0.255269 0.378114 0.158849
O O4 0.064657 0.311784 0.085965
O O5 0.949777 0.391832 0.908986
O O6 0.271342 0.530811 0.624326
O O7 0.276031 0.452079 0.746590
O O8 0.000000 0.500000 0.500000
O O9 0.765527 0.710276 0.404528
O O10 0.000000 0.718154 0.750000
O O11 0.997446 0.776979 0.568313
O O12 0.500000 0.411294 0.250000
O O13 0.767878 0.407319 0.583607
O O14 0.851980 0.859783 0.828464
O O15 0.000000 0.836950 0.750000
#
# Coordination Sequence:
#
# PCOD8132317 Si02
#       7
#     4   8   8   8   8   8   8
#     4  10  18  36  64  88 110 154 220 244 294 358
#     4  10  21  39  64  89 118 164 210 248 300 370
#     4  11  21  39  65  87 117 166 208 250 303 372
#     4  10  19  35  61  92 123 160 208 254 306 361
#     4  12  26  40  59  92 125 163 201 260 314 368
#     4  10  21  37  61  93 126 164 204 259 310 360
#     4  10  23  42  62  87 125 164 208 247 310 372
#
# _framework density 19.988547000000001
#
# number of rings (size 3 to 8) (size 9 to 14) (size 15 to 20)
#    0.000    1.538    3.846    3.231    0.000    3.692 
#    0.000    0.769    0.000    0.000    0.000    0.000 
#    0.000    0.000    0.000    0.000    0.000    0.000 
#
# Total GULP energy -322380.753295 kJ/mol
# GULP energy per Si atom -12399.259742 kJ/mol
# Density = 1.994305 g / cm^3
# Si number density = 19.988547 Si / 1000 Ang^3
#
#
#
# Elastic Constant Matrix: (Units=GPa)
#
#
# Indices 1 2 3 4 5 6 
#
# 1 142.4374 62.1208 43.0819 0.0000 3.1022 0.0000
# 2 62.1208 109.2204 16.2537 0.0000 1.0181 0.0000
# 3 43.0819 16.2537 54.5733 0.0000 -4.6480 0.0000
# 4 0.0000 0.0000 0.0000 18.3869 0.0000 11.2386
# 5 3.1022 1.0181 -4.6480 0.0000 36.6120 0.0000
# 6 0.0000 0.0000 0.0000 11.2386 0.0000 26.4883
#
#
#
# Elastic Compliance Matrix: (Units=1/GPa)
#
#
# Indices 1 2 3 4 5 6 
#
# 1 0.011866 -0.005561 -0.007869 0.000000 -0.001850 0.000000
# 2 -0.005561 0.012201 0.000776 0.000000 0.000230 0.000000
# 3 -0.007869 0.000776 0.024626 0.000000 0.003772 0.000000
# 4 0.000000 0.000000 0.000000 0.073429 0.000000 -0.031155
# 5 -0.001850 0.000230 0.003772 0.000000 0.027943 0.000000
# 6 0.000000 0.000000 0.000000 -0.031155 0.000000 0.050971
#
#
# Mechanical properties :
#
#
# Convention : Reuss Voigt Hill
#
# Bulk Modulus (GPa) = 42.76203 61.01598 51.88901
# Shear Modulus (GPa) = 21.35476 28.61574 24.98525
#
# Velocity S-wave (km/s) = 3.27211 3.78776 3.53934
# Velocity P-wave (km/s) = 5.97623 7.05133 6.53592
#
# Compressibility (1/GPa) = 0.02338523
#
# Stress axis : x y z
#
# Youngs Moduli (GPa) = 84.27309 81.96039 40.60719
#
# Poissons Ratio (x) = 0.45577 0.31953
# Poissons Ratio (y) = 0.46863 -0.03150
# Poissons Ratio (z) = 0.66314 -0.06357
#
# Static dielectric constant tensor:
#      x y z
#    x 3.804610 0.000000 -0.085380 
#    y 0.000000 4.134560 0.000000 
#    z -0.085380 0.000000 3.607240 
# 
# 
# High freq. dielectric constant tensor:
#      x y z
#    x 1.772590 0.000000 -0.001250 
#    y 0.000000 1.793000 0.000000 
#    z -0.001250 0.000000 1.765840 
# 
# From -- ./inp_files/92650.got.cif
#   From: 2010.06.25/outbox.cif.g09.slc.cpg/sg15_47_cif.got.tgz:92650.got - 2010.06.28 07:06:18.
