data_PCOD8132486
_publ_section_title
;
Structure prediction by ZEFSAII (Michael W. Deem and Ramdas Pophale) SiO2 
 PCOD8132486
Probable space group: C 2/C
;
_chemical_formula_sum "Si O2"
_cell_formula_units_Z 44
_cell_length_a 8.928836
_cell_length_b 16.616452
_cell_length_c 13.954878
_cell_angle_alpha 90.000000
_cell_angle_beta 108.157113
_cell_angle_gamma 90.000000
_cell_volume 1967.327947
_symmetry_space_group_name_H-M "C 2/C"
_symmetry_group_IT_number 15
_symmetry_cell_setting 'monoclinic'
loop_
_space_group_symop_operation_xyz
x,y,z
-x,y,1/2-z
-x,-y,-z
x,-y,1/2+z
1/2+x,1/2+y,z
1/2-x,1/2+y,1/2-z
1/2-x,1/2-y,-z
1/2+x,1/2-y,1/2+z
loop_
_atom_site_type_symbol
_atom_site_label
_atom_site_fract_x
_atom_site_fract_y
_atom_site_fract_z
Si Si1 0.167537 0.463520 0.641741
Si Si2 0.485852 0.274064 0.593042
Si Si3 0.611078 0.645241 0.617955
Si Si4 0.759351 0.299352 0.789161
Si Si5 0.415483 0.091933 0.580243
Si Si6 0.000000 0.032075 0.750000
O O1 0.129233 0.378433 0.686206
O O2 0.156125 0.453451 0.525339
O O3 0.346797 0.477677 0.709524
O O4 0.052293 0.535205 0.652923
O O5 0.474500 0.327716 0.496098
O O6 0.646781 0.300063 0.675214
O O7 0.336284 0.294117 0.629336
O O8 0.488943 0.179061 0.568428
O O9 0.631880 0.720935 0.693220
O O10 0.779761 0.603113 0.632041
O O11 0.501522 0.583715 0.652824
#
# Coordination Sequence:
#
# PCOD8132486 Si02
#       6
#     8   8   8   8   8   4
#     4  11  22  41  63 100 129 162 207 277 323 383
#     4  10  18  37  71  96 122 173 215 256 312 394
#     4  11  22  44  64  95 126 176 216 259 315 387
#     4  10  19  38  69  97 124 162 220 261 313 388
#     4  10  21  41  71  91 129 168 212 264 331 381
#     4  12  28  40  62  92 140 166 216 268 318 376
#
# _framework density 22.365359999999999
#
# number of rings (size 3 to 8) (size 9 to 14) (size 15 to 20)
#    0.000    1.455    3.636    3.273    0.000    2.909 
#    0.000    5.455    0.000    0.000    0.000    0.000 
#    0.000    0.000    0.000    0.000    0.000    0.000 
#
# Total GULP energy -272834.828558 kJ/mol
# GULP energy per Si atom -12401.583116 kJ/mol
# Density = 2.231446 g / cm^3
# Si number density = 22.365360 Si / 1000 Ang^3
#
#
#
# Elastic Constant Matrix: (Units=GPa)
#
#
# Indices 1 2 3 4 5 6 
#
# 1 40.6047 35.2762 25.2957 0.0000 7.1665 0.0000
# 2 35.2762 128.3265 36.6734 0.0000 6.3681 0.0000
# 3 25.2957 36.6734 90.2168 0.0000 12.4397 0.0000
# 4 0.0000 0.0000 0.0000 34.7956 0.0000 18.3826
# 5 7.1665 6.3681 12.4397 0.0000 28.8991 0.0000
# 6 0.0000 0.0000 0.0000 18.3826 0.0000 21.1763
#
#
#
# Elastic Compliance Matrix: (Units=1/GPa)
#
#
# Indices 1 2 3 4 5 6 
#
# 1 0.036256 -0.007937 -0.006316 0.000000 -0.004523 0.000000
# 2 -0.007937 0.010559 -0.002145 0.000000 0.000565 0.000000
# 3 -0.006316 -0.002145 0.014294 0.000000 -0.004114 0.000000
# 4 0.000000 0.000000 0.000000 0.053084 0.000000 -0.046081
# 5 -0.004523 0.000565 -0.004114 0.000000 0.037371 0.000000
# 6 0.000000 0.000000 0.000000 -0.046081 0.000000 0.087224
#
#
# Mechanical properties :
#
#
# Convention : Reuss Voigt Hill
#
# Bulk Modulus (GPa) = 35.31727 50.40428 42.86078
# Shear Modulus (GPa) = 17.79216 27.76772 22.77994
#
# Velocity S-wave (km/s) = 2.82356 3.52739 3.19491
# Velocity P-wave (km/s) = 5.14348 6.25904 5.72848
#
# Compressibility (1/GPa) = 0.02831476
#
# Stress axis : x y z
#
# Youngs Moduli (GPa) = 27.58156 94.70197 69.95756
#
# Poissons Ratio (x) = 0.75167 0.44182
# Poissons Ratio (y) = 0.21892 0.15005
# Poissons Ratio (z) = 0.17419 0.20312
#
# Static dielectric constant tensor:
#      x y z
#    x 3.627180 0.000000 0.185660 
#    y 0.000000 4.330260 0.000000 
#    z 0.185660 0.000000 3.919270 
# 
# 
# High freq. dielectric constant tensor:
#      x y z
#    x 1.839370 0.000000 0.018590 
#    y 0.000000 1.899730 0.000000 
#    z 0.018590 0.000000 1.889540 
# 
# From -- ./inp_files/134568.got.cif
#   From: 2010.06.25/outbox.cif.g09.slc.cpg/sg15_68_cif.got.tgz:134568.got - 2010.06.28 07:06:18.
