data_PCOD8132529
_publ_section_title
;
Structure prediction by ZEFSAII (Michael W. Deem and Ramdas Pophale) SiO2 
 PCOD8132529
Probable space group: C 2/C
;
_chemical_formula_sum "Si O2"
_cell_formula_units_Z 56
_cell_length_a 19.726681
_cell_length_b 8.690486
_cell_length_c 19.250295
_cell_angle_alpha 90.000000
_cell_angle_beta 125.429533
_cell_angle_gamma 90.000000
_cell_volume 2689.069363
_symmetry_space_group_name_H-M "C 2/C"
_symmetry_group_IT_number 15
_symmetry_cell_setting 'monoclinic'
loop_
_space_group_symop_operation_xyz
x,y,z
-x,y,1/2-z
-x,-y,-z
x,-y,1/2+z
1/2+x,1/2+y,z
1/2-x,1/2+y,1/2-z
1/2-x,1/2-y,-z
1/2+x,1/2-y,1/2+z
loop_
_atom_site_type_symbol
_atom_site_label
_atom_site_fract_x
_atom_site_fract_y
_atom_site_fract_z
Si Si1 0.350775 0.697232 0.852258
Si Si2 0.439830 0.220347 0.887805
Si Si3 0.697896 0.600619 0.257565
Si Si4 0.039292 0.479753 0.341519
Si Si5 0.095275 0.170970 0.330689
Si Si6 0.537092 0.782650 0.950084
Si Si7 0.588246 0.555425 0.473863
O O1 0.311088 0.570814 0.777416
O O2 0.294210 0.850511 0.818413
O O3 0.440316 0.750206 0.876721
O O4 0.354325 0.633588 0.933274
O O5 0.346628 0.275318 0.818769
O O6 0.468404 0.109860 0.842995
O O7 0.495317 0.376042 0.924791
O O8 0.448579 0.133190 0.966984
O O9 0.657644 0.610965 0.309812
O O10 0.106283 0.353736 0.354807
O O11 0.077083 0.611469 0.413335
O O12 0.000000 0.559885 0.250000
O O13 0.121700 0.082696 0.416220
O O14 0.000000 0.138954 0.250000
O O15 0.588438 0.625987 0.985497
#
# Coordination Sequence:
#
# PCOD8132529 Si02
#       7
#     8   8   8   8   8   8   8
#     4  11  25  38  60  90 122 160 193 253 296 359
#     4  10  18  38  61  82 115 155 196 241 287 351
#     4  12  22  40  62  85 123 158 199 245 302 348
#     4  10  20  32  56  93 115 145 192 248 289 345
#     4  10  19  38  64  86 115 160 200 243 291 356
#     4  11  20  37  63  91 116 149 205 245 298 345
#     4  10  19  40  64  86 117 154 205 242 296 353
#
# _framework density 20.825049
#
# number of rings (size 3 to 8) (size 9 to 14) (size 15 to 20)
#    0.000    1.429    7.143    1.286    2.000    2.286 
#    0.000    0.000    0.000    1.714    0.000    0.000 
#    0.000    0.000    0.000    0.000    0.000    0.000 
#
# Total GULP energy -347115.968691 kJ/mol
# GULP energy per Si atom -12396.998882 kJ/mol
# Density = 2.077765 g / cm^3
# Si number density = 20.825049 Si / 1000 Ang^3
#
#
#
# Elastic Constant Matrix: (Units=GPa)
#
#
# Indices 1 2 3 4 5 6 
#
# 1 58.6111 18.6597 43.5543 0.0000 -23.8548 0.0000
# 2 18.6597 42.0104 24.0025 0.0000 -14.2267 0.0000
# 3 43.5543 24.0025 94.4629 0.0000 -30.0990 0.0000
# 4 0.0000 0.0000 0.0000 39.5879 0.0000 -6.5413
# 5 -23.8548 -14.2267 -30.0990 0.0000 44.5283 0.0000
# 6 0.0000 0.0000 0.0000 -6.5413 0.0000 26.4108
#
#
#
# Elastic Compliance Matrix: (Units=1/GPa)
#
#
# Indices 1 2 3 4 5 6 
#
# 1 0.028786 -0.004744 -0.009733 0.000000 0.007327 0.000000
# 2 -0.004744 0.029623 -0.003994 0.000000 0.004223 0.000000
# 3 -0.009733 -0.003994 0.017869 0.000000 0.005589 0.000000
# 4 0.000000 0.000000 0.000000 0.026338 0.000000 0.006523
# 5 0.007327 0.004223 0.005589 0.000000 0.031510 0.000000
# 6 0.000000 0.000000 0.000000 0.006523 0.000000 0.039479
#
#
# Mechanical properties :
#
#
# Convention : Reuss Voigt Hill
#
# Bulk Modulus (GPa) = 25.42124 40.83528 33.12826
# Shear Modulus (GPa) = 22.35543 29.36325 25.85934
#
# Velocity S-wave (km/s) = 3.27997 3.75907 3.52766
# Velocity P-wave (km/s) = 5.15537 6.20420 5.70394
#
# Compressibility (1/GPa) = 0.03933719
#
# Stress axis : x y z
#
# Youngs Moduli (GPa) = 34.73860 33.75763 55.96221
#
# Poissons Ratio (x) = 0.16015 0.54466
# Poissons Ratio (y) = 0.16480 0.22351
# Poissons Ratio (z) = 0.33810 0.13483
#
# Static dielectric constant tensor:
#      x y z
#    x 3.561780 0.000000 -0.447620 
#    y 0.000000 3.758840 0.000000 
#    z -0.447620 0.000000 4.000550 
# 
# 
# High freq. dielectric constant tensor:
#      x y z
#    x 1.780670 0.000000 -0.034590 
#    y 0.000000 1.807880 0.000000 
#    z -0.034590 0.000000 1.822590 
# 
# From -- ./inp_files/251971.got.cif
#   From: 2010.06.25/outbox.cif.g09.slc.cpg/sg15_126_cif.got.tgz:251971.got - 2010.06.28 07:06:18.
