data_PCOD8132974
_publ_section_title
;
Structure prediction by ZEFSAII (Michael W. Deem and Ramdas Pophale) SiO2 
 PCOD8132974
Probable space group: C 2/C
;
_chemical_formula_sum "Si O2"
_cell_formula_units_Z 56
_cell_length_a 12.438943
_cell_length_b 22.371476
_cell_length_c 24.861606
_cell_angle_alpha 90.000000
_cell_angle_beta 154.768510
_cell_angle_gamma 90.000000
_cell_volume 2949.162557
_symmetry_space_group_name_H-M "C 2/C"
_symmetry_group_IT_number 15
_symmetry_cell_setting 'monoclinic'
loop_
_space_group_symop_operation_xyz
x,y,z
-x,y,1/2-z
-x,-y,-z
x,-y,1/2+z
1/2+x,1/2+y,z
1/2-x,1/2+y,1/2-z
1/2-x,1/2-y,-z
1/2+x,1/2-y,1/2+z
loop_
_atom_site_type_symbol
_atom_site_label
_atom_site_fract_x
_atom_site_fract_y
_atom_site_fract_z
Si Si1 0.762755 0.046165 0.844501
Si Si2 0.078902 0.419989 0.154887
Si Si3 0.033978 0.925749 0.953655
Si Si4 0.210386 0.478952 0.637406
Si Si5 0.775991 0.342584 0.850439
Si Si6 0.024712 0.693815 0.951530
Si Si7 0.419360 0.690563 0.346179
O O1 0.500000 0.023435 0.750000
O O2 0.718341 0.091759 0.774993
O O3 0.918303 0.081277 0.960645
O O4 0.894893 0.987728 0.880648
O O5 0.188295 0.480591 0.179927
O O6 0.129933 0.363932 0.139079
O O7 0.783345 0.428803 0.030664
O O8 0.873016 0.869002 0.860661
O O9 0.500000 0.484236 0.750000
O O10 0.140876 0.410964 0.620827
O O11 0.000000 0.500000 0.500000
O O12 0.500000 0.342110 0.750000
O O13 0.775425 0.308986 0.792397
O O14 0.959077 0.308982 0.975970
O O15 0.873013 0.752666 0.863999
O O16 0.298232 0.692736 0.048429
#
# Coordination Sequence:
#
# PCOD8132974 Si02
#       7
#     8   8   8   8   8   8   8
#     4   9  18  31  49  72  97 129 165 214 261 313
#     4  10  19  31  50  72 105 132 167 219 263 314
#     4   9  18  32  49  73  98 128 173 211 261 318
#     4  11  22  34  54  83 113 145 177 222 276 326
#     4   9  17  30  46  70 104 133 170 215 266 318
#     4   9  17  29  43  71  97 130 175 210 262 314
#     4   9  17  28  48  67  98 136 166 221 265 309
#
# _framework density 18.988441000000002
#
# number of rings (size 3 to 8) (size 9 to 14) (size 15 to 20)
#    0.000    2.571    1.429    0.857    4.000    1.143 
#    0.000    5.714    0.000    0.857    0.000    1.000 
#    0.000    0.000    0.000    0.000    0.000    0.000 
#
# Total GULP energy -347028.605770 kJ/mol
# GULP energy per Si atom -12393.878778 kJ/mol
# Density = 1.894522 g / cm^3
# Si number density = 18.988441 Si / 1000 Ang^3
#
#
#
# Elastic Constant Matrix: (Units=GPa)
#
#
# Indices 1 2 3 4 5 6 
#
# 1 61.4642 51.2969 40.0291 0.0040 -32.5228 -0.0027
# 2 51.2969 119.7613 44.7912 -0.0285 -34.2294 0.0005
# 3 40.0291 44.7912 93.7003 -0.0304 -38.5894 -0.0039
# 4 0.0040 -0.0285 -0.0304 24.4766 -0.0190 -8.6674
# 5 -32.5228 -34.2294 -38.5894 -0.0190 36.6840 0.0011
# 6 -0.0027 0.0005 -0.0039 -8.6674 0.0011 27.8205
#
#
#
# Elastic Compliance Matrix: (Units=1/GPa)
#
#
# Indices 1 2 3 4 5 6 
#
# 1 0.036540 -0.008456 -0.002604 -0.000001 0.021765 0.000002
# 2 -0.008456 0.013535 -0.001312 0.000020 0.003752 0.000005
# 3 -0.002604 -0.001312 0.019332 0.000041 0.016804 0.000015
# 4 -0.000001 0.000020 0.000041 0.045922 0.000084 0.014307
# 5 0.021765 0.003752 0.016804 0.000084 0.067734 0.000028
# 6 0.000002 0.000005 0.000015 0.014307 0.000028 0.040402
#
#
# Mechanical properties :
#
#
# Convention : Reuss Voigt Hill
#
# Bulk Modulus (GPa) = 22.39020 60.79558 41.59289
# Shear Modulus (GPa) = 19.00444 27.05011 23.02728
#
# Velocity S-wave (km/s) = 3.16704 3.77842 3.48616
# Velocity P-wave (km/s) = 5.01903 7.14996 6.17708
#
# Compressibility (1/GPa) = 0.04466239
#
# Stress axis : x y z
#
# Youngs Moduli (GPa) = 27.36764 73.88153 51.72670
#
# Poissons Ratio (x) = 0.62476 0.13468
# Poissons Ratio (y) = 0.23143 0.06789
# Poissons Ratio (z) = 0.07126 0.09697
#
# Static dielectric constant tensor:
#      x y z
#    x 3.362680 -0.000010 -0.429300 
#    y -0.000010 3.540620 -0.000080 
#    z -0.429300 -0.000080 3.538550 
# 
# 
# High freq. dielectric constant tensor:
#      x y z
#    x 1.714650 0.000000 -0.041100 
#    y 0.000000 1.728650 -0.000010 
#    z -0.041100 -0.000010 1.727930 
# 
# From -- ./inp_files/270955.got.cif
#   From: 2010.06.25/outbox.cif.g09.slc.cpg/sg15_136_cif.got.tgz:270955.got - 2010.06.28 07:06:18.
