data_PCOD8132116
_publ_section_title
;
Structure prediction by ZEFSAII (Michael W. Deem and Ramdas Pophale) SiO2 
 PCOD8132116
Probable space group: C 2/C
;
_chemical_formula_sum "Si O2"
_cell_formula_units_Z 44
_cell_length_a 9.630061
_cell_length_b 27.537129
_cell_length_c 9.188601
_cell_angle_alpha 90.000000
_cell_angle_beta 96.930862
_cell_angle_gamma 90.000000
_cell_volume 2418.866087
_symmetry_space_group_name_H-M "C 2/C"
_symmetry_group_IT_number 15
_symmetry_cell_setting 'monoclinic'
loop_
_space_group_symop_operation_xyz
x,y,z
-x,y,1/2-z
-x,-y,-z
x,-y,1/2+z
1/2+x,1/2+y,z
1/2-x,1/2+y,1/2-z
1/2-x,1/2-y,-z
1/2+x,1/2-y,1/2+z
loop_
_atom_site_type_symbol
_atom_site_label
_atom_site_fract_x
_atom_site_fract_y
_atom_site_fract_z
Si Si1 0.265357 0.350444 0.065057
Si Si2 0.439424 0.566702 0.492329
Si Si3 0.970240 0.676904 0.577647
Si Si4 0.500000 0.500624 0.750000
Si Si5 0.179367 0.863898 0.093923
Si Si6 0.014782 0.774549 0.418017
O O1 0.329559 0.389712 0.963559
O O2 0.308190 0.368141 0.231139
O O3 0.327827 0.296434 0.039593
O O4 0.099394 0.351178 0.019774
O O5 0.406273 0.534379 0.632062
O O6 0.412002 0.534250 0.346188
O O7 0.599467 0.588197 0.522815
O O8 0.830331 0.644832 0.536294
O O9 0.000000 0.684652 0.750000
O O10 0.966760 0.730329 0.510983
O O11 0.088383 0.817073 0.047209
O O12 0.000000 0.757795 0.250000
#
# Coordination Sequence:
#
# PCOD8132116 Si02
#       6
#     8   8   8   4   8   8
#     4   9  17  32  51  70 103 132 163 196 243 287
#     4  10  18  36  54  79  92 122 159 201 248 289
#     4  10  19  30  48  73 100 139 166 194 234 285
#     4  10  20  32  62  76  92 114 164 208 240 300
#     4   9  17  32  51  70 103 132 163 196 243 287
#     4   9  17  31  47  68  98 141 171 199 230 270
#
# _framework density 18.190342999999999
#
# number of rings (size 3 to 8) (size 9 to 14) (size 15 to 20)
#    0.000    2.545    1.818    2.182    0.000    0.000 
#    9.818    0.000    0.000    6.545    0.000    0.000 
#    0.000    0.000    0.000    0.000    0.000    0.000 
#
# Total GULP energy -272587.975678 kJ/mol
# GULP energy per Si atom -12390.362531 kJ/mol
# Density = 1.814894 g / cm^3
# Si number density = 18.190343 Si / 1000 Ang^3
#
#
#
# Elastic Constant Matrix: (Units=GPa)
#
#
# Indices 1 2 3 4 5 6 
#
# 1 124.1292 39.1661 16.6284 0.0000 -2.9870 0.0000
# 2 39.1661 96.6334 30.9290 0.0000 -5.6957 0.0000
# 3 16.6284 30.9290 51.0079 0.0000 -7.7802 0.0000
# 4 0.0000 0.0000 0.0000 25.1211 0.0000 -8.9950
# 5 -2.9870 -5.6957 -7.7802 0.0000 13.5279 0.0000
# 6 0.0000 0.0000 0.0000 -8.9950 0.0000 12.9704
#
#
#
# Elastic Compliance Matrix: (Units=1/GPa)
#
#
# Indices 1 2 3 4 5 6 
#
# 1 0.009272 -0.003462 -0.000914 0.000000 0.000064 0.000000
# 2 -0.003462 0.014146 -0.007297 0.000000 0.000995 0.000000
# 3 -0.000914 -0.007297 0.026119 0.000000 0.011748 0.000000
# 4 0.000000 0.000000 0.000000 0.052958 0.000000 0.036726
# 5 0.000064 0.000995 0.011748 0.000000 0.081110 0.000000
# 6 0.000000 0.000000 0.000000 0.036726 0.000000 0.102568
#
#
# Mechanical properties :
#
#
# Convention : Reuss Voigt Hill
#
# Bulk Modulus (GPa) = 38.18002 49.46861 43.82432
# Shear Modulus (GPa) = 15.71095 22.66036 19.18565
#
# Velocity S-wave (km/s) = 2.94206 3.53333 3.25116
# Velocity P-wave (km/s) = 5.70751 6.62570 6.18367
#
# Compressibility (1/GPa) = 0.02619171
#
# Stress axis : x y z
#
# Youngs Moduli (GPa) = 107.84684 70.69301 38.28608
#
# Poissons Ratio (x) = 0.24473 0.03499
# Poissons Ratio (y) = 0.37335 0.27937
# Poissons Ratio (z) = 0.09855 0.51585
#
# Static dielectric constant tensor:
#      x y z
#    x 3.507960 0.000000 -0.106910 
#    y 0.000000 3.368750 0.000000 
#    z -0.106910 0.000000 3.165520 
# 
# 
# High freq. dielectric constant tensor:
#      x y z
#    x 1.690500 0.000000 -0.011880 
#    y 0.000000 1.704040 0.000000 
#    z -0.011880 0.000000 1.683220 
# 
# From -- ./inp_files/25462.got.cif
#   From: 2010.06.25/outbox.cif.g09.slc.cpg/sg15_13_cif.got.tgz:25462.got - 2010.06.28 07:06:18.
