data_PCOD8132234
_publ_section_title
;
Structure prediction by ZEFSAII (Michael W. Deem and Ramdas Pophale) SiO2 
 PCOD8132234
Probable space group: C 2/C
;
_chemical_formula_sum "Si O2"
_cell_formula_units_Z 52
_cell_length_a 13.524296
_cell_length_b 11.386589
_cell_length_c 25.629950
_cell_angle_alpha 90.000000
_cell_angle_beta 41.519855
_cell_angle_gamma 90.000000
_cell_volume 2616.318976
_symmetry_space_group_name_H-M "C 2/C"
_symmetry_group_IT_number 15
_symmetry_cell_setting 'monoclinic'
loop_
_space_group_symop_operation_xyz
x,y,z
-x,y,1/2-z
-x,-y,-z
x,-y,1/2+z
1/2+x,1/2+y,z
1/2-x,1/2+y,1/2-z
1/2-x,1/2-y,-z
1/2+x,1/2-y,1/2+z
loop_
_atom_site_type_symbol
_atom_site_label
_atom_site_fract_x
_atom_site_fract_y
_atom_site_fract_z
Si Si1 0.010681 0.777088 0.602410
Si Si2 0.258608 0.282297 0.628888
Si Si3 0.000000 0.120253 0.750000
Si Si4 0.230183 0.392882 0.060961
Si Si5 0.913071 0.028175 0.676159
Si Si6 0.828487 0.137182 0.992237
Si Si7 0.668925 0.969512 0.193457
O O1 0.072340 0.674401 0.615502
O O2 0.137933 0.811864 0.511280
O O3 0.872550 0.723964 0.624829
O O4 0.955963 0.891657 0.654960
O O5 0.356713 0.325164 0.540936
O O6 0.173722 0.390580 0.688694
O O7 0.127379 0.190851 0.668169
O O8 0.918705 0.048750 0.736032
O O9 0.262916 0.411636 0.109257
O O10 0.224711 0.519532 0.033466
O O11 0.748276 0.060700 0.717713
O O12 0.022476 0.109523 0.598561
O O13 0.750000 0.250000 0.000000
O O14 0.500000 0.926261 0.250000
#
# Coordination Sequence:
#
# PCOD8132234 Si02
#       7
#     8   8   4   8   8   8   8
#     4   9  19  39  59  81 112 154 192 238 284 340
#     4  10  20  35  60  81 116 151 195 236 286 343
#     4  12  22  36  54  88 118 154 182 240 308 350
#     4   9  19  35  62  83 111 149 198 235 281 337
#     4  10  22  37  59  82 116 154 191 236 299 345
#     4  10  18  36  60  86 115 151 196 245 277 345
#     4  10  20  36  56  85 109 148 198 236 278 346
#
# _framework density 19.875252
#
# number of rings (size 3 to 8) (size 9 to 14) (size 15 to 20)
#    0.000    2.154    2.308    0.923    2.154    3.692 
#    1.385    0.769    3.385    0.000    0.000    0.000 
#    0.000    0.000    0.000    0.000    0.000    0.000 
#
# Total GULP energy -322094.937931 kJ/mol
# GULP energy per Si atom -12388.266843 kJ/mol
# Density = 1.983002 g / cm^3
# Si number density = 19.875252 Si / 1000 Ang^3
#
#
#
# Elastic Constant Matrix: (Units=GPa)
#
#
# Indices 1 2 3 4 5 6 
#
# 1 152.4735 45.5823 41.9814 0.0000 4.3929 0.0000
# 2 45.5823 67.6007 10.7851 0.0000 -4.1366 0.0000
# 3 41.9814 10.7851 61.0375 0.0000 5.5235 0.0000
# 4 0.0000 0.0000 0.0000 17.7178 0.0000 1.0014
# 5 4.3929 -4.1366 5.5235 0.0000 29.8074 0.0000
# 6 0.0000 0.0000 0.0000 1.0014 0.0000 31.2333
#
#
#
# Elastic Compliance Matrix: (Units=1/GPa)
#
#
# Indices 1 2 3 4 5 6 
#
# 1 0.009902 -0.005847 -0.005667 0.000000 -0.001221 0.000000
# 2 -0.005847 0.018884 0.000376 0.000000 0.003413 0.000000
# 3 -0.005667 0.000376 0.020478 0.000000 -0.002907 0.000000
# 4 0.000000 0.000000 0.000000 0.056543 0.000000 -0.001813
# 5 -0.001221 0.003413 -0.002907 0.000000 0.034741 0.000000
# 6 0.000000 0.000000 0.000000 -0.001813 0.000000 0.032075
#
#
# Mechanical properties :
#
#
# Convention : Reuss Voigt Hill
#
# Bulk Modulus (GPa) = 37.05370 53.08990 45.07180
# Shear Modulus (GPa) = 24.52235 27.93589 26.22912
#
# Velocity S-wave (km/s) = 3.51638 3.75315 3.63669
# Velocity P-wave (km/s) = 5.93044 6.74915 6.35300
#
# Compressibility (1/GPa) = 0.02698786
#
# Stress axis : x y z
#
# Youngs Moduli (GPa) = 100.98863 52.95376 48.83365
#
# Poissons Ratio (x) = 0.30964 0.27674
# Poissons Ratio (y) = 0.59053 -0.01837
# Poissons Ratio (z) = 0.57230 -0.01992
#
# Static dielectric constant tensor:
#      x y z
#    x 3.772800 0.000000 -0.013730 
#    y 0.000000 3.539040 0.000000 
#    z -0.013730 0.000000 3.601150 
# 
# 
# High freq. dielectric constant tensor:
#      x y z
#    x 1.776000 0.000000 0.000200 
#    y 0.000000 1.761190 0.000000 
#    z 0.000200 0.000000 1.767260 
# 
# From -- ./inp_files/236898.got.cif
#   From: 2010.06.25/outbox.cif.g09.slc.cpg/sg15_119_cif.got.tgz:236898.got - 2010.06.28 07:06:18.
