data_PCOD8132332
_publ_section_title
;
Structure prediction by ZEFSAII (Michael W. Deem and Ramdas Pophale) SiO2 
 PCOD8132332
Probable space group: C 2/C
;
_chemical_formula_sum "Si O2"
_cell_formula_units_Z 52
_cell_length_a 8.380966
_cell_length_b 16.379263
_cell_length_c 17.751003
_cell_angle_alpha 90.000000
_cell_angle_beta 91.016127
_cell_angle_gamma 90.000000
_cell_volume 2436.368812
_symmetry_space_group_name_H-M "C 2/C"
_symmetry_group_IT_number 15
_symmetry_cell_setting 'monoclinic'
loop_
_space_group_symop_operation_xyz
x,y,z
-x,y,1/2-z
-x,-y,-z
x,-y,1/2+z
1/2+x,1/2+y,z
1/2-x,1/2+y,1/2-z
1/2-x,1/2-y,-z
1/2+x,1/2-y,1/2+z
loop_
_atom_site_type_symbol
_atom_site_label
_atom_site_fract_x
_atom_site_fract_y
_atom_site_fract_z
Si Si1 0.317444 0.402928 0.830838
Si Si2 0.382155 0.972923 0.101931
Si Si3 0.341533 0.627530 0.699008
Si Si4 0.500000 0.102467 0.750000
Si Si5 0.845732 0.262617 0.576978
Si Si6 0.907201 0.386133 0.957678
Si Si7 0.673633 0.437393 0.830255
O O1 0.284914 0.491466 0.869367
O O2 0.242175 0.326650 0.870941
O O3 0.504783 0.392822 0.830784
O O4 0.241318 0.407289 0.745978
O O5 0.494480 0.950106 0.173338
O O6 0.456908 0.048291 0.057883
O O7 0.356424 0.896556 0.045231
O O8 0.500000 0.645442 0.750000
O O9 0.172559 0.649883 0.742281
O O10 0.357527 0.678846 0.622589
O O11 0.341032 0.534617 0.671650
O O12 0.750000 0.250000 0.500000
O O13 0.022018 0.295867 0.556238
O O14 0.757342 0.402834 0.904333
#
# Coordination Sequence:
#
# PCOD8132332 Si02
#       7
#     8   8   8   4   8   8   8
#     4  10  22  41  69  94 139 174 233 278 346 410
#     4  10  18  36  64  99 118 177 227 277 330 404
#     4  12  25  44  70 105 138 179 232 296 350 415
#     4  12  20  40  70  94 136 168 234 288 340 402
#     4  11  27  47  64  96 146 185 222 286 365 412
#     4  10  22  37  68  92 134 175 226 272 343 416
#     4  11  21  43  69 103 127 176 237 289 331 414
#
# _framework density 21.343239000000001
#
# number of rings (size 3 to 8) (size 9 to 14) (size 15 to 20)
#    0.000    1.231    4.615    0.923    6.462    3.077 
#    2.769    0.769    0.000    0.000    0.000    0.000 
#    0.000    0.000    0.000    0.000    0.000    0.000 
#
# Total GULP energy -322209.582456 kJ/mol
# GULP energy per Si atom -12392.676248 kJ/mol
# Density = 2.129466 g / cm^3
# Si number density = 21.343239 Si / 1000 Ang^3
#
#
#
# Elastic Constant Matrix: (Units=GPa)
#
#
# Indices 1 2 3 4 5 6 
#
# 1 82.0470 5.4688 31.9407 0.0000 15.8217 0.0000
# 2 5.4688 64.3371 45.6554 0.0000 9.2244 0.0000
# 3 31.9407 45.6554 166.2905 0.0000 21.1102 0.0000
# 4 0.0000 0.0000 0.0000 38.2049 0.0000 -1.3679
# 5 15.8217 9.2244 21.1102 0.0000 33.1982 0.0000
# 6 0.0000 0.0000 0.0000 -1.3679 0.0000 22.8440
#
#
#
# Elastic Compliance Matrix: (Units=1/GPa)
#
#
# Indices 1 2 3 4 5 6 
#
# 1 0.014093 0.001267 -0.002347 0.000000 -0.005576 0.000000
# 2 0.001267 0.019563 -0.005273 0.000000 -0.002686 0.000000
# 3 -0.002347 -0.005273 0.008250 0.000000 -0.002662 0.000000
# 4 0.000000 0.000000 0.000000 0.026231 0.000000 0.001571
# 5 -0.005576 -0.002686 -0.002662 0.000000 0.035219 0.000000
# 6 0.000000 0.000000 0.000000 0.001571 0.000000 0.043869
#
#
# Mechanical properties :
#
#
# Convention : Reuss Voigt Hill
#
# Bulk Modulus (GPa) = 34.24780 53.20050 43.72415
# Shear Modulus (GPa) = 29.47005 34.15674 31.81340
#
# Velocity S-wave (km/s) = 3.71990 4.00478 3.86497
# Velocity P-wave (km/s) = 5.87633 6.80916 6.35987
#
# Compressibility (1/GPa) = 0.02919895
#
# Stress axis : x y z
#
# Youngs Moduli (GPa) = 70.95940 51.11774 121.21010
#
# Poissons Ratio (x) = -0.06476 0.28446
# Poissons Ratio (y) = -0.08990 0.63918
# Poissons Ratio (z) = 0.16653 0.26956
#
# Static dielectric constant tensor:
#      x y z
#    x 4.090660 0.000000 -0.256720 
#    y 0.000000 3.762920 0.000000 
#    z -0.256720 0.000000 4.145890 
# 
# 
# High freq. dielectric constant tensor:
#      x y z
#    x 1.838880 0.000000 -0.004400 
#    y 0.000000 1.812780 0.000000 
#    z -0.004400 0.000000 1.852770 
# 
# From -- ./inp_files/190513.got.cif
#   From: 2010.06.25/outbox.cif.g09.slc.cpg/sg15_96_cif.got.tgz:190513.got - 2010.06.28 07:06:18.
