data_PCOD8132471
_publ_section_title
;
Structure prediction by ZEFSAII (Michael W. Deem and Ramdas Pophale) SiO2 
 PCOD8132471
Probable space group: C 2/C
;
_chemical_formula_sum "Si O2"
_cell_formula_units_Z 60
_cell_length_a 11.888463
_cell_length_b 17.056421
_cell_length_c 15.535610
_cell_angle_alpha 90.000000
_cell_angle_beta 69.628786
_cell_angle_gamma 90.000000
_cell_volume 2953.202878
_symmetry_space_group_name_H-M "C 2/C"
_symmetry_group_IT_number 15
_symmetry_cell_setting 'monoclinic'
loop_
_space_group_symop_operation_xyz
x,y,z
-x,y,1/2-z
-x,-y,-z
x,-y,1/2+z
1/2+x,1/2+y,z
1/2-x,1/2+y,1/2-z
1/2-x,1/2-y,-z
1/2+x,1/2-y,1/2+z
loop_
_atom_site_type_symbol
_atom_site_label
_atom_site_fract_x
_atom_site_fract_y
_atom_site_fract_z
Si Si1 0.203524 0.109154 0.106357
Si Si2 0.059434 0.349550 0.028356
Si Si3 0.500000 0.646556 0.750000
Si Si4 0.016869 0.077514 0.443015
Si Si5 0.598876 0.089911 0.787455
Si Si6 0.515390 0.708051 0.926735
Si Si7 0.793340 0.717550 0.854045
Si Si8 0.663228 0.506564 0.760363
O O1 0.201441 0.189227 0.162579
O O2 0.110491 0.112345 0.053210
O O3 0.154120 0.036427 0.172596
O O4 0.341021 0.092908 0.040161
O O5 0.137161 0.298432 0.075237
O O6 0.954820 0.399227 0.102330
O O7 0.997401 0.294686 0.972210
O O8 0.465225 0.702213 0.840980
O O9 0.601323 0.590520 0.763555
O O10 0.062232 0.145858 0.495708
O O11 0.110075 0.054542 0.343628
O O12 0.000000 0.000000 0.500000
O O13 0.500000 0.055346 0.750000
O O14 0.641334 0.175305 0.742863
O O15 0.699347 0.023691 0.754720
O O16 0.656962 0.687359 0.892615
#
# Coordination Sequence:
#
# PCOD8132471 Si02
#       8
#     8   8   4   8   8   8   8   8
#     4  11  21  35  61  96 122 156 202 263 306 356
#     4  10  21  37  65  90 118 164 208 262 293 364
#     4  12  22  38  60  90 132 166 188 256 320 382
#     4  12  20  33  60  91 128 151 200 254 309 372
#     4  10  23  40  63  86 126 167 208 252 314 368
#     4  11  20  37  61  93 122 157 206 255 316 364
#     4  10  18  37  65  93 121 153 204 265 303 352
#     4  12  24  38  58  94 127 167 199 252 326 369
#
# _framework density 20.316925000000001
#
# number of rings (size 3 to 8) (size 9 to 14) (size 15 to 20)
#    0.000    1.067    6.667    0.800    3.733    1.600 
#    0.000    0.667    5.867    0.000    0.000    0.000 
#    0.000    0.000    0.000    0.000    0.000    0.000 
#
# Total GULP energy -371788.459845 kJ/mol
# GULP energy per Si atom -12392.948661 kJ/mol
# Density = 2.027068 g / cm^3
# Si number density = 20.316925 Si / 1000 Ang^3
#
#
#
# Elastic Constant Matrix: (Units=GPa)
#
#
# Indices 1 2 3 4 5 6 
#
# 1 68.4568 19.1970 28.5310 0.0000 -4.8146 0.0000
# 2 19.1970 47.7301 32.1061 0.0000 0.8880 0.0000
# 3 28.5310 32.1061 125.0499 0.0000 1.9773 0.0000
# 4 0.0000 0.0000 0.0000 18.7439 0.0000 -0.8108
# 5 -4.8146 0.8880 1.9773 0.0000 31.6014 0.0000
# 6 0.0000 0.0000 0.0000 -0.8108 0.0000 31.4243
#
#
#
# Elastic Compliance Matrix: (Units=1/GPa)
#
#
# Indices 1 2 3 4 5 6 
#
# 1 0.017403 -0.005261 -0.002667 0.000000 0.002966 0.000000
# 2 -0.005261 0.026918 -0.005692 0.000000 -0.001202 0.000000
# 3 -0.002667 -0.005692 0.010080 0.000000 -0.000877 0.000000
# 4 0.000000 0.000000 0.000000 0.053410 0.000000 0.001378
# 5 0.002966 -0.001202 -0.000877 0.000000 0.032185 0.000000
# 6 0.000000 0.000000 0.000000 0.001378 0.000000 0.031858
#
#
# Mechanical properties :
#
#
# Convention : Reuss Voigt Hill
#
# Bulk Modulus (GPa) = 36.81521 44.54499 40.68010
# Shear Modulus (GPa) = 24.02138 27.11410 25.56774
#
# Velocity S-wave (km/s) = 3.44224 3.65712 3.55131
# Velocity P-wave (km/s) = 5.82739 6.30915 6.07305
#
# Compressibility (1/GPa) = 0.02716269
#
# Stress axis : x y z
#
# Youngs Moduli (GPa) = 57.46105 37.14979 99.20158
#
# Poissons Ratio (x) = 0.19544 0.26455
# Poissons Ratio (y) = 0.30229 0.56464
# Poissons Ratio (z) = 0.15324 0.21145
#
# Static dielectric constant tensor:
#      x y z
#    x 3.460160 0.000000 0.261210 
#    y 0.000000 3.541570 0.000000 
#    z 0.261210 0.000000 -0.047300 
# 
# 
# High freq. dielectric constant tensor:
#      x y z
#    x 1.770930 0.000000 -0.002680 
#    y 0.000000 1.776320 0.000000 
#    z -0.002680 0.000000 1.804620 
# 
# From -- ./inp_files/146050.got.cif
#   From: 2010.06.25/outbox.cif.g09.slc.cpg/sg15_74_cif.got.tgz:146050.got - 2010.06.28 07:06:18.
