data_PCOD8132579
_publ_section_title
;
Structure prediction by ZEFSAII (Michael W. Deem and Ramdas Pophale) SiO2 
 PCOD8132579
Probable space group: C 2/C
;
_chemical_formula_sum "Si O2"
_cell_formula_units_Z 48
_cell_length_a 26.641637
_cell_length_b 9.972141
_cell_length_c 18.649690
_cell_angle_alpha 90.000000
_cell_angle_beta 149.956633
_cell_angle_gamma 90.000000
_cell_volume 2480.617451
_symmetry_space_group_name_H-M "C 2/C"
_symmetry_group_IT_number 15
_symmetry_cell_setting 'monoclinic'
loop_
_space_group_symop_operation_xyz
x,y,z
-x,y,1/2-z
-x,-y,-z
x,-y,1/2+z
1/2+x,1/2+y,z
1/2-x,1/2+y,1/2-z
1/2-x,1/2-y,-z
1/2+x,1/2-y,1/2+z
loop_
_atom_site_type_symbol
_atom_site_label
_atom_site_fract_x
_atom_site_fract_y
_atom_site_fract_z
Si Si1 0.627516 0.385378 0.632363
Si Si2 0.898055 0.157497 0.822364
Si Si3 0.247720 0.610097 0.352930
Si Si4 0.399508 0.700377 0.161457
Si Si5 0.298546 0.817421 0.169040
Si Si6 0.899714 0.113157 0.662878
O O1 0.013067 0.164627 0.988583
O O2 0.644900 0.516836 0.702434
O O3 0.667766 0.415105 0.602782
O O4 0.690008 0.265720 0.744259
O O5 0.831894 0.279188 0.772762
O O6 0.885629 0.180113 0.722315
O O7 0.189107 0.472741 0.296038
O O8 0.305469 0.652274 0.496905
O O9 0.500000 0.758856 0.250000
O O10 0.383025 0.779787 0.215109
O O11 0.411257 0.544262 0.192932
O O12 0.309726 0.722476 0.995154
O O13 0.000000 0.169736 0.750000
#
# Coordination Sequence:
#
# PCOD8132579 Si02
#       6
#     8   8   8   8   8   8
#     4  11  23  40  61  86 119 157 199 234 289 359
#     4  11  23  39  62  88 116 158 196 239 289 353
#     4  11  23  38  61  88 120 152 193 248 296 335
#     4   9  19  36  64  88 112 155 201 239 282 347
#     4  10  21  38  60  88 119 150 195 244 290 341
#     4  10  18  38  64  86 114 156 202 237 281 353
#
# _framework density 19.350020000000001
#
# number of rings (size 3 to 8) (size 9 to 14) (size 15 to 20)
#    0.000    1.667    3.333    1.500    0.000    2.000 
#    0.000    2.500    0.000    0.000    0.000    0.000 
#    0.000    0.000    0.000    0.000    0.000    0.000 
#
# Total GULP energy -297669.456557 kJ/mol
# GULP energy per Si atom -12402.894023 kJ/mol
# Density = 1.930598 g / cm^3
# Si number density = 19.350020 Si / 1000 Ang^3
#
#
#
# Elastic Constant Matrix: (Units=GPa)
#
#
# Indices 1 2 3 4 5 6 
#
# 1 91.1016 23.1959 30.6426 0.0000 8.2732 0.0000
# 2 23.1959 76.4839 42.4480 0.0000 6.2422 0.0000
# 3 30.6426 42.4480 61.6255 0.0000 -2.2069 0.0000
# 4 0.0000 0.0000 0.0000 32.3841 0.0000 -3.3825
# 5 8.2732 6.2422 -2.2069 0.0000 35.6885 0.0000
# 6 0.0000 0.0000 0.0000 -3.3825 0.0000 25.9514
#
#
#
# Elastic Compliance Matrix: (Units=1/GPa)
#
#
# Indices 1 2 3 4 5 6 
#
# 1 0.013624 -0.000014 -0.006893 0.000000 -0.003582 0.000000
# 2 -0.000014 0.021952 -0.015285 0.000000 -0.004782 0.000000
# 3 -0.006893 -0.015285 0.030403 0.000000 0.006152 0.000000
# 4 0.000000 0.000000 0.000000 0.031306 0.000000 0.004080
# 5 -0.003582 -0.004782 0.006152 0.000000 0.030067 0.000000
# 6 0.000000 0.000000 0.000000 0.004080 0.000000 0.039065
#
#
# Mechanical properties :
#
#
# Convention : Reuss Voigt Hill
#
# Bulk Modulus (GPa) = 46.30625 46.86488 46.58556
# Shear Modulus (GPa) = 22.93568 27.66645 25.30106
#
# Velocity S-wave (km/s) = 3.44656 3.78536 3.61993
# Velocity P-wave (km/s) = 6.31040 6.58615 6.44975
#
# Compressibility (1/GPa) = 0.02159536
#
# Stress axis : x y z
#
# Youngs Moduli (GPa) = 73.39897 45.55346 32.89108
#
# Poissons Ratio (x) = 0.00063 0.22672
# Poissons Ratio (y) = 0.00102 0.50274
# Poissons Ratio (z) = 0.50595 0.69629
#
# Static dielectric constant tensor:
#      x y z
#    x 3.630550 0.000000 -0.006080 
#    y 0.000000 3.294990 0.000000 
#    z -0.006080 0.000000 3.460720 
# 
# 
# High freq. dielectric constant tensor:
#      x y z
#    x 1.764670 0.000000 -0.004950 
#    y 0.000000 1.734570 0.000000 
#    z -0.004950 0.000000 1.754400 
# 
# From -- ./inp_files/214644.got.cif
#   From: 2010.06.25/outbox.cif.g09.slc.cpg/sg15_108_cif.got.tgz:214644.got - 2010.06.28 07:06:18.
