data_PCOD8132283
_publ_section_title
;
Structure prediction by ZEFSAII (Michael W. Deem and Ramdas Pophale) SiO2 
 PCOD8132283
Probable space group: C 2/C
;
_chemical_formula_sum "Si O2"
_cell_formula_units_Z 52
_cell_length_a 8.427875
_cell_length_b 16.640976
_cell_length_c 17.166219
_cell_angle_alpha 90.000000
_cell_angle_beta 76.554575
_cell_angle_gamma 90.000000
_cell_volume 2341.543066
_symmetry_space_group_name_H-M "C 2/C"
_symmetry_group_IT_number 15
_symmetry_cell_setting 'monoclinic'
loop_
_space_group_symop_operation_xyz
x,y,z
-x,y,1/2-z
-x,-y,-z
x,-y,1/2+z
1/2+x,1/2+y,z
1/2-x,1/2+y,1/2-z
1/2-x,1/2-y,-z
1/2+x,1/2-y,1/2+z
loop_
_atom_site_type_symbol
_atom_site_label
_atom_site_fract_x
_atom_site_fract_y
_atom_site_fract_z
Si Si1 0.000000 0.596708 0.250000
Si Si2 0.998523 0.835489 0.658909
Si Si3 0.609956 0.831577 0.348048
Si Si4 0.361600 0.185265 0.124472
Si Si5 0.604941 0.079324 0.001546
Si Si6 0.747152 0.644991 0.831611
Si Si7 0.715767 0.472373 0.876587
O O1 0.883744 0.651423 0.209551
O O2 0.890251 0.538517 0.314830
O O3 0.890280 0.764234 0.632153
O O4 0.923610 0.920795 0.647914
O O5 0.000000 0.814677 0.750000
O O6 0.185765 0.839187 0.609425
O O7 0.672166 0.884720 0.413255
O O8 0.732748 0.853077 0.264101
O O9 0.423334 0.852055 0.351093
O O10 0.500046 0.150538 0.052793
O O11 0.369255 0.282129 0.127551
O O12 0.760664 0.054321 0.036324
O O13 0.500000 0.000000 0.000000
O O14 0.660135 0.564189 0.871956
#
# Coordination Sequence:
#
# PCOD8132283 Si02
#       7
#     4   8   8   8   8   8   8
#     4  10  18  36  62  88 118 162 218 262 296 382
#     4  11  20  39  63  93 124 168 208 266 324 373
#     4  10  19  38  65  90 126 169 217 254 323 380
#     4  10  22  40  65  89 125 166 214 256 319 384
#     4  11  24  40  65  99 125 169 218 268 311 376
#     4  10  19  37  64  92 121 170 213 262 304 388
#     4  11  22  36  64  95 126 163 216 265 321 369
#
# _framework density 22.207578999999999
#
# number of rings (size 3 to 8) (size 9 to 14) (size 15 to 20)
#    0.000    1.538    6.154    0.923    2.154    3.077 
#    1.385    0.769    6.769    0.000    0.000    0.000 
#    0.000    0.000    0.000    0.000    0.000    0.000 
#
# Total GULP energy -322450.190521 kJ/mol
# GULP energy per Si atom -12401.930405 kJ/mol
# Density = 2.215703 g / cm^3
# Si number density = 22.207579 Si / 1000 Ang^3
#
#
#
# Elastic Constant Matrix: (Units=GPa)
#
#
# Indices 1 2 3 4 5 6 
#
# 1 36.6445 33.6325 15.4077 0.0000 4.4617 0.0000
# 2 33.6325 188.5075 47.2375 0.0000 3.6670 0.0000
# 3 15.4077 47.2375 97.8473 0.0000 11.3366 0.0000
# 4 0.0000 0.0000 0.0000 26.4202 0.0000 3.8842
# 5 4.4617 3.6670 11.3366 0.0000 17.0494 0.0000
# 6 0.0000 0.0000 0.0000 3.8842 0.0000 27.2745
#
#
#
# Elastic Compliance Matrix: (Units=1/GPa)
#
#
# Indices 1 2 3 4 5 6 
#
# 1 0.033876 -0.005425 -0.001976 0.000000 -0.006385 0.000000
# 2 -0.005425 0.006911 -0.002681 0.000000 0.001716 0.000000
# 3 -0.001976 -0.002681 0.012675 0.000000 -0.007334 0.000000
# 4 0.000000 0.000000 0.000000 0.038659 0.000000 -0.005506
# 5 -0.006385 0.001716 -0.007334 0.000000 0.064831 0.000000
# 6 0.000000 0.000000 0.000000 -0.005506 0.000000 0.037448
#
#
# Mechanical properties :
#
#
# Convention : Reuss Voigt Hill
#
# Bulk Modulus (GPa) = 30.03054 57.28385 43.65720
# Shear Modulus (GPa) = 22.15679 29.26361 25.71020
#
# Velocity S-wave (km/s) = 3.16209 3.63399 3.40622
# Velocity P-wave (km/s) = 5.18495 6.59231 5.93053
#
# Compressibility (1/GPa) = 0.03329944
#
# Stress axis : x y z
#
# Youngs Moduli (GPa) = 29.51928 144.69401 78.89411
#
# Poissons Ratio (x) = 0.78492 0.15588
# Poissons Ratio (y) = 0.16013 0.21152
# Poissons Ratio (z) = 0.05832 0.38793
#
# Static dielectric constant tensor:
#      x y z
#    x 3.651690 0.000000 0.223680 
#    y 0.000000 4.189100 0.000000 
#    z 0.223680 0.000000 3.983970 
# 
# 
# High freq. dielectric constant tensor:
#      x y z
#    x 1.843820 0.000000 0.012140 
#    y 0.000000 1.889320 0.000000 
#    z 0.012140 0.000000 1.863430 
# 
# From -- ./inp_files/190413.got.cif
#   From: 2010.06.25/outbox.cif.g09.slc.cpg/sg15_96_cif.got.tgz:190413.got - 2010.06.28 07:06:18.
