data_PCOD8132521
_publ_section_title
;
Structure prediction by ZEFSAII (Michael W. Deem and Ramdas Pophale) SiO2 
 PCOD8132521
Probable space group: C 2/C
;
_chemical_formula_sum "Si O2"
_cell_formula_units_Z 44
_cell_length_a 16.012452
_cell_length_b 9.604624
_cell_length_c 26.774363
_cell_angle_alpha 90.000000
_cell_angle_beta 147.789451
_cell_angle_gamma 90.000000
_cell_volume 2194.879539
_symmetry_space_group_name_H-M "C 2/C"
_symmetry_group_IT_number 15
_symmetry_cell_setting 'monoclinic'
loop_
_space_group_symop_operation_xyz
x,y,z
-x,y,1/2-z
-x,-y,-z
x,-y,1/2+z
1/2+x,1/2+y,z
1/2-x,1/2+y,1/2-z
1/2-x,1/2-y,-z
1/2+x,1/2-y,1/2+z
loop_
_atom_site_type_symbol
_atom_site_label
_atom_site_fract_x
_atom_site_fract_y
_atom_site_fract_z
Si Si1 0.675230 0.218966 0.205012
Si Si2 0.282973 0.623868 0.979158
Si Si3 0.060962 0.008479 0.174779
Si Si4 0.771358 0.208394 0.869924
Si Si5 0.535028 0.980332 0.713599
Si Si6 0.000000 0.911225 0.750000
O O1 0.675295 0.379483 0.221827
O O2 0.620056 0.218926 0.118100
O O3 0.564384 0.134137 0.185892
O O4 0.850125 0.153762 0.293032
O O5 0.399606 0.509455 0.061819
O O6 0.250000 0.750000 0.000000
O O7 0.365941 0.662204 0.967451
O O8 0.115185 0.562008 0.881435
O O9 0.015781 0.992792 0.209632
O O10 0.650458 0.315455 0.832984
O O11 0.681677 0.083794 0.795190
O O12 0.500000 0.909649 0.750000
#
# Coordination Sequence:
#
# PCOD8132521 Si02
#       6
#     8   8   8   8   8   4
#     4  11  23  41  58  93 123 160 202 254 310 345
#     4  11  20  38  66  91 115 164 211 238 306 366
#     4  11  24  38  67  88 123 164 203 256 295 372
#     4  10  18  39  63  88 120 163 199 248 304 370
#     4  10  21  40  64  86 123 163 201 247 303 371
#     4  10  18  38  60  90 114 162 208 238 306 360
#
# _framework density 20.046658999999998
#
# number of rings (size 3 to 8) (size 9 to 14) (size 15 to 20)
#    0.000    1.455    6.364    1.091    1.273    1.455 
#    0.000    2.727    0.000    0.000    0.000    0.000 
#    0.000    0.000    0.000    0.000    0.000    0.000 
#
# Total GULP energy -272537.768001 kJ/mol
# GULP energy per Si atom -12388.080364 kJ/mol
# Density = 2.000103 g / cm^3
# Si number density = 20.046659 Si / 1000 Ang^3
#
#
#
# Elastic Constant Matrix: (Units=GPa)
#
#
# Indices 1 2 3 4 5 6 
#
# 1 193.3283 59.8733 44.4041 0.0000 -30.1829 -0.0001
# 2 59.8733 85.8404 32.0937 0.0000 -10.1244 0.0000
# 3 44.4041 32.0937 72.5571 0.0003 -28.7106 0.0001
# 4 0.0000 0.0000 0.0003 42.0875 0.0000 75.6841
# 5 -30.1829 -10.1244 -28.7106 0.0000 27.6117 -0.0001
# 6 -0.0001 0.0000 0.0001 75.6841 -0.0001 257.9774
#
#
#
# Elastic Compliance Matrix: (Units=1/GPa)
#
#
# Indices 1 2 3 4 5 6 
#
# 1 0.007614 -0.004514 -0.000042 0.000000 0.006625 0.000000
# 2 -0.004514 0.016714 -0.007065 0.000000 -0.006152 0.000000
# 3 -0.000042 -0.007065 0.026998 0.000000 0.025436 0.000000
# 4 0.000000 0.000000 0.000000 0.050292 0.000000 -0.014755
# 5 0.006625 -0.006152 0.025436 0.000000 0.067651 0.000000
# 6 0.000000 0.000000 0.000000 -0.014755 0.000000 0.008205
#
#
# Mechanical properties :
#
#
# Convention : Reuss Voigt Hill
#
# Bulk Modulus (GPa) = 35.60628 69.38533 52.49581
# Shear Modulus (GPa) = 23.80084 79.89231 51.84658
#
# Velocity S-wave (km/s) = 3.44942 6.31979 5.09108
# Velocity P-wave (km/s) = 5.80215 9.37763 7.79759
#
# Compressibility (1/GPa) = 0.02808493
#
# Stress axis : x y z
#
# Youngs Moduli (GPa) = 131.32969 59.83104 37.04030
#
# Poissons Ratio (x) = 0.27008 0.00155
# Poissons Ratio (y) = 0.59282 0.26167
# Poissons Ratio (z) = 0.00550 0.42268
#
# Static dielectric constant tensor:
#      x y z
#    x 4.228450 0.000000 -0.282260 
#    y 0.000000 3.484950 0.000000 
#    z -0.282260 0.000000 3.421530 
# 
# 
# High freq. dielectric constant tensor:
#      x y z
#    x 1.818800 0.000000 -0.019830 
#    y 0.000000 1.760800 0.000000 
#    z -0.019830 0.000000 1.746860 
# 
# From -- ./inp_files/295988.got.cif
#   From: 2010.06.25/outbox.cif.g09.slc.cpg/sg15_148_cif.got.tgz:295988.got - 2010.06.28 07:06:18.
