data_PCOD8132872
_publ_section_title
;
Structure prediction by ZEFSAII (Michael W. Deem and Ramdas Pophale) SiO2 
 PCOD8132872
Probable space group: C 2/C
;
_chemical_formula_sum "Si O2"
_cell_formula_units_Z 48
_cell_length_a 29.891252
_cell_length_b 13.602963
_cell_length_c 25.261721
_cell_angle_alpha 90.000000
_cell_angle_beta 16.696553
_cell_angle_gamma 90.000000
_cell_volume 2951.077124
_symmetry_space_group_name_H-M "C 2/C"
_symmetry_group_IT_number 15
_symmetry_cell_setting 'monoclinic'
loop_
_space_group_symop_operation_xyz
x,y,z
-x,y,1/2-z
-x,-y,-z
x,-y,1/2+z
1/2+x,1/2+y,z
1/2-x,1/2+y,1/2-z
1/2-x,1/2-y,-z
1/2+x,1/2-y,1/2+z
loop_
_atom_site_type_symbol
_atom_site_label
_atom_site_fract_x
_atom_site_fract_y
_atom_site_fract_z
Si Si1 0.499195 0.481615 0.584356
Si Si2 0.604361 0.347970 0.709944
Si Si3 0.166332 0.481613 0.250118
Si Si4 0.443691 0.852182 0.031153
Si Si5 0.106612 0.147820 0.868228
Si Si6 0.732969 0.652027 0.952726
O O1 0.393346 0.437608 0.751305
O O2 0.668000 0.515191 0.413978
O O3 0.409142 0.575728 0.664081
O O4 0.516898 0.398044 0.519791
O O5 0.711339 0.377986 0.538661
O O6 0.666150 0.249995 0.667693
O O7 0.429912 0.324203 0.890177
O O8 0.090339 0.398024 0.372962
O O9 0.182678 0.437623 0.172671
O O10 0.055577 0.575706 0.371216
O O11 0.287610 0.835514 0.174776
O O12 0.528763 0.750004 0.942476
#
# Coordination Sequence:
#
# PCOD8132872 Si02
#       6
#     8   8   8   8   8   8
#     4   9  18  31  46  66  92 120 149 181 219 263
#     4   9  17  29  46  68  93 120 148 180 219 262
#     4   9  18  31  46  66  92 120 149 181 219 263
#     4  10  19  30  46  67  91 119 149 183 222 263
#     4  10  19  30  46  67  91 119 149 183 222 263
#     4   9  17  29  46  68  93 120 148 180 219 262
#
# _framework density 16.265246999999999
#
# number of rings (size 3 to 8) (size 9 to 14) (size 15 to 20)
#    0.000    2.667    0.000    2.000    0.000    2.667 
#    0.000    0.000    0.000    1.000    0.000    0.000 
#    0.000    0.000    0.000    0.000    0.000    0.000 
#
# Total GULP energy -297642.560867 kJ/mol
# GULP energy per Si atom -12401.773369 kJ/mol
# Density = 1.622823 g / cm^3
# Si number density = 16.265247 Si / 1000 Ang^3
#
#
#
# Elastic Constant Matrix: (Units=GPa)
#
#
# Indices 1 2 3 4 5 6 
#
# 1 85.2866 64.0251 43.2926 0.0191 -1.4739 -0.0037
# 2 64.0251 126.5703 64.3763 0.0553 -10.8469 -0.0186
# 3 43.2926 64.3763 85.3556 0.0257 -1.4799 -0.0135
# 4 0.0191 0.0553 0.0257 27.8886 -0.0087 -7.2482
# 5 -1.4739 -10.8469 -1.4799 -0.0087 21.1235 0.0137
# 6 -0.0037 -0.0186 -0.0135 -7.2482 0.0137 27.6560
#
#
#
# Elastic Compliance Matrix: (Units=1/GPa)
#
#
# Indices 1 2 3 4 5 6 
#
# 1 0.019920 -0.008409 -0.003817 0.000005 -0.003196 -0.000002
# 2 -0.008409 0.017150 -0.008537 -0.000019 0.007622 -0.000002
# 3 -0.003817 -0.008537 0.020034 0.000001 -0.003247 0.000006
# 4 0.000005 -0.000019 0.000001 0.038478 0.000000 0.010084
# 5 -0.003196 0.007622 -0.003247 0.000000 0.050804 -0.000022
# 6 -0.000002 -0.000002 0.000006 0.010084 -0.000022 0.038801
#
#
# Mechanical properties :
#
#
# Convention : Reuss Voigt Hill
#
# Bulk Modulus (GPa) = 64.19360 71.17782 67.68571
# Shear Modulus (GPa) = 21.56038 23.70151 22.63095
#
# Velocity S-wave (km/s) = 3.64476 3.82145 3.73415
# Velocity P-wave (km/s) = 7.56735 7.95783 7.76504
#
# Compressibility (1/GPa) = 0.01557788
#
# Stress axis : x y z
#
# Youngs Moduli (GPa) = 50.20051 58.30912 49.91445
#
# Poissons Ratio (x) = 0.49033 0.19051
# Poissons Ratio (y) = 0.42214 0.42614
# Poissons Ratio (z) = 0.19160 0.49781
#
# Static dielectric constant tensor:
#      x y z
#    x 3.172890 -0.000020 -0.001490 
#    y -0.000020 2.936790 0.000030 
#    z -0.001490 0.000030 3.172860 
# 
# 
# High freq. dielectric constant tensor:
#      x y z
#    x 1.624450 0.000000 -0.008160 
#    y 0.000000 1.614240 0.000000 
#    z -0.008160 0.000000 1.624720 
# 
# From -- ./inp_files/60531.got.cif
#   From: 2010.06.25/outbox.cif.g09.slc.cpg/sg15_31_cif.got.tgz:60531.got - 2010.06.28 07:06:18.
