data_PCOD8132523
_publ_section_title
;
Structure prediction by ZEFSAII (Michael W. Deem and Ramdas Pophale) SiO2 
 PCOD8132523
Probable space group: C 2/C
;
_chemical_formula_sum "Si O2"
_cell_formula_units_Z 36
_cell_length_a 13.822075
_cell_length_b 5.220142
_cell_length_c 19.241815
_cell_angle_alpha 90.000000
_cell_angle_beta 89.102543
_cell_angle_gamma 90.000000
_cell_volume 1388.188103
_symmetry_space_group_name_H-M "C 2/C"
_symmetry_group_IT_number 15
_symmetry_cell_setting 'monoclinic'
loop_
_space_group_symop_operation_xyz
x,y,z
-x,y,1/2-z
-x,-y,-z
x,-y,1/2+z
1/2+x,1/2+y,z
1/2-x,1/2+y,1/2-z
1/2-x,1/2-y,-z
1/2+x,1/2-y,1/2+z
loop_
_atom_site_type_symbol
_atom_site_label
_atom_site_fract_x
_atom_site_fract_y
_atom_site_fract_z
Si Si1 0.643020 0.371445 0.011477
Si Si2 0.296080 0.050413 0.275531
Si Si3 0.500000 0.712576 0.750000
Si Si4 0.333042 0.867176 0.420343
Si Si5 0.988904 0.063679 0.105618
O O1 0.704205 0.613163 0.040110
O O2 0.544533 0.346503 0.059261
O O3 0.696634 0.103220 0.027716
O O4 0.615621 0.396121 0.929940
O O5 0.241292 0.326360 0.275699
O O6 0.408860 0.102637 0.261422
O O7 0.276342 0.920875 0.350154
O O8 0.521521 0.527573 0.815094
O O9 0.447707 0.827318 0.400503
#
# Coordination Sequence:
#
# PCOD8132523 Si02
#       5
#     8   8   4   8   8
#     4   9  18  34  61  96 127 169 224 260 327 400
#     4  12  26  44  66  98 139 177 218 280 339 394
#     4  12  24  46  68 106 132 176 226 278 332 402
#     4  10  18  38  60  90 125 177 214 263 326 393
#     4   9  20  34  63  99 127 168 224 266 324 402
#
# _framework density 25.933085999999999
#
# number of rings (size 3 to 8) (size 9 to 14) (size 15 to 20)
#    1.333    0.444    2.222    3.333    0.000    3.556 
#    0.000    0.000    0.000    8.000    0.000    0.000 
#    0.000    0.000    0.000    0.000    0.000    0.000 
#
# Total GULP energy -223023.943605 kJ/mol
# GULP energy per Si atom -12390.219089 kJ/mol
# Density = 2.587406 g / cm^3
# Si number density = 25.933086 Si / 1000 Ang^3
#
#
#
# Elastic Constant Matrix: (Units=GPa)
#
#
# Indices 1 2 3 4 5 6 
#
# 1 95.5545 60.6613 56.3248 0.0000 3.6902 0.0000
# 2 60.6613 199.3403 68.5240 0.0000 13.8590 0.0000
# 3 56.3248 68.5240 173.2672 0.0000 31.1953 0.0000
# 4 0.0000 0.0000 0.0000 8.0993 0.0000 33.5004
# 5 3.6902 13.8590 31.1953 0.0000 18.2714 0.0000
# 6 0.0000 0.0000 0.0000 33.5004 0.0000 23.0693
#
#
#
# Elastic Compliance Matrix: (Units=1/GPa)
#
#
# Indices 1 2 3 4 5 6 
#
# 1 0.015374 -0.003499 -0.005101 0.000000 0.008258 0.000000
# 2 -0.003499 0.006608 -0.001012 0.000000 -0.002578 0.000000
# 3 -0.005101 -0.001012 0.010837 0.000000 -0.016705 0.000000
# 4 0.000000 0.000000 0.000000 -0.024662 0.000000 0.035813
# 5 0.008258 -0.002578 -0.016705 0.000000 0.083540 0.000000
# 6 0.000000 0.000000 0.000000 0.035813 0.000000 -0.008658
#
#
# Mechanical properties :
#
#
# Convention : Reuss Voigt Hill
#
# Bulk Modulus (GPa) = 73.54706 93.24246 83.39476
# Shear Modulus (GPa) = 46.81833 28.73147 37.77490
#
# Velocity S-wave (km/s) = 4.25355 3.33214 3.82072
# Velocity P-wave (km/s) = 7.24883 7.13002 7.18967
#
# Compressibility (1/GPa) = 0.01359674
#
# Stress axis : x y z
#
# Youngs Moduli (GPa) = 65.04320 151.32048 92.27395
#
# Poissons Ratio (x) = 0.52952 0.47065
# Poissons Ratio (y) = 0.22761 0.09336
# Poissons Ratio (z) = 0.33176 0.15310
#
# Static dielectric constant tensor:
#      x y z
#    x 4.670250 0.000000 0.010140 
#    y 0.000000 4.554910 0.000000 
#    z 0.010140 0.000000 4.614430 
# 
# 
# High freq. dielectric constant tensor:
#      x y z
#    x 2.044260 0.000000 -0.010780 
#    y 0.000000 2.039760 0.000000 
#    z -0.010780 0.000000 2.046550 
# 
# From -- ./inp_files/241493.got.cif
#   From: 2010.06.25/outbox.cif.g09.slc.cpg/sg15_121_cif.got.tgz:241493.got - 2010.06.28 07:06:18.
