data_PCOD8132530
_publ_section_title
;
Structure prediction by ZEFSAII (Michael W. Deem and Ramdas Pophale) SiO2 
 PCOD8132530
Probable space group: C 2/C
;
_chemical_formula_sum "Si O2"
_cell_formula_units_Z 52
_cell_length_a 9.007840
_cell_length_b 17.466758
_cell_length_c 17.345363
_cell_angle_alpha 90.000000
_cell_angle_beta 73.771565
_cell_angle_gamma 90.000000
_cell_volume 2620.340665
_symmetry_space_group_name_H-M "C 2/C"
_symmetry_group_IT_number 15
_symmetry_cell_setting 'monoclinic'
loop_
_space_group_symop_operation_xyz
x,y,z
-x,y,1/2-z
-x,-y,-z
x,-y,1/2+z
1/2+x,1/2+y,z
1/2-x,1/2+y,1/2-z
1/2-x,1/2-y,-z
1/2+x,1/2-y,1/2+z
loop_
_atom_site_type_symbol
_atom_site_label
_atom_site_fract_x
_atom_site_fract_y
_atom_site_fract_z
Si Si1 0.121953 0.077442 0.538536
Si Si2 0.616596 0.994047 0.415117
Si Si3 0.393494 0.082771 0.831629
Si Si4 0.643159 0.317365 0.445205
Si Si5 0.735339 0.340678 0.598866
Si Si6 0.369427 0.465206 0.628276
Si Si7 0.000000 0.131105 0.250000
O O1 0.261396 0.072868 0.579583
O O2 0.190146 0.079584 0.440432
O O3 0.011108 0.150062 0.572666
O O4 0.024758 0.001749 0.571718
O O5 0.521444 0.967212 0.356236
O O6 0.500000 0.000000 0.500000
O O7 0.691433 0.077548 0.391489
O O8 0.500000 0.120696 0.750000
O O9 0.307878 0.149529 0.891500
O O10 0.258995 0.025116 0.823254
O O11 0.631887 0.342514 0.536299
O O12 0.637979 0.226266 0.431545
O O13 0.625963 0.317662 0.686951
O O14 0.411207 0.417485 0.697630
#
# Coordination Sequence:
#
# PCOD8132530 Si02
#       7
#     8   8   8   8   8   8   4
#     4  10  18  38  61  84 117 163 199 240 300 371
#     4  12  20  38  65  90 120 157 208 250 298 360
#     4  11  23  37  61  92 120 154 201 259 300 354
#     4  10  22  41  60  83 127 162 197 243 310 372
#     4  11  22  37  62  90 120 160 202 248 309 361
#     4  10  19  34  59  90 116 152 204 248 295 355
#     4  12  20  34  64  94 116 156 208 264 294 368
#
# _framework density 19.844747000000002
#
# number of rings (size 3 to 8) (size 9 to 14) (size 15 to 20)
#    0.000    1.231    6.154    1.846    1.077    0.000 
#    0.000    0.769    3.385    1.846    0.000    0.000 
#    0.000    0.000    0.000    0.000    0.000    0.000 
#
# Total GULP energy -322092.131127 kJ/mol
# GULP energy per Si atom -12388.158889 kJ/mol
# Density = 1.979958 g / cm^3
# Si number density = 19.844747 Si / 1000 Ang^3
#
#
#
# Elastic Constant Matrix: (Units=GPa)
#
#
# Indices 1 2 3 4 5 6 
#
# 1 79.5439 29.7990 11.2484 0.0000 -1.4773 0.0000
# 2 29.7990 74.2725 12.1555 0.0000 6.4830 0.0000
# 3 11.2484 12.1555 114.0597 0.0000 -15.3102 0.0000
# 4 0.0000 0.0000 0.0000 15.6620 0.0000 1.5196
# 5 -1.4773 6.4830 -15.3102 0.0000 31.4368 0.0000
# 6 0.0000 0.0000 0.0000 1.5196 0.0000 16.7607
#
#
#
# Elastic Compliance Matrix: (Units=1/GPa)
#
#
# Indices 1 2 3 4 5 6 
#
# 1 0.014953 -0.006044 -0.000609 0.000000 0.001653 0.000000
# 2 -0.006044 0.016580 -0.001785 0.000000 -0.004572 0.000000
# 3 -0.000609 -0.001785 0.009697 0.000000 0.005062 0.000000
# 4 0.000000 0.000000 0.000000 0.064415 0.000000 -0.005840
# 5 0.001653 -0.004572 0.005062 0.000000 0.035296 0.000000
# 6 0.000000 0.000000 0.000000 -0.005840 0.000000 0.060193
#
#
# Mechanical properties :
#
#
# Convention : Reuss Voigt Hill
#
# Bulk Modulus (GPa) = 41.05877 41.58685 41.32281
# Shear Modulus (GPa) = 22.11154 27.08345 24.59749
#
# Velocity S-wave (km/s) = 3.34162 3.69828 3.52447
# Velocity P-wave (km/s) = 5.96854 6.26402 6.11807
#
# Compressibility (1/GPa) = 0.02435533
#
# Stress axis : x y z
#
# Youngs Moduli (GPa) = 66.87813 60.31376 103.12426
#
# Poissons Ratio (x) = 0.36452 0.06277
# Poissons Ratio (y) = 0.40420 0.18404
# Poissons Ratio (z) = 0.04071 0.10764
#
# Static dielectric constant tensor:
#      x y z
#    x 3.595680 0.000000 -0.188390 
#    y 0.000000 3.289080 0.000000 
#    z -0.188390 0.000000 3.552240 
# 
# 
# High freq. dielectric constant tensor:
#      x y z
#    x 1.769760 0.000000 -0.010700 
#    y 0.000000 1.745680 0.000000 
#    z -0.010700 0.000000 1.782560 
# 
# From -- ./inp_files/190312.got.cif
#   From: 2010.06.25/outbox.cif.g09.slc.cpg/sg15_96_cif.got.tgz:190312.got - 2010.06.28 07:06:18.
