data_PCOD8132208
_publ_section_title
;
Structure prediction by ZEFSAII (Michael W. Deem and Ramdas Pophale) SiO2 
 PCOD8132208
Probable space group: C 2/C
;
_chemical_formula_sum "Si O2"
_cell_formula_units_Z 56
_cell_length_a 21.769509
_cell_length_b 25.694438
_cell_length_c 13.895578
_cell_angle_alpha 90.000000
_cell_angle_beta 157.231175
_cell_angle_gamma 90.000000
_cell_volume 3008.091059
_symmetry_space_group_name_H-M "C 2/C"
_symmetry_group_IT_number 15
_symmetry_cell_setting 'monoclinic'
loop_
_space_group_symop_operation_xyz
x,y,z
-x,y,1/2-z
-x,-y,-z
x,-y,1/2+z
1/2+x,1/2+y,z
1/2-x,1/2+y,1/2-z
1/2-x,1/2-y,-z
1/2+x,1/2-y,1/2+z
loop_
_atom_site_type_symbol
_atom_site_label
_atom_site_fract_x
_atom_site_fract_y
_atom_site_fract_z
Si Si1 0.932974 0.100127 0.260203
Si Si2 0.173643 0.205736 0.456582
Si Si3 0.419713 0.174926 0.975141
Si Si4 0.000000 0.927377 0.250000
Si Si5 0.125428 0.007001 0.761928
Si Si6 0.769490 0.104102 0.669669
Si Si7 0.733240 0.655199 0.037149
Si Si8 0.000000 0.756642 0.250000
O O1 0.836231 0.154003 0.123767
O O2 0.000000 0.092076 0.250000
O O3 0.068371 0.104417 0.535940
O O4 0.818890 0.050015 0.119387
O O5 0.250000 0.250000 0.500000
O O6 0.289334 0.192458 0.710960
O O7 0.000000 0.221110 0.250000
O O8 0.370005 0.122813 0.961733
O O9 0.585801 0.160138 0.165307
O O10 0.440689 0.222754 0.076167
O O11 0.978685 0.963573 0.309710
O O12 0.153538 0.890189 0.486002
O O13 0.264309 0.045492 0.922086
O O14 0.000000 0.000000 0.500000
O O15 0.781481 0.143866 0.598032
O O16 0.648876 0.709801 0.931509
#
# Coordination Sequence:
#
# PCOD8132208 Si02
#       8
#     8   8   8   4   8   8   8   4
#     4  10  18  36  59  86 114 157 206 238 294 362
#     4  11  26  42  62  90 122 168 207 253 300 365
#     4  12  22  36  61  83 124 154 201 243 303 361
#     4   9  18  36  56  86 118 144 195 250 294 358
#     4   9  18  32  62  87 112 151 201 241 292 364
#     4  10  19  35  56  89 115 149 198 245 296 352
#     4  10  22  36  54  85 119 155 191 249 303 354
#     4  11  24  34  56  86 116 154 199 244 304 352
#
# _framework density 18.616458000000002
#
# number of rings (size 3 to 8) (size 9 to 14) (size 15 to 20)
#    0.000    1.714    5.000    0.429    4.000    0.000 
#    0.000    0.000    0.000   22.286    0.000    0.000 
#    0.000    0.000    0.000    0.000    0.000    0.000 
#
# Total GULP energy -346928.509023 kJ/mol
# GULP energy per Si atom -12390.303894 kJ/mol
# Density = 1.857409 g / cm^3
# Si number density = 18.616458 Si / 1000 Ang^3
#
#
#
# Elastic Constant Matrix: (Units=GPa)
#
#
# Indices 1 2 3 4 5 6 
#
# 1 74.3592 58.3602 38.8510 0.0000 14.2266 0.0000
# 2 58.3602 159.5562 43.7283 0.0000 17.4882 0.0000
# 3 38.8510 43.7283 95.8510 0.0000 16.3938 0.0000
# 4 0.0000 0.0000 0.0000 16.5030 0.0000 -2.2924
# 5 14.2266 17.4882 16.3938 0.0000 24.7854 0.0000
# 6 0.0000 0.0000 0.0000 -2.2924 0.0000 18.3346
#
#
#
# Elastic Compliance Matrix: (Units=1/GPa)
#
#
# Indices 1 2 3 4 5 6 
#
# 1 0.021854 -0.006017 -0.005292 0.000000 -0.004798 0.000000
# 2 -0.006017 0.009061 -0.001344 0.000000 -0.002051 0.000000
# 3 -0.005292 -0.001344 0.014105 0.000000 -0.005343 0.000000
# 4 0.000000 0.000000 0.000000 0.061666 0.000000 0.007710
# 5 -0.004798 -0.002051 -0.005343 0.000000 0.048081 0.000000
# 6 0.000000 0.000000 0.000000 0.007710 0.000000 0.055506
#
#
# Mechanical properties :
#
#
# Convention : Reuss Voigt Hill
#
# Bulk Modulus (GPa) = 50.72796 67.96061 59.34428
# Shear Modulus (GPa) = 20.64824 24.51307 22.58066
#
# Velocity S-wave (km/s) = 3.33399 3.63263 3.48651
# Velocity P-wave (km/s) = 6.49067 7.36068 6.93932
#
# Compressibility (1/GPa) = 0.01971300
#
# Stress axis : x y z
#
# Youngs Moduli (GPa) = 45.75894 110.35821 70.89625
#
# Poissons Ratio (x) = 0.66403 0.37520
# Poissons Ratio (y) = 0.27533 0.09531
# Poissons Ratio (z) = 0.24217 0.14836
#
# Static dielectric constant tensor:
#      x y z
#    x 3.648300 0.000000 0.081030 
#    y 0.000000 4.329110 0.000000 
#    z 0.081030 0.000000 3.442990 
# 
# 
# High freq. dielectric constant tensor:
#      x y z
#    x 1.723250 0.000000 -0.011470 
#    y 0.000000 1.742130 0.000000 
#    z -0.011470 0.000000 1.700600 
# 
# From -- ./inp_files/174810.got.cif
#   From: 2010.06.25/outbox.cif.g09.slc.cpg/sg15_88_cif.got.tgz:174810.got - 2010.06.28 07:06:18.
