data_PCOD8132636
_publ_section_title
;
Structure prediction by ZEFSAII (Michael W. Deem and Ramdas Pophale) SiO2 
 PCOD8132636
Probable space group: C 2/C
;
_chemical_formula_sum "Si O2"
_cell_formula_units_Z 48
_cell_length_a 12.647935
_cell_length_b 16.330047
_cell_length_c 25.570644
_cell_angle_alpha 90.000000
_cell_angle_beta 153.102982
_cell_angle_gamma 90.000000
_cell_volume 2389.241693
_symmetry_space_group_name_H-M "C 2/C"
_symmetry_group_IT_number 15
_symmetry_cell_setting 'monoclinic'
loop_
_space_group_symop_operation_xyz
x,y,z
-x,y,1/2-z
-x,-y,-z
x,-y,1/2+z
1/2+x,1/2+y,z
1/2-x,1/2+y,1/2-z
1/2-x,1/2-y,-z
1/2+x,1/2-y,1/2+z
loop_
_atom_site_type_symbol
_atom_site_label
_atom_site_fract_x
_atom_site_fract_y
_atom_site_fract_z
Si Si1 0.500000 0.763940 0.750000
Si Si2 0.257755 0.049871 0.314414
Si Si3 0.325020 0.864597 0.347526
Si Si4 0.199393 0.866187 0.895070
Si Si5 0.500000 0.223177 0.750000
Si Si6 0.584004 0.151802 0.395728
Si Si7 0.095329 0.183571 0.638852
O O1 0.278432 0.703019 0.658175
O O2 0.465963 0.823423 0.685947
O O3 0.311454 0.104651 0.389391
O O4 0.449483 0.069104 0.353963
O O5 0.002830 0.070049 0.177628
O O6 0.256857 0.956502 0.333097
O O7 0.606272 0.858554 0.474298
O O8 0.229945 0.849103 0.248299
O O9 0.079133 0.777809 0.834490
O O10 0.275784 0.170996 0.670254
O O11 0.486910 0.222568 0.391173
O O12 0.859009 0.132593 0.524169
#
# Coordination Sequence:
#
# PCOD8132636 Si02
#       7
#     4   8   8   8   4   8   8
#     4  10  22  37  59  92 114 152 202 240 288 347
#     4  10  21  37  58  83 123 153 186 238 307 335
#     4  11  23  34  58  91 114 150 198 241 284 354
#     4  10  20  35  57  85 113 152 182 244 288 350
#     4  10  18  39  55  82 112 154 186 244 290 329
#     4  10  20  39  59  84 118 158 191 239 291 355
#     4  10  21  36  59  82 116 152 196 236 290 343
#
# _framework density 20.090056000000001
#
# number of rings (size 3 to 8) (size 9 to 14) (size 15 to 20)
#    0.000    2.000    3.333    2.500    7.000    0.667 
#    3.000    0.833    0.000    2.000    0.000    0.000 
#    0.000    0.000    0.000    0.000    0.000    0.000 
#
# Total GULP energy -297506.897361 kJ/mol
# GULP energy per Si atom -12396.120723 kJ/mol
# Density = 2.004433 g / cm^3
# Si number density = 20.090056 Si / 1000 Ang^3
#
#
#
# Elastic Constant Matrix: (Units=GPa)
#
#
# Indices 1 2 3 4 5 6 
#
# 1 106.7460 22.2655 44.0429 -0.0010 21.0105 -0.0005
# 2 22.2655 45.0095 24.9409 -0.0012 1.4290 -0.0003
# 3 44.0429 24.9409 167.1513 -0.0042 20.4243 -0.0010
# 4 -0.0010 -0.0012 -0.0042 16.1517 -0.0005 3.0887
# 5 21.0105 1.4290 20.4243 -0.0005 30.2877 -0.0003
# 6 -0.0005 -0.0003 -0.0010 3.0887 -0.0003 10.9563
#
#
#
# Elastic Compliance Matrix: (Units=1/GPa)
#
#
# Indices 1 2 3 4 5 6 
#
# 1 0.012553 -0.005060 -0.001654 0.000000 -0.007354 0.000000
# 2 -0.005060 0.026315 -0.003128 0.000001 0.004378 0.000000
# 3 -0.001654 -0.003128 0.007331 0.000001 -0.003649 0.000000
# 4 0.000000 0.000001 0.000001 0.065441 0.000000 -0.018449
# 5 -0.007354 0.004378 -0.003649 0.000000 0.040372 0.000000
# 6 0.000000 0.000000 0.000000 -0.018449 0.000000 0.096472
#
#
# Mechanical properties :
#
#
# Convention : Reuss Voigt Hill
#
# Bulk Modulus (GPa) = 37.71451 55.71172 46.71311
# Shear Modulus (GPa) = 18.05004 26.65632 22.35318
#
# Velocity S-wave (km/s) = 3.00068 3.64653 3.33926
# Velocity P-wave (km/s) = 5.55148 6.74691 6.17818
#
# Compressibility (1/GPa) = 0.02651500
#
# Stress axis : x y z
#
# Youngs Moduli (GPa) = 79.65955 38.00113 136.40645
#
# Poissons Ratio (x) = 0.19228 0.22563
# Poissons Ratio (y) = 0.40307 0.42671
# Poissons Ratio (z) = 0.13177 0.11888
#
# Static dielectric constant tensor:
#      x y z
#    x 3.490270 0.000000 0.299590 
#    y 0.000000 3.374540 0.000000 
#    z 0.299590 0.000000 3.790770 
# 
# 
# High freq. dielectric constant tensor:
#      x y z
#    x 1.765810 0.000000 0.018320 
#    y 0.000000 1.749720 0.000000 
#    z 0.018320 0.000000 1.793460 
# 
# From -- ./inp_files/87426.got.cif
#   From: 2010.06.25/outbox.cif.g09.slc.cpg/sg15_44_cif.got.tgz:87426.got - 2010.06.28 07:06:18.
