data_PCOD8132813
_publ_section_title
;
Structure prediction by ZEFSAII (Michael W. Deem and Ramdas Pophale) SiO2 
 PCOD8132813
Probable space group: C 2/C
;
_chemical_formula_sum "Si O2"
_cell_formula_units_Z 52
_cell_length_a 23.144931
_cell_length_b 13.436165
_cell_length_c 8.639793
_cell_angle_alpha 90.000000
_cell_angle_beta 76.034070
_cell_angle_gamma 90.000000
_cell_volume 2607.371903
_symmetry_space_group_name_H-M "C 2/C"
_symmetry_group_IT_number 15
_symmetry_cell_setting 'monoclinic'
loop_
_space_group_symop_operation_xyz
x,y,z
-x,y,1/2-z
-x,-y,-z
x,-y,1/2+z
1/2+x,1/2+y,z
1/2-x,1/2+y,1/2-z
1/2-x,1/2-y,-z
1/2+x,1/2-y,1/2+z
loop_
_atom_site_type_symbol
_atom_site_label
_atom_site_fract_x
_atom_site_fract_y
_atom_site_fract_z
Si Si1 0.791860 0.074473 0.658163
Si Si2 0.957878 0.545452 0.655056
Si Si3 0.117358 0.589700 0.069478
Si Si4 0.000000 0.981534 0.750000
Si Si5 0.716239 0.937419 0.918541
Si Si6 0.346302 0.762549 0.719242
Si Si7 0.421941 0.597385 0.563072
O O1 0.758366 0.106849 0.523719
O O2 0.796298 0.174758 0.762319
O O3 0.859364 0.038402 0.574791
O O4 0.757645 0.985093 0.761126
O O5 0.910270 0.608815 0.585252
O O6 0.926747 0.458147 0.774686
O O7 0.000000 0.607239 0.750000
O O8 0.000000 0.500000 0.500000
O O9 0.138687 0.696661 0.119403
O O10 0.174159 0.519778 0.020051
O O11 0.036030 0.909351 0.612705
O O12 0.954231 0.051942 0.690746
O O13 0.675252 0.851346 0.876223
O O14 0.406289 0.713746 0.606034
#
# Coordination Sequence:
#
# PCOD8132813 Si02
#       7
#     8   8   8   4   8   8   8
#     4  10  23  38  64  94 127 170 207 267 325 394
#     4   9  19  35  59  82 112 171 215 259 316 375
#     4  11  19  38  59  85 129 170 211 261 329 377
#     4  10  18  46  70  90 124 174 198 282 328 370
#     4  12  20  41  63  87 136 172 202 267 329 383
#     4  10  23  38  59  97 125 162 217 262 308 406
#     4   9  22  39  69  92 126 160 221 259 329 384
#
# _framework density 19.943452000000001
#
# number of rings (size 3 to 8) (size 9 to 14) (size 15 to 20)
#    0.923    0.923    3.077    1.385    0.000    0.615 
#    4.154    1.538    6.769    0.000    0.000    0.000 
#    0.000    0.000    0.000    0.000    0.000    0.000 
#
# Total GULP energy -322121.563047 kJ/mol
# GULP energy per Si atom -12389.290886 kJ/mol
# Density = 1.989806 g / cm^3
# Si number density = 19.943452 Si / 1000 Ang^3
#
#
#
# Elastic Constant Matrix: (Units=GPa)
#
#
# Indices 1 2 3 4 5 6 
#
# 1 133.6698 46.8186 56.6662 0.0000 29.7223 0.0000
# 2 46.8186 98.4283 38.4613 0.0000 13.3037 0.0000
# 3 56.6662 38.4613 92.3833 0.0000 29.2331 0.0000
# 4 0.0000 0.0000 0.0000 25.1506 0.0000 -4.9216
# 5 29.7223 13.3037 29.2331 0.0000 54.4293 0.0000
# 6 0.0000 0.0000 0.0000 -4.9216 0.0000 27.9562
#
#
#
# Elastic Compliance Matrix: (Units=1/GPa)
#
#
# Indices 1 2 3 4 5 6 
#
# 1 0.011179 -0.003112 -0.004663 0.000000 -0.002840 0.000000
# 2 -0.003112 0.013004 -0.003659 0.000000 0.000486 0.000000
# 3 -0.004663 -0.003659 0.017010 0.000000 -0.005695 0.000000
# 4 0.000000 0.000000 0.000000 0.041179 0.000000 0.007249
# 5 -0.002840 0.000486 -0.005695 0.000000 0.022863 0.000000
# 6 0.000000 0.000000 0.000000 0.007249 0.000000 0.037046
#
#
# Mechanical properties :
#
#
# Convention : Reuss Voigt Hill
#
# Bulk Modulus (GPa) = 54.56771 67.59706 61.08239
# Shear Modulus (GPa) = 29.19574 33.67625 31.43599
#
# Velocity S-wave (km/s) = 3.83028 4.11370 3.97452
# Velocity P-wave (km/s) = 6.85434 7.51873 7.19421
#
# Compressibility (1/GPa) = 0.01832585
#
# Stress axis : x y z
#
# Youngs Moduli (GPa) = 89.45176 76.90053 58.78820
#
# Poissons Ratio (x) = 0.23928 0.27414
# Poissons Ratio (y) = 0.27834 0.21510
# Poissons Ratio (z) = 0.41713 0.28138
#
# Static dielectric constant tensor:
#      x y z
#    x 4.196160 0.000000 0.360790 
#    y 0.000000 3.554410 0.000000 
#    z 0.360790 0.000000 3.774880 
# 
# 
# High freq. dielectric constant tensor:
#      x y z
#    x 1.803690 0.000000 0.014190 
#    y 0.000000 1.738280 0.000000 
#    z 0.014190 0.000000 1.779860 
# 
# From -- ./inp_files/55288.got.cif
#   From: 2010.06.25/outbox.cif.g09.slc.cpg/sg15_28_cif.got.tgz:55288.got - 2010.06.28 07:06:18.
