data_PCOD8132808
_publ_section_title
;
Structure prediction by ZEFSAII (Michael W. Deem and Ramdas Pophale) SiO2 
 PCOD8132808
Probable space group: C 2/C
;
_chemical_formula_sum "Si O2"
_cell_formula_units_Z 60
_cell_length_a 28.271755
_cell_length_b 8.638091
_cell_length_c 12.202739
_cell_angle_alpha 90.000000
_cell_angle_beta 77.741277
_cell_angle_gamma 90.000000
_cell_volume 2912.130195
_symmetry_space_group_name_H-M "C 2/C"
_symmetry_group_IT_number 15
_symmetry_cell_setting 'monoclinic'
loop_
_space_group_symop_operation_xyz
x,y,z
-x,y,1/2-z
-x,-y,-z
x,-y,1/2+z
1/2+x,1/2+y,z
1/2-x,1/2+y,1/2-z
1/2-x,1/2-y,-z
1/2+x,1/2-y,1/2+z
loop_
_atom_site_type_symbol
_atom_site_label
_atom_site_fract_x
_atom_site_fract_y
_atom_site_fract_z
Si Si1 0.450503 0.540666 0.961496
Si Si2 0.366938 0.988139 0.876041
Si Si3 0.000000 0.790647 0.250000
Si Si4 0.067416 0.412722 0.841622
Si Si5 0.273165 0.752152 0.609215
Si Si6 0.123903 0.778052 0.476330
Si Si7 0.800923 0.553825 0.726755
Si Si8 0.393077 0.819277 0.065215
O O1 0.460705 0.605032 0.833562
O O2 0.416514 0.393566 0.958573
O O3 0.500000 0.500000 0.000000
O O4 0.418910 0.653450 0.055085
O O5 0.415565 0.982645 0.781313
O O6 0.366428 0.151771 0.935754
O O7 0.318282 0.964605 0.828068
O O8 0.370272 0.844874 0.957070
O O9 0.019225 0.683873 0.340476
O O10 0.063695 0.555549 0.929373
O O11 0.107033 0.295369 0.870268
O O12 0.250000 0.750000 0.500000
O O13 0.322993 0.652311 0.575938
O O14 0.241602 0.671415 0.719406
O O15 0.284475 0.930752 0.641717
O O16 0.847889 0.658106 0.669973
#
# Coordination Sequence:
#
# PCOD8132808 Si02
#       8
#     8   8   4   8   8   8   8   8
#     4  12  27  43  64 100 144 175 228 286 354 407
#     4  10  18  43  68  89 125 179 227 272 335 409
#     4  12  24  42  66  94 132 176 238 282 342 412
#     4  10  21  41  70  91 122 180 231 277 328 413
#     4  12  24  46  69 104 139 176 234 293 348 419
#     4  11  23  44  69  93 141 178 219 294 343 410
#     4  11  23  42  69 102 136 177 230 280 349 422
#     4  10  22  42  68  94 133 179 229 279 338 414
#
# _framework density 20.603473999999999
#
# number of rings (size 3 to 8) (size 9 to 14) (size 15 to 20)
#    0.000    1.067    8.000    0.000    1.867    3.733 
#    4.800    1.333    0.000    0.000    0.000    0.000 
#    0.000    0.000    0.000    0.000    0.000    0.000 
#
# Total GULP energy -371733.765678 kJ/mol
# GULP energy per Si atom -12391.125523 kJ/mol
# Density = 2.055658 g / cm^3
# Si number density = 20.603474 Si / 1000 Ang^3
#
#
#
# Elastic Constant Matrix: (Units=GPa)
#
#
# Indices 1 2 3 4 5 6 
#
# 1 117.3849 52.5008 43.0243 0.0000 2.4907 0.0000
# 2 52.5008 78.4751 31.5651 0.0000 -4.5176 0.0000
# 3 43.0243 31.5651 94.9569 0.0000 3.4111 0.0000
# 4 0.0000 0.0000 0.0000 24.5233 0.0000 -8.0537
# 5 2.4907 -4.5176 3.4111 0.0000 40.6198 0.0000
# 6 0.0000 0.0000 0.0000 -8.0537 0.0000 36.0783
#
#
#
# Elastic Compliance Matrix: (Units=1/GPa)
#
#
# Indices 1 2 3 4 5 6 
#
# 1 0.013157 -0.007506 -0.003418 0.000000 -0.001355 0.000000
# 2 -0.007506 0.019164 -0.003072 0.000000 0.002850 0.000000
# 3 -0.003418 -0.003072 0.013145 0.000000 -0.001236 0.000000
# 4 0.000000 0.000000 0.000000 0.044003 0.000000 0.009823
# 5 -0.001355 0.002850 -0.001236 0.000000 0.025122 0.000000
# 6 0.000000 0.000000 0.000000 0.009823 0.000000 0.029910
#
#
# Mechanical properties :
#
#
# Convention : Reuss Voigt Hill
#
# Bulk Modulus (GPa) = 57.22266 60.55526 58.88896
# Shear Modulus (GPa) = 28.03966 31.15940 29.59953
#
# Velocity S-wave (km/s) = 3.69307 3.89310 3.79440
# Velocity P-wave (km/s) = 6.78370 7.04719 6.91670
#
# Compressibility (1/GPa) = 0.01747559
#
# Stress axis : x y z
#
# Youngs Moduli (GPa) = 76.00298 52.18127 76.07290
#
# Poissons Ratio (x) = 0.39165 0.26001
# Poissons Ratio (y) = 0.57045 0.23370
# Poissons Ratio (z) = 0.25977 0.16030
#
# Static dielectric constant tensor:
#      x y z
#    x 3.982520 0.000000 0.060070 
#    y 0.000000 3.689860 0.000000 
#    z 0.060070 0.000000 3.860350 
# 
# 
# High freq. dielectric constant tensor:
#      x y z
#    x 1.809520 0.000000 0.003670 
#    y 0.000000 1.785510 0.000000 
#    z 0.003670 0.000000 1.815990 
# 
# From -- ./inp_files/125562.got.cif
#   From: 2010.06.25/outbox.cif.g09.slc.cpg/sg15_63_cif.got.tgz:125562.got - 2010.06.28 07:06:18.
