data_PCOD8132357
_publ_section_title
;
Structure prediction by ZEFSAII (Michael W. Deem and Ramdas Pophale) SiO2 
 PCOD8132357
Probable space group: C 2/C
;
_chemical_formula_sum "Si O2"
_cell_formula_units_Z 64
_cell_length_a 17.451809
_cell_length_b 10.606166
_cell_length_c 22.990396
_cell_angle_alpha 90.000000
_cell_angle_beta 47.045259
_cell_angle_gamma 90.000000
_cell_volume 3114.529437
_symmetry_space_group_name_H-M "C 2/C"
_symmetry_group_IT_number 15
_symmetry_cell_setting 'monoclinic'
loop_
_space_group_symop_operation_xyz
x,y,z
-x,y,1/2-z
-x,-y,-z
x,-y,1/2+z
1/2+x,1/2+y,z
1/2-x,1/2+y,1/2-z
1/2-x,1/2-y,-z
1/2+x,1/2-y,1/2+z
loop_
_atom_site_type_symbol
_atom_site_label
_atom_site_fract_x
_atom_site_fract_y
_atom_site_fract_z
Si Si1 0.758307 0.029882 0.303990
Si Si2 0.757914 0.910807 0.078315
Si Si3 0.041498 0.598673 0.627315
Si Si4 0.825218 0.631771 0.044114
Si Si5 0.843171 0.456267 0.768808
Si Si6 0.648373 0.482827 0.077293
Si Si7 0.468525 0.350922 0.700943
Si Si8 0.624165 0.686534 0.691713
O O1 0.666848 0.068854 0.396495
O O2 0.707023 0.038974 0.268181
O O3 0.844694 0.137376 0.262650
O O4 0.817325 0.899818 0.290470
O O5 0.642461 0.886399 0.114730
O O6 0.828597 0.784450 0.042773
O O7 0.737741 0.956660 0.154084
O O8 0.816391 0.019584 0.008826
O O9 0.079355 0.568889 0.541913
O O10 0.963621 0.498647 0.697463
O O11 0.987210 0.733151 0.649787
O O12 0.714227 0.595424 0.072777
O O13 0.848225 0.326644 0.802528
O O14 0.527315 0.524915 0.145923
O O15 0.666929 0.352284 0.104286
O O16 0.500000 0.319008 0.750000
O O17 0.500000 0.662875 0.750000
#
# Coordination Sequence:
#
# PCOD8132357 Si02
#       8
#     8   8   8   8   8   8   8   8
#     4  11  24  40  64  88 126 175 218 258 324 392
#     4  11  20  39  64 100 126 154 213 274 319 377
#     4  11  21  37  66  95 124 156 211 271 323 373
#     4  10  19  37  66  97 125 153 213 275 317 374
#     4  12  28  38  59  95 135 173 208 267 332 387
#     4  10  18  36  67  94 119 162 218 264 308 380
#     4  12  17  36  67  94 112 160 218 263 311 375
#     4  11  22  43  64  89 127 178 221 255 318 399
#
# _framework density 20.548850000000002
#
# number of rings (size 3 to 8) (size 9 to 14) (size 15 to 20)
#    0.000    1.000    6.250    3.375    3.500    1.000 
#    0.000    1.875    2.750    0.000    0.000    0.000 
#    0.000    0.000    0.000    0.000    0.000    0.000 
#
# Total GULP energy -396438.680803 kJ/mol
# GULP energy per Si atom -12388.708775 kJ/mol
# Density = 2.050208 g / cm^3
# Si number density = 20.548850 Si / 1000 Ang^3
#
#
#
# Elastic Constant Matrix: (Units=GPa)
#
#
# Indices 1 2 3 4 5 6 
#
# 1 37.3097 25.4274 30.8236 0.0000 15.3166 0.0000
# 2 25.4274 87.9240 42.1330 0.0000 5.2092 0.0000
# 3 30.8236 42.1330 150.9356 0.0000 24.1770 0.0000
# 4 0.0000 0.0000 0.0000 31.5749 0.0000 10.4803
# 5 15.3166 5.2092 24.1770 0.0000 29.5769 0.0000
# 6 0.0000 0.0000 0.0000 10.4803 0.0000 20.9392
#
#
#
# Elastic Compliance Matrix: (Units=1/GPa)
#
#
# Indices 1 2 3 4 5 6 
#
# 1 0.043815 -0.010048 -0.003213 0.000000 -0.018294 0.000000
# 2 -0.010048 0.015450 -0.003059 0.000000 0.004983 0.000000
# 3 -0.003213 -0.003059 0.008955 0.000000 -0.005118 0.000000
# 4 0.000000 0.000000 0.000000 0.037980 0.000000 -0.019010
# 5 -0.018294 0.004983 -0.005118 0.000000 0.046590 0.000000
# 6 0.000000 0.000000 0.000000 -0.019010 0.000000 0.057272
#
#
# Mechanical properties :
#
#
# Convention : Reuss Voigt Hill
#
# Bulk Modulus (GPa) = 28.10486 52.54857 40.32672
# Shear Modulus (GPa) = 19.64170 28.27055 23.95612
#
# Velocity S-wave (km/s) = 3.09504 3.71317 3.41811
# Velocity P-wave (km/s) = 5.14579 6.63412 5.93678
#
# Compressibility (1/GPa) = 0.03558103
#
# Stress axis : x y z
#
# Youngs Moduli (GPa) = 22.82339 64.72528 111.66872
#
# Poissons Ratio (x) = 0.65035 0.35874
# Poissons Ratio (y) = 0.22933 0.34159
# Poissons Ratio (z) = 0.07332 0.19799
#
# Static dielectric constant tensor:
#      x y z
#    x 3.027190 0.000000 0.283110 
#    y 0.000000 3.610000 0.000000 
#    z 0.283110 0.000000 4.195540 
# 
# 
# High freq. dielectric constant tensor:
#      x y z
#    x 1.766870 0.000000 0.002760 
#    y 0.000000 1.787200 0.000000 
#    z 0.002760 0.000000 1.828060 
# 
# From -- ./inp_files/277085.got.cif
#   From: 2010.06.25/outbox.cif.g09.slc.cpg/sg15_139_cif.got.tgz:277085.got - 2010.06.28 07:06:18.
