data_PCOD8132131
_publ_section_title
;
Structure prediction by ZEFSAII (Michael W. Deem and Ramdas Pophale) SiO2 
 PCOD8132131
Probable space group: C 2/C
;
_chemical_formula_sum "Si O2"
_cell_formula_units_Z 48
_cell_length_a 11.594364
_cell_length_b 13.742476
_cell_length_c 19.806978
_cell_angle_alpha 90.000000
_cell_angle_beta 136.267080
_cell_angle_gamma 90.000000
_cell_volume 2181.701050
_symmetry_space_group_name_H-M "C 2/C"
_symmetry_group_IT_number 15
_symmetry_cell_setting 'monoclinic'
loop_
_space_group_symop_operation_xyz
x,y,z
-x,y,1/2-z
-x,-y,-z
x,-y,1/2+z
1/2+x,1/2+y,z
1/2-x,1/2+y,1/2-z
1/2-x,1/2-y,-z
1/2+x,1/2-y,1/2+z
loop_
_atom_site_type_symbol
_atom_site_label
_atom_site_fract_x
_atom_site_fract_y
_atom_site_fract_z
Si Si1 0.153435 0.853311 0.884527
Si Si2 0.608998 0.070277 0.357653
Si Si3 0.785287 0.356088 0.085748
Si Si4 0.102201 0.545214 0.104550
Si Si5 0.575812 0.466364 0.214644
Si Si6 0.476669 0.399705 0.028435
O O1 0.097856 0.739545 0.856523
O O2 0.274379 0.873860 0.872749
O O3 0.258262 0.875841 0.995682
O O4 0.991381 0.921807 0.816722
O O5 0.500000 0.113433 0.250000
O O6 0.520257 0.090252 0.391529
O O7 0.783572 0.129862 0.435487
O O8 0.633507 0.954986 0.351873
O O9 0.609569 0.328367 0.048922
O O10 0.222555 0.466770 0.193854
O O11 0.000000 0.500000 0.000000
O O12 0.500000 0.415869 0.250000
O O13 0.517372 0.406554 0.125024
O O14 0.500000 0.500000 0.000000
#
# Coordination Sequence:
#
# PCOD8132131 Si02
#       6
#     8   8   8   8   8   8
#     4  10  20  36  58  83 110 148 188 235 284 330
#     4  11  21  33  58  85 113 143 190 234 281 334
#     4  10  20  36  58  83 113 144 189 238 281 330
#     4  11  20  35  54  85 114 148 187 231 277 338
#     4  10  19  34  57  81 112 151 187 229 280 335
#     4  10  18  36  56  81 111 150 186 228 279 335
#
# _framework density 22.001180000000002
#
# number of rings (size 3 to 8) (size 9 to 14) (size 15 to 20)
#    0.000    1.667    5.000    3.000    0.000    2.000 
#    0.000    0.833    0.000    1.000    0.000    0.000 
#    0.000    0.000    0.000    0.000    0.000    0.000 
#
# Total GULP energy -297391.324903 kJ/mol
# GULP energy per Si atom -12391.305204 kJ/mol
# Density = 2.195110 g / cm^3
# Si number density = 22.001180 Si / 1000 Ang^3
#
#
#
# Elastic Constant Matrix: (Units=GPa)
#
#
# Indices 1 2 3 4 5 6 
#
# 1 132.5973 -8.7217 39.3782 0.0000 -10.8282 0.0000
# 2 -8.7217 29.6440 0.3754 0.0000 -1.1611 0.0000
# 3 39.3782 0.3754 150.7830 0.0000 -9.2536 0.0000
# 4 0.0000 0.0000 0.0000 13.3642 0.0000 4.1033
# 5 -10.8282 -1.1611 -9.2536 0.0000 43.4438 0.0000
# 6 0.0000 0.0000 0.0000 4.1033 0.0000 19.1347
#
#
#
# Elastic Compliance Matrix: (Units=1/GPa)
#
#
# Indices 1 2 3 4 5 6 
#
# 1 0.008482 0.002590 -0.002115 0.000000 0.001733 0.000000
# 2 0.002590 0.034560 -0.000675 0.000000 0.001425 0.000000
# 3 -0.002115 -0.000675 0.007247 0.000000 0.000998 0.000000
# 4 0.000000 0.000000 0.000000 0.080101 0.000000 -0.017177
# 5 0.001733 0.001425 0.000998 0.000000 0.023701 0.000000
# 6 0.000000 0.000000 0.000000 -0.017177 0.000000 0.055945
#
#
# Mechanical properties :
#
#
# Convention : Reuss Voigt Hill
#
# Bulk Modulus (GPa) = 20.04453 41.67645 30.86049
# Shear Modulus (GPa) = 22.02010 33.98801 28.00405
#
# Velocity S-wave (km/s) = 3.16707 3.93469 3.57156
# Velocity P-wave (km/s) = 4.74386 6.29495 5.57362
#
# Compressibility (1/GPa) = 0.04988892
#
# Stress axis : x y z
#
# Youngs Moduli (GPa) = 117.90161 28.93516 137.98055
#
# Poissons Ratio (x) = -0.07494 0.29185
# Poissons Ratio (y) = -0.30537 0.09313
# Poissons Ratio (z) = 0.24938 0.01953
#
# Static dielectric constant tensor:
#      x y z
#    x 4.653430 0.000000 0.101720 
#    y 0.000000 3.432190 0.000000 
#    z 0.101720 0.000000 4.304320 
# 
# 
# High freq. dielectric constant tensor:
#      x y z
#    x 1.880780 0.000000 -0.009170 
#    y 0.000000 1.798390 0.000000 
#    z -0.009170 0.000000 1.883690 
# 
# From -- ./inp_files/239043.got.cif
#   From: 2010.06.25/outbox.cif.g09.slc.cpg/sg15_120_cif.got.tgz:239043.got - 2010.06.28 07:06:18.
