data_PCOD8132237
_publ_section_title
;
Structure prediction by ZEFSAII (Michael W. Deem and Ramdas Pophale) SiO2 
 PCOD8132237
Probable space group: C 2/C
;
_chemical_formula_sum "Si O2"
_cell_formula_units_Z 44
_cell_length_a 24.185767
_cell_length_b 10.192824
_cell_length_c 18.115780
_cell_angle_alpha 90.000000
_cell_angle_beta 32.436089
_cell_angle_gamma 90.000000
_cell_volume 2395.336880
_symmetry_space_group_name_H-M "C 2/C"
_symmetry_group_IT_number 15
_symmetry_cell_setting 'monoclinic'
loop_
_space_group_symop_operation_xyz
x,y,z
-x,y,1/2-z
-x,-y,-z
x,-y,1/2+z
1/2+x,1/2+y,z
1/2-x,1/2+y,1/2-z
1/2-x,1/2-y,-z
1/2+x,1/2-y,1/2+z
loop_
_atom_site_type_symbol
_atom_site_label
_atom_site_fract_x
_atom_site_fract_y
_atom_site_fract_z
Si Si1 0.971121 0.049346 0.658710
Si Si2 0.704866 0.726831 0.631151
Si Si3 0.500000 0.644000 0.250000
Si Si4 0.204864 0.765246 0.469931
Si Si5 0.786239 0.970445 0.623405
Si Si6 0.717083 0.518889 0.205140
O O1 0.917654 0.190843 0.737247
O O2 0.092516 0.065619 0.512033
O O3 0.909227 0.986216 0.658296
O O4 0.941667 0.950637 0.758346
O O5 0.750000 0.750000 0.500000
O O6 0.719358 0.853553 0.665332
O O7 0.762199 0.603258 0.606403
O O8 0.419013 0.736344 0.383587
O O9 0.250000 0.750000 0.500000
O O10 0.237939 0.652855 0.377068
O O11 0.239816 0.903092 0.395777
O O12 0.748727 0.994967 0.748855
#
# Coordination Sequence:
#
# PCOD8132237 Si02
#       6
#     8   8   4   8   8   8
#     4   9  20  35  60  82 113 147 197 221 283 344
#     4  10  20  36  56  84 115 149 191 231 277 338
#     4  10  18  36  60  88 106 158 186 234 278 334
#     4  11  20  37  60  86 113 146 197 234 273 339
#     4  11  21  37  62  83 114 154 185 235 291 329
#     4  10  21  37  57  86 117 147 188 236 282 336
#
# _framework density 18.369022999999999
#
# number of rings (size 3 to 8) (size 9 to 14) (size 15 to 20)
#    1.091    0.727    1.818    4.909    0.000    0.000 
#    0.000    3.636    0.000    3.273    0.000    0.000 
#    0.000    0.000    0.000    0.000    0.000    0.000 
#
# Total GULP energy -272602.611563 kJ/mol
# GULP energy per Si atom -12391.027798 kJ/mol
# Density = 1.832721 g / cm^3
# Si number density = 18.369023 Si / 1000 Ang^3
#
#
#
# Elastic Constant Matrix: (Units=GPa)
#
#
# Indices 1 2 3 4 5 6 
#
# 1 109.6092 56.8725 38.7278 0.0000 27.1484 0.0000
# 2 56.8725 138.4418 55.8020 0.0001 2.9148 -0.0001
# 3 38.7278 55.8020 81.1867 0.0000 9.4800 -0.0001
# 4 0.0000 0.0001 0.0000 30.2808 0.0000 -0.6002
# 5 27.1484 2.9148 9.4800 0.0000 30.2191 0.0000
# 6 0.0000 -0.0001 -0.0001 -0.6002 0.0000 43.1052
#
#
#
# Elastic Compliance Matrix: (Units=1/GPa)
#
#
# Indices 1 2 3 4 5 6 
#
# 1 0.015978 -0.005300 -0.002452 0.000000 -0.013074 0.000000
# 2 -0.005300 0.011794 -0.006229 0.000000 0.005578 0.000000
# 3 -0.002452 -0.006229 0.018105 0.000000 -0.002876 0.000000
# 4 0.000000 0.000000 0.000000 0.033033 0.000000 0.000460
# 5 -0.013074 0.005578 -0.002876 0.000000 0.045201 0.000000
# 6 0.000000 0.000000 0.000000 0.000460 0.000000 0.023205
#
#
# Mechanical properties :
#
#
# Convention : Reuss Voigt Hill
#
# Bulk Modulus (GPa) = 55.82596 70.22691 63.02644
# Shear Modulus (GPa) = 27.58601 32.57672 30.08136
#
# Velocity S-wave (km/s) = 3.87947 4.21581 4.05113
# Velocity P-wave (km/s) = 7.10805 7.87475 7.50120
#
# Compressibility (1/GPa) = 0.01791281
#
# Stress axis : x y z
#
# Youngs Moduli (GPa) = 62.58587 84.78863 55.23468
#
# Poissons Ratio (x) = 0.44939 0.13545
# Poissons Ratio (y) = 0.33171 0.34408
# Poissons Ratio (z) = 0.15348 0.52819
#
# Static dielectric constant tensor:
#      x y z
#    x 3.528490 0.000000 0.132500 
#    y 0.000000 3.422820 0.000000 
#    z 0.132500 0.000000 3.272340 
# 
# 
# High freq. dielectric constant tensor:
#      x y z
#    x 1.718510 0.000000 0.018070 
#    y 0.000000 1.708350 0.000000 
#    z 0.018070 0.000000 1.697720 
# 
# From -- ./inp_files/218464.got.cif
#   From: 2010.06.25/outbox.cif.g09.slc.cpg/sg15_110_cif.got.tgz:218464.got - 2010.06.28 07:06:18.
