data_PCOD8132119
_publ_section_title
;
Structure prediction by ZEFSAII (Michael W. Deem and Ramdas Pophale) SiO2 
 PCOD8132119
Probable space group: C 2/C
;
_chemical_formula_sum "Si O2"
_cell_formula_units_Z 48
_cell_length_a 5.238280
_cell_length_b 23.597347
_cell_length_c 19.313617
_cell_angle_alpha 90.000000
_cell_angle_beta 121.739911
_cell_angle_gamma 90.000000
_cell_volume 2030.306798
_symmetry_space_group_name_H-M "C 2/C"
_symmetry_group_IT_number 15
_symmetry_cell_setting 'monoclinic'
loop_
_space_group_symop_operation_xyz
x,y,z
-x,y,1/2-z
-x,-y,-z
x,-y,1/2+z
1/2+x,1/2+y,z
1/2-x,1/2+y,1/2-z
1/2-x,1/2-y,-z
1/2+x,1/2-y,1/2+z
loop_
_atom_site_type_symbol
_atom_site_label
_atom_site_fract_x
_atom_site_fract_y
_atom_site_fract_z
Si Si1 0.902182 0.281726 0.661544
Si Si2 0.904443 0.051193 0.341625
Si Si3 0.351151 0.426113 0.302318
Si Si4 0.857226 0.169285 0.567064
Si Si5 0.097267 0.600298 0.160348
Si Si6 0.185669 0.186138 0.475251
O O1 0.908088 0.232644 0.604720
O O2 0.572682 0.311832 0.620976
O O3 0.000000 0.257023 0.750000
O O4 0.129782 0.331600 0.670424
O O5 0.742021 0.069645 0.247616
O O6 0.750469 0.079818 0.387248
O O7 0.242428 0.076775 0.386300
O O8 0.895931 0.983841 0.351698
O O9 0.500000 0.437443 0.250000
O O10 0.534659 0.374992 0.361148
O O11 0.000000 0.409762 0.250000
O O12 0.503935 0.157601 0.499112
O O13 0.047117 0.158635 0.525156
O O14 0.250000 0.250000 0.500000
#
# Coordination Sequence:
#
# PCOD8132119 Si02
#       6
#     8   8   8   8   8   8
#     4  11  22  40  67 100 123 156 216 272 301 370
#     4  10  18  36  54  88 123 160 198 257 327 343
#     4  12  21  38  66  93 124 169 218 267 297 373
#     4  11  25  43  62  95 133 171 204 247 331 387
#     4  10  19  34  56  90 120 156 198 261 316 358
#     4  10  23  46  62  85 136 181 192 246 331 393
#
# _framework density 23.641746000000001
#
# number of rings (size 3 to 8) (size 9 to 14) (size 15 to 20)
#    0.000    1.333    5.000    3.500    0.000    5.333 
#    3.000    0.000    0.000    6.000    0.000    0.000 
#    0.000    0.000    0.000    0.000    0.000    0.000 
#
# Total GULP energy -297437.931111 kJ/mol
# GULP energy per Si atom -12393.247130 kJ/mol
# Density = 2.358794 g / cm^3
# Si number density = 23.641746 Si / 1000 Ang^3
#
#
#
# Elastic Constant Matrix: (Units=GPa)
#
#
# Indices 1 2 3 4 5 6 
#
# 1 159.9286 14.5120 9.6595 0.0000 14.6141 0.0000
# 2 14.5120 116.9237 13.9531 0.0000 15.2987 0.0000
# 3 9.6595 13.9531 74.1776 0.0000 14.2231 0.0000
# 4 0.0000 0.0000 0.0000 14.4771 0.0000 10.5636
# 5 14.6141 15.2987 14.2231 0.0000 26.8972 0.0000
# 6 0.0000 0.0000 0.0000 10.5636 0.0000 22.9907
#
#
#
# Elastic Compliance Matrix: (Units=1/GPa)
#
#
# Indices 1 2 3 4 5 6 
#
# 1 0.006597 -0.000369 -0.000159 0.000000 -0.003290 0.000000
# 2 -0.000369 0.009305 -0.000808 0.000000 -0.004665 0.000000
# 3 -0.000159 -0.000808 0.015078 0.000000 -0.007427 0.000000
# 4 0.000000 0.000000 0.000000 0.103914 0.000000 -0.047746
# 5 -0.003290 -0.004665 -0.007427 0.000000 0.045547 0.000000
# 6 0.000000 0.000000 0.000000 -0.047746 0.000000 0.065434
#
#
# Mechanical properties :
#
#
# Convention : Reuss Voigt Hill
#
# Bulk Modulus (GPa) = 35.32559 47.47545 41.40052
# Shear Modulus (GPa) = 19.38121 33.73335 26.55728
#
# Velocity S-wave (km/s) = 2.86630 3.78147 3.35523
# Velocity P-wave (km/s) = 5.09202 6.26026 5.70612
#
# Compressibility (1/GPa) = 0.02830809
#
# Stress axis : x y z
#
# Youngs Moduli (GPa) = 151.59477 107.46698 66.32214
#
# Poissons Ratio (x) = 0.03969 0.01052
# Poissons Ratio (y) = 0.05598 0.05357
# Poissons Ratio (z) = 0.02405 0.08681
#
# Static dielectric constant tensor:
#      x y z
#    x 8.455410 0.000000 0.068590 
#    y 0.000000 4.209690 0.000000 
#    z 0.068590 0.000000 4.071990 
# 
# 
# High freq. dielectric constant tensor:
#      x y z
#    x 1.959750 0.000000 0.012470 
#    y 0.000000 1.938090 0.000000 
#    z 0.012470 0.000000 1.901600 
# 
# From -- ./inp_files/228248.got.cif
#   From: 2010.06.25/outbox.cif.g09.slc.cpg/sg15_115_cif.got.tgz:228248.got - 2010.06.28 07:06:18.
