data_PCOD8132540
_publ_section_title
;
Structure prediction by ZEFSAII (Michael W. Deem and Ramdas Pophale) SiO2 
 PCOD8132540
Probable space group: C 2/C
;
_chemical_formula_sum "Si O2"
_cell_formula_units_Z 48
_cell_length_a 20.922507
_cell_length_b 8.774884
_cell_length_c 21.725608
_cell_angle_alpha 90.000000
_cell_angle_beta 34.632478
_cell_angle_gamma 90.000000
_cell_volume 2266.796492
_symmetry_space_group_name_H-M "C 2/C"
_symmetry_group_IT_number 15
_symmetry_cell_setting 'monoclinic'
loop_
_space_group_symop_operation_xyz
x,y,z
-x,y,1/2-z
-x,-y,-z
x,-y,1/2+z
1/2+x,1/2+y,z
1/2-x,1/2+y,1/2-z
1/2-x,1/2-y,-z
1/2+x,1/2-y,1/2+z
loop_
_atom_site_type_symbol
_atom_site_label
_atom_site_fract_x
_atom_site_fract_y
_atom_site_fract_z
Si Si1 0.015613 0.128730 0.839174
Si Si2 0.708352 0.550243 0.765038
Si Si3 0.344803 0.135230 0.839737
Si Si4 0.500000 0.125854 0.250000
Si Si5 0.500000 0.620879 0.250000
Si Si6 0.109941 0.078305 0.978459
Si Si7 0.389210 0.761902 0.173333
O O1 0.138323 0.154895 0.772244
O O2 0.979351 0.272371 0.827360
O O3 0.019190 0.976619 0.795441
O O4 0.929510 0.085493 0.962501
O O5 0.650932 0.551490 0.877408
O O6 0.703160 0.374962 0.746522
O O7 0.835476 0.615099 0.667889
O O8 0.389600 0.272446 0.847413
O O9 0.210545 0.140496 0.941651
O O10 0.404517 0.155031 0.726138
O O11 0.387306 0.973643 0.832834
O O12 0.009070 0.200882 0.055716
#
# Coordination Sequence:
#
# PCOD8132540 Si02
#       7
#     8   8   8   4   4   8   8
#     4  10  20  38  61  85 122 158 199 243 303 349
#     4  10  21  37  67  86 122 156 197 247 307 350
#     4  10  21  39  62  88 118 158 203 245 300 349
#     4  10  24  38  60  86 122 168 196 248 290 358
#     4  10  18  38  62  84 118 166 196 240 304 358
#     4  10  21  39  66  89 119 156 203 248 302 356
#     4  10  20  39  62  88 120 158 192 256 296 354
#
# _framework density 21.175257999999999
#
# number of rings (size 3 to 8) (size 9 to 14) (size 15 to 20)
#    0.000    2.000    3.333    2.000    4.667    1.333 
#    0.000    3.333    7.333    0.000    0.000    0.000 
#    0.000    0.000    0.000    0.000    0.000    0.000 
#
# Total GULP energy -297474.963140 kJ/mol
# GULP energy per Si atom -12394.790131 kJ/mol
# Density = 2.112706 g / cm^3
# Si number density = 21.175258 Si / 1000 Ang^3
#
#
#
# Elastic Constant Matrix: (Units=GPa)
#
#
# Indices 1 2 3 4 5 6 
#
# 1 146.4233 56.6799 35.6056 -0.0003 -16.5002 0.0002
# 2 56.6799 109.3821 22.1820 -0.0005 -8.6108 0.0003
# 3 35.6056 22.1820 53.9644 -0.0007 -10.1849 0.0006
# 4 -0.0003 -0.0005 -0.0007 17.5014 0.0003 0.4104
# 5 -16.5002 -8.6108 -10.1849 0.0003 38.1450 -0.0002
# 6 0.0002 0.0003 0.0006 0.4104 -0.0002 45.6961
#
#
#
# Elastic Compliance Matrix: (Units=1/GPa)
#
#
# Indices 1 2 3 4 5 6 
#
# 1 0.009657 -0.003956 -0.004345 0.000000 0.002124 0.000000
# 2 -0.003956 0.011648 -0.002111 0.000000 0.000355 0.000000
# 3 -0.004345 -0.002111 0.022978 0.000001 0.003780 0.000000
# 4 0.000000 0.000000 0.000001 0.057150 0.000000 -0.000513
# 5 0.002124 0.000355 0.003780 0.000000 0.028224 0.000000
# 6 0.000000 0.000000 0.000000 -0.000513 0.000000 0.021888
#
#
# Mechanical properties :
#
#
# Convention : Reuss Voigt Hill
#
# Bulk Modulus (GPa) = 42.62484 59.85608 51.24046
# Shear Modulus (GPa) = 27.74881 33.28864 30.51873
#
# Velocity S-wave (km/s) = 3.62392 3.96921 3.80049
# Velocity P-wave (km/s) = 6.13870 7.02386 6.59614
#
# Compressibility (1/GPa) = 0.02346050
#
# Stress axis : x y z
#
# Youngs Moduli (GPa) = 103.55692 85.85155 43.51936
#
# Poissons Ratio (x) = 0.33959 0.18907
# Poissons Ratio (y) = 0.40963 0.09187
# Poissons Ratio (z) = 0.44990 0.18124
#
# Static dielectric constant tensor:
#      x y z
#    x 4.391510 0.000000 -0.042230 
#    y 0.000000 3.851050 0.000000 
#    z -0.042230 0.000000 3.401960 
# 
# 
# High freq. dielectric constant tensor:
#      x y z
#    x 1.868210 0.000000 0.000860 
#    y 0.000000 1.821130 0.000000 
#    z 0.000860 0.000000 1.785380 
# 
# From -- ./inp_files/116840.got.cif
#   From: 2010.06.25/outbox.cif.g09.slc.cpg/sg15_59_cif.got.tgz:116840.got - 2010.06.28 07:06:18.
