data_PCOD8132920
_publ_section_title
;
Structure prediction by ZEFSAII (Michael W. Deem and Ramdas Pophale) SiO2 
 PCOD8132920
Probable space group: C 2/C
;
_chemical_formula_sum "Si O2"
_cell_formula_units_Z 36
_cell_length_a 10.836311
_cell_length_b 33.966262
_cell_length_c 5.321157
_cell_angle_alpha 90.000000
_cell_angle_beta 67.321097
_cell_angle_gamma 90.000000
_cell_volume 1807.117757
_symmetry_space_group_name_H-M "C 2/C"
_symmetry_group_IT_number 15
_symmetry_cell_setting 'monoclinic'
loop_
_space_group_symop_operation_xyz
x,y,z
-x,y,1/2-z
-x,-y,-z
x,-y,1/2+z
1/2+x,1/2+y,z
1/2-x,1/2+y,1/2-z
1/2-x,1/2-y,-z
1/2+x,1/2-y,1/2+z
loop_
_atom_site_type_symbol
_atom_site_label
_atom_site_fract_x
_atom_site_fract_y
_atom_site_fract_z
Si Si1 0.132001 0.103922 0.491075
Si Si2 0.848974 0.983516 0.631401
Si Si3 0.255010 0.203824 0.961802
Si Si4 0.500000 0.664709 0.250000
Si Si5 0.151453 0.662732 0.096496
O O1 0.167332 0.063321 0.324717
O O2 0.258943 0.123326 0.535628
O O3 0.098596 0.137796 0.326354
O O4 0.000000 0.093839 0.750000
O O5 0.776518 0.997368 0.431000
O O6 0.000000 0.000000 0.500000
O O7 0.343560 0.191339 0.651417
O O8 0.250000 0.250000 0.000000
O O9 0.305549 0.185380 0.184089
O O10 0.102047 0.191467 0.010788
O O11 0.000000 0.648118 0.250000
#
# Coordination Sequence:
#
# PCOD8132920 Si02
#       5
#     8   8   8   4   8
#     4  11  20  37  60  85 123 149 201 247 289 360
#     4  10  19  30  53  87 116 145 184 240 302 334
#     4  11  24  41  62  86 118 154 201 255 300 352
#     4  10  22  36  60  90 114 154 206 246 302 338
#     4  11  25  42  61  86 121 163 200 235 305 366
#
# _framework density 19.921226000000001
#
# number of rings (size 3 to 8) (size 9 to 14) (size 15 to 20)
#    0.000    1.333    4.444    2.667    3.111    0.000 
#    0.000    0.000    0.000    1.333    0.000    0.000 
#    0.000    0.000    0.000    0.000    0.000    0.000 
#
# Total GULP energy -222991.932271 kJ/mol
# GULP energy per Si atom -12388.440682 kJ/mol
# Density = 1.987588 g / cm^3
# Si number density = 19.921226 Si / 1000 Ang^3
#
#
#
# Elastic Constant Matrix: (Units=GPa)
#
#
# Indices 1 2 3 4 5 6 
#
# 1 68.5801 51.7923 40.7073 0.0000 -5.7757 0.0000
# 2 51.7923 142.1931 27.9659 0.0000 -0.8759 0.0000
# 3 40.7073 27.9659 114.9048 0.0000 17.1364 0.0000
# 4 0.0000 0.0000 0.0000 21.7987 0.0000 4.0462
# 5 -5.7757 -0.8759 17.1364 0.0000 38.9661 0.0000
# 6 0.0000 0.0000 0.0000 4.0462 0.0000 19.5047
#
#
#
# Elastic Compliance Matrix: (Units=1/GPa)
#
#
# Indices 1 2 3 4 5 6 
#
# 1 0.026123 -0.007805 -0.008461 0.000000 0.007418 0.000000
# 2 -0.007805 0.009757 0.000568 0.000000 -0.001187 0.000000
# 3 -0.008461 0.000568 0.012572 0.000000 -0.006770 0.000000
# 4 0.000000 0.000000 0.000000 0.047711 0.000000 -0.009898
# 5 0.007418 -0.001187 -0.006770 0.000000 0.029714 0.000000
# 6 0.000000 0.000000 0.000000 -0.009898 0.000000 0.053323
#
#
# Mechanical properties :
#
#
# Convention : Reuss Voigt Hill
#
# Bulk Modulus (GPa) = 58.63700 62.95655 60.79677
# Shear Modulus (GPa) = 23.11798 29.73475 26.42636
#
# Velocity S-wave (km/s) = 3.41026 3.86763 3.64613
# Velocity P-wave (km/s) = 6.70857 7.18444 6.95057
#
# Compressibility (1/GPa) = 0.01705408
#
# Stress axis : x y z
#
# Youngs Moduli (GPa) = 38.28027 102.49347 79.54226
#
# Poissons Ratio (x) = 0.79999 0.67302
# Poissons Ratio (y) = 0.29879 -0.04515
# Poissons Ratio (z) = 0.32390 -0.05818
#
# Static dielectric constant tensor:
#      x y z
#    x 3.928160 0.000000 0.238470 
#    y 0.000000 3.817590 0.000000 
#    z 0.238470 0.000000 5.390040 
# 
# 
# High freq. dielectric constant tensor:
#      x y z
#    x 1.751160 0.000000 0.015850 
#    y 0.000000 1.784300 0.000000 
#    z 0.015850 0.000000 1.776550 
# 
# From -- ./inp_files/5418.got.cif
#   From: 2010.06.25/outbox.cif.g09.slc.cpg/sg15_3_cif.got.tgz:5418.got - 2010.06.28 07:06:18.
