data_PCOD8132687
_publ_section_title
;
Structure prediction by ZEFSAII (Michael W. Deem and Ramdas Pophale) SiO2 
 PCOD8132687
Probable space group: C 2/C
;
_chemical_formula_sum "Si O2"
_cell_formula_units_Z 60
_cell_length_a 13.633637
_cell_length_b 21.065053
_cell_length_c 14.096123
_cell_angle_alpha 90.000000
_cell_angle_beta 49.283894
_cell_angle_gamma 90.000000
_cell_volume 3068.422039
_symmetry_space_group_name_H-M "C 2/C"
_symmetry_group_IT_number 15
_symmetry_cell_setting 'monoclinic'
loop_
_space_group_symop_operation_xyz
x,y,z
-x,y,1/2-z
-x,-y,-z
x,-y,1/2+z
1/2+x,1/2+y,z
1/2-x,1/2+y,1/2-z
1/2-x,1/2-y,-z
1/2+x,1/2-y,1/2+z
loop_
_atom_site_type_symbol
_atom_site_label
_atom_site_fract_x
_atom_site_fract_y
_atom_site_fract_z
Si Si1 0.236701 0.418804 0.667440
Si Si2 0.801010 0.794470 0.839819
Si Si3 0.456536 0.676931 0.071325
Si Si4 0.500000 0.160359 0.250000
Si Si5 0.477786 0.195857 0.059359
Si Si6 0.856776 0.465173 0.371352
Si Si7 0.242541 0.160585 0.932477
Si Si8 0.411293 0.061046 0.047746
O O1 0.367672 0.376995 0.578342
O O2 0.249256 0.483929 0.598983
O O3 0.197297 0.434559 0.801113
O O4 0.125511 0.382133 0.682823
O O5 0.924030 0.818590 0.703382
O O6 0.676535 0.793230 0.849361
O O7 0.777922 0.842539 0.940919
O O8 0.826550 0.723341 0.860030
O O9 0.605405 0.658191 0.965044
O O10 0.437937 0.748827 0.043199
O O11 0.518804 0.201695 0.143432
O O12 0.500648 0.125387 0.998461
O O13 0.824124 0.398428 0.341332
O O14 0.840685 0.450325 0.492485
O O15 0.000000 0.487618 0.250000
O O16 0.500000 0.000000 0.000000
#
# Coordination Sequence:
#
# PCOD8132687 Si02
#       8
#     8   8   8   4   8   8   8   8
#     4  11  22  39  62  85 122 159 200 250 299 365
#     4  10  19  38  56  84 122 156 192 240 303 367
#     4  11  22  38  59  86 121 166 192 240 310 360
#     4  10  18  40  58  86 110 150 204 240 292 352
#     4  10  21  36  61  87 119 152 199 252 292 362
#     4  12  22  36  61  88 116 160 201 254 300 352
#     4  10  23  34  58  92 121 151 196 251 302 362
#     4  11  20  38  59  91 116 151 208 252 298 352
#
# _framework density 19.554024999999999
#
# number of rings (size 3 to 8) (size 9 to 14) (size 15 to 20)
#    0.000    1.333    6.000    1.200    1.867    1.067 
#    0.000    0.000    2.933    0.000    0.000    0.000 
#    0.000    0.000    0.000    0.000    0.000    0.000 
#
# Total GULP energy -371778.535004 kJ/mol
# GULP energy per Si atom -12392.617833 kJ/mol
# Density = 1.950952 g / cm^3
# Si number density = 19.554025 Si / 1000 Ang^3
#
#
#
# Elastic Constant Matrix: (Units=GPa)
#
#
# Indices 1 2 3 4 5 6 
#
# 1 80.2113 32.0063 22.5763 0.0000 16.3515 0.0000
# 2 32.0063 138.7538 27.2805 0.0001 4.7253 0.0000
# 3 22.5763 27.2805 34.6338 0.0001 8.8080 -0.0001
# 4 0.0000 0.0001 0.0001 29.2611 0.0000 -7.5114
# 5 16.3515 4.7253 8.8080 0.0000 34.2281 0.0000
# 6 0.0000 0.0000 -0.0001 -7.5114 0.0000 34.8635
#
#
#
# Elastic Compliance Matrix: (Units=1/GPa)
#
#
# Indices 1 2 3 4 5 6 
#
# 1 0.016649 -0.002126 -0.007736 0.000000 -0.005669 0.000000
# 2 -0.002126 0.008810 -0.005888 0.000000 0.001315 0.000000
# 3 -0.007736 -0.005888 0.040027 0.000000 -0.005792 0.000000
# 4 0.000000 0.000000 0.000000 0.036176 0.000000 0.007794
# 5 -0.005669 0.001315 -0.005792 0.000000 0.033233 0.000000
# 6 0.000000 0.000000 0.000000 0.007794 0.000000 0.030363
#
#
# Mechanical properties :
#
#
# Convention : Reuss Voigt Hill
#
# Bulk Modulus (GPa) = 29.42433 46.36947 37.89690
# Shear Modulus (GPa) = 24.02849 31.11961 27.57405
#
# Velocity S-wave (km/s) = 3.50926 3.99365 3.75927
# Velocity P-wave (km/s) = 5.61251 6.71049 6.18591
#
# Compressibility (1/GPa) = 0.03398548
#
# Stress axis : x y z
#
# Youngs Moduli (GPa) = 60.06529 113.50253 24.98307
#
# Poissons Ratio (x) = 0.24134 0.19327
# Poissons Ratio (y) = 0.12772 0.14710
# Poissons Ratio (z) = 0.46466 0.66831
#
# Static dielectric constant tensor:
#      x y z
#    x 3.763410 0.000000 0.190600 
#    y 0.000000 3.879400 0.000000 
#    z 0.190600 0.000000 3.297560 
# 
# 
# High freq. dielectric constant tensor:
#      x y z
#    x 1.759380 0.000000 0.012970 
#    y 0.000000 1.772880 0.000000 
#    z 0.012970 0.000000 1.730840 
# 
# From -- ./inp_files/156369.got.cif
#   From: 2010.06.25/outbox.cif.g09.slc.cpg/sg15_79_cif.got.tgz:156369.got - 2010.06.28 07:06:18.
