data_PCOD8132527
_publ_section_title
;
Structure prediction by ZEFSAII (Michael W. Deem and Ramdas Pophale) SiO2 
 PCOD8132527
Probable space group: C 2/C
;
_chemical_formula_sum "Si O2"
_cell_formula_units_Z 44
_cell_length_a 6.465250
_cell_length_b 14.002988
_cell_length_c 21.937223
_cell_angle_alpha 90.000000
_cell_angle_beta 90.641948
_cell_angle_gamma 90.000000
_cell_volume 1985.913967
_symmetry_space_group_name_H-M "C 2/C"
_symmetry_group_IT_number 15
_symmetry_cell_setting 'monoclinic'
loop_
_space_group_symop_operation_xyz
x,y,z
-x,y,1/2-z
-x,-y,-z
x,-y,1/2+z
1/2+x,1/2+y,z
1/2-x,1/2+y,1/2-z
1/2-x,1/2-y,-z
1/2+x,1/2-y,1/2+z
loop_
_atom_site_type_symbol
_atom_site_label
_atom_site_fract_x
_atom_site_fract_y
_atom_site_fract_z
Si Si1 0.337063 0.206430 0.624756
Si Si2 0.988904 0.288352 0.686710
Si Si3 0.893281 0.120475 0.372264
Si Si4 0.000000 0.376561 0.250000
Si Si5 0.572640 0.987959 0.432051
Si Si6 0.230294 0.473658 0.677630
O O1 0.092003 0.229668 0.631305
O O2 0.453490 0.300156 0.597509
O O3 0.422987 0.185819 0.693035
O O4 0.350883 0.120191 0.577626
O O5 0.134848 0.377776 0.704024
O O6 0.000000 0.227630 0.750000
O O7 0.757221 0.318858 0.671322
O O8 0.759320 0.062659 0.421355
O O9 0.024675 0.042686 0.333631
O O10 0.190380 0.442090 0.226032
O O11 0.380612 0.005208 0.387130
O O12 0.500000 0.000000 0.500000
#
# Coordination Sequence:
#
# PCOD8132527 Si02
#       6
#     8   8   8   4   8   8
#     4  10  22  37  59  90 119 155 207 248 311 378
#     4  10  19  36  57  90 126 157 192 241 305 377
#     4  10  22  40  60  86 123 163 198 257 310 364
#     4  10  18  38  60  94 124 154 202 246 304 386
#     4  10  23  42  61  86 118 159 214 262 308 367
#     4   9  20  38  60  90 121 157 202 240 305 370
#
# _framework density 22.156044000000001
#
# number of rings (size 3 to 8) (size 9 to 14) (size 15 to 20)
#    0.000    2.182    0.909    1.091    0.000    8.000 
#    0.000   10.000    0.000    0.000    0.000    0.000 
#    0.000    0.000    0.000    0.000    0.000    0.000 
#
# Total GULP energy -272657.237470 kJ/mol
# GULP energy per Si atom -12393.510794 kJ/mol
# Density = 2.210562 g / cm^3
# Si number density = 22.156044 Si / 1000 Ang^3
#
#
#
# Elastic Constant Matrix: (Units=GPa)
#
#
# Indices 1 2 3 4 5 6 
#
# 1 130.7061 38.6506 39.6717 0.0000 -36.0746 0.0000
# 2 38.6506 101.8615 34.7954 0.0000 -20.7282 0.0000
# 3 39.6717 34.7954 105.2552 0.0000 -30.4183 0.0000
# 4 0.0000 0.0000 0.0000 23.7511 0.0000 -12.4931
# 5 -36.0746 -20.7282 -30.4183 0.0000 25.8919 0.0000
# 6 0.0000 0.0000 0.0000 -12.4931 0.0000 39.0397
#
#
#
# Elastic Compliance Matrix: (Units=1/GPa)
#
#
# Indices 1 2 3 4 5 6 
#
# 1 0.012642 -0.001537 0.000724 0.000000 0.017233 0.000000
# 2 -0.001537 0.012135 -0.001883 0.000000 0.005361 0.000000
# 3 0.000724 -0.001883 0.014696 0.000000 0.016766 0.000000
# 4 0.000000 0.000000 0.000000 0.050625 0.000000 0.016200
# 5 0.017233 0.005361 0.016766 0.000000 0.086621 0.000000
# 6 0.000000 0.000000 0.000000 0.016200 0.000000 0.030799
#
#
# Mechanical properties :
#
#
# Convention : Reuss Voigt Hill
#
# Bulk Modulus (GPa) = 29.34319 62.67311 46.00815
# Shear Modulus (GPa) = 22.29453 32.71689 27.50571
#
# Velocity S-wave (km/s) = 3.17559 3.84690 3.52725
# Velocity P-wave (km/s) = 5.16899 6.93398 6.11549
#
# Compressibility (1/GPa) = 0.03407945
#
# Stress axis : x y z
#
# Youngs Moduli (GPa) = 79.10088 82.40895 68.04779
#
# Poissons Ratio (x) = 0.12668 -0.04924
# Poissons Ratio (y) = 0.12160 0.12812
# Poissons Ratio (z) = -0.05724 0.15516
#
# Static dielectric constant tensor:
#      x y z
#    x 4.280040 0.000000 -0.389960 
#    y 0.000000 4.218640 0.000000 
#    z -0.389960 0.000000 3.550620 
# 
# 
# High freq. dielectric constant tensor:
#      x y z
#    x 1.875420 0.000000 -0.029260 
#    y 0.000000 1.881830 0.000000 
#    z -0.029260 0.000000 1.836020 
# 
# From -- ./inp_files/260339.got.cif
#   From: 2010.06.25/outbox.cif.g09.slc.cpg/sg15_131_cif.got.tgz:260339.got - 2010.06.28 07:06:18.
