data_PCOD8132787
_publ_section_title
;
Structure prediction by ZEFSAII (Michael W. Deem and Ramdas Pophale) SiO2 
 PCOD8132787
Probable space group: C 2/C
;
_chemical_formula_sum "Si O2"
_cell_formula_units_Z 52
_cell_length_a 14.630660
_cell_length_b 11.005035
_cell_length_c 21.463373
_cell_angle_alpha 90.000000
_cell_angle_beta 48.134857
_cell_angle_gamma 90.000000
_cell_volume 2573.623381
_symmetry_space_group_name_H-M "C 2/C"
_symmetry_group_IT_number 15
_symmetry_cell_setting 'monoclinic'
loop_
_space_group_symop_operation_xyz
x,y,z
-x,y,1/2-z
-x,-y,-z
x,-y,1/2+z
1/2+x,1/2+y,z
1/2-x,1/2+y,1/2-z
1/2-x,1/2-y,-z
1/2+x,1/2-y,1/2+z
loop_
_atom_site_type_symbol
_atom_site_label
_atom_site_fract_x
_atom_site_fract_y
_atom_site_fract_z
Si Si1 0.500000 0.912400 0.750000
Si Si2 0.185163 0.360165 0.565668
Si Si3 0.051878 0.232639 0.362799
Si Si4 0.091868 0.451331 0.009966
Si Si5 0.631553 0.459548 0.920594
Si Si6 0.173206 0.622211 0.705516
Si Si7 0.182647 0.802595 0.590230
O O1 0.580423 0.827721 0.665810
O O2 0.588442 0.002389 0.748630
O O3 0.250000 0.250000 0.500000
O O4 0.116979 0.441412 0.546324
O O5 0.290416 0.436034 0.552601
O O6 0.126230 0.160072 0.380853
O O7 0.155512 0.287244 0.270817
O O8 0.975225 0.340533 0.427278
O O9 0.952214 0.148236 0.370598
O O10 0.225652 0.405058 0.922335
O O11 0.000000 0.500000 0.000000
O O12 0.687711 0.572540 0.856509
O O13 0.500000 0.500000 0.000000
O O14 0.149740 0.694732 0.652500
O O15 0.250000 0.750000 0.500000
#
# Coordination Sequence:
#
# PCOD8132787 Si02
#       7
#     4   8   8   8   8   8   8
#     4  10  18  42  66  88 126 172 222 270 330 396
#     4  11  23  42  66  92 131 181 218 266 340 400
#     4  11  20  38  61  91 121 163 214 261 321 393
#     4  11  22  38  64  92 126 162 216 269 322 388
#     4  11  23  40  61  94 127 166 216 268 333 400
#     4  11  20  38  64  91 124 166 215 275 330 388
#     4  10  19  36  63  88 118 163 209 263 318 382
#
# _framework density 20.204977
#
# number of rings (size 3 to 8) (size 9 to 14) (size 15 to 20)
#    0.000    1.231    3.077    6.462    0.000    1.231 
#    5.538    0.000    3.385    0.000    0.000    0.000 
#    0.000    0.000    0.000    0.000    0.000    0.000 
#
# Total GULP energy -322196.823610 kJ/mol
# GULP energy per Si atom -12392.185523 kJ/mol
# Density = 2.015899 g / cm^3
# Si number density = 20.204977 Si / 1000 Ang^3
#
#
#
# Elastic Constant Matrix: (Units=GPa)
#
#
# Indices 1 2 3 4 5 6 
#
# 1 140.6567 41.1984 44.4700 0.0000 -1.6765 0.0000
# 2 41.1984 55.6039 39.5992 0.0000 11.5572 0.0000
# 3 44.4700 39.5992 131.7210 0.0000 -4.5129 0.0000
# 4 0.0000 0.0000 0.0000 44.7689 0.0000 -9.6606
# 5 -1.6765 11.5572 -4.5129 0.0000 30.6408 0.0000
# 6 0.0000 0.0000 0.0000 -9.6606 0.0000 36.2786
#
#
#
# Elastic Compliance Matrix: (Units=1/GPa)
#
#
# Indices 1 2 3 4 5 6 
#
# 1 0.009498 -0.006930 -0.001021 0.000000 0.002983 0.000000
# 2 -0.006930 0.031215 -0.007499 0.000000 -0.013257 0.000000
# 3 -0.001021 -0.007499 0.010338 0.000000 0.004295 0.000000
# 4 0.000000 0.000000 0.000000 0.023699 0.000000 0.006311
# 5 0.002983 -0.013257 0.004295 0.000000 0.038432 0.000000
# 6 0.000000 0.000000 0.000000 0.006311 0.000000 0.029245
#
#
# Mechanical properties :
#
#
# Convention : Reuss Voigt Hill
#
# Bulk Modulus (GPa) = 49.62492 64.27966 56.95229
# Shear Modulus (GPa) = 27.77117 35.85193 31.81155
#
# Velocity S-wave (km/s) = 3.71141 4.21695 3.97223
# Velocity P-wave (km/s) = 6.55592 7.45607 7.02044
#
# Compressibility (1/GPa) = 0.02015117
#
# Stress axis : x y z
#
# Youngs Moduli (GPa) = 105.28916 32.03606 96.73110
#
# Poissons Ratio (x) = 0.22201 0.09875
# Poissons Ratio (y) = 0.72966 0.72535
# Poissons Ratio (z) = 0.10749 0.24023
#
# Static dielectric constant tensor:
#      x y z
#    x 13.827780 0.000000 0.107790 
#    y 0.000000 3.664020 0.000000 
#    z 0.107790 0.000000 4.113480 
# 
# 
# High freq. dielectric constant tensor:
#      x y z
#    x 1.795570 0.000000 -0.012430 
#    y 0.000000 1.762410 0.000000 
#    z -0.012430 0.000000 1.797450 
# 
# From -- ./inp_files/243632.got.cif
#   From: 2010.06.25/outbox.cif.g09.slc.cpg/sg15_122_cif.got.tgz:243632.got - 2010.06.28 07:06:18.
