data_PCOD8132463
_publ_section_title
;
Structure prediction by ZEFSAII (Michael W. Deem and Ramdas Pophale) SiO2 
 PCOD8132463
Probable space group: C 2/C
;
_chemical_formula_sum "Si O2"
_cell_formula_units_Z 52
_cell_length_a 7.710264
_cell_length_b 17.988071
_cell_length_c 18.626117
_cell_angle_alpha 90.000000
_cell_angle_beta 66.880597
_cell_angle_gamma 90.000000
_cell_volume 2375.838757
_symmetry_space_group_name_H-M "C 2/C"
_symmetry_group_IT_number 15
_symmetry_cell_setting 'monoclinic'
loop_
_space_group_symop_operation_xyz
x,y,z
-x,y,1/2-z
-x,-y,-z
x,-y,1/2+z
1/2+x,1/2+y,z
1/2-x,1/2+y,1/2-z
1/2-x,1/2-y,-z
1/2+x,1/2-y,1/2+z
loop_
_atom_site_type_symbol
_atom_site_label
_atom_site_fract_x
_atom_site_fract_y
_atom_site_fract_z
Si Si1 0.162781 0.183333 0.628743
Si Si2 0.500000 0.434930 0.250000
Si Si3 0.454486 0.529914 0.121155
Si Si4 0.022037 0.796838 0.901668
Si Si5 0.203513 0.516595 0.536438
Si Si6 0.352993 0.262075 0.081205
Si Si7 0.021351 0.382152 0.509077
O O1 0.157346 0.120868 0.691627
O O2 0.273417 0.257254 0.636708
O O3 0.276327 0.151588 0.542661
O O4 0.948320 0.199839 0.635778
O O5 0.421239 0.490086 0.202248
O O6 0.445852 0.619300 0.131482
O O7 0.290325 0.493459 0.100076
O O8 0.649315 0.506124 0.052760
O O9 0.875849 0.744430 0.879759
O O10 0.936530 0.801628 0.996237
O O11 0.042526 0.454326 0.554860
O O12 0.101224 0.596761 0.542906
O O13 0.409007 0.175841 0.074615
#
# Coordination Sequence:
#
# PCOD8132463 Si02
#       7
#     8   4   8   8   8   8   8
#     4  11  23  42  61  90 133 173 209 272 328 398
#     4  12  28  44  62  88 140 182 222 258 336 404
#     4  11  22  42  63  93 132 174 214 272 326 398
#     4  10  21  39  68 100 122 162 221 272 328 391
#     4  10  20  34  71  95 126 159 217 271 339 371
#     4  10  20  36  68  99 127 153 215 274 343 379
#     4  10  18  37  65 103 123 157 212 287 326 395
#
# _framework density 21.887007000000001
#
# number of rings (size 3 to 8) (size 9 to 14) (size 15 to 20)
#    0.000    1.538    3.077    3.692    2.154    0.000 
#    2.769    2.308    0.000    0.000    0.000    0.000 
#    0.000    0.000    0.000    0.000    0.000    0.000 
#
# Total GULP energy -322152.999540 kJ/mol
# GULP energy per Si atom -12390.499982 kJ/mol
# Density = 2.183719 g / cm^3
# Si number density = 21.887007 Si / 1000 Ang^3
#
#
#
# Elastic Constant Matrix: (Units=GPa)
#
#
# Indices 1 2 3 4 5 6 
#
# 1 125.4897 33.1913 28.8432 0.0000 26.7306 0.0000
# 2 33.1913 126.7103 36.3844 0.0000 19.2469 0.0000
# 3 28.8432 36.3844 63.0726 0.0000 24.1380 0.0000
# 4 0.0000 0.0000 0.0000 24.4435 0.0000 5.4134
# 5 26.7306 19.2469 24.1380 0.0000 22.0567 0.0000
# 6 0.0000 0.0000 0.0000 5.4134 0.0000 35.2060
#
#
#
# Elastic Compliance Matrix: (Units=1/GPa)
#
#
# Indices 1 2 3 4 5 6 
#
# 1 0.010856 -0.001053 0.000561 0.000000 -0.012852 0.000000
# 2 -0.001053 0.009763 -0.004092 0.000000 -0.002765 0.000000
# 3 0.000561 -0.004092 0.028997 0.000000 -0.028842 0.000000
# 4 0.000000 0.000000 0.000000 0.042353 0.000000 -0.006512
# 5 -0.012852 -0.002765 -0.028842 0.000000 0.094889 0.000000
# 6 0.000000 0.000000 0.000000 -0.006512 0.000000 0.029406
#
#
# Mechanical properties :
#
#
# Convention : Reuss Voigt Hill
#
# Bulk Modulus (GPa) = 24.72312 56.90115 40.81213
# Shear Modulus (GPa) = 20.92813 30.79816 25.86314
#
# Velocity S-wave (km/s) = 3.09559 3.75526 3.44127
# Velocity P-wave (km/s) = 4.90889 6.69752 5.87171
#
# Compressibility (1/GPa) = 0.04044798
#
# Stress axis : x y z
#
# Youngs Moduli (GPa) = 92.11686 102.42920 34.48675
#
# Poissons Ratio (x) = 0.10782 -0.01936
# Poissons Ratio (y) = 0.09697 0.14113
# Poissons Ratio (z) = -0.05171 0.41917
#
# Static dielectric constant tensor:
#      x y z
#    x 4.378500 0.000000 0.082680 
#    y 0.000000 4.207040 0.000000 
#    z 0.082680 0.000000 3.362820 
# 
# 
# High freq. dielectric constant tensor:
#      x y z
#    x 1.871390 0.000000 0.012580 
#    y 0.000000 1.886390 0.000000 
#    z 0.012580 0.000000 1.790790 
# 
# From -- ./inp_files/190330.got.cif
#   From: 2010.06.25/outbox.cif.g09.slc.cpg/sg15_96_cif.got.tgz:190330.got - 2010.06.28 07:06:18.
