data_PCOD8132654
_publ_section_title
;
Structure prediction by ZEFSAII (Michael W. Deem and Ramdas Pophale) SiO2 
 PCOD8132654
Probable space group: C 2/C
;
_chemical_formula_sum "Si O2"
_cell_formula_units_Z 40
_cell_length_a 10.889047
_cell_length_b 21.447289
_cell_length_c 7.232789
_cell_angle_alpha 90.000000
_cell_angle_beta 123.450753
_cell_angle_gamma 90.000000
_cell_volume 1409.358580
_symmetry_space_group_name_H-M "C 2/C"
_symmetry_group_IT_number 15
_symmetry_cell_setting 'monoclinic'
loop_
_space_group_symop_operation_xyz
x,y,z
-x,y,1/2-z
-x,-y,-z
x,-y,1/2+z
1/2+x,1/2+y,z
1/2-x,1/2+y,1/2-z
1/2-x,1/2-y,-z
1/2+x,1/2-y,1/2+z
loop_
_atom_site_type_symbol
_atom_site_label
_atom_site_fract_x
_atom_site_fract_y
_atom_site_fract_z
Si Si1 0.897200 0.740773 0.006828
Si Si2 0.787111 0.069020 0.526780
Si Si3 0.261916 0.928145 0.979783
Si Si4 0.043320 0.611619 0.533057
Si Si5 0.485050 0.372199 0.507220
O O1 0.000000 0.713966 0.250000
O O2 0.959936 0.801421 0.957256
O O3 0.750000 0.750000 0.000000
O O4 0.907641 0.682944 0.871719
O O5 0.616878 0.092933 0.395046
O O6 0.879943 0.112151 0.746516
O O7 0.867879 0.081838 0.392399
O O8 0.799653 0.997764 0.597001
O O9 0.366318 0.930879 0.246522
O O10 0.368518 0.903656 0.901518
O O11 0.116628 0.882907 0.891987
#
# Coordination Sequence:
#
# PCOD8132654 Si02
#       5
#     8   8   8   8   8
#     4  12  22  45  71  95 132 170 233 273 316 400
#     4  10  18  39  63  89 130 171 216 260 316 395
#     4  10  21  39  63  93 139 163 216 268 328 396
#     4  10  22  39  63  97 127 178 210 269 333 378
#     4  10  20  38  65  93 121 172 219 269 321 373
#
# _framework density 28.381703999999999
#
# number of rings (size 3 to 8) (size 9 to 14) (size 15 to 20)
#    0.000    1.600    4.000    2.400    0.000    0.800 
#   10.800    2.000    0.000    0.000    0.000    0.000 
#    0.000    0.000    0.000    0.000    0.000    0.000 
#
# Total GULP energy -247902.411190 kJ/mol
# GULP energy per Si atom -12395.120560 kJ/mol
# Density = 2.831711 g / cm^3
# Si number density = 28.381704 Si / 1000 Ang^3
#
#
#
# Elastic Constant Matrix: (Units=GPa)
#
#
# Indices 1 2 3 4 5 6 
#
# 1 326.1028 92.0596 62.9232 0.0000 19.6910 0.0000
# 2 92.0596 211.5683 -1.8971 0.0000 4.4256 0.0000
# 3 62.9232 -1.8971 70.9977 0.0000 24.2180 0.0000
# 4 0.0000 0.0000 0.0000 5.8186 0.0000 19.9468
# 5 19.6910 4.4256 24.2180 0.0000 60.0296 0.0000
# 6 0.0000 0.0000 0.0000 19.9468 0.0000 55.9408
#
#
#
# Elastic Compliance Matrix: (Units=1/GPa)
#
#
# Indices 1 2 3 4 5 6 
#
# 1 0.004377 -0.001948 -0.004047 0.000000 0.000341 0.000000
# 2 -0.001948 0.005606 0.002086 0.000000 -0.000616 0.000000
# 3 -0.004047 0.002086 0.020092 0.000000 -0.006932 0.000000
# 4 0.000000 0.000000 0.000000 -0.772868 0.000000 0.275581
# 5 0.000341 -0.000616 -0.006932 0.000000 0.019389 0.000000
# 6 0.000000 0.000000 0.000000 0.275581 0.000000 -0.080388
#
#
# Mechanical properties :
#
#
# Convention : Reuss Voigt Hill
#
# Bulk Modulus (GPa) = 44.92952 101.64891 73.28921
# Shear Modulus (GPa) = -6.34071 54.73001 24.19465
#
# Velocity S-wave (km/s) = -1.49631 4.39607 2.92288
# Velocity P-wave (km/s) = 3.58881 7.85238 6.10490
#
# Compressibility (1/GPa) = 0.02225708
#
# Stress axis : x y z
#
# Youngs Moduli (GPa) = 228.47828 178.38723 49.77021
#
# Poissons Ratio (x) = 0.34748 0.20143
# Poissons Ratio (y) = 0.44505 -0.10383
# Poissons Ratio (z) = 0.92472 -0.37216
#
# Static dielectric constant tensor:
#      x y z
#    x 7.037460 0.000000 0.196980 
#    y 0.000000 4.722990 0.000000 
#    z 0.196980 0.000000 5.575140 
# 
# 
# High freq. dielectric constant tensor:
#      x y z
#    x 2.201340 0.000000 0.008330 
#    y 0.000000 2.132860 0.000000 
#    z 0.008330 0.000000 2.201680 
# 
# From -- ./inp_files/88653.got.cif
#   From: 2010.06.25/outbox.cif.g09.slc.cpg/sg15_45_cif.got.tgz:88653.got - 2010.06.28 07:06:18.
