data_PCOD8132393
_publ_section_title
;
Structure prediction by ZEFSAII (Michael W. Deem and Ramdas Pophale) SiO2 
 PCOD8132393
Probable space group: C 2/C
;
_chemical_formula_sum "Si O2"
_cell_formula_units_Z 56
_cell_length_a 19.675862
_cell_length_b 9.819540
_cell_length_c 26.477318
_cell_angle_alpha 90.000000
_cell_angle_beta 147.394932
_cell_angle_gamma 90.000000
_cell_volume 2756.531772
_symmetry_space_group_name_H-M "C 2/C"
_symmetry_group_IT_number 15
_symmetry_cell_setting 'monoclinic'
loop_
_space_group_symop_operation_xyz
x,y,z
-x,y,1/2-z
-x,-y,-z
x,-y,1/2+z
1/2+x,1/2+y,z
1/2-x,1/2+y,1/2-z
1/2-x,1/2-y,-z
1/2+x,1/2-y,1/2+z
loop_
_atom_site_type_symbol
_atom_site_label
_atom_site_fract_x
_atom_site_fract_y
_atom_site_fract_z
Si Si1 0.832604 0.218442 0.729113
Si Si2 0.591017 0.812072 0.453419
Si Si3 0.000000 0.356506 0.250000
Si Si4 0.391066 0.424233 0.367515
Si Si5 0.500000 0.598743 0.750000
Si Si6 0.875288 0.527955 0.763481
Si Si7 0.052728 0.793321 0.550580
Si Si8 0.864270 0.127615 0.105054
O O1 0.880339 0.111901 0.801466
O O2 0.899137 0.189850 0.716907
O O3 0.867632 0.368241 0.770896
O O4 0.681882 0.207489 0.625148
O O5 0.477807 0.902820 0.362465
O O6 0.558545 0.791845 0.492057
O O7 0.717975 0.898847 0.525679
O O8 0.607843 0.664202 0.436078
O O9 0.911993 0.453501 0.228218
O O10 0.905457 0.263812 0.159433
O O11 0.256541 0.394648 0.309548
O O12 0.501639 0.336803 0.463640
O O13 0.421651 0.582345 0.394854
O O14 0.563505 0.506500 0.832800
#
# Coordination Sequence:
#
# PCOD8132393 Si02
#       8
#     8   8   4   8   4   8   8   8
#     4  11  23  40  59  86 119 160 202 249 299 360
#     4  10  18  37  58  90 116 147 201 245 293 362
#     4   9  17  34  54  84 113 155 196 232 294 353
#     4  10  21  39  58  87 120 157 202 243 306 356
#     4  11  23  42  58  84 121 161 200 248 308 357
#     4  10  20  35  58  84 119 156 193 250 293 349
#     4  10  21  38  63  85 117 160 199 247 300 361
#     4   9  20  34  60  86 117 153 194 244 301 351
#
# _framework density 20.315383000000001
#
# number of rings (size 3 to 8) (size 9 to 14) (size 15 to 20)
#    0.000    2.000    1.429    2.143    0.000    1.143 
#    5.143    7.143    0.000    0.000    0.000    0.000 
#    0.000    0.000    0.000    0.000    0.000    0.000 
#
# Total GULP energy -347122.289571 kJ/mol
# GULP energy per Si atom -12397.224628 kJ/mol
# Density = 2.026914 g / cm^3
# Si number density = 20.315383 Si / 1000 Ang^3
#
#
#
# Elastic Constant Matrix: (Units=GPa)
#
#
# Indices 1 2 3 4 5 6 
#
# 1 115.8154 11.5593 22.6480 0.0001 15.4904 0.0000
# 2 11.5593 46.5585 16.3120 0.0003 5.3145 0.0001
# 3 22.6480 16.3120 93.2277 0.0010 18.0918 0.0004
# 4 0.0001 0.0003 0.0010 15.1997 0.0002 -1.5823
# 5 15.4904 5.3145 18.0918 0.0002 30.7120 0.0001
# 6 0.0000 0.0001 0.0004 -1.5823 0.0001 21.0030
#
#
#
# Elastic Compliance Matrix: (Units=1/GPa)
#
#
# Indices 1 2 3 4 5 6 
#
# 1 0.009546 -0.001474 -0.001328 0.000000 -0.003778 0.000000
# 2 -0.001474 0.023198 -0.003462 0.000000 -0.001232 0.000000
# 3 -0.001328 -0.003462 0.012881 -0.000001 -0.006319 0.000000
# 4 0.000000 0.000000 -0.000001 0.066311 0.000000 0.004996
# 5 -0.003778 -0.001232 -0.006319 0.000000 0.038401 0.000000
# 6 0.000000 0.000000 0.000000 0.004996 0.000000 0.047989
#
#
# Mechanical properties :
#
#
# Convention : Reuss Voigt Hill
#
# Bulk Modulus (GPa) = 30.21349 39.62670 34.92010
# Shear Modulus (GPa) = 22.53405 27.05507 24.79456
#
# Velocity S-wave (km/s) = 3.33410 3.65328 3.49733
# Velocity P-wave (km/s) = 5.45216 6.11092 5.79092
#
# Compressibility (1/GPa) = 0.03309780
#
# Stress axis : x y z
#
# Youngs Moduli (GPa) = 104.75045 43.10778 77.63318
#
# Poissons Ratio (x) = 0.06352 0.10312
# Poissons Ratio (y) = 0.15436 0.26876
# Poissons Ratio (z) = 0.13913 0.14923
#
# Static dielectric constant tensor:
#      x y z
#    x 3.814090 0.000000 0.158060 
#    y 0.000000 3.369600 0.000000 
#    z 0.158060 0.000000 3.696020 
# 
# 
# High freq. dielectric constant tensor:
#      x y z
#    x 1.800460 0.000000 0.013410 
#    y 0.000000 1.770070 0.000000 
#    z 0.013410 0.000000 1.798030 
# 
# From -- ./inp_files/317586.got.cif
#   From: 2010.06.25/outbox.cif.g09.slc.cpg/sg15_159_cif.got.tgz:317586.got - 2010.06.28 07:06:18.
