data_PCOD8132998
_publ_section_title
;
Structure prediction by ZEFSAII (Michael W. Deem and Ramdas Pophale) SiO2 
 PCOD8132998
Probable space group: C 2/C
;
_chemical_formula_sum "Si O2"
_cell_formula_units_Z 48
_cell_length_a 17.605447
_cell_length_b 12.549988
_cell_length_c 12.174953
_cell_angle_alpha 90.000000
_cell_angle_beta 114.090430
_cell_angle_gamma 90.000000
_cell_volume 2455.737790
_symmetry_space_group_name_H-M "C 2/C"
_symmetry_group_IT_number 15
_symmetry_cell_setting 'monoclinic'
loop_
_space_group_symop_operation_xyz
x,y,z
-x,y,1/2-z
-x,-y,-z
x,-y,1/2+z
1/2+x,1/2+y,z
1/2-x,1/2+y,1/2-z
1/2-x,1/2-y,-z
1/2+x,1/2-y,1/2+z
loop_
_atom_site_type_symbol
_atom_site_label
_atom_site_fract_x
_atom_site_fract_y
_atom_site_fract_z
Si Si1 0.908265 0.166597 0.209266
Si Si2 0.687649 0.153146 0.484787
Si Si3 0.871424 0.333791 0.023305
Si Si4 0.347754 0.003950 0.705887
Si Si5 0.558814 0.849249 0.097143
Si Si6 0.242704 0.966166 0.835047
O O1 0.870142 0.213706 0.071956
O O2 0.914421 0.262066 0.298818
O O3 0.852517 0.069862 0.218375
O O4 0.000000 0.117387 0.250000
O O5 0.750000 0.250000 0.500000
O O6 0.646796 0.113737 0.345247
O O7 0.609981 0.179665 0.517813
O O8 0.743530 0.058472 0.567929
O O9 0.853622 0.412291 0.112688
O O10 0.960621 0.352464 0.018075
O O11 0.800739 0.360498 0.891798
O O12 0.261063 0.009720 0.723269
O O13 0.418108 0.033411 0.839061
#
# Coordination Sequence:
#
# PCOD8132998 Si02
#       6
#     8   8   8   8   8   8
#     4   9  17  32  53  73  98 130 166 205 244 295
#     4  10  20  33  50  72 104 137 165 203 249 293
#     4   9  18  31  50  77 100 123 163 211 252 293
#     4   9  18  29  47  74 100 129 161 199 247 297
#     4   9  18  32  52  76 101 130 163 204 255 297
#     4  10  19  31  52  74  97 131 167 204 248 300
#
# _framework density 19.546060000000001
#
# number of rings (size 3 to 8) (size 9 to 14) (size 15 to 20)
#    0.000    2.667    0.000    3.000    0.000    7.333 
#    0.000    0.000    0.000   28.000    0.000    0.000 
#    0.000    0.000    0.000    0.000    0.000    0.000 
#
# Total GULP energy -297323.012621 kJ/mol
# GULP energy per Si atom -12388.458859 kJ/mol
# Density = 1.950157 g / cm^3
# Si number density = 19.546060 Si / 1000 Ang^3
#
#
#
# Elastic Constant Matrix: (Units=GPa)
#
#
# Indices 1 2 3 4 5 6 
#
# 1 151.6747 50.8928 27.9162 0.0000 -15.6458 0.0000
# 2 50.8928 47.4139 9.5688 0.0000 0.0370 0.0000
# 3 27.9162 9.5688 34.0603 0.0000 -15.8300 0.0000
# 4 0.0000 0.0000 0.0000 11.3068 0.0000 -1.1360
# 5 -15.6458 0.0370 -15.8300 0.0000 23.7035 0.0000
# 6 0.0000 0.0000 0.0000 -1.1360 0.0000 39.6640
#
#
#
# Elastic Compliance Matrix: (Units=1/GPa)
#
#
# Indices 1 2 3 4 5 6 
#
# 1 0.011864 -0.011943 -0.003945 0.000000 0.005215 0.000000
# 2 -0.011943 0.035013 -0.005419 0.000000 -0.011557 0.000000
# 3 -0.003945 -0.005419 0.047721 0.000000 0.029274 0.000000
# 4 0.000000 0.000000 0.000000 0.088698 0.000000 0.002540
# 5 0.005215 -0.011557 0.029274 0.000000 0.065198 0.000000
# 6 0.000000 0.000000 0.000000 0.002540 0.000000 0.025285
#
#
# Mechanical properties :
#
#
# Convention : Reuss Voigt Hill
#
# Bulk Modulus (GPa) = 19.23659 45.54496 32.39077
# Shear Modulus (GPa) = 14.98258 24.58627 19.78442
#
# Velocity S-wave (km/s) = 2.77163 3.55048 3.18495
# Velocity P-wave (km/s) = 4.48392 6.33718 5.48933
#
# Compressibility (1/GPa) = 0.05198427
#
# Stress axis : x y z
#
# Youngs Moduli (GPa) = 84.28549 28.56118 20.95507
#
# Poissons Ratio (x) = 0.34110 0.08267
# Poissons Ratio (y) = 1.00661 0.11355
# Poissons Ratio (z) = 0.33253 0.15477
#
# Static dielectric constant tensor:
#      x y z
#    x 3.682040 0.000000 -0.185810 
#    y 0.000000 3.423560 0.000000 
#    z -0.185810 0.000000 3.707680 
# 
# 
# High freq. dielectric constant tensor:
#      x y z
#    x 1.766910 0.000000 -0.019390 
#    y 0.000000 1.731220 0.000000 
#    z -0.019390 0.000000 1.747490 
# 
# From -- ./inp_files/104159.got.cif
#   From: 2010.06.25/outbox.cif.g09.slc.cpg/sg15_53_cif.got.tgz:104159.got - 2010.06.28 07:06:18.
