data_PCOD8132850
_publ_section_title
;
Structure prediction by ZEFSAII (Michael W. Deem and Ramdas Pophale) SiO2 
 PCOD8132850
Probable space group: C 2/C
;
_chemical_formula_sum "Si O2"
_cell_formula_units_Z 64
_cell_length_a 20.758803
_cell_length_b 11.118342
_cell_length_c 22.428322
_cell_angle_alpha 90.000000
_cell_angle_beta 47.225463
_cell_angle_gamma 90.000000
_cell_volume 3799.740704
_symmetry_space_group_name_H-M "C 2/C"
_symmetry_group_IT_number 15
_symmetry_cell_setting 'monoclinic'
loop_
_space_group_symop_operation_xyz
x,y,z
-x,y,1/2-z
-x,-y,-z
x,-y,1/2+z
1/2+x,1/2+y,z
1/2-x,1/2+y,1/2-z
1/2-x,1/2-y,-z
1/2+x,1/2-y,1/2+z
loop_
_atom_site_type_symbol
_atom_site_label
_atom_site_fract_x
_atom_site_fract_y
_atom_site_fract_z
Si Si1 0.345995 0.256481 0.968448
Si Si2 0.463739 0.842089 0.570548
Si Si3 0.961977 0.095118 0.944626
Si Si4 0.697724 0.290342 0.370614
Si Si5 0.022844 0.061941 0.168943
Si Si6 0.628067 0.290212 0.788658
Si Si7 0.003754 0.400285 0.083940
Si Si8 0.869050 0.035271 0.113987
O O1 0.402582 0.337239 0.887608
O O2 0.401323 0.131515 0.944751
O O3 0.250000 0.250000 0.000000
O O4 0.335585 0.312354 0.040925
O O5 0.512243 0.733836 0.572932
O O6 0.361533 0.807339 0.627379
O O7 0.502682 0.858832 0.480328
O O8 0.481852 0.958029 0.600658
O O9 0.876971 0.078956 0.040322
O O10 0.943664 0.055572 0.888030
O O11 0.035466 0.004595 0.923297
O O12 0.795852 0.241471 0.305866
O O13 0.695314 0.420693 0.340301
O O14 0.930084 0.108526 0.204620
O O15 0.000000 0.024098 0.250000
O O16 0.573520 0.169372 0.834078
O O17 0.666135 0.351350 0.825308
#
# Coordination Sequence:
#
# PCOD8132850 Si02
#       8
#     8   8   8   8   8   8   8   8
#     4  10  19  33  51  72  98 132 173 213 252 294
#     4   9  17  31  50  74 101 133 161 198 261 317
#     4   9  15  30  52  69  95 127 170 205 245 308
#     4  10  19  29  48  76 104 131 162 205 255 307
#     4  10  19  32  51  72  96 132 173 213 247 287
#     4  10  19  29  47  75 104 127 162 205 250 307
#     4   9  18  31  49  74 104 130 162 206 256 309
#     4   9  16  29  47  72  97 128 162 202 255 297
#
# _framework density 16.843254000000002
#
# number of rings (size 3 to 8) (size 9 to 14) (size 15 to 20)
#    0.000    2.500    2.500    0.750    1.750    0.000 
#    0.000    0.000    0.000    5.250    0.000    0.000 
#    0.000    0.000    0.000    0.000    0.000    0.000 
#
# Total GULP energy -396471.000921 kJ/mol
# GULP energy per Si atom -12389.718779 kJ/mol
# Density = 1.680492 g / cm^3
# Si number density = 16.843254 Si / 1000 Ang^3
#
#
#
# Elastic Constant Matrix: (Units=GPa)
#
#
# Indices 1 2 3 4 5 6 
#
# 1 67.5097 35.7742 24.1808 0.0000 0.6494 0.0000
# 2 35.7742 80.3038 26.5334 0.0000 5.0852 0.0000
# 3 24.1808 26.5334 81.2604 0.0000 5.6962 0.0000
# 4 0.0000 0.0000 0.0000 16.0203 0.0000 3.4595
# 5 0.6494 5.0852 5.6962 0.0000 30.1344 0.0000
# 6 0.0000 0.0000 0.0000 3.4595 0.0000 15.1241
#
#
#
# Elastic Compliance Matrix: (Units=1/GPa)
#
#
# Indices 1 2 3 4 5 6 
#
# 1 0.020290 -0.007967 -0.003547 0.000000 0.001578 0.000000
# 2 -0.007967 0.017155 -0.003081 0.000000 -0.002141 0.000000
# 3 -0.003547 -0.003081 0.014518 0.000000 -0.002148 0.000000
# 4 0.000000 0.000000 0.000000 0.065665 0.000000 -0.015020
# 5 0.001578 -0.002141 -0.002148 0.000000 0.033918 0.000000
# 6 0.000000 0.000000 0.000000 -0.015020 0.000000 0.069555
#
#
# Mechanical properties :
#
#
# Convention : Reuss Voigt Hill
#
# Bulk Modulus (GPa) = 43.90951 44.67230 44.29091
# Shear Modulus (GPa) = 19.38877 21.76145 20.57511
#
# Velocity S-wave (km/s) = 3.39651 3.59834 3.49888
# Velocity P-wave (km/s) = 6.44266 6.62148 6.53268
#
# Compressibility (1/GPa) = 0.02277411
#
# Stress axis : x y z
#
# Youngs Moduli (GPa) = 49.28628 58.29100 68.87948
#
# Poissons Ratio (x) = 0.46439 0.24431
# Poissons Ratio (y) = 0.39265 0.21221
# Poissons Ratio (z) = 0.17481 0.17959
#
# Static dielectric constant tensor:
#      x y z
#    x 2.996330 0.000000 0.137910 
#    y 0.000000 3.148230 0.000000 
#    z 0.137910 0.000000 3.199820 
# 
# 
# High freq. dielectric constant tensor:
#      x y z
#    x 1.615340 0.000000 0.004200 
#    y 0.000000 1.640640 0.000000 
#    z 0.004200 0.000000 1.649480 
# 
# From -- ./inp_files/279884.got.cif
#   From: 2010.06.25/outbox.cif.g09.slc.cpg/sg15_140_cif.got.tgz:279884.got - 2010.06.28 07:06:18.
