data_PCOD8132604
_publ_section_title
;
Structure prediction by ZEFSAII (Michael W. Deem and Ramdas Pophale) SiO2 
 PCOD8132604
Probable space group: C 2/C
;
_chemical_formula_sum "Si O2"
_cell_formula_units_Z 36
_cell_length_a 14.882051
_cell_length_b 24.454983
_cell_length_c 9.646497
_cell_angle_alpha 90.000000
_cell_angle_beta 144.730539
_cell_angle_gamma 90.000000
_cell_volume 2027.185621
_symmetry_space_group_name_H-M "C 2/C"
_symmetry_group_IT_number 15
_symmetry_cell_setting 'monoclinic'
loop_
_space_group_symop_operation_xyz
x,y,z
-x,y,1/2-z
-x,-y,-z
x,-y,1/2+z
1/2+x,1/2+y,z
1/2-x,1/2+y,1/2-z
1/2-x,1/2-y,-z
1/2+x,1/2-y,1/2+z
loop_
_atom_site_type_symbol
_atom_site_label
_atom_site_fract_x
_atom_site_fract_y
_atom_site_fract_z
Si Si1 0.192663 0.321419 0.813953
Si Si2 0.500000 0.257431 0.250000
Si Si3 0.135327 0.593914 0.030927
Si Si4 0.855880 0.436970 0.663349
Si Si5 0.395975 0.477460 0.745700
O O1 0.150886 0.343555 0.606609
O O2 0.193708 0.373258 0.921513
O O3 0.062318 0.278881 0.700635
O O4 0.361927 0.294677 0.018475
O O5 0.097811 0.554639 0.116029
O O6 0.297414 0.575068 0.168353
O O7 0.000000 0.588619 0.750000
O O8 0.710679 0.473451 0.441106
O O9 0.000000 0.454184 0.750000
O O10 0.500000 0.456485 0.750000
O O11 0.500000 0.500000 0.000000
#
# Coordination Sequence:
#
# PCOD8132604 Si02
#       5
#     8   4   8   8   8
#     4   9  20  37  61  90 114 150 202 249 293 357
#     4  10  18  38  66  88 112 154 204 252 302 350
#     4  10  23  40  58  86 127 157 200 244 300 366
#     4  10  22  39  59  85 123 160 196 240 293 368
#     4  12  24  38  58  90 121 165 200 246 297 355
#
# _framework density 17.758610999999998
#
# number of rings (size 3 to 8) (size 9 to 14) (size 15 to 20)
#    1.333    0.444    3.333    0.667    7.778    1.778 
#    0.000    1.111    0.000    0.000    0.000    0.000 
#    0.000    0.000    0.000    0.000    0.000    0.000 
#
# Total GULP energy -223100.412827 kJ/mol
# GULP energy per Si atom -12394.467379 kJ/mol
# Density = 1.771819 g / cm^3
# Si number density = 17.758611 Si / 1000 Ang^3
#
#
#
# Elastic Constant Matrix: (Units=GPa)
#
#
# Indices 1 2 3 4 5 6 
#
# 1 152.4995 38.9784 73.4038 0.0000 5.8490 0.0000
# 2 38.9784 65.9922 45.8192 0.0000 1.9295 0.0000
# 3 73.4038 45.8192 145.8816 0.0000 -6.7663 0.0000
# 4 0.0000 0.0000 0.0000 12.8271 0.0000 7.1437
# 5 5.8490 1.9295 -6.7663 0.0000 33.3964 0.0000
# 6 0.0000 0.0000 0.0000 7.1437 0.0000 19.9890
#
#
#
# Elastic Compliance Matrix: (Units=1/GPa)
#
#
# Indices 1 2 3 4 5 6 
#
# 1 0.009200 -0.002662 -0.003897 0.000000 -0.002247 0.000000
# 2 -0.002662 0.020338 -0.005129 0.000000 -0.001748 0.000000
# 3 -0.003897 -0.005129 0.010572 0.000000 0.003121 0.000000
# 4 0.000000 0.000000 0.000000 0.097332 0.000000 -0.034785
# 5 -0.002247 -0.001748 0.003121 0.000000 0.031070 0.000000
# 6 0.000000 0.000000 0.000000 -0.034785 0.000000 0.062459
#
#
# Mechanical properties :
#
#
# Convention : Reuss Voigt Hill
#
# Bulk Modulus (GPa) = 59.76572 75.64179 67.70376
# Shear Modulus (GPa) = 19.23616 26.98728 23.11172
#
# Velocity S-wave (km/s) = 3.29477 3.90253 3.61146
# Velocity P-wave (km/s) = 6.94274 7.93683 7.45637
#
# Compressibility (1/GPa) = 0.01673200
#
# Stress axis : x y z
#
# Youngs Moduli (GPa) = 108.69637 49.16813 94.59264
#
# Poissons Ratio (x) = 0.13091 0.36864
# Poissons Ratio (y) = 0.28939 0.48520
# Poissons Ratio (z) = 0.42361 0.25220
#
# Static dielectric constant tensor:
#      x y z
#    x 3.396620 0.000000 0.041490 
#    y 0.000000 3.248650 0.000000 
#    z 0.041490 0.000000 3.123990 
# 
# 
# High freq. dielectric constant tensor:
#      x y z
#    x 1.697360 0.000000 0.011170 
#    y 0.000000 1.679520 0.000000 
#    z 0.011170 0.000000 1.679050 
# 
# From -- ./inp_files/25807.got.cif
#   From: 2010.06.25/outbox.cif.g09.slc.cpg/sg15_13_cif.got.tgz:25807.got - 2010.06.28 07:06:18.
