data_PCOD8132990
_publ_section_title
;
Structure prediction by ZEFSAII (Michael W. Deem and Ramdas Pophale) SiO2 
 PCOD8132990
Probable space group: C 2/C
;
_chemical_formula_sum "Si O2"
_cell_formula_units_Z 60
_cell_length_a 14.842731
_cell_length_b 28.801806
_cell_length_c 7.799539
_cell_angle_alpha 90.000000
_cell_angle_beta 83.260525
_cell_angle_gamma 90.000000
_cell_volume 3311.243310
_symmetry_space_group_name_H-M "C 2/C"
_symmetry_group_IT_number 15
_symmetry_cell_setting 'monoclinic'
loop_
_space_group_symop_operation_xyz
x,y,z
-x,y,1/2-z
-x,-y,-z
x,-y,1/2+z
1/2+x,1/2+y,z
1/2-x,1/2+y,1/2-z
1/2-x,1/2-y,-z
1/2+x,1/2-y,1/2+z
loop_
_atom_site_type_symbol
_atom_site_label
_atom_site_fract_x
_atom_site_fract_y
_atom_site_fract_z
Si Si1 0.602093 0.042494 0.729067
Si Si2 0.396183 0.226899 0.016229
Si Si3 0.116227 0.440908 0.848994
Si Si4 0.500000 0.289730 0.250000
Si Si5 0.814799 0.398110 0.000736
Si Si6 0.184638 0.180115 0.583074
Si Si7 0.219639 0.240224 0.251527
Si Si8 0.995685 0.354890 0.935218
O O1 0.500000 0.065543 0.750000
O O2 0.653817 0.049881 0.534332
O O3 0.584487 0.988619 0.771414
O O4 0.668030 0.062131 0.862016
O O5 0.469305 0.258116 0.097981
O O6 0.305939 0.215127 0.145579
O O7 0.443709 0.177548 0.954162
O O8 0.366170 0.253947 0.853363
O O9 0.184966 0.417009 0.696687
O O10 0.030572 0.407516 0.900896
O O11 0.417557 0.322925 0.324527
O O12 0.891647 0.358725 0.015913
O O13 0.719367 0.372709 0.054848
O O14 0.183217 0.207052 0.405449
O O15 0.249126 0.208638 0.697062
O O16 0.000000 0.328803 0.750000
#
# Coordination Sequence:
#
# PCOD8132990 Si02
#       8
#     8   8   8   4   8   8   8   8
#     4  12  21  35  54  82 118 159 185 221 280 347
#     4  10  19  35  56  81 109 149 189 229 277 339
#     4  11  22  35  54  79 120 154 184 222 278 342
#     4  10  22  40  56  76 110 148 190 240 290 342
#     4  11  23  36  53  81 113 149 191 239 274 333
#     4  10  22  39  54  78 109 147 189 245 288 328
#     4   9  20  35  56  78 108 144 188 238 282 327
#     4  10  19  31  51  79 111 151 185 227 267 329
#
# _framework density 18.120083000000001
#
# number of rings (size 3 to 8) (size 9 to 14) (size 15 to 20)
#    0.000    1.600    3.333    3.200    5.600    0.533 
#    2.400    0.000    0.000    0.000    0.000    0.933 
#    0.000    0.000    0.000    0.000    0.000    0.000 
#
# Total GULP energy -371809.107902 kJ/mol
# GULP energy per Si atom -12393.636930 kJ/mol
# Density = 1.807884 g / cm^3
# Si number density = 18.120083 Si / 1000 Ang^3
#
#
#
# Elastic Constant Matrix: (Units=GPa)
#
#
# Indices 1 2 3 4 5 6 
#
# 1 81.7824 56.8551 41.1925 0.0000 1.9830 0.0000
# 2 56.8551 81.5922 34.0734 0.0000 -5.5618 0.0000
# 3 41.1925 34.0734 109.1674 0.0000 3.0324 0.0000
# 4 0.0000 0.0000 0.0000 12.6869 0.0000 -7.6638
# 5 1.9830 -5.5618 3.0324 0.0000 23.3303 0.0000
# 6 0.0000 0.0000 0.0000 -7.6638 0.0000 18.4135
#
#
#
# Elastic Compliance Matrix: (Units=1/GPa)
#
#
# Indices 1 2 3 4 5 6 
#
# 1 0.026379 -0.016878 -0.004528 0.000000 -0.005677 0.000000
# 2 -0.016878 0.025263 -0.001730 0.000000 0.007682 0.000000
# 3 -0.004528 -0.001730 0.011451 0.000000 -0.001516 0.000000
# 4 0.000000 0.000000 0.000000 0.105295 0.000000 0.043824
# 5 -0.005677 0.007682 -0.001516 0.000000 0.045374 0.000000
# 6 0.000000 0.000000 0.000000 0.043824 0.000000 0.072548
#
#
# Mechanical properties :
#
#
# Convention : Reuss Voigt Hill
#
# Bulk Modulus (GPa) = 59.44777 59.64267 59.54522
# Shear Modulus (GPa) = 14.78466 20.24754 17.51610
#
# Velocity S-wave (km/s) = 2.85954 3.34639 3.11250
# Velocity P-wave (km/s) = 6.61676 6.92227 6.77124
#
# Compressibility (1/GPa) = 0.01682149
#
# Stress axis : x y z
#
# Youngs Moduli (GPa) = 37.90843 39.58381 87.32892
#
# Poissons Ratio (x) = 0.66808 0.39545
# Poissons Ratio (y) = 0.63981 0.15107
# Poissons Ratio (z) = 0.17166 0.06848
#
# Static dielectric constant tensor:
#      x y z
#    x 3.049910 0.000000 0.024840 
#    y 0.000000 3.158180 0.000000 
#    z 0.024840 0.000000 3.766360 
# 
# 
# High freq. dielectric constant tensor:
#      x y z
#    x 1.656170 0.000000 0.002840 
#    y 0.000000 1.685120 0.000000 
#    z 0.002840 0.000000 1.720960 
# 
# From -- ./inp_files/43185.got.cif
#   From: 2010.06.25/outbox.cif.g09.slc.cpg/sg15_22_cif.got.tgz:43185.got - 2010.06.28 07:06:18.
