data_PCOD8132507
_publ_section_title
;
Structure prediction by ZEFSAII (Michael W. Deem and Ramdas Pophale) SiO2 
 PCOD8132507
Probable space group: C 2/C
;
_chemical_formula_sum "Si O2"
_cell_formula_units_Z 52
_cell_length_a 15.894385
_cell_length_b 14.325988
_cell_length_c 12.001699
_cell_angle_alpha 90.000000
_cell_angle_beta 68.996998
_cell_angle_gamma 90.000000
_cell_volume 2551.256031
_symmetry_space_group_name_H-M "C 2/C"
_symmetry_group_IT_number 15
_symmetry_cell_setting 'monoclinic'
loop_
_space_group_symop_operation_xyz
x,y,z
-x,y,1/2-z
-x,-y,-z
x,-y,1/2+z
1/2+x,1/2+y,z
1/2-x,1/2+y,1/2-z
1/2-x,1/2-y,-z
1/2+x,1/2-y,1/2+z
loop_
_atom_site_type_symbol
_atom_site_label
_atom_site_fract_x
_atom_site_fract_y
_atom_site_fract_z
Si Si1 0.000000 0.284336 0.250000
Si Si2 0.099822 0.583023 0.196440
Si Si3 0.745993 0.628308 0.714255
Si Si4 0.728067 0.085174 0.329614
Si Si5 0.350731 0.272711 0.416571
Si Si6 0.877038 0.205435 0.137517
Si Si7 0.321840 0.895400 0.404416
O O1 0.968819 0.217259 0.163436
O O2 0.915807 0.344953 0.332008
O O3 0.138747 0.605493 0.300401
O O4 0.094382 0.678207 0.129683
O O5 0.162637 0.506904 0.106509
O O6 0.000000 0.540905 0.250000
O O7 0.759998 0.524883 0.661518
O O8 0.655372 0.666995 0.695812
O O9 0.831417 0.692788 0.643539
O O10 0.743414 0.629469 0.851146
O O11 0.813538 0.131598 0.229766
O O12 0.714809 0.132593 0.456841
O O13 0.250000 0.250000 0.500000
O O14 0.396820 0.327653 0.499734
#
# Coordination Sequence:
#
# PCOD8132507 Si02
#       7
#     4   8   8   8   8   8   8
#     4  10  22  38  56  88 120 152 192 248 304 342
#     4  11  22  36  57  96 120 157 189 239 306 354
#     4   9  20  35  58  85 111 152 199 235 282 350
#     4  11  22  36  62  86 119 160 199 237 296 353
#     4  10  18  38  60  79 119 154 200 233 284 356
#     4  10  21  39  60  86 115 161 196 241 296 348
#     4  10  21  37  56  90 124 150 191 245 301 356
#
# _framework density 20.382118999999999
#
# number of rings (size 3 to 8) (size 9 to 14) (size 15 to 20)
#    0.000    1.846    3.846    1.846    4.308    3.077 
#    0.000    0.000    1.692    0.923    0.000    0.000 
#    0.000    0.000    0.000    0.000    0.000    0.000 
#
# Total GULP energy -322168.479741 kJ/mol
# GULP energy per Si atom -12391.095375 kJ/mol
# Density = 2.033573 g / cm^3
# Si number density = 20.382119 Si / 1000 Ang^3
#
#
#
# Elastic Constant Matrix: (Units=GPa)
#
#
# Indices 1 2 3 4 5 6 
#
# 1 95.4781 26.7680 49.6009 0.0000 41.9936 0.0000
# 2 26.7680 64.0484 24.7976 0.0000 1.5420 0.0000
# 3 49.6009 24.7976 114.3314 0.0000 40.9055 0.0000
# 4 0.0000 0.0000 0.0000 24.6562 0.0000 3.2491
# 5 41.9936 1.5420 40.9055 0.0000 36.5703 0.0000
# 6 0.0000 0.0000 0.0000 3.2491 0.0000 27.5931
#
#
#
# Elastic Compliance Matrix: (Units=1/GPa)
#
#
# Indices 1 2 3 4 5 6 
#
# 1 0.027163 -0.011650 0.002878 0.000000 -0.033920 0.000000
# 2 -0.011650 0.022784 -0.007219 0.000000 0.020492 0.000000
# 3 0.002878 -0.007219 0.016901 0.000000 -0.021905 0.000000
# 4 0.000000 0.000000 0.000000 0.041197 0.000000 -0.004851
# 5 -0.033920 0.020492 -0.021905 0.000000 0.089933 0.000000
# 6 0.000000 0.000000 0.000000 -0.004851 0.000000 0.036812
#
#
# Mechanical properties :
#
#
# Convention : Reuss Voigt Hill
#
# Bulk Modulus (GPa) = 28.68113 52.91010 40.79562
# Shear Modulus (GPa) = 17.96017 29.27669 23.61843
#
# Velocity S-wave (km/s) = 2.97168 3.79409 3.40778
# Velocity P-wave (km/s) = 5.08692 6.72376 5.96178
#
# Compressibility (1/GPa) = 0.03486613
#
# Stress axis : x y z
#
# Youngs Moduli (GPa) = 36.81419 43.89077 59.16909
#
# Poissons Ratio (x) = 0.51134 -0.17031
# Poissons Ratio (y) = 0.42889 0.42714
# Poissons Ratio (z) = -0.10596 0.31685
#
# Static dielectric constant tensor:
#      x y z
#    x 3.884230 0.000000 0.776850 
#    y 0.000000 3.697050 0.000000 
#    z 0.776850 0.000000 4.372620 
# 
# 
# High freq. dielectric constant tensor:
#      x y z
#    x 1.775300 0.000000 0.046270 
#    y 0.000000 1.786400 0.000000 
#    z 0.046270 0.000000 1.790950 
# 
# From -- ./inp_files/96975.got.cif
#   From: 2010.06.25/outbox.cif.g09.slc.cpg/sg15_49_cif.got.tgz:96975.got - 2010.06.28 07:06:18.
