data_PCOD8132426
_publ_section_title
;
Structure prediction by ZEFSAII (Michael W. Deem and Ramdas Pophale) SiO2 
 PCOD8132426
Probable space group: C 2/C
;
_chemical_formula_sum "Si O2"
_cell_formula_units_Z 60
_cell_length_a 12.044465
_cell_length_b 15.173256
_cell_length_c 16.554312
_cell_angle_alpha 90.000000
_cell_angle_beta 87.328975
_cell_angle_gamma 90.000000
_cell_volume 3022.075764
_symmetry_space_group_name_H-M "C 2/C"
_symmetry_group_IT_number 15
_symmetry_cell_setting 'monoclinic'
loop_
_space_group_symop_operation_xyz
x,y,z
-x,y,1/2-z
-x,-y,-z
x,-y,1/2+z
1/2+x,1/2+y,z
1/2-x,1/2+y,1/2-z
1/2-x,1/2-y,-z
1/2+x,1/2-y,1/2+z
loop_
_atom_site_type_symbol
_atom_site_label
_atom_site_fract_x
_atom_site_fract_y
_atom_site_fract_z
Si Si1 0.378308 0.637513 0.388836
Si Si2 0.324142 0.223511 0.181050
Si Si3 0.243834 0.647882 0.813476
Si Si4 0.342317 0.391144 0.072541
Si Si5 0.000000 0.605964 0.250000
Si Si6 0.357129 0.955876 0.328190
Si Si7 0.512620 0.800021 0.344237
Si Si8 0.453614 0.546579 0.839606
O O1 0.277250 0.658589 0.332770
O O2 0.331358 0.609697 0.477164
O O3 0.461119 0.720097 0.397065
O O4 0.442247 0.557944 0.344002
O O5 0.304829 0.273013 0.265803
O O6 0.327617 0.292761 0.107565
O O7 0.435510 0.166519 0.187370
O O8 0.185274 0.579634 0.755520
O O9 0.141034 0.687706 0.868751
O O10 0.336092 0.595338 0.861744
O O11 0.248899 0.459838 0.108512
O O12 0.463251 0.424696 0.093255
O O13 0.085008 0.549289 0.191898
O O14 0.446287 0.889770 0.365104
O O15 0.500000 0.775850 0.250000
O O16 0.500000 0.574721 0.750000
#
# Coordination Sequence:
#
# PCOD8132426 Si02
#       8
#     8   8   8   8   4   8   8   8
#     4  12  24  38  64  92 120 166 213 238 298 387
#     4  11  22  37  62  89 121 156 202 249 304 371
#     4  10  19  39  61  90 121 155 198 260 312 337
#     4  11  24  44  58  88 133 166 189 252 318 363
#     4  12  22  36  62 100 116 152 212 268 300 354
#     4  10  19  36  61  84 124 152 196 256 302 348
#     4  10  18  37  61  90 115 155 205 252 289 348
#     4  12  23  39  64  92 121 158 208 258 305 352
#
# _framework density 19.853902000000001
#
# number of rings (size 3 to 8) (size 9 to 14) (size 15 to 20)
#    0.000    1.067    8.667    2.800    0.000    0.000 
#    0.000    2.667    0.000    0.000    0.000    0.000 
#    0.000    0.000    0.000    0.000    0.000    0.000 
#
# Total GULP energy -372011.132123 kJ/mol
# GULP energy per Si atom -12400.371071 kJ/mol
# Density = 1.980871 g / cm^3
# Si number density = 19.853902 Si / 1000 Ang^3
#
#
#
# Elastic Constant Matrix: (Units=GPa)
#
#
# Indices 1 2 3 4 5 6 
#
# 1 135.8921 48.7541 15.7891 0.0000 -5.1349 0.0000
# 2 48.7541 71.5306 13.0758 0.0000 9.9429 0.0000
# 3 15.7891 13.0758 36.2343 0.0000 -6.8204 0.0000
# 4 0.0000 0.0000 0.0000 15.6300 0.0000 -5.0561
# 5 -5.1349 9.9429 -6.8204 0.0000 14.1650 0.0000
# 6 0.0000 0.0000 0.0000 -5.0561 0.0000 50.1496
#
#
#
# Elastic Compliance Matrix: (Units=1/GPa)
#
#
# Indices 1 2 3 4 5 6 
#
# 1 0.010927 -0.008990 0.000457 0.000000 0.010492 0.000000
# 2 -0.008990 0.025622 -0.010257 0.000000 -0.026183 0.000000
# 3 0.000457 -0.010257 0.035725 0.000000 0.024567 0.000000
# 4 0.000000 0.000000 0.000000 0.066136 0.000000 0.006668
# 5 0.010492 -0.026183 0.024567 0.000000 0.104607 0.000000
# 6 0.000000 0.000000 0.000000 0.006668 0.000000 0.020613
#
#
# Mechanical properties :
#
#
# Convention : Reuss Voigt Hill
#
# Bulk Modulus (GPa) = 28.82290 44.32167 36.57228
# Shear Modulus (GPa) = 15.98597 27.05813 21.52205
#
# Velocity S-wave (km/s) = 2.84065 3.69570 3.29602
# Velocity P-wave (km/s) = 5.03071 6.37050 5.73983
#
# Compressibility (1/GPa) = 0.03469464
#
# Stress axis : x y z
#
# Youngs Moduli (GPa) = 91.51287 39.02913 27.99190
#
# Poissons Ratio (x) = 0.35087 -0.01281
# Poissons Ratio (y) = 0.82270 0.28712
# Poissons Ratio (z) = -0.04187 0.40033
#
# Static dielectric constant tensor:
#      x y z
#    x 4.006620 0.000000 -0.107740 
#    y 0.000000 3.653310 0.000000 
#    z -0.107740 0.000000 3.097160 
# 
# 
# High freq. dielectric constant tensor:
#      x y z
#    x 1.794640 0.000000 -0.004540 
#    y 0.000000 1.776280 0.000000 
#    z -0.004540 0.000000 1.723510 
# 
# From -- ./inp_files/197878.got.cif
#   From: 2010.06.25/outbox.cif.g09.slc.cpg/sg15_99_cif.got.tgz:197878.got - 2010.06.28 07:06:18.
