data_PCOD8132253
_publ_section_title
;
Structure prediction by ZEFSAII (Michael W. Deem and Ramdas Pophale) SiO2 
 PCOD8132253
Probable space group: C 2/C
;
_chemical_formula_sum "Si O2"
_cell_formula_units_Z 60
_cell_length_a 29.899357
_cell_length_b 20.792464
_cell_length_c 14.991697
_cell_angle_alpha 90.000000
_cell_angle_beta 161.146845
_cell_angle_gamma 90.000000
_cell_volume 3011.718792
_symmetry_space_group_name_H-M "C 2/C"
_symmetry_group_IT_number 15
_symmetry_cell_setting 'monoclinic'
loop_
_space_group_symop_operation_xyz
x,y,z
-x,y,1/2-z
-x,-y,-z
x,-y,1/2+z
1/2+x,1/2+y,z
1/2-x,1/2+y,1/2-z
1/2-x,1/2-y,-z
1/2+x,1/2-y,1/2+z
loop_
_atom_site_type_symbol
_atom_site_label
_atom_site_fract_x
_atom_site_fract_y
_atom_site_fract_z
Si Si1 0.633194 0.772539 0.606637
Si Si2 0.614846 0.507516 0.638309
Si Si3 0.768769 0.849099 0.505189
Si Si4 0.808239 0.272948 0.977675
Si Si5 0.500000 0.434800 0.250000
Si Si6 0.838343 0.483983 0.193215
Si Si7 0.283178 0.613037 0.461935
Si Si8 0.093878 0.146032 0.623681
O O1 0.471854 0.764577 0.288422
O O2 0.725367 0.779059 0.690604
O O3 0.657969 0.837074 0.710735
O O4 0.676064 0.707296 0.739333
O O5 0.500000 0.500000 0.500000
O O6 0.560593 0.476200 0.445810
O O7 0.648464 0.581680 0.678678
O O8 0.762368 0.479622 0.952620
O O9 0.724818 0.788328 0.360815
O O10 0.732771 0.835312 0.541419
O O11 0.689368 0.912707 0.318416
O O12 0.931187 0.855759 0.801513
O O13 0.622781 0.389293 0.448357
O O14 0.768509 0.540658 0.118177
O O15 0.000000 0.500000 0.500000
O O16 0.377020 0.641786 0.716841
#
# Coordination Sequence:
#
# PCOD8132253 Si02
#       8
#     8   8   8   8   4   8   8   8
#     4  10  21  36  55  84 121 154 202 253 310 365
#     4  11  21  41  62  95 122 158 218 258 312 385
#     4  10  18  36  61  83 117 157 204 250 309 367
#     4   9  21  35  56  87 114 156 205 249 303 381
#     4  12  22  38  68  94 122 168 218 272 310 394
#     4  11  22  39  64  90 129 164 201 267 327 378
#     4  11  23  37  57  91 120 160 212 252 324 376
#     4  10  20  38  61  82 118 161 206 256 305 370
#
# _framework density 19.922177999999999
#
# number of rings (size 3 to 8) (size 9 to 14) (size 15 to 20)
#    0.000    1.600    4.000    1.200    3.733    3.200 
#    0.000    0.000    0.000    0.000    0.000    0.000 
#    0.000    0.000    0.000    0.000    0.000    0.000 
#
# Total GULP energy -371724.718471 kJ/mol
# GULP energy per Si atom -12390.823949 kJ/mol
# Density = 1.987683 g / cm^3
# Si number density = 19.922178 Si / 1000 Ang^3
#
#
#
# Elastic Constant Matrix: (Units=GPa)
#
#
# Indices 1 2 3 4 5 6 
#
# 1 72.2432 29.1596 26.7036 0.0000 -8.3836 0.0000
# 2 29.1596 147.8324 27.6526 0.0000 -3.4897 0.0000
# 3 26.7036 27.6526 88.3121 0.0000 -3.9289 0.0000
# 4 0.0000 0.0000 0.0000 24.1123 0.0000 -3.4367
# 5 -8.3836 -3.4897 -3.9289 0.0000 25.3219 0.0000
# 6 0.0000 0.0000 0.0000 -3.4367 0.0000 21.4452
#
#
#
# Elastic Compliance Matrix: (Units=1/GPa)
#
#
# Indices 1 2 3 4 5 6 
#
# 1 0.016895 -0.002450 -0.004136 0.000000 0.004614 0.000000
# 2 -0.002450 0.007551 -0.001625 0.000000 -0.000023 0.000000
# 3 -0.004136 -0.001625 0.013102 0.000000 0.000440 0.000000
# 4 0.000000 0.000000 0.000000 0.042442 0.000000 0.006802
# 5 0.004614 -0.000023 0.000440 0.000000 0.041084 0.000000
# 6 0.000000 0.000000 0.000000 0.006802 0.000000 0.047720
#
#
# Mechanical properties :
#
#
# Convention : Reuss Voigt Hill
#
# Bulk Modulus (GPa) = 47.33260 52.82439 50.07850
# Shear Modulus (GPa) = 26.00645 29.16733 27.58689
#
# Velocity S-wave (km/s) = 3.61695 3.83046 3.72524
# Velocity P-wave (km/s) = 6.42289 6.79236 6.61021
#
# Compressibility (1/GPa) = 0.02112709
#
# Stress axis : x y z
#
# Youngs Moduli (GPa) = 59.18760 132.43252 76.32137
#
# Poissons Ratio (x) = 0.32445 0.31569
# Poissons Ratio (y) = 0.14501 0.12399
# Poissons Ratio (z) = 0.24482 0.21515
#
# Static dielectric constant tensor:
#      x y z
#    x 3.766620 0.000000 -0.142190 
#    y 0.000000 4.101530 0.000000 
#    z -0.142190 0.000000 3.558190 
# 
# 
# High freq. dielectric constant tensor:
#      x y z
#    x 1.759760 0.000000 -0.004780 
#    y 0.000000 1.797590 0.000000 
#    z -0.004780 0.000000 1.760050 
# 
# From -- ./inp_files/183097.got.cif
#   From: 2010.06.25/outbox.cif.g09.slc.cpg/sg15_92_cif.got.tgz:183097.got - 2010.06.28 07:06:18.
