data_PCOD8132936
_publ_section_title
;
Structure prediction by ZEFSAII (Michael W. Deem and Ramdas Pophale) SiO2 
 PCOD8132936
Probable space group: C 2/C
;
_chemical_formula_sum "Si O2"
_cell_formula_units_Z 64
_cell_length_a 12.988410
_cell_length_b 33.179968
_cell_length_c 18.760539
_cell_angle_alpha 90.000000
_cell_angle_beta 152.314317
_cell_angle_gamma 90.000000
_cell_volume 3756.435213
_symmetry_space_group_name_H-M "C 2/C"
_symmetry_group_IT_number 15
_symmetry_cell_setting 'monoclinic'
loop_
_space_group_symop_operation_xyz
x,y,z
-x,y,1/2-z
-x,-y,-z
x,-y,1/2+z
1/2+x,1/2+y,z
1/2-x,1/2+y,1/2-z
1/2-x,1/2-y,-z
1/2+x,1/2-y,1/2+z
loop_
_atom_site_type_symbol
_atom_site_label
_atom_site_fract_x
_atom_site_fract_y
_atom_site_fract_z
Si Si1 0.859389 0.788318 0.977682
Si Si2 0.977013 0.133730 0.853561
Si Si3 0.392497 0.976339 0.023609
Si Si4 0.039612 0.287288 0.656326
Si Si5 0.363296 0.135283 0.979210
Si Si6 0.854971 0.051708 0.847353
Si Si7 0.422748 0.529815 0.041492
Si Si8 0.122703 0.446111 0.635578
O O1 0.772073 0.787418 0.842317
O O2 0.655252 0.785464 0.906056
O O3 0.993988 0.829157 0.074718
O O4 0.025030 0.751129 0.094785
O O5 0.766873 0.142871 0.674250
O O6 0.950204 0.095164 0.887126
O O7 0.193351 0.126331 0.938519
O O8 0.626441 0.953297 0.165477
O O9 0.436212 0.024514 0.055880
O O10 0.231248 0.960490 0.985879
O O11 0.287022 0.964865 0.883326
O O12 0.015237 0.326466 0.591572
O O13 0.528067 0.098230 0.070543
O O14 0.795366 0.045784 0.893883
O O15 0.034280 0.018159 0.934078
O O16 0.654274 0.554359 0.181094
#
# Coordination Sequence:
#
# PCOD8132936 Si02
#       8
#     8   8   8   8   8   8   8   8
#     4   9  17  29  46  69  97 131 160 191 234 290
#     4  10  19  31  48  68  99 133 164 199 241 286
#     4  10  19  35  50  68  95 131 167 205 246 286
#     4   9  17  29  46  69  98 129 161 191 235 288
#     4  10  19  31  47  70  99 131 163 203 239 285
#     4  10  20  34  48  71  96 129 168 202 244 295
#     4  10  21  33  50  68  97 130 164 209 249 285
#     4  10  20  32  50  73  95 125 170 206 240 289
#
# _framework density 17.037428999999999
#
# number of rings (size 3 to 8) (size 9 to 14) (size 15 to 20)
#    0.000    2.250    1.250    2.250    1.750    3.000 
#    0.000    1.250    0.000    0.000    0.000    0.000 
#    0.000    6.000    0.000    0.000    0.000    0.000 
#
# Total GULP energy -396764.409147 kJ/mol
# GULP energy per Si atom -12398.887786 kJ/mol
# Density = 1.699865 g / cm^3
# Si number density = 17.037429 Si / 1000 Ang^3
#
#
#
# Elastic Constant Matrix: (Units=GPa)
#
#
# Indices 1 2 3 4 5 6 
#
# 1 50.5401 26.1524 17.9214 0.0000 -4.2258 -0.0001
# 2 26.1524 135.7693 57.5651 -0.0001 -6.6422 0.0000
# 3 17.9214 57.5651 71.8006 -0.0007 -21.7842 -0.0006
# 4 0.0000 -0.0001 -0.0007 28.3416 -0.0001 -2.1263
# 5 -4.2258 -6.6422 -21.7842 -0.0001 16.6752 -0.0002
# 6 -0.0001 0.0000 -0.0006 -2.1263 -0.0002 17.1572
#
#
#
# Elastic Compliance Matrix: (Units=1/GPa)
#
#
# Indices 1 2 3 4 5 6 
#
# 1 0.022466 -0.003020 -0.003022 0.000000 0.000543 0.000000
# 2 -0.003020 0.013230 -0.014058 0.000000 -0.013861 -0.000001
# 3 -0.003022 -0.014058 0.039794 0.000001 0.045621 0.000002
# 4 0.000000 0.000000 0.000001 0.035615 0.000002 0.004414
# 5 0.000543 -0.013861 0.045621 0.000002 0.114184 0.000003
# 6 0.000000 -0.000001 0.000002 0.004414 0.000003 0.058831
#
#
# Mechanical properties :
#
#
# Convention : Reuss Voigt Hill
#
# Bulk Modulus (GPa) = 28.33685 51.26531 39.80108
# Shear Modulus (GPa) = 14.87729 22.86621 18.87175
#
# Velocity S-wave (km/s) = 2.95822 3.66746 3.33177
# Velocity P-wave (km/s) = 5.32319 6.93461 6.18163
#
# Compressibility (1/GPa) = 0.03528973
#
# Stress axis : x y z
#
# Youngs Moduli (GPa) = 44.51230 75.58789 25.12937
#
# Poissons Ratio (x) = 0.22825 0.07593
# Poissons Ratio (y) = 0.13441 0.35328
# Poissons Ratio (z) = 0.13450 1.06265
#
# Static dielectric constant tensor:
#      x y z
#    x 2.801700 0.000000 -0.294070 
#    y 0.000000 3.140720 0.000000 
#    z -0.294070 0.000000 3.278910 
# 
# 
# High freq. dielectric constant tensor:
#      x y z
#    x 1.617470 0.000000 -0.029160 
#    y 0.000000 1.652080 0.000000 
#    z -0.029160 0.000000 1.666720 
# 
# From -- ./inp_files/201483.got.cif
#   From: 2010.06.25/outbox.cif.g09.slc.cpg/sg15_101_cif.got.tgz:201483.got - 2010.06.28 07:06:18.
