data_PCOD8132701
_publ_section_title
;
Structure prediction by ZEFSAII (Michael W. Deem and Ramdas Pophale) SiO2 
 PCOD8132701
Probable space group: C 2/C
;
_chemical_formula_sum "Si O2"
_cell_formula_units_Z 48
_cell_length_a 23.647116
_cell_length_b 15.896075
_cell_length_c 18.015971
_cell_angle_alpha 90.000000
_cell_angle_beta 21.203306
_cell_angle_gamma 90.000000
_cell_volume 2449.335573
_symmetry_space_group_name_H-M "C 2/C"
_symmetry_group_IT_number 15
_symmetry_cell_setting 'monoclinic'
loop_
_space_group_symop_operation_xyz
x,y,z
-x,y,1/2-z
-x,-y,-z
x,-y,1/2+z
1/2+x,1/2+y,z
1/2-x,1/2+y,1/2-z
1/2-x,1/2-y,-z
1/2+x,1/2-y,1/2+z
loop_
_atom_site_type_symbol
_atom_site_label
_atom_site_fract_x
_atom_site_fract_y
_atom_site_fract_z
Si Si1 0.026655 0.029336 0.130850
Si Si2 0.050891 0.817850 0.877007
Si Si3 0.352833 0.046075 0.213925
Si Si4 0.892238 0.067370 0.675153
Si Si5 0.959439 0.481264 0.884530
Si Si6 0.375917 0.154745 0.051211
O O1 0.000000 0.032973 0.250000
O O2 0.964269 0.114735 0.170513
O O3 0.931636 0.948469 0.213847
O O4 0.208945 0.018190 0.890256
O O5 0.941632 0.842164 0.081829
O O6 0.002218 0.727939 0.905260
O O7 0.229896 0.811632 0.683040
O O8 0.315821 0.125971 0.206803
O O9 0.406634 0.068604 0.232282
O O10 0.500000 0.000000 0.000000
O O11 0.000000 0.000000 0.500000
O O12 0.709323 0.054285 0.885264
O O13 0.000000 0.465413 0.750000
O O14 0.961962 0.580345 0.900846
#
# Coordination Sequence:
#
# PCOD8132701 Si02
#       6
#     8   8   8   8   8   8
#     4  11  21  38  63  88 113 152 195 242 298 346
#     4  11  23  38  61  85 120 156 196 238 291 347
#     4  10  21  37  61  86 114 154 205 237 276 345
#     4  10  18  40  62  80 115 158 201 237 277 344
#     4  11  22  38  62  93 122 147 191 249 296 341
#     4  11  23  39  58  88 119 158 194 239 286 351
#
# _framework density 19.597152000000001
#
# number of rings (size 3 to 8) (size 9 to 14) (size 15 to 20)
#    0.000    1.333    5.000    4.000    7.000    0.667 
#    0.000    1.667    0.000    6.000    0.000    0.000 
#    0.000    0.000    0.000    0.000    0.000    0.000 
#
# Total GULP energy -297489.827529 kJ/mol
# GULP energy per Si atom -12395.409480 kJ/mol
# Density = 1.955255 g / cm^3
# Si number density = 19.597152 Si / 1000 Ang^3
#
#
#
# Elastic Constant Matrix: (Units=GPa)
#
#
# Indices 1 2 3 4 5 6 
#
# 1 142.1381 10.0625 20.4520 -0.0012 -4.5824 0.0023
# 2 10.0625 14.3097 0.9082 -0.0035 -0.0393 0.0041
# 3 20.4520 0.9082 56.9857 -0.0001 -15.5969 0.0029
# 4 -0.0012 -0.0035 -0.0001 22.4606 0.0011 -9.6811
# 5 -4.5824 -0.0393 -15.5969 0.0011 44.5426 -0.0021
# 6 0.0023 0.0041 0.0029 -9.6811 -0.0021 29.1730
#
#
#
# Elastic Compliance Matrix: (Units=1/GPa)
#
#
# Indices 1 2 3 4 5 6 
#
# 1 0.007804 -0.005313 -0.002762 0.000000 -0.000169 0.000000
# 2 -0.005313 0.073576 0.000666 0.000008 -0.000248 -0.000007
# 3 -0.002762 0.000666 0.020407 -0.000001 0.006862 -0.000002
# 4 0.000000 0.000008 -0.000001 0.051954 -0.000001 0.017241
# 5 -0.000169 -0.000248 0.006862 -0.000001 0.024836 0.000001
# 6 0.000000 -0.000007 -0.000002 0.017241 0.000001 0.040000
#
#
# Mechanical properties :
#
#
# Convention : Reuss Voigt Hill
#
# Bulk Modulus (GPa) = 11.49839 30.69765 21.09802
# Shear Modulus (GPa) = 19.05615 31.36928 25.21272
#
# Velocity S-wave (km/s) = 3.12171 4.00522 3.59074
# Velocity P-wave (km/s) = 4.34437 6.08995 5.28966
#
# Compressibility (1/GPa) = 0.08696869
#
# Stress axis : x y z
#
# Youngs Moduli (GPa) = 128.14737 13.59147 49.00238
#
# Poissons Ratio (x) = 0.07221 0.13536
# Poissons Ratio (y) = 0.68079 -0.03264
# Poissons Ratio (z) = 0.35398 -0.00905
#
# Static dielectric constant tensor:
#      x y z
#    x 5.220550 -0.000020 -0.091180 
#    y -0.000020 3.409390 0.000000 
#    z -0.091180 0.000000 3.501750 
# 
# 
# High freq. dielectric constant tensor:
#      x y z
#    x 1.792510 0.000000 -0.019050 
#    y 0.000000 1.719040 0.000000 
#    z -0.019050 0.000000 1.758570 
# 
# From -- ./inp_files/206515.got.cif
#   From: 2010.06.25/outbox.cif.g09.slc.cpg/sg15_104_cif.got.tgz:206515.got - 2010.06.28 07:06:18.
