data_PCOD8132285
_publ_section_title
;
Structure prediction by ZEFSAII (Michael W. Deem and Ramdas Pophale) SiO2 
 PCOD8132285
Probable space group: C 2/C
;
_chemical_formula_sum "Si O2"
_cell_formula_units_Z 44
_cell_length_a 25.860048
_cell_length_b 12.088446
_cell_length_c 12.921105
_cell_angle_alpha 90.000000
_cell_angle_beta 145.971297
_cell_angle_gamma 90.000000
_cell_volume 2260.390574
_symmetry_space_group_name_H-M "C 2/C"
_symmetry_group_IT_number 15
_symmetry_cell_setting 'monoclinic'
loop_
_space_group_symop_operation_xyz
x,y,z
-x,y,1/2-z
-x,-y,-z
x,-y,1/2+z
1/2+x,1/2+y,z
1/2-x,1/2+y,1/2-z
1/2-x,1/2-y,-z
1/2+x,1/2-y,1/2+z
loop_
_atom_site_type_symbol
_atom_site_label
_atom_site_fract_x
_atom_site_fract_y
_atom_site_fract_z
Si Si1 0.632077 0.933231 0.064251
Si Si2 0.202458 0.635219 0.891267
Si Si3 0.498125 0.856165 0.129109
Si Si4 0.000000 0.741181 0.250000
Si Si5 0.262510 0.079075 0.959197
Si Si6 0.602973 0.744183 0.723060
O O1 0.692889 0.878317 0.253931
O O2 0.572419 0.832085 0.928864
O O3 0.703757 0.966739 0.095093
O O4 0.566015 0.034946 0.985832
O O5 0.267208 0.532535 0.031361
O O6 0.103506 0.614628 0.780391
O O7 0.250000 0.750000 0.000000
O O8 0.500000 0.808214 0.250000
O O9 0.464031 0.769426 0.985493
O O10 0.050090 0.806628 0.237697
O O11 0.343206 0.144339 0.154585
O O12 0.172914 0.153649 0.796489
#
# Coordination Sequence:
#
# PCOD8132285 Si02
#       6
#     8   8   8   4   8   8
#     4  11  20  36  65  91 124 157 218 263 304 367
#     4  12  25  40  60  94 129 164 210 265 317 369
#     4  12  21  38  66  92 123 166 208 259 310 372
#     4  10  18  36  62  90 116 170 202 260 304 376
#     4  10  22  39  61  95 125 163 206 265 314 365
#     4  10  21  38  65  93 125 160 214 252 315 377
#
# _framework density 19.465661999999998
#
# number of rings (size 3 to 8) (size 9 to 14) (size 15 to 20)
#    0.000    1.091    6.364    1.636    2.545    0.000 
#    3.273    0.909    2.000    0.000    0.000    0.000 
#    0.000    0.000    0.000    0.000    0.000    0.000 
#
# Total GULP energy -272600.433779 kJ/mol
# GULP energy per Si atom -12390.928808 kJ/mol
# Density = 1.942136 g / cm^3
# Si number density = 19.465662 Si / 1000 Ang^3
#
#
#
# Elastic Constant Matrix: (Units=GPa)
#
#
# Indices 1 2 3 4 5 6 
#
# 1 93.6914 42.5193 43.4912 0.0000 -2.5854 0.0000
# 2 42.5193 87.1408 47.6184 0.0000 -10.0545 0.0000
# 3 43.4912 47.6184 101.3666 0.0000 -21.5624 0.0000
# 4 0.0000 0.0000 0.0000 23.0766 0.0000 8.2392
# 5 -2.5854 -10.0545 -21.5624 0.0000 26.2531 0.0000
# 6 0.0000 0.0000 0.0000 8.2392 0.0000 21.0505
#
#
#
# Elastic Compliance Matrix: (Units=1/GPa)
#
#
# Indices 1 2 3 4 5 6 
#
# 1 0.015276 -0.005204 -0.005105 0.000000 -0.004682 0.000000
# 2 -0.005204 0.017212 -0.005525 0.000000 0.001542 0.000000
# 3 -0.005105 -0.005525 0.017078 0.000000 0.011408 0.000000
# 4 0.000000 0.000000 0.000000 0.050373 0.000000 -0.019716
# 5 -0.004682 0.001542 0.011408 0.000000 0.047589 0.000000
# 6 0.000000 0.000000 0.000000 -0.019716 0.000000 0.055222
#
#
# Mechanical properties :
#
#
# Convention : Reuss Voigt Hill
#
# Bulk Modulus (GPa) = 55.87545 61.05073 58.46309
# Shear Modulus (GPa) = 20.80013 23.98071 22.39042
#
# Velocity S-wave (km/s) = 3.27242 3.51372 3.39522
# Velocity P-wave (km/s) = 6.56089 6.92048 6.74308
#
# Compressibility (1/GPa) = 0.01789695
#
# Stress axis : x y z
#
# Youngs Moduli (GPa) = 65.46347 58.09954 58.55655
#
# Poissons Ratio (x) = 0.30235 0.29895
# Poissons Ratio (y) = 0.34067 0.32351
# Poissons Ratio (z) = 0.33421 0.32099
#
# Static dielectric constant tensor:
#      x y z
#    x 4.115470 0.000000 -0.199480 
#    y 0.000000 3.192100 0.000000 
#    z -0.199480 0.000000 3.622960 
# 
# 
# High freq. dielectric constant tensor:
#      x y z
#    x 1.773930 0.000000 -0.017630 
#    y 0.000000 1.720300 0.000000 
#    z -0.017630 0.000000 1.757490 
# 
# From -- ./inp_files/94994.got.cif
#   From: 2010.06.25/outbox.cif.g09.slc.cpg/sg15_48_cif.got.tgz:94994.got - 2010.06.28 07:06:18.
