data_PCOD8132616
_publ_section_title
;
Structure prediction by ZEFSAII (Michael W. Deem and Ramdas Pophale) SiO2 
 PCOD8132616
Probable space group: C 2/C
;
_chemical_formula_sum "Si O2"
_cell_formula_units_Z 44
_cell_length_a 11.693050
_cell_length_b 25.938406
_cell_length_c 11.995574
_cell_angle_alpha 90.000000
_cell_angle_beta 32.966702
_cell_angle_gamma 90.000000
_cell_volume 1979.757462
_symmetry_space_group_name_H-M "C 2/C"
_symmetry_group_IT_number 15
_symmetry_cell_setting 'monoclinic'
loop_
_space_group_symop_operation_xyz
x,y,z
-x,y,1/2-z
-x,-y,-z
x,-y,1/2+z
1/2+x,1/2+y,z
1/2-x,1/2+y,1/2-z
1/2-x,1/2-y,-z
1/2+x,1/2-y,1/2+z
loop_
_atom_site_type_symbol
_atom_site_label
_atom_site_fract_x
_atom_site_fract_y
_atom_site_fract_z
Si Si1 0.000000 0.116454 0.250000
Si Si2 0.500000 0.769421 0.750000
Si Si3 0.814021 0.073896 0.827478
Si Si4 0.500000 0.031785 0.250000
Si Si5 0.262604 0.187971 0.633599
Si Si6 0.750984 0.441422 0.359440
Si Si7 0.950466 0.655140 0.908647
O O1 0.927566 0.082943 0.415480
O O2 0.802118 0.150817 0.369012
O O3 0.659327 0.807047 0.558054
O O4 0.597826 0.735377 0.773302
O O5 0.854408 0.133616 0.763631
O O6 0.830787 0.044033 0.696867
O O7 0.000000 0.051763 0.750000
O O8 0.591893 0.066509 0.073794
O O9 0.314749 0.995773 0.357762
O O10 0.445455 0.189388 0.578257
O O11 0.949219 0.402492 0.179839
O O12 0.000000 0.683169 0.750000
#
# Coordination Sequence:
#
# PCOD8132616 Si02
#       7
#     4   4   8   4   8   8   8
#     4  10  18  38  67  88 117 179 202 251 306 354
#     4  10  21  40  69  86 120 162 192 253 321 376
#     4  11  25  40  61  92 125 164 205 259 305 368
#     4  12  23  40  58  90 127 167 212 254 301 352
#     4  10  21  42  62  92 120 155 204 250 311 374
#     4  10  22  40  61  88 127 164 215 252 299 362
#     4   9  19  39  64  92 123 163 204 253 299 371
#
# _framework density 22.224945000000002
#
# number of rings (size 3 to 8) (size 9 to 14) (size 15 to 20)
#    0.000    1.818    3.636    1.091    1.273    5.091 
#    9.818    0.909    0.000    0.000    0.000    0.000 
#    0.000    0.000    0.000    0.000    0.000    0.000 
#
# Total GULP energy -272610.737030 kJ/mol
# GULP energy per Si atom -12391.397138 kJ/mol
# Density = 2.217436 g / cm^3
# Si number density = 22.224945 Si / 1000 Ang^3
#
#
#
# Elastic Constant Matrix: (Units=GPa)
#
#
# Indices 1 2 3 4 5 6 
#
# 1 171.0413 19.9119 45.7397 0.0000 7.1493 0.0000
# 2 19.9119 34.2161 4.3608 0.0000 7.5131 0.0000
# 3 45.7397 4.3608 121.1257 0.0000 4.6735 0.0000
# 4 0.0000 0.0000 0.0000 11.8663 0.0000 6.5759
# 5 7.1493 7.5131 4.6735 0.0000 43.1802 0.0000
# 6 0.0000 0.0000 0.0000 6.5759 0.0000 15.4090
#
#
#
# Elastic Compliance Matrix: (Units=1/GPa)
#
#
# Indices 1 2 3 4 5 6 
#
# 1 0.006948 -0.003674 -0.002482 0.000000 -0.000243 0.000000
# 2 -0.003674 0.032426 0.000416 0.000000 -0.005079 0.000000
# 3 -0.002482 0.000416 0.009204 0.000000 -0.000658 0.000000
# 4 0.000000 0.000000 0.000000 0.110375 0.000000 -0.047103
# 5 -0.000243 -0.005079 -0.000658 0.000000 0.024154 0.000000
# 6 0.000000 0.000000 0.000000 -0.047103 0.000000 0.084998
#
#
# Mechanical properties :
#
#
# Convention : Reuss Voigt Hill
#
# Bulk Modulus (GPa) = 26.95586 51.82309 39.38948
# Shear Modulus (GPa) = 17.12616 31.18248 24.15432
#
# Velocity S-wave (km/s) = 2.77895 3.74978 3.30026
# Velocity P-wave (km/s) = 4.73833 6.48968 5.68189
#
# Compressibility (1/GPa) = 0.03709768
#
# Stress axis : x y z
#
# Youngs Moduli (GPa) = 143.92326 30.83927 108.65315
#
# Poissons Ratio (x) = 0.11330 0.26969
# Poissons Ratio (y) = 0.52875 -0.04519
# Poissons Ratio (z) = 0.35724 -0.01283
#
# Static dielectric constant tensor:
#      x y z
#    x 4.578640 0.000000 0.161420 
#    y 0.000000 3.606380 0.000000 
#    z 0.161420 0.000000 3.945020 
# 
# 
# High freq. dielectric constant tensor:
#      x y z
#    x 1.887370 0.000000 0.004650 
#    y 0.000000 1.844840 0.000000 
#    z 0.004650 0.000000 1.872800 
# 
# From -- ./inp_files/91960.got.cif
#   From: 2010.06.25/outbox.cif.g09.slc.cpg/sg15_46_cif.got.tgz:91960.got - 2010.06.28 07:06:18.
