data_PCOD8132078
_publ_section_title
;
Structure prediction by ZEFSAII (Michael W. Deem and Ramdas Pophale) SiO2 
 PCOD8132078
Probable space group: C 2/C
;
_chemical_formula_sum "Si O2"
_cell_formula_units_Z 44
_cell_length_a 12.620556
_cell_length_b 16.154133
_cell_length_c 12.494852
_cell_angle_alpha 90.000000
_cell_angle_beta 120.419526
_cell_angle_gamma 90.000000
_cell_volume 2196.708233
_symmetry_space_group_name_H-M "C 2/C"
_symmetry_group_IT_number 15
_symmetry_cell_setting 'monoclinic'
loop_
_space_group_symop_operation_xyz
x,y,z
-x,y,1/2-z
-x,-y,-z
x,-y,1/2+z
1/2+x,1/2+y,z
1/2-x,1/2+y,1/2-z
1/2-x,1/2-y,-z
1/2+x,1/2-y,1/2+z
loop_
_atom_site_type_symbol
_atom_site_label
_atom_site_fract_x
_atom_site_fract_y
_atom_site_fract_z
Si Si1 0.166675 0.349658 0.164963
Si Si2 0.936354 0.047799 0.115704
Si Si3 0.802003 0.548754 0.027740
Si Si4 0.500000 0.060818 0.750000
Si Si5 0.567860 0.386153 0.111389
Si Si6 0.668440 0.697609 0.036721
O O1 0.305531 0.359799 0.272981
O O2 0.149346 0.250776 0.135507
O O3 0.072571 0.379771 0.206420
O O4 0.141777 0.399903 0.042532
O O5 0.000000 0.092975 0.250000
O O6 0.925168 0.112967 0.014070
O O7 0.032776 0.975540 0.137507
O O8 0.800791 0.013093 0.071563
O O9 0.908585 0.497734 0.138536
O O10 0.738164 0.608779 0.085326
O O11 0.463172 0.319134 0.087056
O O12 0.750000 0.750000 0.000000
#
# Coordination Sequence:
#
# PCOD8132078 Si02
#       6
#     8   8   8   4   8   8
#     4  11  22  41  62  90 134 166 208 262 326 378
#     4  10  18  35  63  93 117 147 210 262 304 359
#     4  10  21  38  64  96 118 166 210 267 309 377
#     4  12  24  40  62  96 134 168 214 262 328 374
#     4  10  20  36  62  90 118 160 207 253 309 378
#     4   9  22  38  60  90 121 163 209 254 316 375
#
# _framework density 20.029969999999999
#
# number of rings (size 3 to 8) (size 9 to 14) (size 15 to 20)
#    0.000    1.818    3.636    0.545    0.000    2.909 
#    1.636    2.727    0.000    0.000    0.000    0.000 
#    0.000    0.000    0.000    0.000    0.000    0.000 
#
# Total GULP energy -272684.671864 kJ/mol
# GULP energy per Si atom -12394.757812 kJ/mol
# Density = 1.998438 g / cm^3
# Si number density = 20.029970 Si / 1000 Ang^3
#
#
#
# Elastic Constant Matrix: (Units=GPa)
#
#
# Indices 1 2 3 4 5 6 
#
# 1 115.2187 46.4389 39.1971 0.0000 6.7503 0.0000
# 2 46.4389 66.6620 37.2114 0.0000 7.8081 0.0000
# 3 39.1971 37.2114 112.7000 0.0000 6.8564 0.0000
# 4 0.0000 0.0000 0.0000 21.0652 0.0000 -2.4322
# 5 6.7503 7.8081 6.8564 0.0000 37.1801 0.0000
# 6 0.0000 0.0000 0.0000 -2.4322 0.0000 32.7205
#
#
#
# Elastic Compliance Matrix: (Units=1/GPa)
#
#
# Indices 1 2 3 4 5 6 
#
# 1 0.012357 -0.007579 -0.001776 0.000000 -0.000324 0.000000
# 2 -0.007579 0.023326 -0.004907 0.000000 -0.002618 0.000000
# 3 -0.001776 -0.004907 0.011154 0.000000 -0.000704 0.000000
# 4 0.000000 0.000000 0.000000 0.047883 0.000000 0.003559
# 5 -0.000324 -0.002618 -0.000704 0.000000 0.027635 0.000000
# 6 0.000000 0.000000 0.000000 0.003559 0.000000 0.030826
#
#
# Mechanical properties :
#
#
# Convention : Reuss Voigt Hill
#
# Bulk Modulus (GPa) = 54.60206 60.03061 57.31633
# Shear Modulus (GPa) = 26.62294 29.64207 28.13250
#
# Velocity S-wave (km/s) = 3.64971 3.85110 3.75176
# Velocity P-wave (km/s) = 6.71416 7.05763 6.88803
#
# Compressibility (1/GPa) = 0.01831433
#
# Stress axis : x y z
#
# Youngs Moduli (GPa) = 80.92621 42.86975 89.65742
#
# Poissons Ratio (x) = 0.32491 0.15919
# Poissons Ratio (y) = 0.61335 0.43992
# Poissons Ratio (z) = 0.14369 0.21035
#
# Static dielectric constant tensor:
#      x y z
#    x 3.859340 0.000000 -0.153810 
#    y 0.000000 3.894010 0.000000 
#    z -0.153810 0.000000 3.797840 
# 
# 
# High freq. dielectric constant tensor:
#      x y z
#    x 1.787150 0.000000 0.006780 
#    y 0.000000 1.763330 0.000000 
#    z 0.006780 0.000000 1.779110 
# 
# From -- ./inp_files/87144.got.cif
#   From: 2010.06.25/outbox.cif.g09.slc.cpg/sg15_44_cif.got.tgz:87144.got - 2010.06.28 07:06:18.
