data_PCOD8132774
_publ_section_title
;
Structure prediction by ZEFSAII (Michael W. Deem and Ramdas Pophale) SiO2 
 PCOD8132774
Probable space group: C 2/C
;
_chemical_formula_sum "Si O2"
_cell_formula_units_Z 36
_cell_length_a 9.479217
_cell_length_b 23.788585
_cell_length_c 7.548609
_cell_angle_alpha 90.000000
_cell_angle_beta 110.664911
_cell_angle_gamma 90.000000
_cell_volume 1592.671551
_symmetry_space_group_name_H-M "C 2/C"
_symmetry_group_IT_number 15
_symmetry_cell_setting 'monoclinic'
loop_
_space_group_symop_operation_xyz
x,y,z
-x,y,1/2-z
-x,-y,-z
x,-y,1/2+z
1/2+x,1/2+y,z
1/2-x,1/2+y,1/2-z
1/2-x,1/2-y,-z
1/2+x,1/2-y,1/2+z
loop_
_atom_site_type_symbol
_atom_site_label
_atom_site_fract_x
_atom_site_fract_y
_atom_site_fract_z
Si Si1 0.707589 0.542710 0.208717
Si Si2 0.101612 0.817420 0.953952
Si Si3 0.059280 0.695064 0.969646
Si Si4 0.000000 0.388347 0.750000
Si Si5 0.889113 0.932303 0.444656
O O1 0.856170 0.570703 0.193319
O O2 0.680906 0.566614 0.389810
O O3 0.566231 0.551966 0.013063
O O4 0.714278 0.473712 0.221489
O O5 0.020992 0.760920 0.994142
O O6 0.119326 0.866060 0.113061
O O7 0.000000 0.842556 0.750000
O O8 0.261805 0.805911 0.936450
O O9 0.000000 0.677889 0.750000
O O10 0.983312 0.652390 0.073458
#
# Coordination Sequence:
#
# PCOD8132774 Si02
#       5
#     8   8   8   4   8
#     4  10  22  36  64  89 128 167 223 265 328 388
#     4  10  18  41  66  85 129 182 207 268 335 391
#     4  10  23  39  67  99 130 171 216 273 342 387
#     4  12  22  44  62 106 134 168 220 290 324 402
#     4  10  19  41  60  87 125 181 210 266 324 399
#
# _framework density 22.603531
#
# number of rings (size 3 to 8) (size 9 to 14) (size 15 to 20)
#    0.000    1.778    4.444    0.000    0.000    2.667 
#    2.000   22.222    0.000    0.000    0.000    0.000 
#    0.000    0.000    0.000    0.000    0.000    0.000 
#
# Total GULP energy -223008.875172 kJ/mol
# GULP energy per Si atom -12389.381954 kJ/mol
# Density = 2.255208 g / cm^3
# Si number density = 22.603531 Si / 1000 Ang^3
#
#
#
# Elastic Constant Matrix: (Units=GPa)
#
#
# Indices 1 2 3 4 5 6 
#
# 1 126.5155 53.6551 34.2117 0.0000 2.5435 0.0000
# 2 53.6551 176.1633 48.9815 0.0000 -2.5478 0.0000
# 3 34.2117 48.9815 67.5283 0.0000 1.0243 0.0000
# 4 0.0000 0.0000 0.0000 27.7967 0.0000 4.7811
# 5 2.5435 -2.5478 1.0243 0.0000 19.3502 0.0000
# 6 0.0000 0.0000 0.0000 4.7811 0.0000 25.4531
#
#
#
# Elastic Compliance Matrix: (Units=1/GPa)
#
#
# Indices 1 2 3 4 5 6 
#
# 1 0.009719 -0.002025 -0.003434 0.000000 -0.001362 0.000000
# 2 -0.002025 0.007561 -0.004481 0.000000 0.001499 0.000000
# 3 -0.003434 -0.004481 0.019817 0.000000 -0.001188 0.000000
# 4 0.000000 0.000000 0.000000 0.037177 0.000000 -0.006983
# 5 -0.001362 0.001499 -0.001188 0.000000 0.052118 0.000000
# 6 0.000000 0.000000 0.000000 -0.006983 0.000000 0.040600
#
#
# Mechanical properties :
#
#
# Convention : Reuss Voigt Hill
#
# Bulk Modulus (GPa) = 58.08600 71.54485 64.81542
# Shear Modulus (GPa) = 25.95900 30.07727 28.01813
#
# Velocity S-wave (km/s) = 3.39255 3.65176 3.52454
# Velocity P-wave (km/s) = 6.41088 7.03571 6.73055
#
# Compressibility (1/GPa) = 0.01721585
#
# Stress axis : x y z
#
# Youngs Moduli (GPa) = 102.89048 132.25857 50.46162
#
# Poissons Ratio (x) = 0.26782 0.17331
# Poissons Ratio (y) = 0.20835 0.22613
# Poissons Ratio (z) = 0.35338 0.59267
#
# Static dielectric constant tensor:
#      x y z
#    x 3.846770 0.000000 0.127620 
#    y 0.000000 4.891930 0.000000 
#    z 0.127620 0.000000 3.648950 
# 
# 
# High freq. dielectric constant tensor:
#      x y z
#    x 1.872940 0.000000 0.011800 
#    y 0.000000 1.928830 0.000000 
#    z 0.011800 0.000000 1.849470 
# 
# From -- ./inp_files/23838.got.cif
#   From: 2010.06.25/outbox.cif.g09.slc.cpg/sg15_12_cif.got.tgz:23838.got - 2010.06.28 07:06:18.
