data_PCOD8132312
_publ_section_title
;
Structure prediction by ZEFSAII (Michael W. Deem and Ramdas Pophale) SiO2 
 PCOD8132312
Probable space group: C 2/C
;
_chemical_formula_sum "Si O2"
_cell_formula_units_Z 52
_cell_length_a 8.707581
_cell_length_b 24.615950
_cell_length_c 23.757920
_cell_angle_alpha 90.000000
_cell_angle_beta 147.295151
_cell_angle_gamma 90.000000
_cell_volume 2751.482660
_symmetry_space_group_name_H-M "C 2/C"
_symmetry_group_IT_number 15
_symmetry_cell_setting 'monoclinic'
loop_
_space_group_symop_operation_xyz
x,y,z
-x,y,1/2-z
-x,-y,-z
x,-y,1/2+z
1/2+x,1/2+y,z
1/2-x,1/2+y,1/2-z
1/2-x,1/2-y,-z
1/2+x,1/2-y,1/2+z
loop_
_atom_site_type_symbol
_atom_site_label
_atom_site_fract_x
_atom_site_fract_y
_atom_site_fract_z
Si Si1 0.117340 0.516431 0.724547
Si Si2 0.199273 0.025757 0.420941
Si Si3 0.134680 0.193014 0.444449
Si Si4 0.500000 0.160780 0.250000
Si Si5 0.776655 0.088356 0.959270
Si Si6 0.613143 0.090606 0.392307
Si Si7 0.233825 0.866534 0.866028
O O1 0.459515 0.519189 0.833007
O O2 0.000000 0.503385 0.750000
O O3 0.998884 0.573413 0.663369
O O4 0.020366 0.469318 0.651488
O O5 0.178888 0.042759 0.479493
O O6 0.125684 0.078431 0.361599
O O7 0.500000 0.000000 0.500000
O O8 0.250000 0.250000 0.500000
O O9 0.257320 0.147923 0.524981
O O10 0.264138 0.180202 0.422576
O O11 0.789767 0.195954 0.338303
O O12 0.492034 0.123313 0.302074
O O13 0.047584 0.086872 0.001881
O O14 0.527419 0.121299 0.423727
O O15 0.000000 0.846226 0.750000
#
# Coordination Sequence:
#
# PCOD8132312 Si02
#       7
#     8   8   8   4   8   8   8
#     4  12  21  34  57  86 124 165 193 239 302 365
#     4  11  23  35  54  89 125 164 199 245 299 362
#     4  10  22  43  62  84 116 154 202 263 314 351
#     4  10  18  36  64  86 110 154 198 238 302 374
#     4  10  23  38  57  86 118 159 202 243 303 372
#     4  11  18  35  60  89 114 149 199 239 292 368
#     4  11  20  35  62  89 113 149 208 253 285 365
#
# _framework density 18.898902
#
# number of rings (size 3 to 8) (size 9 to 14) (size 15 to 20)
#    0.000    1.231    5.385    2.308    2.154    0.000 
#    0.000    6.923    0.000    0.000    0.000    0.000 
#    0.000    0.000    0.000    0.000    0.000    0.000 
#
# Total GULP energy -322401.289107 kJ/mol
# GULP energy per Si atom -12400.049581 kJ/mol
# Density = 1.885589 g / cm^3
# Si number density = 18.898902 Si / 1000 Ang^3
#
#
#
# Elastic Constant Matrix: (Units=GPa)
#
#
# Indices 1 2 3 4 5 6 
#
# 1 135.5623 43.4357 51.7493 0.0007 8.8659 0.0035
# 2 43.4357 99.3389 68.2802 -0.0003 4.4707 0.0001
# 3 51.7493 68.2802 116.9430 -0.0017 17.7011 0.0005
# 4 0.0007 -0.0003 -0.0017 36.4353 -0.0001 -3.9388
# 5 8.8659 4.4707 17.7011 -0.0001 30.2217 0.0018
# 6 0.0035 0.0001 0.0005 -3.9388 0.0018 20.4272
#
#
#
# Elastic Compliance Matrix: (Units=1/GPa)
#
#
# Indices 1 2 3 4 5 6 
#
# 1 0.009131 -0.002108 -0.002690 0.000000 -0.000791 -0.000002
# 2 -0.002108 0.017662 -0.009961 0.000000 0.003840 0.000000
# 3 -0.002690 -0.009961 0.016695 0.000001 -0.007516 0.000001
# 4 0.000000 0.000000 0.000001 0.028030 -0.000001 0.005405
# 5 -0.000791 0.003840 -0.007516 -0.000001 0.037155 -0.000003
# 6 -0.000002 0.000000 0.000001 0.005405 -0.000003 0.049997
#
#
# Mechanical properties :
#
#
# Convention : Reuss Voigt Hill
#
# Bulk Modulus (GPa) = 71.58011 75.41939 73.49975
# Shear Modulus (GPa) = 25.92776 29.97543 27.95160
#
# Velocity S-wave (km/s) = 3.70796 3.98690 3.84996
# Velocity P-wave (km/s) = 7.50263 7.82223 7.66409
#
# Compressibility (1/GPa) = 0.01397036
#
# Stress axis : x y z
#
# Youngs Moduli (GPa) = 109.52098 56.61908 59.89785
#
# Poissons Ratio (x) = 0.11934 0.16113
# Poissons Ratio (y) = 0.23084 0.59663
# Poissons Ratio (z) = 0.29462 0.56397
#
# Static dielectric constant tensor:
#      x y z
#    x 3.787550 0.000000 -0.005940 
#    y 0.000000 3.101490 0.000000 
#    z -0.005940 0.000000 3.459140 
# 
# 
# High freq. dielectric constant tensor:
#      x y z
#    x 1.753000 0.000000 -0.000200 
#    y 0.000000 1.689450 0.000000 
#    z -0.000200 0.000000 1.730230 
# 
# From -- ./inp_files/80639.got.cif
#   From: 2010.06.25/outbox.cif.g09.slc.cpg/sg15_41_cif.got.tgz:80639.got - 2010.06.28 07:06:18.
