data_PCOD8132074
_publ_section_title
;
Structure prediction by ZEFSAII (Michael W. Deem and Ramdas Pophale) SiO2 
 PCOD8132074
Probable space group: C 2/C
;
_chemical_formula_sum "Si O2"
_cell_formula_units_Z 64
_cell_length_a 18.001714
_cell_length_b 13.787935
_cell_length_c 20.059796
_cell_angle_alpha 90.000000
_cell_angle_beta 41.311994
_cell_angle_gamma 90.000000
_cell_volume 3286.912117
_symmetry_space_group_name_H-M "C 2/C"
_symmetry_group_IT_number 15
_symmetry_cell_setting 'monoclinic'
loop_
_space_group_symop_operation_xyz
x,y,z
-x,y,1/2-z
-x,-y,-z
x,-y,1/2+z
1/2+x,1/2+y,z
1/2-x,1/2+y,1/2-z
1/2-x,1/2-y,-z
1/2+x,1/2-y,1/2+z
loop_
_atom_site_type_symbol
_atom_site_label
_atom_site_fract_x
_atom_site_fract_y
_atom_site_fract_z
Si Si1 0.926540 0.788847 0.860766
Si Si2 0.803590 0.295759 0.755881
Si Si3 0.908300 0.310341 0.146940
Si Si4 0.540441 0.786290 0.536448
Si Si5 0.750013 0.304445 0.931319
Si Si6 0.227119 0.387548 0.057198
Si Si7 0.902581 0.553128 0.398708
Si Si8 0.851350 0.495104 0.262797
O O1 0.836305 0.714274 0.890670
O O2 0.000000 0.832316 0.750000
O O3 0.006940 0.734784 0.857648
O O4 0.856130 0.873138 0.946078
O O5 0.703230 0.255352 0.778868
O O6 0.805267 0.249731 0.830008
O O7 0.786698 0.412321 0.775012
O O8 0.917214 0.262569 0.644657
O O9 0.876959 0.420539 0.185838
O O10 0.967836 0.312369 0.035150
O O11 0.617425 0.690188 0.499221
O O12 0.595387 0.878702 0.537860
O O13 0.822711 0.402051 0.892835
O O14 0.750000 0.250000 0.000000
O O15 0.160633 0.450936 0.045534
O O16 0.223332 0.440613 0.131340
O O17 0.029002 0.532678 0.287815
#
# Coordination Sequence:
#
# PCOD8132074 Si02
#       8
#     8   8   8   8   8   8   8   8
#     4  11  23  40  59  87 120 158 198 252 308 350
#     4  10  22  37  61  87 121 164 200 245 306 363
#     4  11  23  41  56  88 128 152 206 250 296 372
#     4   9  22  36  57  90 120 158 188 248 311 354
#     4   9  18  34  59  88 120 148 194 249 294 353
#     4  11  21  36  65  90 110 152 207 256 293 356
#     4  10  18  35  63  88 116 144 205 248 287 355
#     4  11  21  38  64  90 114 158 212 248 296 363
#
# _framework density 19.471162
#
# number of rings (size 3 to 8) (size 9 to 14) (size 15 to 20)
#    0.000    1.750    3.750    0.375    3.500    3.500 
#    2.250    1.875    5.500    0.000    0.000    0.000 
#    0.000    0.000    0.000    0.000    0.000    0.000 
#
# Total GULP energy -396463.103908 kJ/mol
# GULP energy per Si atom -12389.471997 kJ/mol
# Density = 1.942685 g / cm^3
# Si number density = 19.471162 Si / 1000 Ang^3
#
#
#
# Elastic Constant Matrix: (Units=GPa)
#
#
# Indices 1 2 3 4 5 6 
#
# 1 63.8010 21.9769 44.5183 0.0000 1.8950 0.0000
# 2 21.9769 62.5951 36.7544 0.0000 -14.5533 0.0000
# 3 44.5183 36.7544 162.9844 0.0000 -7.4124 0.0000
# 4 0.0000 0.0000 0.0000 32.1970 0.0000 -4.7973
# 5 1.8950 -14.5533 -7.4124 0.0000 29.2003 0.0000
# 6 0.0000 0.0000 0.0000 -4.7973 0.0000 30.1277
#
#
#
# Elastic Compliance Matrix: (Units=1/GPa)
#
#
# Indices 1 2 3 4 5 6 
#
# 1 0.021164 -0.005965 -0.004687 0.000000 -0.005536 0.000000
# 2 -0.005965 0.022276 -0.002905 0.000000 0.010752 0.000000
# 3 -0.004687 -0.002905 0.008113 0.000000 0.000916 0.000000
# 4 0.000000 0.000000 0.000000 0.031814 0.000000 0.005066
# 5 -0.005536 0.010752 0.000916 0.000000 0.040197 0.000000
# 6 0.000000 0.000000 0.000000 0.005066 0.000000 0.033999
#
#
# Mechanical properties :
#
#
# Convention : Reuss Voigt Hill
#
# Bulk Modulus (GPa) = 40.92226 55.09775 48.01000
# Shear Modulus (GPa) = 25.93073 30.71374 28.32223
#
# Velocity S-wave (km/s) = 3.65327 3.97595 3.81802
# Velocity P-wave (km/s) = 6.23359 7.03108 6.64432
#
# Compressibility (1/GPa) = 0.02443658
#
# Stress axis : x y z
#
# Youngs Moduli (GPa) = 47.25090 44.89219 123.26520
#
# Poissons Ratio (x) = 0.26780 0.57778
# Poissons Ratio (y) = 0.28187 0.35808
# Poissons Ratio (z) = 0.22148 0.13041
#
# Static dielectric constant tensor:
#      x y z
#    x 3.602200 0.000000 -0.066800 
#    y 0.000000 3.784900 0.000000 
#    z -0.066800 0.000000 3.775860 
# 
# 
# High freq. dielectric constant tensor:
#      x y z
#    x 1.754040 0.000000 0.005070 
#    y 0.000000 1.737430 0.000000 
#    z 0.005070 0.000000 1.771170 
# 
# From -- ./inp_files/211394.got.cif
#   From: 2010.06.25/outbox.cif.g09.slc.cpg/sg15_106_cif.got.tgz:211394.got - 2010.06.28 07:06:18.
