data_PCOD8132009
_publ_section_title
;
Structure prediction by ZEFSAII (Michael W. Deem and Ramdas Pophale) SiO2 
 PCOD8132009
Probable space group: C 2/C
;
_chemical_formula_sum "Si O2"
_cell_formula_units_Z 56
_cell_length_a 9.360041
_cell_length_b 32.832584
_cell_length_c 13.985273
_cell_angle_alpha 90.000000
_cell_angle_beta 48.478504
_cell_angle_gamma 90.000000
_cell_volume 3217.849271
_symmetry_space_group_name_H-M "C 2/C"
_symmetry_group_IT_number 15
_symmetry_cell_setting 'monoclinic'
loop_
_space_group_symop_operation_xyz
x,y,z
-x,y,1/2-z
-x,-y,-z
x,-y,1/2+z
1/2+x,1/2+y,z
1/2-x,1/2+y,1/2-z
1/2-x,1/2-y,-z
1/2+x,1/2-y,1/2+z
loop_
_atom_site_type_symbol
_atom_site_label
_atom_site_fract_x
_atom_site_fract_y
_atom_site_fract_z
Si Si1 0.221795 0.902200 0.961373
Si Si2 0.844769 0.403977 0.688474
Si Si3 0.999699 0.981022 0.396203
Si Si4 0.668979 0.319736 0.749301
Si Si5 0.353959 0.313520 0.519755
Si Si6 0.213019 0.511748 0.374592
Si Si7 0.509546 0.239864 0.353067
O O1 0.258244 0.907214 0.832675
O O2 0.427100 0.907315 0.919119
O O3 0.134618 0.858451 0.030580
O O4 0.068373 0.934305 0.068763
O O5 0.776509 0.361452 0.672569
O O6 0.765610 0.441128 0.662128
O O7 0.205730 0.984302 0.250770
O O8 0.000000 0.000000 0.500000
O O9 0.845381 0.006944 0.407249
O O10 0.500000 0.312028 0.750000
O O11 0.805302 0.280821 0.685256
O O12 0.603851 0.321044 0.887750
O O13 0.504841 0.280506 0.418297
O O14 0.152360 0.294825 0.575058
O O15 0.000000 0.500000 0.500000
O O16 0.500000 0.256706 0.250000
#
# Coordination Sequence:
#
# PCOD8132009 Si02
#       7
#     8   8   8   8   8   8   8
#     4  10  18  35  59  81 105 149 190 235 277 340
#     4  10  19  34  56  81 112 143 187 233 290 331
#     4  11  23  37  57  85 113 148 196 232 286 340
#     4  10  20  31  54  84 109 142 182 229 279 342
#     4   9  18  33  56  78 108 140 185 228 272 332
#     4  11  23  37  55  82 114 151 185 239 285 339
#     4   9  17  34  52  80 108 141 181 223 277 334
#
# _framework density 17.402929
#
# number of rings (size 3 to 8) (size 9 to 14) (size 15 to 20)
#    0.000    2.000    4.286    0.000    2.000    1.143 
#    2.571    0.000    0.000    0.000    0.000    0.000 
#    0.000    0.000    0.000    0.000    0.000    0.000 
#
# Total GULP energy -346888.159733 kJ/mol
# GULP energy per Si atom -12388.862848 kJ/mol
# Density = 1.736332 g / cm^3
# Si number density = 17.402929 Si / 1000 Ang^3
#
#
#
# Elastic Constant Matrix: (Units=GPa)
#
#
# Indices 1 2 3 4 5 6 
#
# 1 96.5970 63.4199 39.3952 0.0000 -0.4870 0.0000
# 2 63.4199 121.9831 52.4288 0.0000 9.1827 0.0000
# 3 39.3952 52.4288 96.1104 0.0000 -9.5108 0.0000
# 4 0.0000 0.0000 0.0000 30.2679 0.0000 -5.8468
# 5 -0.4870 9.1827 -9.5108 0.0000 20.0481 0.0000
# 6 0.0000 0.0000 0.0000 -5.8468 0.0000 36.7138
#
#
#
# Elastic Compliance Matrix: (Units=1/GPa)
#
#
# Indices 1 2 3 4 5 6 
#
# 1 0.016373 -0.007805 -0.002162 0.000000 0.002947 0.000000
# 2 -0.007805 0.015831 -0.006477 0.000000 -0.010514 0.000000
# 3 -0.002162 -0.006477 0.015857 0.000000 0.010437 0.000000
# 4 0.000000 0.000000 0.000000 0.034087 0.000000 0.005428
# 5 0.002947 -0.010514 0.010437 0.000000 0.059718 0.000000
# 6 0.000000 0.000000 0.000000 0.005428 0.000000 0.028102
#
#
# Mechanical properties :
#
#
# Convention : Reuss Voigt Hill
#
# Bulk Modulus (GPa) = 65.90654 69.46424 67.68539
# Shear Modulus (GPa) = 24.04831 28.03573 26.04202
#
# Velocity S-wave (km/s) = 3.72136 4.01805 3.87255
# Velocity P-wave (km/s) = 7.51118 7.84399 7.67939
#
# Compressibility (1/GPa) = 0.01517300
#
# Stress axis : x y z
#
# Youngs Moduli (GPa) = 61.07490 63.16644 63.06413
#
# Poissons Ratio (x) = 0.49303 0.13634
# Poissons Ratio (y) = 0.47671 0.40847
# Poissons Ratio (z) = 0.13204 0.40913
#
# Static dielectric constant tensor:
#      x y z
#    x 3.155600 0.000000 -0.180860 
#    y 0.000000 3.463630 0.000000 
#    z -0.180860 0.000000 3.705050 
# 
# 
# High freq. dielectric constant tensor:
#      x y z
#    x 1.664650 0.000000 0.002030 
#    y 0.000000 1.686600 0.000000 
#    z 0.002030 0.000000 1.653440 
# 
# From -- ./inp_files/139475.got.cif
#   From: 2010.06.25/outbox.cif.g09.slc.cpg/sg15_70_cif.got.tgz:139475.got - 2010.06.28 07:06:18.
