data_PCOD8132413
_publ_section_title
;
Structure prediction by ZEFSAII (Michael W. Deem and Ramdas Pophale) SiO2 
 PCOD8132413
Probable space group: C 2/C
;
_chemical_formula_sum "Si O2"
_cell_formula_units_Z 56
_cell_length_a 8.948169
_cell_length_b 22.433473
_cell_length_c 15.849990
_cell_angle_alpha 90.000000
_cell_angle_beta 63.159446
_cell_angle_gamma 90.000000
_cell_volume 2838.927186
_symmetry_space_group_name_H-M "C 2/C"
_symmetry_group_IT_number 15
_symmetry_cell_setting 'monoclinic'
loop_
_space_group_symop_operation_xyz
x,y,z
-x,y,1/2-z
-x,-y,-z
x,-y,1/2+z
1/2+x,1/2+y,z
1/2-x,1/2+y,1/2-z
1/2-x,1/2-y,-z
1/2+x,1/2-y,1/2+z
loop_
_atom_site_type_symbol
_atom_site_label
_atom_site_fract_x
_atom_site_fract_y
_atom_site_fract_z
Si Si1 0.422024 0.231040 0.915212
Si Si2 0.408529 0.466619 0.597996
Si Si3 0.500000 0.471738 0.250000
Si Si4 0.457200 0.938781 0.848799
Si Si5 0.500000 0.145492 0.750000
Si Si6 0.554887 0.358478 0.641405
Si Si7 0.547159 0.130162 0.479998
Si Si8 0.359336 0.942148 0.160157
O O1 0.397373 0.186869 0.841678
O O2 0.511405 0.291358 0.861497
O O3 0.250000 0.250000 0.000000
O O4 0.519588 0.192993 0.963139
O O5 0.500000 0.500000 0.500000
O O6 0.440606 0.492663 0.682691
O O7 0.218967 0.471514 0.615214
O O8 0.466728 0.398194 0.592074
O O9 0.665756 0.435345 0.178948
O O10 0.500000 0.906782 0.750000
O O11 0.458712 0.884405 0.914371
O O12 0.598194 0.988920 0.831343
O O13 0.631254 0.101721 0.761927
O O14 0.500000 0.376125 0.750000
O O15 0.753430 0.367587 0.582037
O O16 0.492958 0.076672 0.555376
#
# Coordination Sequence:
#
# PCOD8132413 Si02
#       8
#     8   8   4   8   4   8   8   8
#     4   9  20  36  62  91 118 157 213 258 302 367
#     4  12  24  37  60  92 126 163 207 256 309 374
#     4  12  22  39  56  90 124 167 214 252 314 382
#     4  12  21  38  56  88 123 165 200 249 314 371
#     4  10  18  37  60  88 120 157 200 256 314 360
#     4  11  20  39  65  94 123 164 213 259 300 368
#     4  10  22  38  60  89 123 162 204 258 316 365
#     4  11  21  37  60  86 127 162 204 255 310 374
#
# _framework density 19.725762
#
# number of rings (size 3 to 8) (size 9 to 14) (size 15 to 20)
#    0.000    1.143    3.571    3.857    0.000    2.286 
#    0.000    0.714    0.000    5.143    1.857    0.000 
#    0.000    0.000    0.000    0.000    0.000    0.000 
#
# Total GULP energy -346930.736035 kJ/mol
# GULP energy per Si atom -12390.383430 kJ/mol
# Density = 1.968087 g / cm^3
# Si number density = 19.725762 Si / 1000 Ang^3
#
#
#
# Elastic Constant Matrix: (Units=GPa)
#
#
# Indices 1 2 3 4 5 6 
#
# 1 111.1069 41.5949 47.2215 0.0000 -2.8832 0.0000
# 2 41.5949 106.9961 48.1672 0.0000 21.0631 0.0000
# 3 47.2215 48.1672 129.4228 0.0000 14.9840 0.0000
# 4 0.0000 0.0000 0.0000 33.8912 0.0000 8.4199
# 5 -2.8832 21.0631 14.9840 0.0000 36.0949 0.0000
# 6 0.0000 0.0000 0.0000 8.4199 0.0000 25.4485
#
#
#
# Elastic Compliance Matrix: (Units=1/GPa)
#
#
# Indices 1 2 3 4 5 6 
#
# 1 0.012129 -0.004105 -0.003453 0.000000 0.004798 0.000000
# 2 -0.004105 0.013571 -0.002729 0.000000 -0.007114 0.000000
# 3 -0.003453 -0.002729 0.010347 0.000000 -0.002979 0.000000
# 4 0.000000 0.000000 0.000000 0.032149 0.000000 -0.010637
# 5 0.004798 -0.007114 -0.002979 0.000000 0.033476 0.000000
# 6 0.000000 0.000000 0.000000 -0.010637 0.000000 0.042814
#
#
# Mechanical properties :
#
#
# Convention : Reuss Voigt Hill
#
# Bulk Modulus (GPa) = 64.63169 69.05479 66.84324
# Shear Modulus (GPa) = 29.37378 33.12306 31.24842
#
# Velocity S-wave (km/s) = 3.86308 4.10222 3.98445
# Velocity P-wave (km/s) = 7.26183 7.58426 7.42480
#
# Compressibility (1/GPa) = 0.01547229
#
# Stress axis : x y z
#
# Youngs Moduli (GPa) = 82.44445 73.68516 96.64505
#
# Poissons Ratio (x) = 0.30250 0.33373
# Poissons Ratio (y) = 0.33846 0.26377
# Poissons Ratio (z) = 0.28470 0.20111
#
# Static dielectric constant tensor:
#      x y z
#    x 3.639320 0.000000 0.027330 
#    y 0.000000 3.987020 0.000000 
#    z 0.027330 0.000000 4.010250 
# 
# 
# High freq. dielectric constant tensor:
#      x y z
#    x 1.743270 0.000000 0.002380 
#    y 0.000000 1.762370 0.000000 
#    z 0.002380 0.000000 1.796150 
# 
# From -- ./inp_files/137767.got.cif
#   From: 2010.06.25/outbox.cif.g09.slc.cpg/sg15_69_cif.got.tgz:137767.got - 2010.06.28 07:06:18.
