data_PCOD8132563
_publ_section_title
;
Structure prediction by ZEFSAII (Michael W. Deem and Ramdas Pophale) SiO2 
 PCOD8132563
Probable space group: C 2/C
;
_chemical_formula_sum "Si O2"
_cell_formula_units_Z 40
_cell_length_a 12.660906
_cell_length_b 20.776078
_cell_length_c 5.197380
_cell_angle_alpha 90.000000
_cell_angle_beta 87.581566
_cell_angle_gamma 90.000000
_cell_volume 1365.921768
_symmetry_space_group_name_H-M "C 2/C"
_symmetry_group_IT_number 15
_symmetry_cell_setting 'monoclinic'
loop_
_space_group_symop_operation_xyz
x,y,z
-x,y,1/2-z
-x,-y,-z
x,-y,1/2+z
1/2+x,1/2+y,z
1/2-x,1/2+y,1/2-z
1/2-x,1/2-y,-z
1/2+x,1/2-y,1/2+z
loop_
_atom_site_type_symbol
_atom_site_label
_atom_site_fract_x
_atom_site_fract_y
_atom_site_fract_z
Si Si1 0.875039 0.655625 0.975931
Si Si2 0.500000 0.050870 0.250000
Si Si3 0.000000 0.764095 0.750000
Si Si4 0.689051 0.058865 0.910522
Si Si5 0.112405 0.968280 0.389902
Si Si6 0.831501 0.861200 0.764061
O O1 0.910342 0.598627 0.157684
O O2 0.761325 0.678725 0.089281
O O3 0.866747 0.623895 0.691482
O O4 0.950350 0.717760 0.971996
O O5 0.416406 0.015601 0.471533
O O6 0.090424 0.808795 0.871068
O O7 0.756251 0.021088 0.673021
O O8 0.787071 0.084570 0.076802
O O9 0.101113 0.898471 0.517755
O O10 0.065721 0.021962 0.603537
#
# Coordination Sequence:
#
# PCOD8132563 Si02
#       6
#     8   4   4   8   8   8
#     4  10  21  40  62  96 142 186 218 278 342 402
#     4  10  18  38  62  95 141 180 222 276 336 408
#     4  12  22  44  64 103 139 188 228 274 340 416
#     4  10  20  40  68  97 133 184 225 284 337 412
#     4  11  22  45  73  97 133 183 227 293 357 395
#     4  10  24  41  68 101 140 175 236 280 339 413
#
# _framework density 29.284253
#
# number of rings (size 3 to 8) (size 9 to 14) (size 15 to 20)
#    0.000    1.600    4.000    0.600    0.000    0.800 
#    7.200    2.000    0.000    0.000    0.000    0.000 
#    0.000    0.000    0.000    0.000    0.000    0.000 
#
# Total GULP energy -247771.454848 kJ/mol
# GULP energy per Si atom -12388.572742 kJ/mol
# Density = 2.921760 g / cm^3
# Si number density = 29.284253 Si / 1000 Ang^3
#
#
#
# Elastic Constant Matrix: (Units=GPa)
#
#
# Indices 1 2 3 4 5 6 
#
# 1 157.5889 70.5004 54.5716 0.0000 -17.3729 0.0000
# 2 70.5004 148.2962 35.2792 0.0000 -27.3429 0.0000
# 3 54.5716 35.2792 134.5620 0.0000 -31.0783 0.0000
# 4 0.0000 0.0000 0.0000 6.4223 0.0000 -28.9932
# 5 -17.3729 -27.3429 -31.0783 0.0000 57.5806 0.0000
# 6 0.0000 0.0000 0.0000 -28.9932 0.0000 56.8396
#
#
#
# Elastic Compliance Matrix: (Units=1/GPa)
#
#
# Indices 1 2 3 4 5 6 
#
# 1 0.008884 -0.003667 -0.002770 0.000000 -0.000556 0.000000
# 2 -0.003667 0.009105 -0.000179 0.000000 0.003120 0.000000
# 3 -0.002770 -0.000179 0.009584 0.000000 0.004252 0.000000
# 4 0.000000 0.000000 0.000000 -0.119520 0.000000 -0.060966
# 5 -0.000556 0.003120 0.004252 0.000000 0.020976 0.000000
# 6 0.000000 0.000000 0.000000 -0.060966 0.000000 -0.013505
#
#
# Mechanical properties :
#
#
# Convention : Reuss Voigt Hill
#
# Bulk Modulus (GPa) = 69.73414 84.57217 77.15316
# Shear Modulus (GPa) = -75.22856 42.84157 -16.19349
#
# Velocity S-wave (km/s) = -5.07394 3.82901 -2.35410
# Velocity P-wave (km/s) = 3.23449 6.96354 4.36056
#
# Compressibility (1/GPa) = 0.01434018
#
# Stress axis : x y z
#
# Youngs Moduli (GPa) = 112.56123 109.83549 104.34223
#
# Poissons Ratio (x) = 0.40277 0.28902
# Poissons Ratio (y) = 0.41277 0.01870
# Poissons Ratio (z) = 0.31178 0.01968
#
# Static dielectric constant tensor:
#      x y z
#    x 6.378540 0.000000 -0.303470 
#    y 0.000000 4.924250 0.000000 
#    z -0.303470 0.000000 5.795900 
# 
# 
# High freq. dielectric constant tensor:
#      x y z
#    x 2.262360 0.000000 -0.028120 
#    y 0.000000 2.168890 0.000000 
#    z -0.028120 0.000000 2.192820 
# 
# From -- ./inp_files/7312.got.cif
#   From: 2010.06.25/outbox.cif.g09.slc.cpg/sg15_4_cif.got.tgz:7312.got - 2010.06.28 07:06:18.
