data_PCOD8132962
_publ_section_title
;
Structure prediction by ZEFSAII (Michael W. Deem and Ramdas Pophale) SiO2 
 PCOD8132962
Probable space group: C 2/C
;
_chemical_formula_sum "Si O2"
_cell_formula_units_Z 56
_cell_length_a 21.381897
_cell_length_b 17.643291
_cell_length_c 24.668374
_cell_angle_alpha 90.000000
_cell_angle_beta 20.208726
_cell_angle_gamma 90.000000
_cell_volume 3214.699584
_symmetry_space_group_name_H-M "C 2/C"
_symmetry_group_IT_number 15
_symmetry_cell_setting 'monoclinic'
loop_
_space_group_symop_operation_xyz
x,y,z
-x,y,1/2-z
-x,-y,-z
x,-y,1/2+z
1/2+x,1/2+y,z
1/2-x,1/2+y,1/2-z
1/2-x,1/2-y,-z
1/2+x,1/2-y,1/2+z
loop_
_atom_site_type_symbol
_atom_site_label
_atom_site_fract_x
_atom_site_fract_y
_atom_site_fract_z
Si Si1 0.510376 0.671391 0.451470
Si Si2 0.964727 0.479230 0.466771
Si Si3 0.932765 0.123092 0.972577
Si Si4 0.195473 0.741813 0.104386
Si Si5 0.331280 0.522796 0.600154
Si Si6 0.880467 0.329453 0.584505
Si Si7 0.217382 0.627698 0.883161
O O1 0.561322 0.656314 0.472100
O O2 0.370244 0.606564 0.544641
O O3 0.689853 0.670799 0.269731
O O4 0.409538 0.751527 0.528422
O O5 0.880339 0.394896 0.538223
O O6 0.828238 0.544004 0.554932
O O7 0.000000 0.500000 0.500000
O O8 0.146431 0.478997 0.283966
O O9 0.134201 0.119181 0.784717
O O10 0.810496 0.177232 0.037634
O O11 0.833649 0.040801 0.051218
O O12 0.209574 0.819269 0.127929
O O13 0.000000 0.711000 0.250000
O O14 0.250000 0.750000 0.000000
O O15 0.500000 0.500000 0.500000
O O16 0.037142 0.338030 0.502401
#
# Coordination Sequence:
#
# PCOD8132962 Si02
#       7
#     8   8   8   8   8   8   8
#     4  11  20  31  50  74 103 133 168 205 255 312
#     4  10  19  31  49  71  97 130 167 204 254 311
#     4  11  21  35  51  69  99 134 171 215 259 298
#     4  12  26  38  52  74 100 138 184 220 254 298
#     4  10  19  31  49  71  97 130 167 204 254 311
#     4  11  20  31  50  74 103 133 168 205 255 312
#     4  11  21  35  51  69  99 134 171 215 259 298
#
# _framework density 17.419979000000001
#
# number of rings (size 3 to 8) (size 9 to 14) (size 15 to 20)
#    0.000    1.143    2.857    9.429    4.000    0.000 
#    0.000    0.000    0.000    0.000    0.000    0.000 
#    0.000    2.286    0.000    0.143    0.000    0.143 
#
# Total GULP energy -346928.414673 kJ/mol
# GULP energy per Si atom -12390.300524 kJ/mol
# Density = 1.738033 g / cm^3
# Si number density = 17.419979 Si / 1000 Ang^3
#
#
#
# Elastic Constant Matrix: (Units=GPa)
#
#
# Indices 1 2 3 4 5 6 
#
# 1 35.8202 27.6522 20.4719 0.0096 7.0133 0.0132
# 2 27.6522 166.9776 60.2807 -0.0296 6.8880 0.0352
# 3 20.4719 60.2807 170.9372 -0.0739 21.5472 0.0200
# 4 0.0096 -0.0296 -0.0739 35.6141 -0.0003 1.1069
# 5 7.0133 6.8880 21.5472 -0.0003 24.3775 0.0561
# 6 0.0132 0.0352 0.0200 1.1069 0.0561 4.7274
#
#
#
# Elastic Compliance Matrix: (Units=1/GPa)
#
#
# Indices 1 2 3 4 5 6 
#
# 1 0.033835 -0.004779 -0.001474 -0.000017 -0.007081 0.000035
# 2 -0.004779 0.007539 -0.002241 0.000004 0.001225 -0.000049
# 3 -0.001474 -0.002241 0.007522 0.000012 -0.005591 0.000052
# 4 -0.000017 0.000004 0.000012 0.028285 0.000008 -0.006623
# 5 -0.007081 0.001225 -0.005591 0.000008 0.047656 -0.000534
# 6 0.000035 -0.000049 0.000052 -0.006623 -0.000534 0.213088
#
#
# Mechanical properties :
#
#
# Convention : Reuss Voigt Hill
#
# Bulk Modulus (GPa) = 31.34030 65.61607 48.47819
# Shear Modulus (GPa) = 13.67810 30.63249 22.15530
#
# Velocity S-wave (km/s) = 2.80518 4.19796 3.57015
# Velocity P-wave (km/s) = 5.34061 7.82599 6.69956
#
# Compressibility (1/GPa) = 0.03190780
#
# Stress axis : x y z
#
# Youngs Moduli (GPa) = 29.55485 132.65113 132.95039
#
# Poissons Ratio (x) = 0.63393 0.19602
# Poissons Ratio (y) = 0.14124 0.29789
# Poissons Ratio (z) = 0.04358 0.29722
#
# Static dielectric constant tensor:
#      x y z
#    x 2.852400 -0.000040 0.139990 
#    y -0.000040 4.498890 0.000730 
#    z 0.139990 0.000730 3.450070 
# 
# 
# High freq. dielectric constant tensor:
#      x y z
#    x 1.599440 0.000000 0.020750 
#    y 0.000000 1.698910 0.000050 
#    z 0.020750 0.000050 1.700130 
# 
# From -- ./inp_files/280400.got.cif
#   From: 2010.06.25/outbox.cif.g09.slc.cpg/sg15_141_cif.got.tgz:280400.got - 2010.06.28 07:06:18.
