data_PCOD8132339
_publ_section_title
;
Structure prediction by ZEFSAII (Michael W. Deem and Ramdas Pophale) SiO2 
 PCOD8132339
Probable space group: C 2/C
;
_chemical_formula_sum "Si O2"
_cell_formula_units_Z 48
_cell_length_a 10.287988
_cell_length_b 27.100691
_cell_length_c 9.575637
_cell_angle_alpha 90.000000
_cell_angle_beta 60.407730
_cell_angle_gamma 90.000000
_cell_volume 2321.554167
_symmetry_space_group_name_H-M "C 2/C"
_symmetry_group_IT_number 15
_symmetry_cell_setting 'monoclinic'
loop_
_space_group_symop_operation_xyz
x,y,z
-x,y,1/2-z
-x,-y,-z
x,-y,1/2+z
1/2+x,1/2+y,z
1/2-x,1/2+y,1/2-z
1/2-x,1/2-y,-z
1/2+x,1/2-y,1/2+z
loop_
_atom_site_type_symbol
_atom_site_label
_atom_site_fract_x
_atom_site_fract_y
_atom_site_fract_z
Si Si1 0.382112 0.053189 0.936464
Si Si2 0.615906 0.692787 0.812783
Si Si3 0.159145 0.694691 0.314791
Si Si4 0.667933 0.159217 0.018846
Si Si5 0.140864 0.863785 0.581757
Si Si6 0.098031 0.444610 0.564868
O O1 0.500000 0.056090 0.750000
O O2 0.319770 0.997391 0.000410
O O3 0.239843 0.088495 0.992067
O O4 0.478545 0.071024 0.013551
O O5 0.500000 0.681129 0.750000
O O6 0.612972 0.748968 0.865142
O O7 0.775227 0.681175 0.657576
O O8 0.586276 0.659166 0.963892
O O9 0.268452 0.677484 0.379652
O O10 0.011040 0.661787 0.392966
O O11 0.232961 0.688517 0.120245
O O12 0.714029 0.101182 0.011807
O O13 0.000000 0.880580 0.750000
O O14 0.000000 0.451655 0.750000
#
# Coordination Sequence:
#
# PCOD8132339 Si02
#       6
#     8   8   8   8   8   8
#     4  10  21  38  64  94 126 158 215 265 315 381
#     4  12  26  41  62  92 131 176 214 267 323 385
#     4  11  23  41  64  92 126 172 218 265 321 380
#     4  11  20  39  70  91 127 164 219 265 316 392
#     4  12  26  42  62  94 137 173 213 269 327 381
#     4  10  18  36  65  96 119 160 209 265 316 373
#
# _framework density 20.675802999999998
#
# number of rings (size 3 to 8) (size 9 to 14) (size 15 to 20)
#    0.000    1.000    5.000    3.000    2.333    0.000 
#    0.000    0.833    0.000   16.000    0.000    0.000 
#    0.000    0.000    0.000    0.000    0.000    0.000 
#
# Total GULP energy -297472.995870 kJ/mol
# GULP energy per Si atom -12394.708161 kJ/mol
# Density = 2.062874 g / cm^3
# Si number density = 20.675803 Si / 1000 Ang^3
#
#
#
# Elastic Constant Matrix: (Units=GPa)
#
#
# Indices 1 2 3 4 5 6 
#
# 1 85.2436 37.4815 31.4306 0.0000 13.1988 0.0000
# 2 37.4815 150.7692 30.0964 0.0000 -2.7626 0.0000
# 3 31.4306 30.0964 100.4027 0.0000 3.4255 0.0000
# 4 0.0000 0.0000 0.0000 22.2023 0.0000 5.5585
# 5 13.1988 -2.7626 3.4255 0.0000 32.2107 0.0000
# 6 0.0000 0.0000 0.0000 5.5585 0.0000 21.5488
#
#
#
# Elastic Compliance Matrix: (Units=1/GPa)
#
#
# Indices 1 2 3 4 5 6 
#
# 1 0.015464 -0.003228 -0.003661 0.000000 -0.006224 0.000000
# 2 -0.003228 0.007751 -0.001386 0.000000 0.002135 0.000000
# 3 -0.003661 -0.001386 0.011516 0.000000 0.000157 0.000000
# 4 0.000000 0.000000 0.000000 0.048150 0.000000 -0.012420
# 5 -0.006224 0.002135 0.000157 0.000000 0.033762 0.000000
# 6 0.000000 0.000000 0.000000 -0.012420 0.000000 0.049610
#
#
# Mechanical properties :
#
#
# Convention : Reuss Voigt Hill
#
# Bulk Modulus (GPa) = 55.00006 59.38139 57.19073
# Shear Modulus (GPa) = 26.47430 31.01949 28.74689
#
# Velocity S-wave (km/s) = 3.58222 3.87755 3.73280
# Velocity P-wave (km/s) = 6.61579 6.98783 6.80435
#
# Compressibility (1/GPa) = 0.01818180
#
# Stress axis : x y z
#
# Youngs Moduli (GPa) = 64.66707 129.01922 86.83555
#
# Poissons Ratio (x) = 0.41642 0.31791
# Poissons Ratio (y) = 0.20872 0.12034
# Poissons Ratio (z) = 0.23675 0.17880
#
# Static dielectric constant tensor:
#      x y z
#    x 3.515350 0.000000 0.179350 
#    y 0.000000 4.100030 0.000000 
#    z 0.179350 0.000000 3.946120 
# 
# 
# High freq. dielectric constant tensor:
#      x y z
#    x 1.780960 0.000000 0.019390 
#    y 0.000000 1.823050 0.000000 
#    z 0.019390 0.000000 1.818830 
# 
# From -- ./inp_files/33387.got.cif
#   From: 2010.06.25/outbox.cif.g09.slc.cpg/sg15_17_cif.got.tgz:33387.got - 2010.06.28 07:06:18.
