data_PCOD8132065
_publ_section_title
;
Structure prediction by ZEFSAII (Michael W. Deem and Ramdas Pophale) SiO2 
 PCOD8132065
Probable space group: C 2/C
;
_chemical_formula_sum "Si O2"
_cell_formula_units_Z 56
_cell_length_a 17.791055
_cell_length_b 8.696521
_cell_length_c 17.296473
_cell_angle_alpha 90.000000
_cell_angle_beta 74.294543
_cell_angle_gamma 90.000000
_cell_volume 2576.205038
_symmetry_space_group_name_H-M "C 2/C"
_symmetry_group_IT_number 15
_symmetry_cell_setting 'monoclinic'
loop_
_space_group_symop_operation_xyz
x,y,z
-x,y,1/2-z
-x,-y,-z
x,-y,1/2+z
1/2+x,1/2+y,z
1/2-x,1/2+y,1/2-z
1/2-x,1/2-y,-z
1/2+x,1/2-y,1/2+z
loop_
_atom_site_type_symbol
_atom_site_label
_atom_site_fract_x
_atom_site_fract_y
_atom_site_fract_z
Si Si1 0.170669 0.607925 0.108536
Si Si2 0.888521 0.378387 0.632823
Si Si3 0.768393 0.406613 0.538243
Si Si4 0.873374 0.620472 0.751491
Si Si5 0.882348 0.946795 0.813500
Si Si6 0.977108 0.795932 0.342154
Si Si7 0.788648 0.802451 0.269315
O O1 0.131755 0.467112 0.166124
O O2 0.098741 0.712708 0.101338
O O3 0.226711 0.714351 0.145528
O O4 0.224095 0.546199 0.024261
O O5 0.853573 0.404985 0.557122
O O6 0.922588 0.529519 0.670479
O O7 0.812635 0.323920 0.700618
O O8 0.954637 0.245009 0.615373
O O9 0.750000 0.250000 0.500000
O O10 0.695634 0.434119 0.613999
O O11 0.906732 0.789471 0.763166
O O12 0.788946 0.619342 0.736488
O O13 0.956178 0.019653 0.840712
O O14 0.860118 0.074912 0.755297
O O15 0.000000 0.731814 0.250000
#
# Coordination Sequence:
#
# PCOD8132065 Si02
#       7
#     8   8   8   8   8   8   8
#     4  10  22  37  63  86 133 165 205 263 331 379
#     4  11  22  40  66  91 131 170 213 266 325 377
#     4  12  23  40  65  97 130 167 214 273 321 381
#     4  11  18  37  64  99 114 163 226 267 302 373
#     4  11  21  36  66  96 127 159 217 270 320 371
#     4  11  22  43  61  89 129 175 205 264 328 383
#     4  10  18  35  62  93 122 158 220 268 313 364
#
# _framework density 21.737399
#
# number of rings (size 3 to 8) (size 9 to 14) (size 15 to 20)
#    0.000    1.143    8.571    0.857    0.000    2.857 
#    2.571    0.714    0.000    0.000    0.000    0.000 
#    0.000    0.000    0.000    0.000    0.000    0.000 
#
# Total GULP energy -346905.501537 kJ/mol
# GULP energy per Si atom -12389.482198 kJ/mol
# Density = 2.168792 g / cm^3
# Si number density = 21.737399 Si / 1000 Ang^3
#
#
#
# Elastic Constant Matrix: (Units=GPa)
#
#
# Indices 1 2 3 4 5 6 
#
# 1 84.1890 27.7997 8.7809 0.0000 13.6234 0.0000
# 2 27.7997 133.6985 18.0680 0.0000 13.1286 0.0000
# 3 8.7809 18.0680 48.1096 0.0000 9.5265 0.0000
# 4 0.0000 0.0000 0.0000 18.7747 0.0000 -2.0025
# 5 13.6234 13.1286 9.5265 0.0000 25.0236 0.0000
# 6 0.0000 0.0000 0.0000 -2.0025 0.0000 37.5256
#
#
#
# Elastic Compliance Matrix: (Units=1/GPa)
#
#
# Indices 1 2 3 4 5 6 
#
# 1 0.013632 -0.002172 -0.000463 0.000000 -0.006105 0.000000
# 2 -0.002172 0.008478 -0.002316 0.000000 -0.002384 0.000000
# 3 -0.000463 -0.002316 0.023198 0.000000 -0.007365 0.000000
# 4 0.000000 0.000000 0.000000 0.053568 0.000000 0.002859
# 5 -0.006105 -0.002384 -0.007365 0.000000 0.047341 0.000000
# 6 0.000000 0.000000 0.000000 0.002859 0.000000 0.026801
#
#
# Mechanical properties :
#
#
# Convention : Reuss Voigt Hill
#
# Bulk Modulus (GPa) = 28.24374 41.69937 34.97155
# Shear Modulus (GPa) = 25.67762 30.35468 28.01615
#
# Velocity S-wave (km/s) = 3.44068 3.74093 3.59394
# Velocity P-wave (km/s) = 5.36710 6.15502 5.77452
#
# Compressibility (1/GPa) = 0.03540607
#
# Stress axis : x y z
#
# Youngs Moduli (GPa) = 73.35891 117.94949 43.10644
#
# Poissons Ratio (x) = 0.25622 0.01997
# Poissons Ratio (y) = 0.15936 0.09981
# Poissons Ratio (z) = 0.03398 0.27312
#
# Static dielectric constant tensor:
#      x y z
#    x 3.841500 0.000000 0.103350 
#    y 0.000000 4.526480 0.000000 
#    z 0.103350 0.000000 3.750480 
# 
# 
# High freq. dielectric constant tensor:
#      x y z
#    x 1.844800 0.000000 0.006410 
#    y 0.000000 1.870920 0.000000 
#    z 0.006410 0.000000 1.814070 
# 
# From -- ./inp_files/209531.got.cif
#   From: 2010.06.25/outbox.cif.g09.slc.cpg/sg15_105_cif.got.tgz:209531.got - 2010.06.28 07:06:18.
