data_PCOD8132582
_publ_section_title
;
Structure prediction by ZEFSAII (Michael W. Deem and Ramdas Pophale) SiO2 
 PCOD8132582
Probable space group: C 2/C
;
_chemical_formula_sum "Si O2"
_cell_formula_units_Z 52
_cell_length_a 15.706755
_cell_length_b 14.741492
_cell_length_c 16.719832
_cell_angle_alpha 90.000000
_cell_angle_beta 39.734277
_cell_angle_gamma 90.000000
_cell_volume 2474.660383
_symmetry_space_group_name_H-M "C 2/C"
_symmetry_group_IT_number 15
_symmetry_cell_setting 'monoclinic'
loop_
_space_group_symop_operation_xyz
x,y,z
-x,y,1/2-z
-x,-y,-z
x,-y,1/2+z
1/2+x,1/2+y,z
1/2-x,1/2+y,1/2-z
1/2-x,1/2-y,-z
1/2+x,1/2-y,1/2+z
loop_
_atom_site_type_symbol
_atom_site_label
_atom_site_fract_x
_atom_site_fract_y
_atom_site_fract_z
Si Si1 0.813602 0.029508 0.444170
Si Si2 0.151663 0.506141 0.914989
Si Si3 0.576618 0.414154 0.478324
Si Si4 0.691369 0.657416 0.269074
Si Si5 0.190633 0.820677 0.241935
Si Si6 0.356333 0.282086 0.858145
Si Si7 0.500000 0.622249 0.750000
O O1 0.675427 0.017236 0.492773
O O2 0.804317 0.053609 0.546199
O O3 0.890312 0.112573 0.347910
O O4 0.899985 0.939362 0.373252
O O5 0.235257 0.439028 0.796306
O O6 0.196698 0.608918 0.867264
O O7 0.000000 0.500000 0.000000
O O8 0.500000 0.500000 0.500000
O O9 0.466534 0.355830 0.605631
O O10 0.634916 0.352805 0.366980
O O11 0.753029 0.717701 0.296216
O O12 0.713371 0.724509 0.177559
O O13 0.075121 0.814889 0.259131
O O14 0.500000 0.229762 0.750000
O O15 0.250000 0.250000 0.000000
#
# Coordination Sequence:
#
# PCOD8132582 Si02
#       7
#     8   8   8   8   8   8   4
#     4  10  18  38  64  88 122 167 213 269 316 391
#     4  10  23  42  62  90 132 170 204 267 343 386
#     4  12  20  40  68  97 123 166 231 267 317 397
#     4  11  24  39  63  95 130 164 216 273 322 390
#     4  11  24  39  67  93 125 171 218 271 333 387
#     4  11  21  36  61  94 132 168 207 268 340 394
#     4  10  18  40  62  90 118 170 226 258 316 392
#
# _framework density 21.012985
#
# number of rings (size 3 to 8) (size 9 to 14) (size 15 to 20)
#    0.000    1.231    5.385    1.846    2.154    1.231 
#    0.000    3.077    0.000    0.000    0.000    0.000 
#    0.000    0.000    0.000    0.000    0.000    0.000 
#
# Total GULP energy -322108.671494 kJ/mol
# GULP energy per Si atom -12388.795057 kJ/mol
# Density = 2.096516 g / cm^3
# Si number density = 21.012985 Si / 1000 Ang^3
#
#
#
# Elastic Constant Matrix: (Units=GPa)
#
#
# Indices 1 2 3 4 5 6 
#
# 1 168.6278 30.3750 38.7196 0.0000 -4.7026 0.0000
# 2 30.3750 67.1468 -1.4999 0.0000 -1.3583 0.0000
# 3 38.7196 -1.4999 87.4736 0.0001 -5.2920 0.0000
# 4 0.0000 0.0000 0.0001 16.4444 0.0000 -0.2385
# 5 -4.7026 -1.3583 -5.2920 0.0000 34.6554 0.0000
# 6 0.0000 0.0000 0.0000 -0.2385 0.0000 36.9900
#
#
#
# Elastic Compliance Matrix: (Units=1/GPa)
#
#
# Indices 1 2 3 4 5 6 
#
# 1 0.007296 -0.003366 -0.003266 0.000000 0.000359 0.000000
# 2 -0.003366 0.016465 0.001800 0.000000 0.000463 0.000000
# 3 -0.003266 0.001800 0.013006 0.000000 0.001613 0.000000
# 4 0.000000 0.000000 0.000000 0.060816 0.000000 0.000392
# 5 0.000359 0.000463 0.001613 0.000000 0.029169 0.000000
# 6 0.000000 0.000000 0.000000 0.000392 0.000000 0.027037
#
#
# Mechanical properties :
#
#
# Convention : Reuss Voigt Hill
#
# Bulk Modulus (GPa) = 36.89428 50.93751 43.91590
# Shear Modulus (GPa) = 28.98752 34.66153 31.82453
#
# Velocity S-wave (km/s) = 3.71820 4.06585 3.89590
# Velocity P-wave (km/s) = 6.00244 6.80699 6.41733
#
# Compressibility (1/GPa) = 0.02710447
#
# Stress axis : x y z
#
# Youngs Moduli (GPa) = 137.05220 60.73425 76.88726
#
# Poissons Ratio (x) = 0.20445 0.25109
# Poissons Ratio (y) = 0.46137 -0.13843
# Poissons Ratio (z) = 0.44757 -0.10935
#
# Static dielectric constant tensor:
#      x y z
#    x 4.313710 0.000000 0.072990 
#    y 0.000000 3.756700 0.000000 
#    z 0.072990 0.000000 3.535910 
# 
# 
# High freq. dielectric constant tensor:
#      x y z
#    x 1.843230 0.000000 0.004440 
#    y 0.000000 1.809920 0.000000 
#    z 0.004440 0.000000 1.793660 
# 
# From -- ./inp_files/96929.got.cif
#   From: 2010.06.25/outbox.cif.g09.slc.cpg/sg15_49_cif.got.tgz:96929.got - 2010.06.28 07:06:18.
