data_PCOD8132742
_publ_section_title
;
Structure prediction by ZEFSAII (Michael W. Deem and Ramdas Pophale) SiO2 
 PCOD8132742
Probable space group: C 2/C
;
_chemical_formula_sum "Si O2"
_cell_formula_units_Z 44
_cell_length_a 8.603132
_cell_length_b 19.653086
_cell_length_c 13.424455
_cell_angle_alpha 90.000000
_cell_angle_beta 66.698065
_cell_angle_gamma 90.000000
_cell_volume 2084.642055
_symmetry_space_group_name_H-M "C 2/C"
_symmetry_group_IT_number 15
_symmetry_cell_setting 'monoclinic'
loop_
_space_group_symop_operation_xyz
x,y,z
-x,y,1/2-z
-x,-y,-z
x,-y,1/2+z
1/2+x,1/2+y,z
1/2-x,1/2+y,1/2-z
1/2-x,1/2-y,-z
1/2+x,1/2-y,1/2+z
loop_
_atom_site_type_symbol
_atom_site_label
_atom_site_fract_x
_atom_site_fract_y
_atom_site_fract_z
Si Si1 0.500000 0.107080 0.750000
Si Si2 0.984575 0.880575 0.369364
Si Si3 0.281829 0.499462 0.205914
Si Si4 0.199140 0.567256 0.416780
Si Si5 0.738917 0.677251 0.952537
Si Si6 0.166324 0.433974 0.544608
O O1 0.416045 0.155173 0.855622
O O2 0.361493 0.057733 0.734813
O O3 0.789257 0.883125 0.452725
O O4 0.000000 0.858676 0.250000
O O5 0.087599 0.826191 0.409933
O O6 0.053284 0.957591 0.370645
O O7 0.318728 0.536898 0.300572
O O8 0.228216 0.558342 0.142725
O O9 0.301525 0.626669 0.445840
O O10 0.159352 0.511276 0.509503
O O11 0.023278 0.595947 0.413973
O O12 0.750000 0.750000 0.000000
#
# Coordination Sequence:
#
# PCOD8132742 Si02
#       6
#     4   8   8   8   8   8
#     4  10  18  40  68  82 118 166 206 250 320 376
#     4  11  23  38  64  95 129 159 208 263 325 371
#     4  11  19  35  63  99 126 156 199 267 330 370
#     4  11  20  36  65  90 127 162 206 255 321 375
#     4  11  26  45  61  88 129 174 218 249 303 382
#     4  11  20  35  61 102 126 153 204 272 322 369
#
# _framework density 21.106742000000001
#
# number of rings (size 3 to 8) (size 9 to 14) (size 15 to 20)
#    0.000    1.091    7.273    1.636    2.545    0.000 
#    3.273    2.727    0.000    0.000    0.000    0.000 
#    0.000    0.000    0.000    0.000    0.000    0.000 
#
# Total GULP energy -272805.980500 kJ/mol
# GULP energy per Si atom -12400.271841 kJ/mol
# Density = 2.105870 g / cm^3
# Si number density = 21.106742 Si / 1000 Ang^3
#
#
#
# Elastic Constant Matrix: (Units=GPa)
#
#
# Indices 1 2 3 4 5 6 
#
# 1 70.6588 14.1435 16.1493 0.0000 6.9150 0.0000
# 2 14.1435 80.8992 45.8478 0.0000 12.9206 0.0000
# 3 16.1493 45.8478 97.5847 0.0000 15.9557 0.0000
# 4 0.0000 0.0000 0.0000 34.0214 0.0000 7.5143
# 5 6.9150 12.9206 15.9557 0.0000 44.6222 0.0000
# 6 0.0000 0.0000 0.0000 7.5143 0.0000 16.6016
#
#
#
# Elastic Compliance Matrix: (Units=1/GPa)
#
#
# Indices 1 2 3 4 5 6 
#
# 1 0.014939 -0.001529 -0.001538 0.000000 -0.001323 0.000000
# 2 -0.001529 0.017204 -0.007492 0.000000 -0.002066 0.000000
# 3 -0.001538 -0.007492 0.014475 0.000000 -0.002768 0.000000
# 4 0.000000 0.000000 0.000000 0.032658 0.000000 -0.014782
# 5 -0.001323 -0.002066 -0.002768 0.000000 0.024203 0.000000
# 6 0.000000 0.000000 0.000000 -0.014782 0.000000 0.066926
#
#
# Mechanical properties :
#
#
# Convention : Reuss Voigt Hill
#
# Bulk Modulus (GPa) = 39.21525 44.60264 41.90894
# Shear Modulus (GPa) = 24.99701 30.58250 27.78976
#
# Velocity S-wave (km/s) = 3.44512 3.81063 3.63248
# Velocity P-wave (km/s) = 5.86898 6.36703 6.12307
#
# Compressibility (1/GPa) = 0.02550029
#
# Stress axis : x y z
#
# Youngs Moduli (GPa) = 66.93678 58.12474 69.08645
#
# Poissons Ratio (x) = 0.08888 0.10623
# Poissons Ratio (y) = 0.10236 0.51761
# Poissons Ratio (z) = 0.10292 0.43549
#
# Static dielectric constant tensor:
#      x y z
#    x 4.208380 0.000000 0.124470 
#    y 0.000000 3.206800 0.000000 
#    z 0.124470 0.000000 3.880820 
# 
# 
# High freq. dielectric constant tensor:
#      x y z
#    x 1.837960 0.000000 0.010740 
#    y 0.000000 1.757070 0.000000 
#    z 0.010740 0.000000 1.839510 
# 
# From -- ./inp_files/134374.got.cif
#   From: 2010.06.25/outbox.cif.g09.slc.cpg/sg15_68_cif.got.tgz:134374.got - 2010.06.28 07:06:18.
