data_PCOD8132807
_publ_section_title
;
Structure prediction by ZEFSAII (Michael W. Deem and Ramdas Pophale) SiO2 
 PCOD8132807
Probable space group: C 2/C
;
_chemical_formula_sum "Si O2"
_cell_formula_units_Z 48
_cell_length_a 9.813524
_cell_length_b 17.095377
_cell_length_c 14.746307
_cell_angle_alpha 90.000000
_cell_angle_beta 89.918548
_cell_angle_gamma 90.000000
_cell_volume 2473.924855
_symmetry_space_group_name_H-M "C 2/C"
_symmetry_group_IT_number 15
_symmetry_cell_setting 'monoclinic'
loop_
_space_group_symop_operation_xyz
x,y,z
-x,y,1/2-z
-x,-y,-z
x,-y,1/2+z
1/2+x,1/2+y,z
1/2-x,1/2+y,1/2-z
1/2-x,1/2-y,-z
1/2+x,1/2-y,1/2+z
loop_
_atom_site_type_symbol
_atom_site_label
_atom_site_fract_x
_atom_site_fract_y
_atom_site_fract_z
Si Si1 0.500000 0.076767 0.250000
Si Si2 0.423821 0.676745 0.844967
Si Si3 0.500000 0.402156 0.750000
Si Si4 0.400502 0.045760 0.064786
Si Si5 0.853483 0.720623 0.073697
Si Si6 0.262506 0.808931 0.770638
Si Si7 0.602456 0.506396 0.583257
O O1 0.438225 0.024159 0.169387
O O2 0.615917 0.131283 0.205462
O O3 0.500000 0.664428 0.750000
O O4 0.525556 0.717113 0.916140
O O5 0.289315 0.730741 0.829897
O O6 0.376966 0.595149 0.885696
O O7 0.617242 0.347362 0.793072
O O8 0.556264 0.455194 0.668921
O O9 0.418818 0.137755 0.045895
O O10 0.245810 0.022889 0.044957
O O11 0.500000 0.000000 0.000000
O O12 0.765812 0.711034 0.164696
O O13 0.750000 0.750000 0.000000
O O14 0.500000 0.500000 0.500000
#
# Coordination Sequence:
#
# PCOD8132807 Si02
#       7
#     4   8   4   8   8   8   8
#     4  10  18  43  67  86 122 170 212 252 322 383
#     4  10  20  40  66  90 126 168 209 256 318 381
#     4  12  24  43  67  94 134 164 218 272 318 391
#     4  11  24  43  64  92 125 169 213 257 322 383
#     4  10  19  39  64  91 123 162 209 256 312 381
#     4  10  20  41  67  87 122 178 208 251 329 378
#     4  12  26  41  64 101 130 168 213 269 329 380
#
# _framework density 19.402367000000002
#
# number of rings (size 3 to 8) (size 9 to 14) (size 15 to 20)
#    0.000    1.333    8.333    1.000    2.333    0.000 
#    9.000    1.667    0.000    0.000    0.000    0.000 
#    0.000    0.000    0.000    0.000    0.000    0.000 
#
# Total GULP energy -297621.237727 kJ/mol
# GULP energy per Si atom -12400.884905 kJ/mol
# Density = 1.935821 g / cm^3
# Si number density = 19.402367 Si / 1000 Ang^3
#
#
#
# Elastic Constant Matrix: (Units=GPa)
#
#
# Indices 1 2 3 4 5 6 
#
# 1 122.1618 46.3036 35.2780 0.0000 10.0984 0.0000
# 2 46.3036 114.8456 41.3540 0.0000 5.3916 0.0000
# 3 35.2780 41.3540 88.0143 0.0000 22.5309 0.0000
# 4 0.0000 0.0000 0.0000 27.2245 0.0000 9.8897
# 5 10.0984 5.3916 22.5309 0.0000 36.4846 0.0000
# 6 0.0000 0.0000 0.0000 9.8897 0.0000 28.0845
#
#
#
# Elastic Compliance Matrix: (Units=1/GPa)
#
#
# Indices 1 2 3 4 5 6 
#
# 1 0.010150 -0.003211 -0.002330 0.000000 -0.000896 0.000000
# 2 -0.003211 0.011594 -0.004691 0.000000 0.002072 0.000000
# 3 -0.002330 -0.004691 0.016816 0.000000 -0.009046 0.000000
# 4 0.000000 0.000000 0.000000 0.042120 0.000000 -0.014832
# 5 -0.000896 0.002072 -0.009046 0.000000 0.032937 0.000000
# 6 0.000000 0.000000 0.000000 -0.014832 0.000000 0.040830
#
#
# Mechanical properties :
#
#
# Convention : Reuss Voigt Hill
#
# Bulk Modulus (GPa) = 55.26398 63.43255 59.34827
# Shear Modulus (GPa) = 27.63323 31.83115 29.73219
#
# Velocity S-wave (km/s) = 3.77798 4.05480 3.91884
# Velocity P-wave (km/s) = 6.89752 7.39500 7.15059
#
# Compressibility (1/GPa) = 0.01809497
#
# Stress axis : x y z
#
# Youngs Moduli (GPa) = 98.52237 86.25295 59.46880
#
# Poissons Ratio (x) = 0.27697 0.13858
# Poissons Ratio (y) = 0.31637 0.27896
# Poissons Ratio (z) = 0.22958 0.40460
#
# Static dielectric constant tensor:
#      x y z
#    x 3.357390 0.000000 -0.209020 
#    y 0.000000 3.706350 0.000000 
#    z -0.209020 0.000000 2.999230 
# 
# 
# High freq. dielectric constant tensor:
#      x y z
#    x 1.754830 0.000000 0.023890 
#    y 0.000000 1.758290 0.000000 
#    z 0.023890 0.000000 1.748930 
# 
# From -- ./inp_files/134923.got.cif
#   From: 2010.06.25/outbox.cif.g09.slc.cpg/sg15_68_cif.got.tgz:134923.got - 2010.06.28 07:06:18.
