data_PCOD8132725
_publ_section_title
;
Structure prediction by ZEFSAII (Michael W. Deem and Ramdas Pophale) SiO2 
 PCOD8132725
Probable space group: C 2/C
;
_chemical_formula_sum "Si O2"
_cell_formula_units_Z 32
_cell_length_a 4.957933
_cell_length_b 24.249367
_cell_length_c 13.627613
_cell_angle_alpha 90.000000
_cell_angle_beta 98.781739
_cell_angle_gamma 90.000000
_cell_volume 1619.196586
_symmetry_space_group_name_H-M "C 2/C"
_symmetry_group_IT_number 15
_symmetry_cell_setting 'monoclinic'
loop_
_space_group_symop_operation_xyz
x,y,z
-x,y,1/2-z
-x,-y,-z
x,-y,1/2+z
1/2+x,1/2+y,z
1/2-x,1/2+y,1/2-z
1/2-x,1/2-y,-z
1/2+x,1/2-y,1/2+z
loop_
_atom_site_type_symbol
_atom_site_label
_atom_site_fract_x
_atom_site_fract_y
_atom_site_fract_z
Si Si1 0.972206 0.405636 0.141238
Si Si2 0.500000 0.772395 0.750000
Si Si3 0.000000 0.300762 0.250000
Si Si4 0.078587 0.061933 0.980657
Si Si5 0.259122 0.623441 0.314587
O O1 0.157549 0.437412 0.073824
O O2 0.000000 0.434977 0.250000
O O3 0.052782 0.340706 0.158328
O O4 0.661661 0.407462 0.089161
O O5 0.268582 0.735142 0.787719
O O6 0.345590 0.813913 0.664450
O O7 0.142449 0.093194 0.083896
O O8 0.000000 0.000000 0.000000
O O9 0.500000 0.626674 0.250000
O O10 0.000000 0.591663 0.250000
#
# Coordination Sequence:
#
# PCOD8132725 Si02
#       5
#     8   4   4   8   8
#     4  10  24  42  64  92 130 156 216 258 307 381
#     4  10  18  40  65  88 123 172 200 262 320 360
#     4  10  20  40  69  84 129 166 202 262 320 360
#     4  12  24  42  65  94 126 168 212 258 312 374
#     4  10  22  40  63  91 132 158 215 260 308 380
#
# _framework density 19.762886000000002
#
# number of rings (size 3 to 8) (size 9 to 14) (size 15 to 20)
#    1.500    0.000    1.250    4.500    0.000    3.000 
#    0.000    7.500    0.000    0.000    0.000    0.000 
#    0.000    0.000    0.000    0.000    0.000    0.000 
#
# Total GULP energy -198227.868179 kJ/mol
# GULP energy per Si atom -12389.241761 kJ/mol
# Density = 1.971791 g / cm^3
# Si number density = 19.762886 Si / 1000 Ang^3
#
#
#
# Elastic Constant Matrix: (Units=GPa)
#
#
# Indices 1 2 3 4 5 6 
#
# 1 107.6744 19.9159 32.6880 0.0000 4.0150 0.0000
# 2 19.9159 112.4430 37.8867 0.0000 -0.2598 0.0000
# 3 32.6880 37.8867 110.7035 0.0000 8.4007 0.0000
# 4 0.0000 0.0000 0.0000 21.4344 0.0000 7.8133
# 5 4.0150 -0.2598 8.4007 0.0000 45.2033 0.0000
# 6 0.0000 0.0000 0.0000 7.8133 0.0000 32.1610
#
#
#
# Elastic Compliance Matrix: (Units=1/GPa)
#
#
# Indices 1 2 3 4 5 6 
#
# 1 0.010290 -0.000916 -0.002693 0.000000 -0.000419 0.000000
# 2 -0.000916 0.010156 -0.003262 0.000000 0.000746 0.000000
# 3 -0.002693 -0.003262 0.011084 0.000000 -0.001839 0.000000
# 4 0.000000 0.000000 0.000000 0.051187 0.000000 -0.012436
# 5 -0.000419 0.000746 -0.001839 0.000000 0.022506 0.000000
# 6 0.000000 0.000000 0.000000 -0.012436 0.000000 0.034115
#
#
# Mechanical properties :
#
#
# Convention : Reuss Voigt Hill
#
# Bulk Modulus (GPa) = 56.21667 56.86690 56.54179
# Shear Modulus (GPa) = 31.44458 35.78174 33.61316
#
# Velocity S-wave (km/s) = 3.99318 4.25967 4.12858
# Velocity P-wave (km/s) = 7.05464 7.28218 7.16931
#
# Compressibility (1/GPa) = 0.01778832
#
# Stress axis : x y z
#
# Youngs Moduli (GPa) = 97.18288 98.45918 90.21768
#
# Poissons Ratio (x) = 0.09020 0.24296
# Poissons Ratio (y) = 0.08903 0.29429
# Poissons Ratio (z) = 0.26172 0.32118
#
# Static dielectric constant tensor:
#      x y z
#    x 3.794330 0.000000 0.018060 
#    y 0.000000 3.593100 0.000000 
#    z 0.018060 0.000000 2.583930 
# 
# 
# High freq. dielectric constant tensor:
#      x y z
#    x 1.796760 0.000000 0.006610 
#    y 0.000000 1.767690 0.000000 
#    z 0.006610 0.000000 1.744470 
# 
# From -- ./inp_files/72256.got.cif
#   From: 2010.06.25/outbox.cif.g09.slc.cpg/sg15_37_cif.got.tgz:72256.got - 2010.06.28 07:06:18.
