data_PCOD8132555
_publ_section_title
;
Structure prediction by ZEFSAII (Michael W. Deem and Ramdas Pophale) SiO2 
 PCOD8132555
Probable space group: C 2/C
;
_chemical_formula_sum "Si O2"
_cell_formula_units_Z 44
_cell_length_a 17.410763
_cell_length_b 8.523676
_cell_length_c 14.417020
_cell_angle_alpha 90.000000
_cell_angle_beta 69.627606
_cell_angle_gamma 90.000000
_cell_volume 2005.710609
_symmetry_space_group_name_H-M "C 2/C"
_symmetry_group_IT_number 15
_symmetry_cell_setting 'monoclinic'
loop_
_space_group_symop_operation_xyz
x,y,z
-x,y,1/2-z
-x,-y,-z
x,-y,1/2+z
1/2+x,1/2+y,z
1/2-x,1/2+y,1/2-z
1/2-x,1/2-y,-z
1/2+x,1/2-y,1/2+z
loop_
_atom_site_type_symbol
_atom_site_label
_atom_site_fract_x
_atom_site_fract_y
_atom_site_fract_z
Si Si1 0.094636 0.890857 0.370578
Si Si2 0.364659 0.135340 0.675934
Si Si3 0.078150 0.815710 0.005531
Si Si4 0.868532 0.997052 0.349368
Si Si5 0.770600 0.336691 0.675991
Si Si6 0.500000 0.735704 0.250000
O O1 0.115609 0.907615 0.253596
O O2 0.170133 0.799643 0.387891
O O3 0.013043 0.787229 0.417461
O O4 0.079970 0.059306 0.421050
O O5 0.389473 0.156558 0.556647
O O6 0.296928 0.267880 0.725658
O O7 0.444582 0.154690 0.707608
O O8 0.326549 0.963468 0.707136
O O9 0.134937 0.871250 0.066538
O O10 0.779532 0.080842 0.386307
O O11 0.941329 0.123350 0.337344
#
# Coordination Sequence:
#
# PCOD8132555 Si02
#       6
#     8   8   8   8   8   4
#     4  11  21  41  64  93 127 171 205 260 306 379
#     4  11  22  41  64  93 124 169 207 265 309 375
#     4  11  21  38  68  91 125 166 215 249 314 377
#     4  11  20  39  68  92 120 170 210 253 310 381
#     4  11  23  42  63  92 133 159 211 262 321 358
#     4  10  18  38  62  90 116 166 208 246 310 368
#
# _framework density 21.937360999999999
#
# number of rings (size 3 to 8) (size 9 to 14) (size 15 to 20)
#    0.000    1.091    7.273    1.091    0.000    2.182 
#    3.273    1.818    0.000    0.000    0.000    0.000 
#    0.000    0.000    0.000    0.000    0.000    0.000 
#
# Total GULP energy -272776.721864 kJ/mol
# GULP energy per Si atom -12398.941903 kJ/mol
# Density = 2.188743 g / cm^3
# Si number density = 21.937361 Si / 1000 Ang^3
#
#
#
# Elastic Constant Matrix: (Units=GPa)
#
#
# Indices 1 2 3 4 5 6 
#
# 1 149.3115 39.8468 19.0380 0.0000 -0.9207 0.0000
# 2 39.8468 45.5036 2.5509 0.0000 -1.6660 0.0000
# 3 19.0380 2.5509 59.7725 0.0000 14.7991 0.0000
# 4 0.0000 0.0000 0.0000 12.1379 0.0000 -0.9413
# 5 -0.9207 -1.6660 14.7991 0.0000 23.5411 0.0000
# 6 0.0000 0.0000 0.0000 -0.9413 0.0000 44.5772
#
#
#
# Elastic Compliance Matrix: (Units=1/GPa)
#
#
# Indices 1 2 3 4 5 6 
#
# 1 0.009174 -0.007803 -0.003009 0.000000 0.001699 0.000000
# 2 -0.007803 0.028795 0.000980 0.000000 0.001117 0.000000
# 3 -0.003009 0.000980 0.020914 0.000000 -0.013196 0.000000
# 4 0.000000 0.000000 0.000000 0.082522 0.000000 0.001743
# 5 0.001699 0.001117 -0.013196 0.000000 0.050920 0.000000
# 6 0.000000 0.000000 0.000000 0.001743 0.000000 0.022470
#
#
# Mechanical properties :
#
#
# Convention : Reuss Voigt Hill
#
# Bulk Modulus (GPa) = 25.49828 41.93986 33.71907
# Shear Modulus (GPa) = 20.19946 28.92803 24.56375
#
# Velocity S-wave (km/s) = 3.03773 3.63528 3.34985
# Velocity P-wave (km/s) = 4.89409 6.06464 5.51054
#
# Compressibility (1/GPa) = 0.03921833
#
# Stress axis : x y z
#
# Youngs Moduli (GPa) = 109.00528 34.72849 47.81480
#
# Poissons Ratio (x) = 0.27097 0.14390
# Poissons Ratio (y) = 0.85052 -0.04685
# Poissons Ratio (z) = 0.32805 -0.03403
#
# Static dielectric constant tensor:
#      x y z
#    x 4.337920 0.000000 -0.211720 
#    y 0.000000 3.761400 0.000000 
#    z -0.211720 0.000000 3.709750 
# 
# 
# High freq. dielectric constant tensor:
#      x y z
#    x 1.881390 0.000000 -0.010630 
#    y 0.000000 1.837770 0.000000 
#    z -0.010630 0.000000 1.840810 
# 
# From -- ./inp_files/159175.got.cif
#   From: 2010.06.25/outbox.cif.g09.slc.cpg/sg15_80_cif.got.tgz:159175.got - 2010.06.28 07:06:18.
