data_PCOD8132848
_publ_section_title
;
Structure prediction by ZEFSAII (Michael W. Deem and Ramdas Pophale) SiO2 
 PCOD8132848
Probable space group: C 2/C
;
_chemical_formula_sum "Si O2"
_cell_formula_units_Z 64
_cell_length_a 24.702222
_cell_length_b 24.980519
_cell_length_c 19.640397
_cell_angle_alpha 90.000000
_cell_angle_beta 19.554890
_cell_angle_gamma 90.000000
_cell_volume 4056.543385
_symmetry_space_group_name_H-M "C 2/C"
_symmetry_group_IT_number 15
_symmetry_cell_setting 'monoclinic'
loop_
_space_group_symop_operation_xyz
x,y,z
-x,y,1/2-z
-x,-y,-z
x,-y,1/2+z
1/2+x,1/2+y,z
1/2-x,1/2+y,1/2-z
1/2-x,1/2-y,-z
1/2+x,1/2-y,1/2+z
loop_
_atom_site_type_symbol
_atom_site_label
_atom_site_fract_x
_atom_site_fract_y
_atom_site_fract_z
Si Si1 0.385622 0.398203 0.021731
Si Si2 0.175433 0.697215 0.520866
Si Si3 0.229084 0.107569 0.181689
Si Si4 0.115199 0.446363 0.427942
Si Si5 0.996075 0.990613 0.333266
Si Si6 0.214040 0.558518 0.246829
Si Si7 0.679454 0.314059 0.516142
Si Si8 0.156577 0.501898 0.016745
O O1 0.546208 0.382828 0.872732
O O2 0.424487 0.450386 0.930907
O O3 0.311391 0.353541 0.059146
O O4 0.249134 0.405899 0.240689
O O5 0.176215 0.660909 0.452518
O O6 0.244492 0.663062 0.503581
O O7 0.261109 0.755232 0.404183
O O8 0.000000 0.713645 0.750000
O O9 0.240809 0.102281 0.249261
O O10 0.318312 0.056833 0.043594
O O11 0.156063 0.503775 0.348801
O O12 0.125077 0.452630 0.497441
O O13 0.937639 0.423179 0.619624
O O14 0.877209 0.948339 0.510087
O O15 0.000000 0.977960 0.250000
O O16 0.178459 0.981867 0.141741
O O17 0.500000 0.305012 0.750000
O O18 0.000000 0.500498 0.250000
#
# Coordination Sequence:
#
# PCOD8132848 Si02
#       8
#     8   8   8   8   8   8   8   8
#     4  10  19  30  48  62  88 121 157 186 230 274
#     4  10  21  31  46  66  92 121 156 197 230 264
#     4  10  19  31  45  65  87 121 154 190 228 272
#     4   9  18  31  44  63  87 117 147 190 226 269
#     4  10  19  29  46  67  89 120 151 189 227 270
#     4   9  18  31  44  63  90 113 150 188 228 268
#     4  10  19  34  46  64  92 123 156 193 232 268
#     4  10  19  30  46  66  91 118 153 188 226 271
#
# _framework density 15.776979000000001
#
# number of rings (size 3 to 8) (size 9 to 14) (size 15 to 20)
#    0.000    2.250    1.250    2.250    3.500    4.000 
#    0.000    0.000    0.000    0.000    0.000    0.000 
#    0.000    1.000    0.000    7.250    0.000    2.500 
#
# Total GULP energy -396475.393590 kJ/mol
# GULP energy per Si atom -12389.856050 kJ/mol
# Density = 1.574107 g / cm^3
# Si number density = 15.776979 Si / 1000 Ang^3
#
#
#
# Elastic Constant Matrix: (Units=GPa)
#
#
# Indices 1 2 3 4 5 6 
#
# 1 117.5608 37.3628 42.6407 0.1046 5.4703 -0.0069
# 2 37.3628 55.0835 23.3972 0.1605 10.2097 -0.0268
# 3 42.6407 23.3972 99.5137 0.2740 1.1777 -0.0451
# 4 0.1046 0.1605 0.2740 13.3617 -0.0945 2.7509
# 5 5.4703 10.2097 1.1777 -0.0945 22.5657 0.0045
# 6 -0.0069 -0.0268 -0.0451 2.7509 0.0045 26.9178
#
#
#
# Elastic Compliance Matrix: (Units=1/GPa)
#
#
# Indices 1 2 3 4 5 6 
#
# 1 0.011876 -0.006607 -0.003539 0.000064 0.000295 -0.000016
# 2 -0.006607 0.025797 -0.003116 -0.000274 -0.009908 0.000048
# 3 -0.003539 -0.003116 0.012279 -0.000182 0.001626 0.000035
# 4 0.000064 -0.000274 -0.000182 0.076459 0.000440 -0.007815
# 5 0.000295 -0.009908 0.001626 0.000440 0.048643 -0.000060
# 6 -0.000016 0.000048 0.000035 -0.007815 -0.000060 0.037949
#
#
# Mechanical properties :
#
#
# Convention : Reuss Voigt Hill
#
# Bulk Modulus (GPa) = 42.68481 53.21771 47.95126
# Shear Modulus (GPa) = 20.21534 23.81954 22.01744
#
# Velocity S-wave (km/s) = 3.58343 3.88979 3.73975
# Velocity P-wave (km/s) = 6.65095 7.34700 7.00762
#
# Compressibility (1/GPa) = 0.02342754
#
# Stress axis : x y z
#
# Youngs Moduli (GPa) = 84.20414 38.76458 81.43862
#
# Poissons Ratio (x) = 0.25612 0.28821
# Poissons Ratio (y) = 0.55635 0.25377
# Poissons Ratio (z) = 0.29800 0.12079
#
# Static dielectric constant tensor:
#      x y z
#    x 3.098180 -0.000090 -0.092880 
#    y -0.000090 2.770060 0.000340 
#    z -0.092880 0.000340 3.025640 
# 
# 
# High freq. dielectric constant tensor:
#      x y z
#    x 1.614530 -0.000020 -0.017490 
#    y -0.000020 1.561140 0.000030 
#    z -0.017490 0.000030 1.605180 
# 
# From -- ./inp_files/51896.got.cif
#   From: 2010.06.25/outbox.cif.g09.slc.cpg/sg15_26_cif.got.tgz:51896.got - 2010.06.28 07:06:18.
