data_PCOD8132707
_publ_section_title
;
Structure prediction by ZEFSAII (Michael W. Deem and Ramdas Pophale) SiO2 
 PCOD8132707
Probable space group: C 2/C
;
_chemical_formula_sum "Si O2"
_cell_formula_units_Z 56
_cell_length_a 9.137185
_cell_length_b 16.711526
_cell_length_c 21.297506
_cell_angle_alpha 90.000000
_cell_angle_beta 60.339612
_cell_angle_gamma 90.000000
_cell_volume 2825.946804
_symmetry_space_group_name_H-M "C 2/C"
_symmetry_group_IT_number 15
_symmetry_cell_setting 'monoclinic'
loop_
_space_group_symop_operation_xyz
x,y,z
-x,y,1/2-z
-x,-y,-z
x,-y,1/2+z
1/2+x,1/2+y,z
1/2-x,1/2+y,1/2-z
1/2-x,1/2-y,-z
1/2+x,1/2-y,1/2+z
loop_
_atom_site_type_symbol
_atom_site_label
_atom_site_fract_x
_atom_site_fract_y
_atom_site_fract_z
Si Si1 0.253977 0.797811 0.435136
Si Si2 0.531894 0.454178 0.852232
Si Si3 0.948275 0.092194 0.019723
Si Si4 0.372632 0.942451 0.719468
Si Si5 0.986038 0.563920 0.914534
Si Si6 0.166022 0.171679 0.183735
Si Si7 0.757121 0.550854 0.538222
O O1 0.250000 0.750000 0.500000
O O2 0.416369 0.856069 0.396908
O O3 0.251106 0.736306 0.378719
O O4 0.088414 0.849771 0.463257
O O5 0.585734 0.395704 0.898921
O O6 0.701250 0.483737 0.781707
O O7 0.400765 0.407162 0.836831
O O8 0.429262 0.531555 0.895993
O O9 0.778464 0.109050 0.014228
O O10 0.000000 0.000000 0.000000
O O11 0.500000 0.925663 0.750000
O O12 0.311536 0.858265 0.701257
O O13 0.458145 0.000320 0.649972
O O14 0.138736 0.590820 0.927716
O O15 0.845753 0.528825 0.991805
O O16 0.000000 0.211915 0.250000
#
# Coordination Sequence:
#
# PCOD8132707 Si02
#       7
#     8   8   8   8   8   8   8
#     4  12  23  41  65  96 133 177 214 262 337 399
#     4  10  18  40  62  90 126 168 209 255 333 376
#     4  10  19  37  63  92 122 167 213 263 314 375
#     4  11  24  38  67 100 123 170 226 270 317 384
#     4  11  22  38  64  98 127 159 228 272 304 385
#     4  10  22  42  63  88 133 178 206 260 338 404
#     4  10  20  36  62  94 124 159 207 279 312 352
#
# _framework density 19.816369000000002
#
# number of rings (size 3 to 8) (size 9 to 14) (size 15 to 20)
#    0.000    1.429    5.714    0.857    4.000    0.571 
#    0.000    3.571    0.000    0.000    0.000    0.000 
#    0.000    0.000    0.000    0.000    0.000    0.000 
#
# Total GULP energy -346970.106353 kJ/mol
# GULP energy per Si atom -12391.789513 kJ/mol
# Density = 1.977127 g / cm^3
# Si number density = 19.816369 Si / 1000 Ang^3
#
#
#
# Elastic Constant Matrix: (Units=GPa)
#
#
# Indices 1 2 3 4 5 6 
#
# 1 152.3691 36.9201 32.9725 -0.0002 22.7056 0.0002
# 2 36.9201 60.3358 29.6120 0.0000 -6.3987 0.0001
# 3 32.9725 29.6120 101.2615 -0.0001 -1.1202 0.0002
# 4 -0.0002 0.0000 -0.0001 36.3025 0.0001 -1.3726
# 5 22.7056 -6.3987 -1.1202 0.0001 34.4289 -0.0002
# 6 0.0002 0.0001 0.0002 -1.3726 -0.0002 20.7684
#
#
#
# Elastic Compliance Matrix: (Units=1/GPa)
#
#
# Indices 1 2 3 4 5 6 
#
# 1 0.009368 -0.005803 -0.001434 0.000000 -0.007303 0.000000
# 2 -0.005803 0.023355 -0.004852 0.000000 0.008010 0.000000
# 3 -0.001434 -0.004852 0.011766 0.000000 0.000427 0.000000
# 4 0.000000 0.000000 0.000000 0.027615 0.000000 0.001825
# 5 -0.007303 0.008010 0.000427 0.000000 0.035364 0.000000
# 6 0.000000 0.000000 0.000000 0.001825 0.000000 0.048271
#
#
# Mechanical properties :
#
#
# Convention : Reuss Voigt Hill
#
# Bulk Modulus (GPa) = 49.23307 56.99730 53.11518
# Shear Modulus (GPa) = 26.78281 32.59743 29.69012
#
# Velocity S-wave (km/s) = 3.68033 4.06023 3.87494
# Velocity P-wave (km/s) = 6.55426 7.12782 6.84705
#
# Compressibility (1/GPa) = 0.02031155
#
# Stress axis : x y z
#
# Youngs Moduli (GPa) = 106.74975 42.81682 84.99128
#
# Poissons Ratio (x) = 0.24846 0.12189
# Poissons Ratio (y) = 0.61945 0.41235
# Poissons Ratio (z) = 0.15309 0.20773
#
# Static dielectric constant tensor:
#      x y z
#    x 3.821330 0.000000 0.236700 
#    y 0.000000 2.910790 0.000000 
#    z 0.236700 0.000000 3.927350 
# 
# 
# High freq. dielectric constant tensor:
#      x y z
#    x 1.793610 0.000000 0.011140 
#    y 0.000000 1.720180 0.000000 
#    z 0.011140 0.000000 1.785040 
# 
# From -- ./inp_files/264593.got.cif
#   From: 2010.06.25/outbox.cif.g09.slc.cpg/sg15_133_cif.got.tgz:264593.got - 2010.06.28 07:06:18.
