data_PCOD8132142
_publ_section_title
;
Structure prediction by ZEFSAII (Michael W. Deem and Ramdas Pophale) SiO2 
 PCOD8132142
Probable space group: C 2/C
;
_chemical_formula_sum "Si O2"
_cell_formula_units_Z 60
_cell_length_a 22.099352
_cell_length_b 9.082455
_cell_length_c 22.639945
_cell_angle_alpha 90.000000
_cell_angle_beta 137.036992
_cell_angle_gamma 90.000000
_cell_volume 3096.995762
_symmetry_space_group_name_H-M "C 2/C"
_symmetry_group_IT_number 15
_symmetry_cell_setting 'monoclinic'
loop_
_space_group_symop_operation_xyz
x,y,z
-x,y,1/2-z
-x,-y,-z
x,-y,1/2+z
1/2+x,1/2+y,z
1/2-x,1/2+y,1/2-z
1/2-x,1/2-y,-z
1/2+x,1/2-y,1/2+z
loop_
_atom_site_type_symbol
_atom_site_label
_atom_site_fract_x
_atom_site_fract_y
_atom_site_fract_z
Si Si1 0.093115 0.034073 0.799172
Si Si2 0.900772 0.185965 0.886305
Si Si3 0.500000 0.184025 0.250000
Si Si4 0.569429 0.410960 0.658343
Si Si5 0.798574 0.673559 0.715826
Si Si6 0.756126 0.824920 0.567183
Si Si7 0.060240 0.436657 0.673247
Si Si8 0.440656 0.178544 0.536432
O O1 0.098226 0.015307 0.732691
O O2 0.179767 0.966856 0.892729
O O3 0.000000 0.952769 0.750000
O O4 0.086791 0.207167 0.813332
O O5 0.796931 0.165065 0.823350
O O6 0.920601 0.280025 0.842057
O O7 0.939050 0.021020 0.903598
O O8 0.947719 0.268311 0.973943
O O9 0.493067 0.082518 0.303035
O O10 0.647012 0.290421 0.705720
O O11 0.477628 0.318190 0.601141
O O12 0.797152 0.717410 0.645701
O O13 0.845108 0.514857 0.749573
O O14 0.750000 0.750000 0.500000
O O15 0.657760 0.870397 0.516316
O O16 0.000364 0.534980 0.587209
#
# Coordination Sequence:
#
# PCOD8132142 Si02
#       8
#     8   8   4   8   8   8   8   8
#     4   9  18  36  57  81 106 155 200 229 282 346
#     4  11  19  38  60  84 120 150 197 248 294 347
#     4  10  22  38  62  82 118 156 204 236 296 352
#     4  10  18  36  57  81 115 153 194 239 289 359
#     4   9  22  35  57  88 112 152 202 241 292 343
#     4  10  20  35  57  82 119 150 192 244 289 346
#     4  11  22  39  60  87 120 155 199 242 290 355
#     4  10  23  35  56  89 119 153 190 243 305 346
#
# _framework density 19.373614
#
# number of rings (size 3 to 8) (size 9 to 14) (size 15 to 20)
#    0.400    1.600    1.333    2.400    1.867    0.000 
#    2.400    0.667    5.867    0.000    0.000    0.000 
#    0.000    0.000    0.000    0.000    0.000    0.000 
#
# Total GULP energy -371808.016836 kJ/mol
# GULP energy per Si atom -12393.600561 kJ/mol
# Density = 1.932952 g / cm^3
# Si number density = 19.373614 Si / 1000 Ang^3
#
#
#
# Elastic Constant Matrix: (Units=GPa)
#
#
# Indices 1 2 3 4 5 6 
#
# 1 76.3864 36.3736 28.7221 0.0000 -1.2547 0.0000
# 2 36.3736 102.5679 39.9075 0.0000 5.3588 0.0000
# 3 28.7221 39.9075 90.9045 0.0000 7.1695 0.0000
# 4 0.0000 0.0000 0.0000 25.9185 0.0000 -0.7284
# 5 -1.2547 5.3588 7.1695 0.0000 32.4202 0.0000
# 6 0.0000 0.0000 0.0000 -0.7284 0.0000 30.2809
#
#
#
# Elastic Compliance Matrix: (Units=1/GPa)
#
#
# Indices 1 2 3 4 5 6 
#
# 1 0.016630 -0.004703 -0.003360 0.000000 0.002164 0.000000
# 2 -0.004703 0.013109 -0.004156 0.000000 -0.001430 0.000000
# 3 -0.003360 -0.004156 0.014089 0.000000 -0.002559 0.000000
# 4 0.000000 0.000000 0.000000 0.038609 0.000000 0.000929
# 5 0.002164 -0.001430 -0.002559 0.000000 0.031731 0.000000
# 6 0.000000 0.000000 0.000000 0.000929 0.000000 0.033046
#
#
# Mechanical properties :
#
#
# Convention : Reuss Voigt Hill
#
# Bulk Modulus (GPa) = 51.57709 53.31837 52.44773
# Shear Modulus (GPa) = 28.07154 28.71429 28.39292
#
# Velocity S-wave (km/s) = 3.81065 3.85403 3.83240
# Velocity P-wave (km/s) = 6.78539 6.88372 6.83473
#
# Compressibility (1/GPa) = 0.01938845
#
# Stress axis : x y z
#
# Youngs Moduli (GPa) = 60.13255 76.28152 70.97861
#
# Poissons Ratio (x) = 0.35876 0.23852
# Poissons Ratio (y) = 0.28281 0.29501
# Poissons Ratio (z) = 0.20207 0.31705
#
# Static dielectric constant tensor:
#      x y z
#    x 3.470910 0.000000 0.038560 
#    y 0.000000 3.498180 0.000000 
#    z 0.038560 0.000000 3.554280 
# 
# 
# High freq. dielectric constant tensor:
#      x y z
#    x 1.751160 0.000000 -0.001430 
#    y 0.000000 1.751220 0.000000 
#    z -0.001430 0.000000 1.749550 
# 
# From -- ./inp_files/281686.got.cif
#   From: 2010.06.25/outbox.cif.g09.slc.cpg/sg15_141_cif.got.tgz:281686.got - 2010.06.28 07:06:18.
