data_PCOD8132077
_publ_section_title
;
Structure prediction by ZEFSAII (Michael W. Deem and Ramdas Pophale) SiO2 
 PCOD8132077
Probable space group: C 2/C
;
_chemical_formula_sum "Si O2"
_cell_formula_units_Z 48
_cell_length_a 9.005445
_cell_length_b 11.615592
_cell_length_c 21.309784
_cell_angle_alpha 90.000000
_cell_angle_beta 91.407116
_cell_angle_gamma 90.000000
_cell_volume 2228.407403
_symmetry_space_group_name_H-M "C 2/C"
_symmetry_group_IT_number 15
_symmetry_cell_setting 'monoclinic'
loop_
_space_group_symop_operation_xyz
x,y,z
-x,y,1/2-z
-x,-y,-z
x,-y,1/2+z
1/2+x,1/2+y,z
1/2-x,1/2+y,1/2-z
1/2-x,1/2-y,-z
1/2+x,1/2-y,1/2+z
loop_
_atom_site_type_symbol
_atom_site_label
_atom_site_fract_x
_atom_site_fract_y
_atom_site_fract_z
Si Si1 0.690084 0.224798 0.302556
Si Si2 0.215672 0.827962 0.940106
Si Si3 0.819740 0.495378 0.131775
Si Si4 0.124471 0.210425 0.665468
Si Si5 0.557847 0.803971 0.105610
Si Si6 0.664533 0.048875 0.504530
O O1 0.552084 0.298344 0.327619
O O2 0.706944 0.244701 0.228793
O O3 0.841554 0.265363 0.335790
O O4 0.657519 0.089589 0.313846
O O5 0.339129 0.801538 0.888777
O O6 0.051708 0.800575 0.912613
O O7 0.224652 0.960907 0.959167
O O8 0.250000 0.750000 0.000000
O O9 0.679901 0.416309 0.147775
O O10 0.965644 0.416498 0.126164
O O11 0.781578 0.565262 0.066742
O O12 0.658755 0.833847 0.045289
O O13 0.500000 0.000000 0.500000
#
# Coordination Sequence:
#
# PCOD8132077 Si02
#       6
#     8   8   8   8   8   8
#     4  11  25  42  62  95 127 165 210 255 312 370
#     4  11  19  38  66  91 123 166 206 255 314 362
#     4  10  22  41  65  89 126 164 208 254 309 371
#     4  10  23  42  63  88 131 165 205 262 305 376
#     4  10  23  39  65  96 123 164 208 257 309 375
#     4  10  18  35  63  92 123 161 205 253 309 367
#
# _framework density 21.540047999999999
#
# number of rings (size 3 to 8) (size 9 to 14) (size 15 to 20)
#    0.000    1.667    5.000    2.000    0.000    8.667 
#    0.000    6.667    0.000    0.000    0.000    0.000 
#    0.000    0.000    0.000    0.000    0.000    0.000 
#
# Total GULP energy -297627.335206 kJ/mol
# GULP energy per Si atom -12401.138967 kJ/mol
# Density = 2.149102 g / cm^3
# Si number density = 21.540048 Si / 1000 Ang^3
#
#
#
# Elastic Constant Matrix: (Units=GPa)
#
#
# Indices 1 2 3 4 5 6 
#
# 1 90.7278 18.9068 35.0416 0.0000 19.3856 0.0000
# 2 18.9068 53.9403 8.3942 0.0000 -1.3703 0.0000
# 3 35.0416 8.3942 119.7537 0.0000 0.0642 0.0000
# 4 0.0000 0.0000 0.0000 30.2089 0.0000 -2.5678
# 5 19.3856 -1.3703 0.0642 0.0000 39.3303 0.0000
# 6 0.0000 0.0000 0.0000 -2.5678 0.0000 25.4766
#
#
#
# Elastic Compliance Matrix: (Units=1/GPa)
#
#
# Indices 1 2 3 4 5 6 
#
# 1 0.015283 -0.004911 -0.004124 0.000000 -0.007697 0.000000
# 2 -0.004911 0.020338 0.000010 0.000000 0.003129 0.000000
# 3 -0.004124 0.000010 0.009555 0.000000 0.002017 0.000000
# 4 0.000000 0.000000 0.000000 0.033389 0.000000 0.003365
# 5 -0.007697 0.003129 0.002017 0.000000 0.029325 0.000000
# 6 0.000000 0.000000 0.000000 0.003365 0.000000 0.039591
#
#
# Mechanical properties :
#
#
# Convention : Reuss Voigt Hill
#
# Bulk Modulus (GPa) = 36.86354 43.23412 40.04883
# Shear Modulus (GPa) = 28.64139 32.47509 30.55824
#
# Velocity S-wave (km/s) = 3.65043 3.88707 3.77061
# Velocity P-wave (km/s) = 5.90920 6.34515 6.13105
#
# Compressibility (1/GPa) = 0.02712707
#
# Stress axis : x y z
#
# Youngs Moduli (GPa) = 65.43425 49.16847 104.65364
#
# Poissons Ratio (x) = 0.24144 0.43154
# Poissons Ratio (y) = 0.32132 -0.00100
# Poissons Ratio (z) = 0.26982 -0.00047
#
# Static dielectric constant tensor:
#      x y z
#    x 3.877760 0.000000 -0.095490 
#    y 0.000000 4.064330 0.000000 
#    z -0.095490 0.000000 4.240110 
# 
# 
# High freq. dielectric constant tensor:
#      x y z
#    x 1.837550 0.000000 -0.003780 
#    y 0.000000 1.831460 0.000000 
#    z -0.003780 0.000000 1.858260 
# 
# From -- ./inp_files/263167.got.cif
#   From: 2010.06.25/outbox.cif.g09.slc.cpg/sg15_132_cif.got.tgz:263167.got - 2010.06.28 07:06:18.
