data_PCOD8132388
_publ_section_title
;
Structure prediction by ZEFSAII (Michael W. Deem and Ramdas Pophale) SiO2 
 PCOD8132388
Probable space group: C 2/C
;
_chemical_formula_sum "Si O2"
_cell_formula_units_Z 48
_cell_length_a 8.071616
_cell_length_b 16.341759
_cell_length_c 20.007820
_cell_angle_alpha 90.000000
_cell_angle_beta 117.888695
_cell_angle_gamma 90.000000
_cell_volume 2332.606778
_symmetry_space_group_name_H-M "C 2/C"
_symmetry_group_IT_number 15
_symmetry_cell_setting 'monoclinic'
loop_
_space_group_symop_operation_xyz
x,y,z
-x,y,1/2-z
-x,-y,-z
x,-y,1/2+z
1/2+x,1/2+y,z
1/2-x,1/2+y,1/2-z
1/2-x,1/2-y,-z
1/2+x,1/2-y,1/2+z
loop_
_atom_site_type_symbol
_atom_site_label
_atom_site_fract_x
_atom_site_fract_y
_atom_site_fract_z
Si Si1 0.513738 0.790719 0.882855
Si Si2 0.721548 0.183157 0.786282
Si Si3 0.164933 0.899941 0.573413
Si Si4 0.264700 0.644431 0.644970
Si Si5 0.965254 0.263420 0.028593
Si Si6 0.516362 0.558317 0.601001
O O1 0.303374 0.776013 0.813207
O O2 0.609937 0.878467 0.883775
O O3 0.635319 0.718898 0.873647
O O4 0.516789 0.778683 0.962196
O O5 0.500000 0.185505 0.750000
O O6 0.791237 0.145962 0.729253
O O7 0.816000 0.124981 0.860239
O O8 0.058566 0.818410 0.575444
O O9 0.100170 0.927546 0.488160
O O10 0.117362 0.969960 0.618455
O O11 0.363253 0.562917 0.632899
O O12 0.043804 0.657795 0.585355
O O13 0.750000 0.250000 0.000000
#
# Coordination Sequence:
#
# PCOD8132388 Si02
#       6
#     8   8   8   8   8   8
#     4  10  18  37  58  85 118 155 205 252 299 354
#     4  11  22  36  59  90 120 164 208 249 304 377
#     4  10  19  35  60  86 116 152 200 252 305 351
#     4  10  19  35  59  85 114 164 201 241 306 363
#     4  11  19  33  57  90 120 147 201 263 292 353
#     4  10  19  36  58  85 117 156 200 242 306 378
#
# _framework density 20.577835
#
# number of rings (size 3 to 8) (size 9 to 14) (size 15 to 20)
#    0.000    1.667    5.000    4.000    0.000    0.000 
#    0.000    5.833    0.000   14.000    0.000    0.000 
#    0.000    0.000    0.000    0.000    0.000    0.000 
#
# Total GULP energy -297314.394728 kJ/mol
# GULP energy per Si atom -12388.099780 kJ/mol
# Density = 2.053100 g / cm^3
# Si number density = 20.577835 Si / 1000 Ang^3
#
#
#
# Elastic Constant Matrix: (Units=GPa)
#
#
# Indices 1 2 3 4 5 6 
#
# 1 100.8478 63.1654 38.6645 0.0000 19.8098 0.0000
# 2 63.1654 100.8271 38.5699 0.0000 7.8792 0.0000
# 3 38.6645 38.5699 83.9082 0.0000 6.4050 0.0000
# 4 0.0000 0.0000 0.0000 15.6877 0.0000 0.1405
# 5 19.8098 7.8792 6.4050 0.0000 42.6464 0.0000
# 6 0.0000 0.0000 0.0000 0.1405 0.0000 39.5354
#
#
#
# Elastic Compliance Matrix: (Units=1/GPa)
#
#
# Indices 1 2 3 4 5 6 
#
# 1 0.018711 -0.009845 -0.003613 0.000000 -0.006330 0.000000
# 2 -0.009845 0.017298 -0.003561 0.000000 0.001912 0.000000
# 3 -0.003613 -0.003561 0.015216 0.000000 0.000051 0.000000
# 4 0.000000 0.000000 0.000000 0.063746 0.000000 -0.000227
# 5 -0.006330 0.001912 0.000051 0.000000 0.026028 0.000000
# 6 0.000000 0.000000 0.000000 -0.000227 0.000000 0.025295
#
#
# Mechanical properties :
#
#
# Convention : Reuss Voigt Hill
#
# Bulk Modulus (GPa) = 58.18495 62.93142 60.55818
# Shear Modulus (GPa) = 24.26457 29.25278 26.75868
#
# Velocity S-wave (km/s) = 3.43762 3.77446 3.60997
# Velocity P-wave (km/s) = 6.64027 7.04584 6.84606
#
# Compressibility (1/GPa) = 0.01718658
#
# Stress axis : x y z
#
# Youngs Moduli (GPa) = 53.44430 57.80884 65.72154
#
# Poissons Ratio (x) = 0.56913 0.23747
# Poissons Ratio (y) = 0.52616 0.23403
# Poissons Ratio (z) = 0.19311 0.20585
#
# Static dielectric constant tensor:
#      x y z
#    x 4.161550 0.000000 0.525450 
#    y 0.000000 4.532590 0.000000 
#    z 0.525450 0.000000 3.363220 
# 
# 
# High freq. dielectric constant tensor:
#      x y z
#    x 1.811840 0.000000 0.006410 
#    y 0.000000 1.762570 0.000000 
#    z 0.006410 0.000000 1.808270 
# 
# From -- ./inp_files/232862.got.cif
#   From: 2010.06.25/outbox.cif.g09.slc.cpg/sg15_117_cif.got.tgz:232862.got - 2010.06.28 07:06:18.
