data_PCOD8132498
_publ_section_title
;
Structure prediction by ZEFSAII (Michael W. Deem and Ramdas Pophale) SiO2 
 PCOD8132498
Probable space group: C 2/C
;
_chemical_formula_sum "Si O2"
_cell_formula_units_Z 60
_cell_length_a 19.709961
_cell_length_b 12.449010
_cell_length_c 13.084238
_cell_angle_alpha 90.000000
_cell_angle_beta 94.364703
_cell_angle_gamma 90.000000
_cell_volume 3201.162026
_symmetry_space_group_name_H-M "C 2/C"
_symmetry_group_IT_number 15
_symmetry_cell_setting 'monoclinic'
loop_
_space_group_symop_operation_xyz
x,y,z
-x,y,1/2-z
-x,-y,-z
x,-y,1/2+z
1/2+x,1/2+y,z
1/2-x,1/2+y,1/2-z
1/2-x,1/2-y,-z
1/2+x,1/2-y,1/2+z
loop_
_atom_site_type_symbol
_atom_site_label
_atom_site_fract_x
_atom_site_fract_y
_atom_site_fract_z
Si Si1 0.297077 0.196903 0.087623
Si Si2 0.474861 0.889501 0.130697
Si Si3 0.500000 0.270404 0.250000
Si Si4 0.253748 0.002331 0.212682
Si Si5 0.444907 0.129216 0.060022
Si Si6 0.779085 0.342507 0.887633
Si Si7 0.853015 0.169028 0.774147
Si Si8 0.171002 0.327171 0.388993
O O1 0.254307 0.101162 0.134350
O O2 0.365326 0.152248 0.044932
O O3 0.315846 0.290253 0.168551
O O4 0.250000 0.250000 0.000000
O O5 0.500000 0.884510 0.250000
O O6 0.409648 0.811588 0.114893
O O7 0.453143 0.008152 0.097355
O O8 0.528492 0.848472 0.052126
O O9 0.484207 0.199754 0.148435
O O10 0.565698 0.343726 0.231240
O O11 0.276128 0.047003 0.325432
O O12 0.178877 0.947145 0.201606
O O13 0.310686 0.912888 0.196386
O O14 0.837769 0.259040 0.858581
O O15 0.704739 0.287854 0.869722
O O16 0.796704 0.375997 0.004134
#
# Coordination Sequence:
#
# PCOD8132498 Si02
#       8
#     8   8   4   8   8   8   8   8
#     4  10  21  37  56  87 113 145 191 242 289 331
#     4  11  22  33  54  85 117 152 183 230 298 353
#     4  10  18  38  58  80 116 146 206 226 274 352
#     4  10  20  35  57  85 111 146 188 239 287 333
#     4  10  21  36  56  83 115 153 183 238 286 343
#     4   9  20  36  57  81 110 147 193 239 272 342
#     4   9  20  34  59  81 109 153 185 236 282 334
#     4  10  20  36  56  83 110 151 190 228 291 334
#
# _framework density 18.743193999999999
#
# number of rings (size 3 to 8) (size 9 to 14) (size 15 to 20)
#    0.000    2.133    2.000    0.800    1.867    5.333 
#    0.000    0.000    4.400    1.600    0.000    0.000 
#    0.000    0.000    0.000    0.000    0.000    0.000 
#
# Total GULP energy -371951.783796 kJ/mol
# GULP energy per Si atom -12398.392793 kJ/mol
# Density = 1.870053 g / cm^3
# Si number density = 18.743194 Si / 1000 Ang^3
#
#
#
# Elastic Constant Matrix: (Units=GPa)
#
#
# Indices 1 2 3 4 5 6 
#
# 1 148.0028 52.6968 50.8059 0.0000 -13.8702 0.0000
# 2 52.6968 66.1897 36.2464 0.0000 -1.2640 0.0000
# 3 50.8059 36.2464 111.2456 0.0000 -11.2918 0.0000
# 4 0.0000 0.0000 0.0000 25.4236 0.0000 -3.1189
# 5 -13.8702 -1.2640 -11.2918 0.0000 26.7023 0.0000
# 6 0.0000 0.0000 0.0000 -3.1189 0.0000 22.4299
#
#
#
# Elastic Compliance Matrix: (Units=1/GPa)
#
#
# Indices 1 2 3 4 5 6 
#
# 1 0.010353 -0.007067 -0.001999 0.000000 0.004198 0.000000
# 2 -0.007067 0.023291 -0.004829 0.000000 -0.004611 0.000000
# 3 -0.001999 -0.004829 0.011856 0.000000 0.003747 0.000000
# 4 0.000000 0.000000 0.000000 0.040016 0.000000 0.005564
# 5 0.004198 -0.004611 0.003747 0.000000 0.040996 0.000000
# 6 0.000000 0.000000 0.000000 0.005564 0.000000 0.045357
#
#
# Mechanical properties :
#
#
# Convention : Reuss Voigt Hill
#
# Bulk Modulus (GPa) = 56.47078 67.21513 61.84295
# Shear Modulus (GPa) = 24.32341 27.29045 25.80693
#
# Velocity S-wave (km/s) = 3.60630 3.81992 3.71464
# Velocity P-wave (km/s) = 6.89453 7.44276 7.17389
#
# Compressibility (1/GPa) = 0.01770827
#
# Stress axis : x y z
#
# Youngs Moduli (GPa) = 96.59395 42.93483 84.34583
#
# Poissons Ratio (x) = 0.30343 0.16863
# Poissons Ratio (y) = 0.68265 0.40732
# Poissons Ratio (z) = 0.19312 0.20734
#
# Static dielectric constant tensor:
#      x y z
#    x 3.598780 0.000000 -0.324160 
#    y 0.000000 3.518010 0.000000 
#    z -0.324160 0.000000 3.626990 
# 
# 
# High freq. dielectric constant tensor:
#      x y z
#    x 1.726840 0.000000 -0.014970 
#    y 0.000000 1.703310 0.000000 
#    z -0.014970 0.000000 1.739450 
# 
# From -- ./inp_files/160917.got.cif
#   From: 2010.06.25/outbox.cif.g09.slc.cpg/sg15_81_cif.got.tgz:160917.got - 2010.06.28 07:06:18.
