data_PCOD8132914
_publ_section_title
;
Structure prediction by ZEFSAII (Michael W. Deem and Ramdas Pophale) SiO2 
 PCOD8132914
Probable space group: C 2/C
;
_chemical_formula_sum "Si O2"
_cell_formula_units_Z 60
_cell_length_a 21.115838
_cell_length_b 20.360933
_cell_length_c 9.846241
_cell_angle_alpha 90.000000
_cell_angle_beta 50.443684
_cell_angle_gamma 90.000000
_cell_volume 3263.850652
_symmetry_space_group_name_H-M "C 2/C"
_symmetry_group_IT_number 15
_symmetry_cell_setting 'monoclinic'
loop_
_space_group_symop_operation_xyz
x,y,z
-x,y,1/2-z
-x,-y,-z
x,-y,1/2+z
1/2+x,1/2+y,z
1/2-x,1/2+y,1/2-z
1/2-x,1/2-y,-z
1/2+x,1/2-y,1/2+z
loop_
_atom_site_type_symbol
_atom_site_label
_atom_site_fract_x
_atom_site_fract_y
_atom_site_fract_z
Si Si1 0.769009 0.157714 0.583106
Si Si2 0.000000 0.641353 0.750000
Si Si3 0.089297 0.060702 0.164419
Si Si4 0.424196 0.024406 0.020986
Si Si5 0.667066 0.197119 0.479273
Si Si6 0.701268 0.926829 0.404603
Si Si7 0.709038 0.107689 0.190176
Si Si8 0.340938 0.470289 0.646719
O O1 0.850104 0.115769 0.470019
O O2 0.726597 0.154514 0.494078
O O3 0.798081 0.230147 0.581921
O O4 0.704826 0.126230 0.777922
O O5 0.041973 0.591566 0.588006
O O6 0.076490 0.690972 0.674854
O O7 0.098694 0.048544 0.312487
O O8 0.000000 0.087667 0.250000
O O9 0.105058 0.996299 0.052253
O O10 0.347417 0.042389 0.220904
O O11 0.500000 0.000000 0.000000
O O12 0.386769 0.966537 0.974850
O O13 0.668834 0.169513 0.322736
O O14 0.713823 0.882102 0.522159
O O15 0.775479 0.978371 0.296425
O O16 0.795829 0.093252 0.144717
#
# Coordination Sequence:
#
# PCOD8132914 Si02
#       8
#     8   4   8   8   8   8   8   8
#     4  10  22  37  56  78 107 150 190 229 270 330
#     4  10  20  32  56  82 110 140 182 230 272 330
#     4  11  21  34  56  83 108 141 178 226 279 329
#     4  10  19  30  52  85 115 143 176 229 286 333
#     4  10  21  38  56  77 107 149 193 227 271 323
#     4  10  20  33  56  81 113 145 182 223 282 342
#     4  10  19  33  54  76 108 149 177 226 275 329
#     4  10  19  34  53  80 112 136 175 223 280 330
#
# _framework density 18.383194
#
# number of rings (size 3 to 8) (size 9 to 14) (size 15 to 20)
#    0.000    1.867    2.667    2.000    0.933    0.533 
#    0.000    0.000    0.000    0.000    0.000    0.000 
#    0.000    0.000    0.000    0.000    0.000    0.000 
#
# Total GULP energy -371644.452912 kJ/mol
# GULP energy per Si atom -12388.148430 kJ/mol
# Density = 1.834135 g / cm^3
# Si number density = 18.383194 Si / 1000 Ang^3
#
#
#
# Elastic Constant Matrix: (Units=GPa)
#
#
# Indices 1 2 3 4 5 6 
#
# 1 102.6094 13.0197 17.3943 0.0000 1.3076 0.0000
# 2 13.0197 48.9526 9.6661 0.0000 4.7126 0.0000
# 3 17.3943 9.6661 54.2970 0.0000 9.9027 0.0000
# 4 0.0000 0.0000 0.0000 19.5419 0.0000 2.3834
# 5 1.3076 4.7126 9.9027 0.0000 36.1869 0.0000
# 6 0.0000 0.0000 0.0000 2.3834 0.0000 21.3137
#
#
#
# Elastic Compliance Matrix: (Units=1/GPa)
#
#
# Indices 1 2 3 4 5 6 
#
# 1 0.010552 -0.002265 -0.003117 0.000000 0.000767 0.000000
# 2 -0.002265 0.021772 -0.002787 0.000000 -0.001991 0.000000
# 3 -0.003117 -0.002787 0.020867 0.000000 -0.005235 0.000000
# 4 0.000000 0.000000 0.000000 0.051880 0.000000 -0.005801
# 5 0.000767 -0.001991 -0.005235 0.000000 0.029298 0.000000
# 6 0.000000 0.000000 0.000000 -0.005801 0.000000 0.047567
#
#
# Mechanical properties :
#
#
# Convention : Reuss Voigt Hill
#
# Bulk Modulus (GPa) = 27.13515 31.77991 29.45753
# Shear Modulus (GPa) = 23.74646 26.46043 25.10344
#
# Velocity S-wave (km/s) = 3.59799 3.79803 3.69936
# Velocity P-wave (km/s) = 5.66159 6.04636 5.85713
#
# Compressibility (1/GPa) = 0.03685257
#
# Stress axis : x y z
#
# Youngs Moduli (GPa) = 94.77178 45.92996 47.92339
#
# Poissons Ratio (x) = 0.10402 0.14937
# Poissons Ratio (y) = 0.21463 0.13358
# Poissons Ratio (z) = 0.29539 0.12802
#
# Static dielectric constant tensor:
#      x y z
#    x 3.449880 0.000000 -0.133030 
#    y 0.000000 2.707480 0.000000 
#    z -0.133030 0.000000 3.467260 
# 
# 
# High freq. dielectric constant tensor:
#      x y z
#    x 1.718490 0.000000 -0.001690 
#    y 0.000000 1.691230 0.000000 
#    z -0.001690 0.000000 1.708660 
# 
# From -- ./inp_files/51520.got.cif
#   From: 2010.06.25/outbox.cif.g09.slc.cpg/sg15_26_cif.got.tgz:51520.got - 2010.06.28 07:06:18.
