data_PCOD8132927
_publ_section_title
;
Structure prediction by ZEFSAII (Michael W. Deem and Ramdas Pophale) SiO2 
 PCOD8132927
Probable space group: C 2/C
;
_chemical_formula_sum "Si O2"
_cell_formula_units_Z 56
_cell_length_a 17.207328
_cell_length_b 17.686755
_cell_length_c 14.734365
_cell_angle_alpha 90.000000
_cell_angle_beta 141.136862
_cell_angle_gamma 90.000000
_cell_volume 2813.718286
_symmetry_space_group_name_H-M "C 2/C"
_symmetry_group_IT_number 15
_symmetry_cell_setting 'monoclinic'
loop_
_space_group_symop_operation_xyz
x,y,z
-x,y,1/2-z
-x,-y,-z
x,-y,1/2+z
1/2+x,1/2+y,z
1/2-x,1/2+y,1/2-z
1/2-x,1/2-y,-z
1/2+x,1/2-y,1/2+z
loop_
_atom_site_type_symbol
_atom_site_label
_atom_site_fract_x
_atom_site_fract_y
_atom_site_fract_z
Si Si1 0.238647 0.518683 0.151292
Si Si2 0.906947 0.549231 0.240643
Si Si3 0.181554 0.888420 0.606110
Si Si4 0.738746 0.771822 0.095117
Si Si5 0.933024 0.898058 0.283201
Si Si6 0.934741 0.382993 0.472731
Si Si7 0.520266 0.104773 0.862689
O O1 0.294787 0.576488 0.274173
O O2 0.352150 0.474827 0.205907
O O3 0.158261 0.453314 0.126684
O O4 0.154913 0.564626 0.001215
O O5 0.762447 0.571430 0.098216
O O6 0.000000 0.585233 0.250000
O O7 0.940830 0.583717 0.370038
O O8 0.918430 0.459828 0.251195
O O9 0.226477 0.801632 0.646914
O O10 0.036875 0.900813 0.455618
O O11 0.853971 0.822535 0.231503
O O12 0.615565 0.819785 0.004838
O O13 0.750000 0.750000 0.000000
O O14 0.000000 0.885810 0.250000
O O15 0.975342 0.349413 0.410977
O O16 0.500000 0.153550 0.750000
#
# Coordination Sequence:
#
# PCOD8132927 Si02
#       7
#     8   8   8   8   8   8   8
#     4  10  21  39  57  86 121 158 209 260 302 364
#     4  10  19  30  58  87 114 147 195 250 300 357
#     4  12  22  37  59  83 123 164 201 242 313 367
#     4  11  24  39  58  88 128 164 201 250 314 391
#     4  11  25  38  56  88 126 167 201 243 314 387
#     4  10  19  38  57  86 123 156 204 260 307 362
#     4  10  19  34  61  88 110 150 208 261 307 342
#
# _framework density 19.90249
#
# number of rings (size 3 to 8) (size 9 to 14) (size 15 to 20)
#    0.000    1.429    4.286    2.143    8.000    0.571 
#    0.000    0.000    0.000    1.714    0.000    0.000 
#    0.000    0.000    0.000    0.000    0.000    0.000 
#
# Total GULP energy -346897.398059 kJ/mol
# GULP energy per Si atom -12389.192788 kJ/mol
# Density = 1.985719 g / cm^3
# Si number density = 19.902490 Si / 1000 Ang^3
#
#
#
# Elastic Constant Matrix: (Units=GPa)
#
#
# Indices 1 2 3 4 5 6 
#
# 1 85.7952 17.9819 30.0224 0.0000 -6.4324 0.0000
# 2 17.9819 75.4618 28.0141 0.0000 2.0920 0.0000
# 3 30.0224 28.0141 98.2948 0.0000 -0.9625 0.0000
# 4 0.0000 0.0000 0.0000 16.8504 0.0000 -3.7066
# 5 -6.4324 2.0920 -0.9625 0.0000 43.5149 0.0000
# 6 0.0000 0.0000 0.0000 -3.7066 0.0000 33.0025
#
#
#
# Elastic Compliance Matrix: (Units=1/GPa)
#
#
# Indices 1 2 3 4 5 6 
#
# 1 0.013451 -0.001949 -0.003533 0.000000 0.002004 0.000000
# 2 -0.001949 0.015130 -0.003728 0.000000 -0.001098 0.000000
# 3 -0.003533 -0.003728 0.012314 0.000000 -0.000071 0.000000
# 4 0.000000 0.000000 0.000000 0.060849 0.000000 0.006834
# 5 0.002004 -0.001098 -0.000071 0.000000 0.023328 0.000000
# 6 0.000000 0.000000 0.000000 0.006834 0.000000 0.031068
#
#
# Mechanical properties :
#
#
# Convention : Reuss Voigt Hill
#
# Bulk Modulus (GPa) = 44.49249 45.73208 45.11228
# Shear Modulus (GPa) = 27.46458 30.90911 29.18685
#
# Velocity S-wave (km/s) = 3.71881 3.94512 3.83364
# Velocity P-wave (km/s) = 6.39086 6.61664 6.50473
#
# Compressibility (1/GPa) = 0.02247571
#
# Stress axis : x y z
#
# Youngs Moduli (GPa) = 74.34508 66.09182 81.20638
#
# Poissons Ratio (x) = 0.12882 0.28692
# Poissons Ratio (y) = 0.14491 0.30271
# Poissons Ratio (z) = 0.26267 0.24637
#
# Static dielectric constant tensor:
#      x y z
#    x 3.985480 0.000000 0.086750 
#    y 0.000000 3.459010 0.000000 
#    z 0.086750 0.000000 3.949100 
# 
# 
# High freq. dielectric constant tensor:
#      x y z
#    x 1.777290 0.000000 0.003910 
#    y 0.000000 1.738220 0.000000 
#    z 0.003910 0.000000 1.780470 
# 
# From -- ./inp_files/163088.got.cif
#   From: 2010.06.25/outbox.cif.g09.slc.cpg/sg15_82_cif.got.tgz:163088.got - 2010.06.28 07:06:18.
