data_PCOD8132311
_publ_section_title
;
Structure prediction by ZEFSAII (Michael W. Deem and Ramdas Pophale) SiO2 
 PCOD8132311
Probable space group: C 2/C
;
_chemical_formula_sum "Si O2"
_cell_formula_units_Z 52
_cell_length_a 19.511240
_cell_length_b 11.968042
_cell_length_c 10.901263
_cell_angle_alpha 90.000000
_cell_angle_beta 68.645005
_cell_angle_gamma 90.000000
_cell_volume 2370.795226
_symmetry_space_group_name_H-M "C 2/C"
_symmetry_group_IT_number 15
_symmetry_cell_setting 'monoclinic'
loop_
_space_group_symop_operation_xyz
x,y,z
-x,y,1/2-z
-x,-y,-z
x,-y,1/2+z
1/2+x,1/2+y,z
1/2-x,1/2+y,1/2-z
1/2-x,1/2-y,-z
1/2+x,1/2-y,1/2+z
loop_
_atom_site_type_symbol
_atom_site_label
_atom_site_fract_x
_atom_site_fract_y
_atom_site_fract_z
Si Si1 0.528787 0.872649 0.974027
Si Si2 0.341448 0.951162 0.351651
Si Si3 0.809006 0.425180 0.638993
Si Si4 0.337897 0.695145 0.305059
Si Si5 0.061300 0.951669 0.608087
Si Si6 0.951339 0.166753 0.014101
Si Si7 0.500000 0.091973 0.750000
O O1 0.477258 0.785032 0.932898
O O2 0.517314 0.828168 0.122979
O O3 0.613936 0.862709 0.883631
O O4 0.500000 0.000000 0.000000
O O5 0.314013 0.992783 0.504787
O O6 0.336257 0.817739 0.362970
O O7 0.427820 0.987094 0.275792
O O8 0.294433 0.994098 0.266082
O O9 0.744491 0.335646 0.680242
O O10 0.365199 0.608664 0.391203
O O11 0.389649 0.692835 0.153887
O O12 0.000000 0.956118 0.750000
O O13 0.027634 0.887524 0.513388
O O14 0.083435 0.079541 0.559721
#
# Coordination Sequence:
#
# PCOD8132311 Si02
#       7
#     8   8   8   8   8   8   4
#     4  11  20  39  63  91 123 171 213 272 320 393
#     4  11  23  42  66  97 128 178 221 274 331 398
#     4  11  25  40  66  99 136 170 226 270 338 396
#     4  11  22  41  67  91 132 177 216 273 341 402
#     4   9  20  38  60  94 119 171 218 268 320 393
#     4  10  20  37  66  89 127 161 226 268 322 385
#     4  10  18  36  64  84 120 162 224 254 312 388
#
# _framework density 21.933568999999999
#
# number of rings (size 3 to 8) (size 9 to 14) (size 15 to 20)
#    0.000    1.538    3.077    2.308    4.308    0.000 
#    6.923    2.308    0.000    0.000    0.000    0.000 
#    0.000    0.000    0.000    0.000    0.000    0.000 
#
# Total GULP energy -322163.975724 kJ/mol
# GULP energy per Si atom -12390.922143 kJ/mol
# Density = 2.188365 g / cm^3
# Si number density = 21.933569 Si / 1000 Ang^3
#
#
#
# Elastic Constant Matrix: (Units=GPa)
#
#
# Indices 1 2 3 4 5 6 
#
# 1 112.0036 47.1304 28.8039 0.0000 -12.7731 0.0000
# 2 47.1304 129.1723 28.7194 0.0000 5.5109 0.0000
# 3 28.8039 28.7194 67.8387 0.0000 14.6370 0.0000
# 4 0.0000 0.0000 0.0000 20.5266 0.0000 8.6682
# 5 -12.7731 5.5109 14.6370 0.0000 31.8415 0.0000
# 6 0.0000 0.0000 0.0000 8.6682 0.0000 23.4171
#
#
#
# Elastic Compliance Matrix: (Units=1/GPa)
#
#
# Indices 1 2 3 4 5 6 
#
# 1 0.012980 -0.003826 -0.005726 0.000000 0.008501 0.000000
# 2 -0.003826 0.009675 -0.001975 0.000000 -0.002301 0.000000
# 3 -0.005726 -0.001975 0.020459 0.000000 -0.011360 0.000000
# 4 0.000000 0.000000 0.000000 0.057743 0.000000 -0.021374
# 5 0.008501 -0.002301 -0.011360 0.000000 0.040436 0.000000
# 6 0.000000 0.000000 0.000000 -0.021374 0.000000 0.050616
#
#
# Mechanical properties :
#
#
# Convention : Reuss Voigt Hill
#
# Bulk Modulus (GPa) = 49.84788 57.59134 53.71961
# Shear Modulus (GPa) = 22.55817 28.78111 25.66964
#
# Velocity S-wave (km/s) = 3.21047 3.62635 3.42473
# Velocity P-wave (km/s) = 6.04309 6.62179 6.33904
#
# Compressibility (1/GPa) = 0.02006103
#
# Stress axis : x y z
#
# Youngs Moduli (GPa) = 77.04101 103.36250 48.87784
#
# Poissons Ratio (x) = 0.39542 0.27987
# Poissons Ratio (y) = 0.29473 0.09653
# Poissons Ratio (z) = 0.44113 0.20413
#
# Static dielectric constant tensor:
#      x y z
#    x 4.022230 0.000000 0.111870 
#    y 0.000000 4.012850 0.000000 
#    z 0.111870 0.000000 4.158540 
# 
# 
# High freq. dielectric constant tensor:
#      x y z
#    x 1.851940 0.000000 -0.004600 
#    y 0.000000 1.844680 0.000000 
#    z -0.004600 0.000000 1.860960 
# 
# From -- ./inp_files/110933.got.cif
#   From: 2010.06.25/outbox.cif.g09.slc.cpg/sg15_56_cif.got.tgz:110933.got - 2010.06.28 07:06:18.
