data_PCOD8132132
_publ_section_title
;
Structure prediction by ZEFSAII (Michael W. Deem and Ramdas Pophale) SiO2 
 PCOD8132132
Probable space group: C 2/C
;
_chemical_formula_sum "Si O2"
_cell_formula_units_Z 56
_cell_length_a 28.017285
_cell_length_b 16.886286
_cell_length_c 17.628822
_cell_angle_alpha 90.000000
_cell_angle_beta 158.257861
_cell_angle_gamma 90.000000
_cell_volume 3089.510204
_symmetry_space_group_name_H-M "C 2/C"
_symmetry_group_IT_number 15
_symmetry_cell_setting 'monoclinic'
loop_
_space_group_symop_operation_xyz
x,y,z
-x,y,1/2-z
-x,-y,-z
x,-y,1/2+z
1/2+x,1/2+y,z
1/2-x,1/2+y,1/2-z
1/2-x,1/2-y,-z
1/2+x,1/2-y,1/2+z
loop_
_atom_site_type_symbol
_atom_site_label
_atom_site_fract_x
_atom_site_fract_y
_atom_site_fract_z
Si Si1 0.626683 0.452141 0.987262
Si Si2 0.872257 0.866699 0.011564
Si Si3 0.672457 0.232109 0.310671
Si Si4 0.271153 0.830941 0.107572
Si Si5 0.655289 0.325254 0.146021
Si Si6 0.043193 0.722700 0.732288
Si Si7 0.107222 0.736480 0.574158
O O1 0.661656 0.542453 0.055331
O O2 0.744671 0.411629 0.114875
O O3 0.605306 0.408347 0.037287
O O4 0.500000 0.444794 0.750000
O O5 0.749458 0.829847 0.872905
O O6 0.896805 0.824878 0.966941
O O7 0.000000 0.856621 0.250000
O O8 0.750000 0.250000 0.500000
O O9 0.640705 0.313219 0.215279
O O10 0.534605 0.197268 0.131933
O O11 0.376199 0.844218 0.195361
O O12 0.330866 0.762819 0.250472
O O13 0.135360 0.799289 0.876179
O O14 0.807883 0.319125 0.355063
O O15 0.583927 0.251560 0.999212
O O16 0.000000 0.688007 0.750000
#
# Coordination Sequence:
#
# PCOD8132132 Si02
#       7
#     8   8   8   8   8   8   8
#     4  10  18  36  56  83 117 143 177 227 295 341
#     4  10  21  35  59  81 108 148 186 234 277 332
#     4  11  21  36  57  79 108 145 203 231 265 320
#     4  10  19  30  56  82 111 145 180 222 280 338
#     4  10  19  33  56  81 111 142 183 230 276 328
#     4  11  17  30  52  87 112 138 182 227 274 330
#     4  10  19  34  54  82 102 145 191 227 268 320
#
# _framework density 18.12585
#
# number of rings (size 3 to 8) (size 9 to 14) (size 15 to 20)
#    0.000    1.714    7.143    0.000    0.000    0.000 
#    0.000    3.571    6.286    0.000    3.714    0.000 
#    0.000    0.000    0.000    0.000    0.000    0.000 
#
# Total GULP energy -346975.134944 kJ/mol
# GULP energy per Si atom -12391.969105 kJ/mol
# Density = 1.808460 g / cm^3
# Si number density = 18.125850 Si / 1000 Ang^3
#
#
#
# Elastic Constant Matrix: (Units=GPa)
#
#
# Indices 1 2 3 4 5 6 
#
# 1 108.9672 33.8139 41.1533 0.0000 -2.1886 0.0000
# 2 33.8139 94.3093 30.8274 0.0000 -6.6815 0.0000
# 3 41.1533 30.8274 96.9093 0.0000 2.8810 0.0000
# 4 0.0000 0.0000 0.0000 20.6969 0.0000 -2.2721
# 5 -2.1886 -6.6815 2.8810 0.0000 41.0591 0.0000
# 6 0.0000 0.0000 0.0000 -2.2721 0.0000 22.3254
#
#
#
# Elastic Compliance Matrix: (Units=1/GPa)
#
#
# Indices 1 2 3 4 5 6 
#
# 1 0.011581 -0.002800 -0.004040 0.000000 0.000445 0.000000
# 2 -0.002800 0.012712 -0.002918 0.000000 0.002124 0.000000
# 3 -0.004040 -0.002918 0.013011 0.000000 -0.001603 0.000000
# 4 0.000000 0.000000 0.000000 0.048862 0.000000 0.004973
# 5 0.000445 0.002124 -0.001603 0.000000 0.024837 0.000000
# 6 0.000000 0.000000 0.000000 0.004973 0.000000 0.045298
#
#
# Mechanical properties :
#
#
# Convention : Reuss Voigt Hill
#
# Bulk Modulus (GPa) = 56.22201 56.86388 56.54294
# Shear Modulus (GPa) = 27.51102 29.77572 28.64337
#
# Velocity S-wave (km/s) = 3.90009 4.05745 3.97955
# Velocity P-wave (km/s) = 7.16700 7.30687 7.23727
#
# Compressibility (1/GPa) = 0.01778663
#
# Stress axis : x y z
#
# Youngs Moduli (GPa) = 86.34978 78.66879 76.86085
#
# Poissons Ratio (x) = 0.22027 0.31055
# Poissons Ratio (y) = 0.24178 0.22426
# Poissons Ratio (z) = 0.34889 0.22953
#
# Static dielectric constant tensor:
#      x y z
#    x 3.692270 0.000000 0.094390 
#    y 0.000000 3.027180 0.000000 
#    z 0.094390 0.000000 3.575270 
# 
# 
# High freq. dielectric constant tensor:
#      x y z
#    x 1.713680 0.000000 0.005680 
#    y 0.000000 1.642620 0.000000 
#    z 0.005680 0.000000 1.718440 
# 
# From -- ./inp_files/154558.got.cif
#   From: 2010.06.25/outbox.cif.g09.slc.cpg/sg15_78_cif.got.tgz:154558.got - 2010.06.28 07:06:18.
