data_PCOD8132481
_publ_section_title
;
Structure prediction by ZEFSAII (Michael W. Deem and Ramdas Pophale) SiO2 
 PCOD8132481
Probable space group: C 2/C
;
_chemical_formula_sum "Si O2"
_cell_formula_units_Z 44
_cell_length_a 10.805704
_cell_length_b 16.919453
_cell_length_c 23.768389
_cell_angle_alpha 90.000000
_cell_angle_beta 148.276452
_cell_angle_gamma 90.000000
_cell_volume 2284.953104
_symmetry_space_group_name_H-M "C 2/C"
_symmetry_group_IT_number 15
_symmetry_cell_setting 'monoclinic'
loop_
_space_group_symop_operation_xyz
x,y,z
-x,y,1/2-z
-x,-y,-z
x,-y,1/2+z
1/2+x,1/2+y,z
1/2-x,1/2+y,1/2-z
1/2-x,1/2-y,-z
1/2+x,1/2-y,1/2+z
loop_
_atom_site_type_symbol
_atom_site_label
_atom_site_fract_x
_atom_site_fract_y
_atom_site_fract_z
Si Si1 0.958195 0.139461 0.602227
Si Si2 0.999877 0.591827 0.369857
Si Si3 0.277778 0.772415 0.855902
Si Si4 0.210267 0.054398 0.792766
Si Si5 0.000000 0.658968 0.250000
Si Si6 0.835201 0.707128 0.911751
O O1 0.774666 0.096373 0.490569
O O2 0.823093 0.196481 0.593636
O O3 0.136734 0.188708 0.633832
O O4 0.105921 0.073403 0.691531
O O5 0.850304 0.658946 0.341941
O O6 0.913958 0.508492 0.361503
O O7 0.971323 0.600973 0.291979
O O8 0.000000 0.771058 0.750000
O O9 0.393959 0.784337 0.963062
O O10 0.316937 0.132759 0.863082
O O11 0.000000 0.019165 0.750000
O O12 0.233843 0.714310 0.343016
#
# Coordination Sequence:
#
# PCOD8132481 Si02
#       6
#     8   8   8   8   4   8
#     4  10  19  39  60  84 120 161 199 246 303 361
#     4  11  22  36  62  89 121 159 205 243 304 360
#     4  11  21  36  61  93 121 151 204 261 290 346
#     4  10  21  37  61  92 120 153 198 257 304 349
#     4  12  18  40  66  86 114 168 214 228 288 388
#     4  10  18  37  67  86 116 162 205 240 300 364
#
# _framework density 19.256412000000001
#
# number of rings (size 3 to 8) (size 9 to 14) (size 15 to 20)
#    0.000    1.455    6.364    1.636    0.000    8.000 
#    1.636    6.364    0.000    0.000    0.000    0.000 
#    0.000    0.000    0.000    0.000    0.000    0.000 
#
# Total GULP energy -272813.271508 kJ/mol
# GULP energy per Si atom -12400.603250 kJ/mol
# Density = 1.921258 g / cm^3
# Si number density = 19.256412 Si / 1000 Ang^3
#
#
#
# Elastic Constant Matrix: (Units=GPa)
#
#
# Indices 1 2 3 4 5 6 
#
# 1 73.2199 43.6165 53.6866 0.0000 -13.6372 0.0001
# 2 43.6165 69.6112 29.1773 -0.0002 -2.0092 0.0001
# 3 53.6866 29.1773 151.4340 -0.0008 -2.6307 0.0007
# 4 0.0000 -0.0002 -0.0008 24.6222 0.0002 1.3649
# 5 -13.6372 -2.0092 -2.6307 0.0002 35.1614 -0.0001
# 6 0.0001 0.0001 0.0007 1.3649 -0.0001 20.6774
#
#
#
# Elastic Compliance Matrix: (Units=1/GPa)
#
#
# Indices 1 2 3 4 5 6 
#
# 1 0.030457 -0.015593 -0.007613 -0.000001 0.010352 0.000000
# 2 -0.015593 0.023627 0.000895 0.000000 -0.004631 0.000000
# 3 -0.007613 0.000895 0.009091 0.000000 -0.002221 0.000000
# 4 -0.000001 0.000000 0.000000 0.040763 0.000000 -0.002691
# 5 0.010352 -0.004631 -0.002221 0.000000 0.032024 0.000000
# 6 0.000000 0.000000 0.000000 -0.002691 0.000000 0.048539
#
#
# Mechanical properties :
#
#
# Convention : Reuss Voigt Hill
#
# Bulk Modulus (GPa) = 53.90075 60.80284 57.35179
# Shear Modulus (GPa) = 21.24870 27.27785 24.26328
#
# Velocity S-wave (km/s) = 3.32544 3.76780 3.55351
# Velocity P-wave (km/s) = 6.54191 7.11143 6.83260
#
# Compressibility (1/GPa) = 0.01855262
#
# Stress axis : x y z
#
# Youngs Moduli (GPa) = 32.83358 42.32455 109.99321
#
# Poissons Ratio (x) = 0.65999 0.83741
# Poissons Ratio (y) = 0.51199 -0.09850
# Poissons Ratio (z) = 0.24997 -0.03790
#
# Static dielectric constant tensor:
#      x y z
#    x 3.314390 0.000000 -0.212620 
#    y 0.000000 3.368530 0.000000 
#    z -0.212620 0.000000 3.921730 
# 
# 
# High freq. dielectric constant tensor:
#      x y z
#    x 1.724480 0.000000 -0.019490 
#    y 0.000000 1.736460 0.000000 
#    z -0.019490 0.000000 1.766350 
# 
# From -- ./inp_files/86097.got.cif
#   From: 2010.06.25/outbox.cif.g09.slc.cpg/sg15_44_cif.got.tgz:86097.got - 2010.06.28 07:06:18.
