data_PCOD8132794
_publ_section_title
;
Structure prediction by ZEFSAII (Michael W. Deem and Ramdas Pophale) SiO2 
 PCOD8132794
Probable space group: C 2/C
;
_chemical_formula_sum "Si O2"
_cell_formula_units_Z 44
_cell_length_a 7.940702
_cell_length_b 15.526715
_cell_length_c 25.191616
_cell_angle_alpha 90.000000
_cell_angle_beta 41.129089
_cell_angle_gamma 90.000000
_cell_volume 2042.962887
_symmetry_space_group_name_H-M "C 2/C"
_symmetry_group_IT_number 15
_symmetry_cell_setting 'monoclinic'
loop_
_space_group_symop_operation_xyz
x,y,z
-x,y,1/2-z
-x,-y,-z
x,-y,1/2+z
1/2+x,1/2+y,z
1/2-x,1/2+y,1/2-z
1/2-x,1/2-y,-z
1/2+x,1/2-y,1/2+z
loop_
_atom_site_type_symbol
_atom_site_label
_atom_site_fract_x
_atom_site_fract_y
_atom_site_fract_z
Si Si1 0.500000 0.950120 0.750000
Si Si2 0.712333 0.569867 0.663100
Si Si3 0.280268 0.894010 0.699464
Si Si4 0.143606 0.343507 0.527408
Si Si5 0.331444 0.154453 0.997146
Si Si6 0.518667 0.509201 0.594918
O O1 0.336262 0.888786 0.749181
O O2 0.708141 0.008853 0.668802
O O3 0.500000 0.619091 0.750000
O O4 0.809054 0.493249 0.677001
O O5 0.610576 0.526305 0.633183
O O6 0.942184 0.634565 0.597874
O O7 0.505728 0.843864 0.616755
O O8 0.000000 0.856836 0.750000
O O9 0.250000 0.250000 0.500000
O O10 0.369206 0.414657 0.468880
O O11 0.931899 0.354978 0.532784
O O12 0.250000 0.250000 0.000000
O O13 0.109332 0.082267 0.048043
#
# Coordination Sequence:
#
# PCOD8132794 Si02
#       6
#     4   8   8   8   8   8
#     4  12  24  36  74 102 122 178 230 266 328 400
#     4  10  18  42  70  87 128 180 211 266 337 382
#     4  11  21  43  69  94 132 176 217 273 338 383
#     4  11  24  44  65  95 136 176 214 277 331 385
#     4  11  23  41  67  98 128 176 223 263 330 399
#     4  11  22  43  66  94 131 176 222 261 332 398
#
# _framework density 21.537347
#
# number of rings (size 3 to 8) (size 9 to 14) (size 15 to 20)
#    0.000    1.091    7.273    1.091    2.545    2.182 
#    3.273    1.818    0.000    0.000    0.000    0.000 
#    0.000    0.000    0.000    0.000    0.000    0.000 
#
# Total GULP energy -272663.359216 kJ/mol
# GULP energy per Si atom -12393.789055 kJ/mol
# Density = 2.148833 g / cm^3
# Si number density = 21.537347 Si / 1000 Ang^3
#
#
#
# Elastic Constant Matrix: (Units=GPa)
#
#
# Indices 1 2 3 4 5 6 
#
# 1 78.5448 10.6028 36.0787 -0.0115 -9.8692 0.0096
# 2 10.6028 122.3779 64.0593 -0.0015 -22.7539 -0.0012
# 3 36.0787 64.0593 177.4852 -0.0147 -22.2351 0.0086
# 4 -0.0115 -0.0015 -0.0147 28.9172 0.0102 -5.9498
# 5 -9.8692 -22.7539 -22.2351 0.0102 40.3623 -0.0075
# 6 0.0096 -0.0012 0.0086 -5.9498 -0.0075 21.2600
#
#
#
# Elastic Compliance Matrix: (Units=1/GPa)
#
#
# Indices 1 2 3 4 5 6 
#
# 1 0.014239 0.000688 -0.002855 0.000003 0.002297 -0.000004
# 2 0.000688 0.010730 -0.003473 -0.000002 0.004304 0.000003
# 3 -0.002855 -0.003473 0.007664 0.000002 0.001566 -0.000001
# 4 0.000003 -0.000002 0.000002 0.036694 -0.000007 0.010269
# 5 0.002297 0.004304 0.001566 -0.000007 0.028626 0.000007
# 6 -0.000004 0.000003 -0.000001 0.010269 0.000007 0.049911
#
#
# Mechanical properties :
#
#
# Convention : Reuss Voigt Hill
#
# Bulk Modulus (GPa) = 46.83365 66.65438 56.74401
# Shear Modulus (GPa) = 30.07277 35.95236 33.01256
#
# Velocity S-wave (km/s) = 3.74077 4.09014 3.91935
# Velocity P-wave (km/s) = 6.36006 7.30213 6.84732
#
# Compressibility (1/GPa) = 0.02135217
#
# Stress axis : x y z
#
# Youngs Moduli (GPa) = 70.23117 93.19464 130.47194
#
# Poissons Ratio (x) = -0.06410 0.37249
# Poissons Ratio (y) = -0.04830 0.45319
# Poissons Ratio (z) = 0.20051 0.32371
#
# Static dielectric constant tensor:
#      x y z
#    x 3.652540 -0.000020 -0.158750 
#    y -0.000020 3.535650 0.000410 
#    z -0.158750 0.000410 4.034610 
# 
# 
# High freq. dielectric constant tensor:
#      x y z
#    x 1.837560 0.000000 -0.000390 
#    y 0.000000 1.811500 0.000000 
#    z -0.000390 0.000000 1.874840 
# 
# From -- ./inp_files/188735.got.cif
#   From: 2010.06.25/outbox.cif.g09.slc.cpg/sg15_95_cif.got.tgz:188735.got - 2010.06.28 07:06:18.
