data_PCOD8132573
_publ_section_title
;
Structure prediction by ZEFSAII (Michael W. Deem and Ramdas Pophale) SiO2 
 PCOD8132573
Probable space group: C 2/C
;
_chemical_formula_sum "Si O2"
_cell_formula_units_Z 44
_cell_length_a 9.499681
_cell_length_b 23.082385
_cell_length_c 14.115781
_cell_angle_alpha 90.000000
_cell_angle_beta 43.091246
_cell_angle_gamma 90.000000
_cell_volume 2114.552378
_symmetry_space_group_name_H-M "C 2/C"
_symmetry_group_IT_number 15
_symmetry_cell_setting 'monoclinic'
loop_
_space_group_symop_operation_xyz
x,y,z
-x,y,1/2-z
-x,-y,-z
x,-y,1/2+z
1/2+x,1/2+y,z
1/2-x,1/2+y,1/2-z
1/2-x,1/2-y,-z
1/2+x,1/2-y,1/2+z
loop_
_atom_site_type_symbol
_atom_site_label
_atom_site_fract_x
_atom_site_fract_y
_atom_site_fract_z
Si Si1 0.246183 0.611506 0.963884
Si Si2 0.869024 0.555663 0.082627
Si Si3 0.138804 0.632596 0.595701
Si Si4 0.986808 0.814208 0.482356
Si Si5 0.000000 0.987429 0.250000
Si Si6 0.302905 0.205356 0.669200
O O1 0.324371 0.639000 0.022520
O O2 0.376862 0.552808 0.883927
O O3 0.278933 0.655363 0.860273
O O4 0.999527 0.597084 0.089603
O O5 0.654169 0.531431 0.230739
O O6 0.827619 0.585465 0.001681
O O7 0.000000 0.500000 0.000000
O O8 0.363956 0.653909 0.516936
O O9 0.000000 0.606108 0.750000
O O10 0.014352 0.687604 0.616597
O O11 0.121713 0.784540 0.333784
O O12 0.843366 0.765712 0.598503
#
# Coordination Sequence:
#
# PCOD8132573 Si02
#       6
#     8   8   8   8   4   8
#     4  10  19  36  62  87 116 159 199 242 300 364
#     4   9  20  37  63  85 110 157 203 242 296 356
#     4   9  20  37  59  85 121 160 198 240 294 362
#     4  11  20  36  61  90 123 159 196 245 298 360
#     4  10  18  38  64  80 114 156 198 240 304 348
#     4  10  20  36  59  88 124 161 198 233 305 365
#
# _framework density 20.808185999999999
#
# number of rings (size 3 to 8) (size 9 to 14) (size 15 to 20)
#    0.000    2.182    1.818    1.091    2.545    0.000 
#    6.545    3.636    0.000    0.000    0.000    0.000 
#    0.000    0.000    0.000    0.000    0.000    0.000 
#
# Total GULP energy -272646.203680 kJ/mol
# GULP energy per Si atom -12393.009258 kJ/mol
# Density = 2.076083 g / cm^3
# Si number density = 20.808186 Si / 1000 Ang^3
#
#
#
# Elastic Constant Matrix: (Units=GPa)
#
#
# Indices 1 2 3 4 5 6 
#
# 1 157.7423 70.3347 46.2352 0.0000 -22.0769 0.0000
# 2 70.3347 112.4647 56.6555 0.0000 -10.1340 0.0000
# 3 46.2352 56.6555 51.2651 0.0000 -14.2503 0.0000
# 4 0.0000 0.0000 0.0000 24.2992 0.0000 0.1912
# 5 -22.0769 -10.1340 -14.2503 0.0000 28.0091 0.0000
# 6 0.0000 0.0000 0.0000 0.1912 0.0000 29.0985
#
#
#
# Elastic Compliance Matrix: (Units=1/GPa)
#
#
# Indices 1 2 3 4 5 6 
#
# 1 0.009701 -0.004275 -0.002713 0.000000 0.004720 0.000000
# 2 -0.004275 0.022485 -0.022909 0.000000 -0.006890 0.000000
# 3 -0.002713 -0.022909 0.051681 0.000000 0.015867 0.000000
# 4 0.000000 0.000000 0.000000 0.041156 0.000000 -0.000270
# 5 0.004720 -0.006890 0.015867 0.000000 0.045003 0.000000
# 6 0.000000 0.000000 0.000000 -0.000270 0.000000 0.034368
#
#
# Mechanical properties :
#
#
# Convention : Reuss Voigt Hill
#
# Bulk Modulus (GPa) = 41.53831 74.21366 57.87598
# Shear Modulus (GPa) = 18.36802 26.16450 22.26626
#
# Velocity S-wave (km/s) = 2.97430 3.54985 3.27474
# Velocity P-wave (km/s) = 5.63925 7.24879 6.49408
#
# Compressibility (1/GPa) = 0.02407416
#
# Stress axis : x y z
#
# Youngs Moduli (GPa) = 103.07772 44.47378 19.34941
#
# Poissons Ratio (x) = 0.19014 0.05249
# Poissons Ratio (y) = 0.44069 0.44327
# Poissons Ratio (z) = 0.27962 1.01884
#
# Static dielectric constant tensor:
#      x y z
#    x 4.433010 0.000000 -0.470010 
#    y 0.000000 3.694210 0.000000 
#    z -0.470010 0.000000 3.564900 
# 
# 
# High freq. dielectric constant tensor:
#      x y z
#    x 1.831870 0.000000 -0.027500 
#    y 0.000000 1.813560 0.000000 
#    z -0.027500 0.000000 1.782090 
# 
# From -- ./inp_files/78718.got.cif
#   From: 2010.06.25/outbox.cif.g09.slc.cpg/sg15_40_cif.got.tgz:78718.got - 2010.06.28 07:06:18.
