data_PCOD8132648
_publ_section_title
;
Structure prediction by ZEFSAII (Michael W. Deem and Ramdas Pophale) SiO2 
 PCOD8132648
Probable space group: C 2/C
;
_chemical_formula_sum "Si O2"
_cell_formula_units_Z 60
_cell_length_a 11.931457
_cell_length_b 15.211154
_cell_length_c 17.155215
_cell_angle_alpha 90.000000
_cell_angle_beta 84.246746
_cell_angle_gamma 90.000000
_cell_volume 3097.837724
_symmetry_space_group_name_H-M "C 2/C"
_symmetry_group_IT_number 15
_symmetry_cell_setting 'monoclinic'
loop_
_space_group_symop_operation_xyz
x,y,z
-x,y,1/2-z
-x,-y,-z
x,-y,1/2+z
1/2+x,1/2+y,z
1/2-x,1/2+y,1/2-z
1/2-x,1/2-y,-z
1/2+x,1/2-y,1/2+z
loop_
_atom_site_type_symbol
_atom_site_label
_atom_site_fract_x
_atom_site_fract_y
_atom_site_fract_z
Si Si1 0.872643 0.455042 0.923265
Si Si2 0.157727 0.023785 0.187518
Si Si3 0.615264 0.015848 0.897553
Si Si4 0.651780 0.815172 0.303058
Si Si5 0.727736 0.420775 0.330366
Si Si6 0.000000 0.827906 0.750000
Si Si7 0.684491 0.761439 0.585481
Si Si8 0.510261 0.360238 0.158544
O O1 0.800332 0.535470 0.893938
O O2 0.825634 0.363802 0.893788
O O3 0.004157 0.458396 0.891752
O O4 0.863425 0.454962 0.016250
O O5 0.086365 0.113270 0.194063
O O6 0.275470 0.040107 0.135303
O O7 0.188266 0.995570 0.272845
O O8 0.085512 0.948681 0.149603
O O9 0.593031 0.101940 0.847360
O O10 0.696934 0.844968 0.215302
O O11 0.565528 0.734731 0.305265
O O12 0.755871 0.786408 0.347495
O O13 0.612688 0.377683 0.370711
O O14 0.750000 0.750000 0.500000
O O15 0.562733 0.713530 0.596934
O O16 0.500000 0.329204 0.250000
#
# Coordination Sequence:
#
# PCOD8132648 Si02
#       8
#     8   8   8   8   8   4   8   8
#     4  11  23  39  64  90 118 165 208 243 308 382
#     4  10  19  39  60  86 120 159 198 252 311 357
#     4  10  22  44  59  83 133 160 192 258 310 368
#     4  11  22  40  61  89 127 158 203 259 310 354
#     4  10  20  40  63  89 120 161 208 252 312 366
#     4  12  22  34  64  90 118 158 210 260 302 372
#     4  12  22  40  63  91 125 164 208 253 310 372
#     4  10  18  39  61  83 126 159 194 263 308 347
#
# _framework density 19.368348999999998
#
# number of rings (size 3 to 8) (size 9 to 14) (size 15 to 20)
#    0.000    1.333    7.333    1.600    0.000    2.667 
#    7.200    1.333    0.000    4.000    0.000    0.000 
#    0.000    0.000    0.000    0.000    0.000    0.000 
#
# Total GULP energy -371962.757039 kJ/mol
# GULP energy per Si atom -12398.758568 kJ/mol
# Density = 1.932427 g / cm^3
# Si number density = 19.368349 Si / 1000 Ang^3
#
#
#
# Elastic Constant Matrix: (Units=GPa)
#
#
# Indices 1 2 3 4 5 6 
#
# 1 110.3299 42.7342 42.1601 0.0000 -30.2242 0.0000
# 2 42.7342 103.3476 34.5040 0.0000 -17.8323 0.0000
# 3 42.1601 34.5040 54.6128 0.0000 -26.5661 0.0000
# 4 0.0000 0.0000 0.0000 16.3788 0.0000 -1.2691
# 5 -30.2242 -17.8323 -26.5661 0.0000 31.3817 0.0000
# 6 0.0000 0.0000 0.0000 -1.2691 0.0000 46.5076
#
#
#
# Elastic Compliance Matrix: (Units=1/GPa)
#
#
# Indices 1 2 3 4 5 6 
#
# 1 0.014346 -0.002737 -0.005748 0.000000 0.007396 0.000000
# 2 -0.002737 0.012794 -0.006318 0.000000 -0.000714 0.000000
# 3 -0.005748 -0.006318 0.037913 0.000000 0.022969 0.000000
# 4 0.000000 0.000000 0.000000 0.061184 0.000000 0.001670
# 5 0.007396 -0.000714 0.022969 0.000000 0.058027 0.000000
# 6 0.000000 0.000000 0.000000 0.001670 0.000000 0.021547
#
#
# Mechanical properties :
#
#
# Convention : Reuss Voigt Hill
#
# Bulk Modulus (GPa) = 28.21096 56.34297 42.27696
# Shear Modulus (GPa) = 20.22385 28.77976 24.50181
#
# Velocity S-wave (km/s) = 3.23487 3.85894 3.56060
# Velocity P-wave (km/s) = 5.34318 7.00062 6.22729
#
# Compressibility (1/GPa) = 0.03544722
#
# Stress axis : x y z
#
# Youngs Moduli (GPa) = 69.70349 78.16290 26.37632
#
# Poissons Ratio (x) = 0.21393 0.15162
# Poissons Ratio (y) = 0.19078 0.16663
# Poissons Ratio (z) = 0.40068 0.49380
#
# Static dielectric constant tensor:
#      x y z
#    x 3.924140 0.000000 -0.144680 
#    y 0.000000 3.482080 0.000000 
#    z -0.144680 0.000000 3.348860 
# 
# 
# High freq. dielectric constant tensor:
#      x y z
#    x 1.771380 0.000000 -0.012950 
#    y 0.000000 1.748170 0.000000 
#    z -0.012950 0.000000 1.728970 
# 
# From -- ./inp_files/197812.got.cif
#   From: 2010.06.25/outbox.cif.g09.slc.cpg/sg15_99_cif.got.tgz:197812.got - 2010.06.28 07:06:18.
